#------------------------------------------------------------------------------
#$Date: 2022-07-07 00:55:24 +0300 (Thu, 07 Jul 2022) $
#$Revision: 276699 $
#$URL: file:///home/coder/svn-repositories/cod/cif/7/13/03/7130329.cif $
#------------------------------------------------------------------------------
#
# This file is available in the Crystallography Open Database (COD),
# http://www.crystallography.net/
#
# All data on this site have been placed in the public domain by the
# contributors.
#
data_7130329
loop_
_publ_author_name
'Chen, Xiaoyu'
'Pei, Congcong'
'Liu, Bo'
'Li, Jingya'
'Zou, Dapeng'
'Wu, Yangjie'
'Wu, Yusheng'
_publ_section_title
;
 Copper-Assisted Trifluoromethylthiolation/Radical Cascade Cyclization of
 Alkynes to Construct SCF3-Containing Dioxodibenzothiazepines
;
_journal_name_full               'Chemical Communications'
_journal_paper_doi               10.1039/D2CC02171D
_journal_year                    2022
_chemical_formula_moiety         'C17 H14 F3 N O2 S2'
_chemical_formula_sum            'C17 H14 F3 N O2 S2'
_chemical_formula_weight         385.41
_space_group_crystal_system      triclinic
_space_group_IT_number           2
_space_group_name_Hall           '-P 1'
_space_group_name_H-M_alt        'P -1'
_atom_sites_solution_hydrogens   geom
_atom_sites_solution_primary     direct
_audit_creation_date             2021-10-21
_audit_creation_method
;
Olex2 1.2
(compiled 2018.05.29 svn.r3508 for OlexSys, GUI svn.r5506)
;
_audit_update_record
;
2022-02-22 deposited with the CCDC.	2022-07-06 downloaded from the CCDC.
;
_cell_angle_alpha                82.722(7)
_cell_angle_beta                 74.531(8)
_cell_angle_gamma                73.505(8)
_cell_formula_units_Z            2
_cell_length_a                   9.4571(9)
_cell_length_b                   9.5073(8)
_cell_length_c                   10.3091(9)
_cell_measurement_reflns_used    2258
_cell_measurement_temperature    293(2)
_cell_measurement_theta_max      70.0330
_cell_measurement_theta_min      4.4460
_cell_volume                     855.26(14)
_computing_cell_refinement       'CrysAlisPro 1.171.40.53 (Rigaku OD, 2019)'
_computing_data_collection       'CrysAlisPro 1.171.40.53 (Rigaku OD, 2019)'
_computing_data_reduction        'CrysAlisPro 1.171.40.53 (Rigaku OD, 2019)'
_computing_molecular_graphics    'Olex2 (Dolomanov et al., 2009)'
_computing_publication_material  'Olex2 (Dolomanov et al., 2009)'
_computing_structure_refinement  'ShelXL (Sheldrick, 2015)'
_computing_structure_solution    'ShelXS (Sheldrick, 2008)'
_diffrn_ambient_temperature      293(2)
_diffrn_detector                 'CCD plate'
_diffrn_detector_area_resol_mean 16.2312
_diffrn_detector_type            Eos
_diffrn_measured_fraction_theta_full 1.000
_diffrn_measured_fraction_theta_max 1.000
_diffrn_measurement_details
;
List of Runs (angles in degrees, time in seconds):

  # Type    Start    End  Width  t~exp~   \w     \q     \k     \f   Frames
#--------------------------------------------------------------------------
  1  \w   -104.00 -11.00   1.00    1.00    --  -33.50 -37.00   0.00   93
  2  \w   -104.00 -11.00   1.00    1.00    --  -33.50 -37.00 -90.00   93
  3  \w   -102.00 -15.00   1.00    1.00    --  -33.50 -57.00 -90.00   87
  4  \w    -34.00  59.00   1.00    1.00    --   36.47 -37.00  60.00   93
  5  \w    -32.00  55.00   1.00    1.00    --   36.47 -57.00 150.00   87
  6  \w     -4.00  77.00   1.00    1.00    --   36.47 -99.00-180.00   81
  7  \w     -1.00 109.00   1.00    1.00    --   36.47  19.00 -90.00  110
  8  \w     57.00 107.00   1.00    1.00    --   36.47 178.00-120.00   50
  9  \w     21.00  77.00   1.00    1.00    --   36.47 -99.00 -60.00   56
 10  \w     18.00  62.00   1.00    1.00    --   36.47  57.00 -60.00   44
 11  \w     65.00 103.00   1.00    1.00    --   36.47  77.00  60.00   38
 12  \w      8.00  53.00   1.00    1.00    --   36.47  77.00  60.00   45
 13  \w     40.00 128.00   1.00    1.25    --  108.00 -45.00  60.00   88
 14  \w     56.00 110.00   1.00    1.25    --  108.00 -94.00  60.00   54
 15  \w     41.00 124.00   1.00    1.25    --  108.00 -45.00-150.00   83
 16  \w    120.00 146.00   1.00    1.25    --  108.00 111.00 150.00   26
 17  \w     61.00 136.00   1.00    1.25    --  108.00 -77.00 120.00   75
 18  \w     80.00 112.00   1.00    1.25    --  108.00-111.00-120.00   32
 19  \w     89.00 172.00   1.00    1.25    --  108.00  61.00-150.00   83
 20  \w     75.00 122.00   1.00    1.25    --  108.00 -45.00 120.00   47
 21  \w     93.00 135.00   1.00    1.25    --  108.00 178.00  30.00   42
 22  \w     40.00  71.00   1.00    1.25    --  108.00 -61.00  60.00   31
 23  \w     44.00 119.00   1.00    1.25    --  108.00 -45.00 -60.00   75
 24  \w     44.00 110.00   1.00    1.25    --  108.00 -94.00 -30.00   66
 25  \w     37.00 175.00   1.00    1.25    --  108.00   0.00-180.00  138
;
_diffrn_measurement_device       'four-circle diffractometer'
_diffrn_measurement_device_type  'Xcalibur, Eos, Gemini'
_diffrn_measurement_method       '\w scans'
_diffrn_orient_matrix_type
'CrysAlisPro convention (1999,Acta A55,543-557)'
_diffrn_orient_matrix_UB_11      0.0419263000
_diffrn_orient_matrix_UB_12      0.0949573000
_diffrn_orient_matrix_UB_13      0.0869372000
_diffrn_orient_matrix_UB_21      -0.1475810000
_diffrn_orient_matrix_UB_22      -0.0006368000
_diffrn_orient_matrix_UB_23      0.1087535000
_diffrn_orient_matrix_UB_31      0.0844428000
_diffrn_orient_matrix_UB_32      -0.1401030000
_diffrn_orient_matrix_UB_33      0.0687710000
_diffrn_radiation_monochromator  graphite
_diffrn_radiation_probe          x-ray
_diffrn_radiation_type           CuK\a
_diffrn_radiation_wavelength     1.54184
_diffrn_reflns_av_R_equivalents  0.0241
_diffrn_reflns_av_unetI/netI     0.0415
_diffrn_reflns_Laue_measured_fraction_full 1.000
_diffrn_reflns_Laue_measured_fraction_max 1.000
_diffrn_reflns_limit_h_max       11
_diffrn_reflns_limit_h_min       -8
_diffrn_reflns_limit_k_max       10
_diffrn_reflns_limit_k_min       -11
_diffrn_reflns_limit_l_max       12
_diffrn_reflns_limit_l_min       -10
_diffrn_reflns_number            6069
_diffrn_reflns_point_group_measured_fraction_full 1.000
_diffrn_reflns_point_group_measured_fraction_max 1.000
_diffrn_reflns_theta_full        67.067
_diffrn_reflns_theta_max         67.067
_diffrn_reflns_theta_min         4.457
_diffrn_source                   'fine-focus sealed X-ray tube'
_diffrn_source_type              'Enhance (Cu) X-ray Source'
_exptl_absorpt_coefficient_mu    3.216
_exptl_absorpt_correction_T_max  1.00000
_exptl_absorpt_correction_T_min  0.87111
_exptl_absorpt_correction_type   multi-scan
_exptl_absorpt_process_details
;
CrysAlisPro 1.171.40.53 (Rigaku Oxford Diffraction, 2019)
Empirical absorption correction using spherical harmonics,
 implemented in SCALE3 ABSPACK scaling algorithm.
;
_exptl_crystal_colour            colourless
_exptl_crystal_colour_primary    colourless
_exptl_crystal_density_diffrn    1.497
_exptl_crystal_description       block
_exptl_crystal_F_000             396
_exptl_crystal_size_max          0.17
_exptl_crystal_size_mid          0.14
_exptl_crystal_size_min          0.1
_refine_diff_density_max         0.291
_refine_diff_density_min         -0.300
_refine_diff_density_rms         0.051
_refine_ls_extinction_method     none
_refine_ls_goodness_of_fit_ref   1.066
_refine_ls_hydrogen_treatment    constr
_refine_ls_matrix_type           full
_refine_ls_number_parameters     228
_refine_ls_number_reflns         3063
_refine_ls_number_restraints     0
_refine_ls_restrained_S_all      1.066
_refine_ls_R_factor_all          0.0669
_refine_ls_R_factor_gt           0.0479
_refine_ls_shift/su_max          0.000
_refine_ls_shift/su_mean         0.000
_refine_ls_structure_factor_coef Fsqd
_refine_ls_weighting_details
'w=1/[\s^2^(Fo^2^)+(0.0672P)^2^+0.0905P] where P=(Fo^2^+2Fc^2^)/3'
_refine_ls_weighting_scheme      calc
_refine_ls_wR_factor_gt          0.1224
_refine_ls_wR_factor_ref         0.1418
_reflns_Friedel_coverage         0.000
_reflns_number_gt                2292
_reflns_number_total             3063
_reflns_threshold_expression     'I > 2\s(I)'
_cod_data_source_file            d2cc02171d2.cif
_cod_data_source_block           202110279
_cod_original_cell_volume        855.27(14)
_cod_database_code               7130329
_shelx_shelxl_version_number     2014/7
_chemical_oxdiff_formula         C30H3N1O4S1F3
_chemical_oxdiff_usercomment     r
_shelx_space_group_comment
;
The symmetry employed for this shelxl refinement is uniquely defined
by the following loop, which should always be used as a source of
symmetry information in preference to the above space-group names.
They are only intended as comments.
;
_shelx_estimated_absorpt_t_max   0.739
_shelx_estimated_absorpt_t_min   0.611
_reflns_odcompleteness_completeness 99.97
_reflns_odcompleteness_iscentric 1
_reflns_odcompleteness_theta     66.97
_olex2_refinement_description
;
1. Fixed Uiso
 At 1.2 times of:
  All C(H) groups
 At 1.5 times of:
  All C(H,H,H) groups
2.a Aromatic/amide H refined with riding coordinates:
 C1(H1), C2(H2), C3(H3), C4(H4), C10(H10), C11(H11), C13(H13), C15(H15)
2.b Idealised Me refined as rotating group:
 C14(H14A,H14B,H14C), C17(H17A,H17B,H17C)
;
_shelx_res_file
;
    202110279.res created by SHELXL-2014/7

TITL 202110279 in P-1 #2
REM reset to P-1 #2
CELL 1.54184 9.457083 9.507336 10.309142 82.7225 74.5309 73.505
ZERR 2 0.000875 0.000759 0.000908 0.0069 0.0079 0.0077
LATT 1
SFAC C H F N O S
UNIT 34 28 6 2 4 4

L.S. 4 0 0
PLAN  20
SIZE 0.1 0.14 0.17
MPLA C1 C14 C2 C4 C5 C6
MPLA C8 C9 C10 C11 C12 C13
BOND $h
conf
fmap 2
ACTA
SHEL 999 0.837
REM <olex2.extras>
REM <HklSrc "%.\\202110279.hkl">
REM </olex2.extras>

WGHT    0.067200    0.090500
FVAR       9.21543
C1    1    0.551076    0.150845    0.095639    11.00000    0.04453    0.06284 =
         0.05571   -0.01093   -0.01348   -0.00596
AFIX  43
H1    2    0.604246    0.075566    0.145088    11.00000   -1.20000
AFIX   0
C2    1    0.629030    0.214516   -0.019807    11.00000    0.04751    0.08540 =
         0.05600   -0.02013   -0.00360   -0.01421
AFIX  43
H2    2    0.734416    0.182258   -0.046807    11.00000   -1.20000
AFIX   0
C3    1    0.551757    0.324531   -0.094207    11.00000    0.05993    0.08312 =
         0.04966   -0.00694   -0.00386   -0.02651
AFIX  43
H3    2    0.605169    0.367456   -0.170563    11.00000   -1.20000
AFIX   0
C4    1    0.394853    0.372160   -0.056500    11.00000    0.06517    0.05874 =
         0.04646   -0.00412   -0.01394   -0.01765
AFIX  43
H4    2    0.342116    0.445431   -0.107896    11.00000   -1.20000
AFIX   0
C5    1    0.317604    0.308953    0.059024    11.00000    0.04406    0.04799 =
         0.04627   -0.00891   -0.01255   -0.01320
C6    1    0.393977    0.199411    0.137282    11.00000    0.04403    0.04778 =
         0.04127   -0.01102   -0.01202   -0.01196
C7    1    0.308974    0.141911    0.267728    11.00000    0.04016    0.04244 =
         0.04962   -0.00392   -0.01627   -0.00562
C8    1    0.196839    0.056934    0.272795    11.00000    0.04443    0.04356 =
         0.04633   -0.00767   -0.01407   -0.00977
C9    1    0.085897    0.095062    0.197400    11.00000    0.04750    0.04521 =
         0.04748   -0.00690   -0.01635   -0.01135
C10   1   -0.013561    0.008790    0.210256    11.00000    0.04976    0.06093 =
         0.05593   -0.00899   -0.01774   -0.01801
AFIX  43
H10   2   -0.086425    0.034917    0.160052    11.00000   -1.20000
AFIX   0
C11   1   -0.006358   -0.114745    0.295947    11.00000    0.05560    0.06189 =
         0.05640   -0.01073   -0.00706   -0.02772
AFIX  43
H11   2   -0.073193   -0.172001    0.302153    11.00000   -1.20000
AFIX   0
C12   1    0.099717   -0.154511    0.373079    11.00000    0.05527    0.05049 =
         0.04689   -0.00958   -0.00134   -0.01531
C13   1    0.198714   -0.067550    0.359733    11.00000    0.04839    0.05106 =
         0.04904   -0.00707   -0.01455   -0.00963
AFIX  43
H13   2    0.269991   -0.093812    0.411559    11.00000   -1.20000
AFIX   0
C14   1    0.111475   -0.289986    0.467372    11.00000    0.08073    0.06139 =
         0.06097    0.00409   -0.00968   -0.02734
AFIX 137
H14A  2    0.185619   -0.371325    0.421446    11.00000   -1.50000
H14B  2    0.014491   -0.312047    0.496218    11.00000   -1.50000
H14C  2    0.141799   -0.272804    0.544463    11.00000   -1.50000
AFIX   0
C15   1    0.336962    0.161704    0.383652    11.00000    0.04977    0.05849 =
         0.04863   -0.00127   -0.01919   -0.01926
AFIX  43
H15   2    0.283569    0.124033    0.463332    11.00000   -1.20000
AFIX   0
C16   1    0.395668    0.297536    0.566169    11.00000    0.06121    0.06040 =
         0.05622   -0.00177   -0.02571   -0.01810
C17   1    0.086393    0.473953    0.195492    11.00000    0.06063    0.04979 =
         0.06317   -0.00857   -0.00748   -0.00598
AFIX 137
H17A  2   -0.022186    0.499805    0.209816    11.00000   -1.50000
H17B  2    0.123311    0.558640    0.159798    11.00000   -1.50000
H17C  2    0.113309    0.439685    0.279587    11.00000   -1.50000
AFIX   0
F1    3    0.253258    0.376522    0.594086    11.00000    0.08253    0.08360 =
         0.09681   -0.02253   -0.01792    0.00144
F2    3    0.398126    0.180225    0.649540    11.00000    0.11326    0.08043 =
         0.06410    0.01772   -0.03869   -0.03255
F3    3    0.480497    0.371876    0.596929    11.00000    0.12237    0.11486 =
         0.07343   -0.01168   -0.03561   -0.06814
N1    4    0.154557    0.357759    0.099935    11.00000    0.04540    0.04401 =
         0.05446   -0.00499   -0.01521   -0.00818
O1    5    0.132320    0.189412   -0.051372    11.00000    0.11728    0.07996 =
         0.05490    0.00186   -0.04253   -0.04380
O2    5   -0.094753    0.321646    0.110976    11.00000    0.05464    0.07601 =
         0.14183    0.02720   -0.04875   -0.01734
S1    6    0.062003    0.246971    0.079184    11.00000    0.05574    0.05635 =
         0.06825    0.00568   -0.03486   -0.01695
S2    6    0.469456    0.255245    0.393354    11.00000    0.06714    0.09906 =
         0.05158   -0.00790   -0.01611   -0.04512
HKLF 4

REM  202110279 in P-1 #2
REM R1 =  0.0479 for    2292 Fo > 4sig(Fo)  and  0.0669 for all    3063 data
REM    228 parameters refined using      0 restraints

END

WGHT      0.0672      0.0905

REM Highest difference peak  0.291,  deepest hole -0.300,  1-sigma level  0.051
Q1    1   0.0911  0.1621  0.1371  11.00000  0.05    0.29
Q2    1   0.4023  0.2095  0.3851  11.00000  0.05    0.22
Q3    1   0.1289  0.1042  0.2471  11.00000  0.05    0.21
Q4    1   0.5498  0.3585  0.5225  11.00000  0.05    0.19
Q5    1   0.1271  0.2966  0.1011  11.00000  0.05    0.19
Q6    1   0.0323  0.2185  0.0041  11.00000  0.05    0.19
Q7    1   0.3794  0.3395  0.3812  11.00000  0.05    0.18
Q8    1   0.2478 -0.3567  0.4718  11.00000  0.05    0.17
Q9    1   0.4215  0.4186  0.5399  11.00000  0.05    0.17
Q10   1   0.3912  0.1120  0.5788  11.00000  0.05    0.17
Q11   1   0.9120  0.0592 -0.0339  11.00000  0.05    0.17
Q12   1   0.0500 -0.2749  0.5592  11.00000  0.05    0.17
Q13   1   0.0792  0.1037 -0.0590  11.00000  0.05    0.16
Q14   1  -0.1191  0.2672  0.2172  11.00000  0.05    0.16
Q15   1   0.3543  0.3223 -0.0105  11.00000  0.05    0.16
Q16   1   0.4033  0.4367  0.5656  11.00000  0.05    0.16
Q17   1   0.3620  0.2085  0.0860  11.00000  0.05    0.16
Q18   1   0.0481  0.5599  0.1390  11.00000  0.05    0.16
Q19   1   0.3815  0.0834  0.4675  11.00000  0.05    0.15
Q20   1   0.2558  0.0884  0.2489  11.00000  0.05    0.15
;
_shelx_res_checksum              76823
_shelx_hkl_file
;
   0   0  -1 25063.5 569.754   1
   0   0   2 134358. 1685.20   7
   0   0  -2 132874. 1857.40   1
   0   0  -3 70219.7 1693.13   1
   0   0  -3 69711.2 1685.42  12
   0   0   3 72095.9 915.421  10
   0   0  -4 335348. 4258.55  12
   0   0  -4 326577. 4286.18   1
   0   0   4 340941. 3936.77   7
   0   0   5 8984.45 754.953   7
   0   0  -5 8129.01 790.568   1
   0   0  -5 9370.14 843.836  12
   0   0   6 129954. 3429.58   4
   0   0  -6 135736. 3576.12  12
   0   0   6 135644. 3237.76   7
   0   0  -6 131834. 3565.38   1
   0   0  -7 25087.1 1738.99   1
   0   0   7 25119.2 1691.33   4
   0   0   8-177.609 208.126  23
   0   0   8 34.2116 284.789  19
   0   0   9 13598.9 1213.99  19
   0   0   9 12624.5 1209.21  23
   0   0  10 4721.46 732.604  23
   0   0  10 4836.84 702.581  19
   0   0  11 1000.94 335.729  19
   0   0  11 1001.55 352.453  23
   0   0  12 572.996 209.825  23
   0  -1  12 4533.91 495.066  23
   0  -1  11 3112.95 526.509  23
   0  -1  10 7072.58 828.213  19
   0  -1  10 6763.10 872.407  23
   0  -1   9 7396.77 940.933  23
   0  -1   9 6976.20 872.630  19
   0  -1   8 1312.38 403.979  19
   0  -1   8 1753.19 504.909  23
   0   1  -7 60398.8 2726.48  12
   0   1  -7 56058.6 2613.99   1
   0   1  -6 3823.99 625.436   1
   0   1  -6 5719.15 801.222  12
   0  -1   6 4215.45 620.712   4
   0   1  -5 2646.31 479.781   1
   0  -1   5 2648.12 452.926   4
   0  -1   5 2542.18 400.799   7
   0   1  -5 2050.25 433.367  12
   0   1  -4 30731.7 1344.77   1
   0  -1   4 32780.9 1143.43   7
   0  -1   4 31508.8 1280.18   4
   0   1  -4 30903.0 1359.01  12
   0   1  -3 83774.7 1909.34   1
   0  -1   3 82174.2 647.849   5
   0  -1   3 89234.0 1816.42   4
   0  -1   3 87381.5 1174.07   6
   0   1  -3 83971.0 1911.20  12
   0  -1   2 45399.2 862.349   6
   0  -1   2 47193.0 895.637   7
   0  -1   2 45938.1 1054.84   4
   0  -1   2 46164.7 1101.53   8
   0  -1   2 45234.3 616.390   5
   0  -1   1 28728.8 628.449   4
   0  -1   1 29489.8 546.692   5
   0  -1   1 29446.1 665.361   6
   0  -1   0 29426.4 489.062   9
   0   1   1 87165.5 1095.85   3
   0  -1  -1 88325.3 1171.84   1
   0  -1  -1 87806.2 1045.86   6
   0  -1  -2 977176. 5237.42   1
   0  -1  -2 983734. 4488.06   5
   0  -1  -2 985304. 3270.31   6
   0  -1  -3 21560.8 963.297   1
   0   1   3 20329.6 912.230   7
   0  -1  -3 18845.5 846.647  12
   0  -1  -3 19491.0 708.914   5
   0  -1  -4 3612.34 491.186   1
   0  -1  -4 3241.01 434.103  12
   0   1   4 2887.78 415.345   7
   0   1   5 258.419 227.760   7
   0  -1  -5 63.4808 204.568  12
   0  -1  -5-187.421 212.155   1
   0   1   6 25799.9 1502.72   7
   0  -1  -6 25758.2 1574.48   1
   0  -1  -7 34031.5 2003.20   1
   0   1   7 33362.9 1885.44   7
   0   1   8 3614.81 645.576  19
   0   1   8 3225.94 605.190  23
   0   1   9 4750.06 744.970  23
   0   1   9 3531.17 658.827  19
   0   1  10 2728.51 550.326  23
   0   1  10 3150.94 622.846  19
   0   1  11 176.840 195.081  19
   0   1  11 472.723 221.397  23
   0   1  12 242.813 113.114  23
   0  -2  11 558.344 265.085  23
   0  -2  10 70.8051 166.281  19
   0  -2  10 321.712 251.610  23
   0  -2   9 105.680 228.074  23
   0  -2   9 363.902 295.344  19
   0  -2   8 1660.92 474.984  24
   0  -2   8 1670.92 487.288  19
   0  -2   8 1416.47 430.952  23
   0   2  -7-453.099 414.725  12
   0   2  -7-277.802 244.942   1
   0   2  -6 17001.5 1363.00  12
   0   2  -6 18198.7 1383.13   1
   0  -2   6 21226.7 1358.90   4
   0   2  -5 55497.4 2123.01   1
   0   2  -5 56109.7 2184.02  12
   0  -2   5 59097.2 1999.51   4
   0   2  -4 363.066 205.526   1
   0  -2   4 358.366 192.463   4
   0   2  -4 129.487 191.488  12
   0  -2   3 26769.6 646.059   5
   0  -2   3 25897.0 1126.74   8
   0   2  -3 23903.3 1093.53  12
   0  -2   3 26571.7 1010.73   4
   0  -2   2 499085. 4400.42   8
   0   2  -2 487122. 4069.34  12
   0  -2   2 496986. 3153.34   5
   0   2  -1 103.678 90.7662  12
   0  -2   1 90.0885 98.2002   9
   0  -2   1 232.994 96.0507   5
   0  -2   1 104.795 78.8314   4
   0  -2   0 797182. 3574.98   9
   0  -2   0 798694. 4469.59   8
   0  -2  -1 82548.6 1338.65   1
   0  -2  -1 84426.5 1327.02   8
   0  -2  -1 85461.7 1506.18   6
   0   2   1 84332.2 1153.48   3
   0   2   1 82647.9 1518.60   7
   0  -2  -2 377359. 3530.50   1
   0  -2  -2 385150. 3176.26   6
   0  -2  -2 389185. 2912.80  11
   0  -2  -2 384104. 3612.40   5
   0  -2  -3 104127. 1571.09   6
   0  -2  -3 107683. 2035.70   5
   0  -2  -3 103875. 2190.37   1
   0  -2  -4 467232. 4588.24   5
   0   2   4 473110. 5465.74   7
   0  -2  -4 470945. 5349.07   1
   0   2   5 3554.87 557.370   7
   0  -2  -5 3801.48 567.622   1
   0   2   6 71587.0 2635.63   7
   0  -2  -6 71732.3 2660.82   1
   0  -2  -7 17213.0 1451.79   1
   0   2   7 15686.2 1368.97   7
   0   2   8 6415.92 811.110  23
   0   2   8 7180.48 899.227  19
   0   2   9 8313.52 945.260  23
   0   2   9 12762.2 1203.26  19
   0   2  10-312.832 185.303  23
   0   2  10-27.6016 189.017  19
   0   2  11 118.975 155.515  23
   0   2  11-264.024 223.405  19
   0  -3  11 275.482 128.707  23
   0  -3  11-133.181 151.507  14
   0  -3  11-50.6816 91.9773  22
   0  -3  10 4627.03 664.861  23
   0  -3   9 4143.60 678.714  23
   0  -3   9 5177.92 755.082  19
   0  -3   8 6453.86 838.133  19
   0  -3   8 7705.49 938.369  23
   0  -3   8 6003.12 843.000  24
   0  -3   7 24534.3 1648.60  24
   0  -3   7 25839.7 1593.53  19
   0  -3   7 25230.1 1614.21  23
   0   3  -6 43298.0 2263.69  12
   0   3  -6 55926.4 2458.72   1
   0   3  -5 137.412 184.486   1
   0   3  -5-34.2079 196.537  12
   0  -3   5-126.819 157.251   4
   0   3  -4 10885.9 912.927  12
   0  -3   4 11518.4 944.467   8
   0   3  -4 12487.4 956.097   1
   0  -3   4 12194.6 845.788   4
   0   3  -3 462809. 5084.70  12
   0  -3   3 463083. 4555.08   4
   0  -3   3 466373. 4824.16   6
   0  -3   3 448436. 5396.06   8
   0  -3   2 163538. 2468.76   4
   0  -3   2 165398. 2382.57   5
   0   3  -2 162467. 2563.54  12
   0  -3   2 162099. 2972.65   8
   0  -3   2 161989. 2770.61   6
   0  -3   1 35196.5 1278.43   8
   0  -3   1 36029.9 1113.51   4
   0  -3   1 35542.8 1148.85   5
   0   3  -1 34799.4 546.827   3
   0  -3   1 36718.3 1124.57   9
   0  -3   1 35407.2 1265.96   6
   0   3  -1 33030.7 938.814  12
   0  -3   0 2331.83 251.505   9
   0   3   0 1801.23 252.795   7
   0  -3   0 1832.45 286.431   5
   0  -3   0 1750.36 288.841   8
   0   3   1 21173.8 909.961   7
   0  -3  -1 22316.3 691.107   9
   0  -3  -1 22178.3 870.158   8
   0  -3  -1 20625.9 789.754   1
   0  -3  -1 20169.4 921.700   6
   0  -3  -1 23114.9 997.442   5
   0  -3  -2 96.8965 145.662   5
   0  -3  -2 47.1501 115.012   1
   0   3   2 29.9401 163.556   7
   0  -3  -2 107.666 117.566   6
   0  -3  -2-0.53161 87.5784   8
   0  -3  -3 80695.4 1795.35   6
   0  -3  -3 77982.0 2009.44   1
   0   3   3 80023.0 2232.75   7
   0  -3  -3 82352.3 2098.11   5
   0  -3  -4 1028.81 285.545   1
   0   3   4 1002.65 347.480   7
   0  -3  -4 950.766 267.801   5
   0   3   5 6393.35 783.687   7
   0  -3  -5 6527.88 689.282   5
   0  -3  -6 3138.85 602.996   1
   0   3   6 2049.97 537.297   7
   0  -3  -7 20400.4 1609.10   1
   0   3   7 18271.1 1399.19  19
   0   3   7 21793.5 1464.88  25
   0   3   8 407.593 290.309  25
   0   3   8-76.9547 321.792  19
   0   3   9 624.402 276.349  23
   0   3   9 1264.49 430.742  19
   0   3  10 350.325 219.084  19
   0   3  10 1021.13 308.148  23
   0   3  11 570.252 243.652  19
   0  -4  10 64.3261 140.321  22
   0  -4  10 85.0785 155.326  14
   0  -4   9-155.618 223.813  14
   0  -4   8-34.1653 209.904  24
   0  -4   8 164.498 236.185  19
   0  -4   7 933.387 410.874  24
   0  -4   7 712.201 308.873  19
   0  -4   6 5558.48 809.294  24
   0   4  -5 985.916 366.813  12
   0   4  -5 1630.15 432.394   1
   0   4  -4 34089.2 1689.43  12
   0   4  -4 34074.0 1670.78   1
   0  -4   4 33349.6 1795.41   8
   0   4  -3 3504.51 497.948  12
   0  -4   3 3316.71 446.622   4
   0  -4   3 3527.13 566.557   8
   0  -4   3 4161.72 554.713   6
   0   4  -2 25585.3 1103.67  12
   0  -4   2 26661.9 1157.40   5
   0  -4   2 25476.9 1310.12   6
   0  -4   2 26244.5 1163.94   4
   0  -4   2 24214.3 1324.51   8
   0  -4   1 49059.0 1473.73   9
   0   4  -1 46078.6 1320.61   7
   0  -4   1 47141.9 1726.64   8
   0  -4   1 47272.0 1729.38   6
   0  -4   1 48943.2 1564.55   4
   0  -4   1 47933.5 1599.05   5
   0  -4   0 8929.22 756.817   6
   0  -4   0 9321.49 730.825   5
   0   4   0 9215.19 646.687   7
   0  -4   0 9576.92 583.572   9
   0  -4   0 9399.29 736.504   8
   0  -4  -1 1844.43 352.225   6
   0   4   1 1856.52 328.193   7
   0  -4  -1 1879.31 323.329   8
   0  -4  -1 2281.85 401.678   5
   0   4   2 1227.98 315.961   7
   0  -4  -2 275.123 204.674   5
   0  -4  -2 392.489 180.849   1
   0  -4  -2 1733.72 336.590   6
   0  -4  -2 297.513 140.687   8
   0   4   3 8085.60 792.065   7
   0  -4  -3 10222.3 786.428   1
   0  -4  -3 8595.33 717.230   6
   0  -4  -3 8271.74 776.639   5
   0   4   4 7481.95 831.075   7
   0  -4  -4 8493.24 804.000   1
   0  -4  -4 7209.18 768.245   5
   0  -4  -5 59.5430 122.534   5
   0  -4  -5 149.239 192.248   1
   0   4   5 30.3686 183.995   7
   0  -4  -6 9055.08 999.269   1
   0   4   6 8250.07 1022.56   7
   0   4   7 9910.56 1068.89  19
   0   4   7 7653.55 893.130  25
   0   4   8 1504.39 490.465  19
   0   4   8 2150.12 488.034  25
   0   4   9 308.526 258.078  19
   0   4  10 170.199 216.056  19
   0   4  11 1.08041 93.8562  19
   0  -5  10 2636.11 445.803  14
   0  -5   9 2195.44 456.419  22
   0  -5   9 3321.53 581.695  14
   0  -5   8 1473.23 470.555  22
   0  -5   8 1779.82 512.530  14
   0  -5   7 1367.54 460.872  24
   0  -5   7 1587.44 472.228  14
   0  -5   7 1590.60 464.627  22
   0  -5   6 15780.8 1340.51  14
   0  -5   6 18278.5 1480.75  24
   0  -5   6 16427.6 1310.88  22
   0  -5   5 10283.2 1041.83  14
   0  -5   5 10250.0 1022.71  22
   0  -5   5 11340.4 1125.25  24
   0  -5   4 1174.81 435.543   8
   0  -5   3 65524.0 2606.37   8
   0  -5   3 70001.5 2531.52   6
   0  -5   2 3358.58 493.993   5
   0  -5   2 3103.01 561.054   8
   0  -5   2 3438.33 577.701   6
   0  -5   2 3201.94 488.899   4
   0  -5   1 57205.6 2021.22   5
   0  -5   1 54884.3 2148.76   6
   0  -5   1 55398.2 2126.29   8
   0  -5   0 470.099 248.843   6
   0  -5   0 179.289 208.339   8
   0   5   0 453.162 208.367   7
   0  -5  -1 19898.0 1255.48   6
   0   5   1 20241.8 1169.67   7
   0  -5  -1 20957.3 1187.29   8
   0  -5  -1 21287.8 1296.99   5
   0   5   2 39771.4 1770.85   7
   0  -5  -2 39156.6 1755.04   6
   0  -5  -2 39272.0 1798.26   5
   0  -5  -3 2751.52 523.893   5
   0   5   3 3593.97 595.791   7
   0  -5  -3 3021.90 509.731   6
   0   5   4 3553.68 631.264   7
   0  -5  -4 4162.89 665.070   5
   0  -5  -5 223.627 254.905   5
   0   5   5 667.906 321.603   7
   0  -5  -6 10932.2 1082.63  13
   0   5   6 10387.7 1020.47  25
   0   5   7 2346.14 583.645  19
   0  -5  -7 2212.26 506.680  20
   0   5   7 2880.95 555.370  25
   0   5   8 212.529 223.134  25
   0   5   8 690.160 352.776  19
   0   5   9 3368.95 627.932  19
   0   5  10 509.284 236.226  19
   0   5  11 1029.41 234.006  19
   0  -6   9 1129.93 333.770  14
   0  -6   8 151.290 184.679  22
   0  -6   8 15.3656 134.226  14
   0  -6   7-150.868 210.312  22
   0  -6   7-85.7412 239.748  14
   0  -6   6 6359.57 868.081  22
   0  -6   6 5055.71 801.856  24
   0  -6   6 5063.66 794.850  14
   0  -6   5 600.820 310.044  14
   0  -6   5 915.688 369.470  22
   0  -6   5 316.499 294.819  24
   0  -6   4 1697.90 506.307  24
   0  -6   4 1453.05 416.012  14
   0  -6   4 1749.78 462.143  22
   0  -6   3 4696.19 753.319   6
   0  -6   3 7258.89 956.613   8
   0  -6   2 1220.03 431.930   8
   0  -6   2 267.554 272.349   6
   0  -6   1-102.014 235.796   6
   0  -6   1 392.611 236.468   5
   0  -6   1 400.056 213.236   8
   0  -6   0 2441.25 528.483   5
   0  -6   0 2459.39 546.625   6
   0  -6   0 2399.31 495.282   8
   0  -6  -1 10504.4 1032.03   6
   0  -6  -1 11814.6 1091.53   5
   0  -6  -2 4586.54 704.767   6
   0  -6  -2 5957.25 815.334   5
   0   6   2 4481.61 696.520   7
   0   6   3 3682.00 652.091   7
   0  -6  -3 1895.32 474.400   5
   0  -6  -3 3318.33 583.734   6
   0   6   4 81.4612 194.533   7
   0  -6  -4 239.626 180.971   5
   0  -6  -5 256.414 311.780  13
   0   6   5 686.775 307.082  25
   0   6   6 29065.8 1692.57  25
   0  -6  -6 31038.9 1831.42  13
   0  -6  -7 169.574 235.010  20
   0   6   7-139.351 271.756  19
   0   6   7-14.6633 187.983  25
   0   6   8 1345.05 445.960  19
   0  -6  -8 1748.13 423.364  20
   0   6   9 907.206 355.221  19
   0   6  10 836.188 267.586  19
   0  -7   8 1984.69 427.922  14
   0  -7   7 289.983 212.177  22
   0  -7   7 306.794 215.101  14
   0  -7   6 2651.93 559.187  14
   0  -7   6 3600.52 623.844  22
   0  -7   5 310.142 283.789  14
   0  -7   5 81.0835 186.257  22
   0  -7   4-2.87570 176.690  22
   0  -7   4 244.212 211.939  14
   0  -7   3 13046.8 1239.25  14
   0  -7   3 8014.02 924.258  22
   0  -7   2 218.407 339.652  14
   0  -7   1 9435.80 1028.51  14
   0  -7   0 1991.71 504.471  14
   0  -7   0 1703.85 498.514   8
   0  -7  -1 3908.55 653.636  17
   0  -7  -1 4916.61 746.272  14
   0  -7  -2 63.1715 233.037  17
   0  -7  -2 1240.81 355.959  13
   0  -7  -3 7189.08 874.040  17
   0  -7  -3 4354.16 696.192  13
   0  -7  -4 5351.16 778.688  13
   0  -7  -4 5559.75 774.164  17
   0  -7  -5 117.986 285.544  13
   0  -7  -6 927.587 368.334  13
   0  -7  -7 1009.31 330.911  20
   0   7   7 1164.19 398.374  19
   0  -7  -8 1146.03 319.074  20
   0   7   8 1436.01 433.015  19
   0   7   9 534.785 267.461  19
   0  -8   7 1828.69 391.872  14
   0  -8   6 3632.55 600.256  14
   0  -8   5 168.220 229.598  14
   0  -8   5 289.463 211.918  17
   0  -8   4 432.767 329.221  14
   0  -8   3 412.847 311.184  14
   0  -8   2 274.414 281.070  17
   0  -8   2-95.2244 280.160  14
   0  -8   1-150.802 250.611  14
   0  -8   1-51.9536 225.692  17
   0  -8   0 2472.30 612.554  14
   0  -8   0 2316.13 536.577  17
   0  -8  -1 554.017 322.960  17
   0  -8  -2 2681.13 552.197  13
   0  -8  -2 1164.46 430.845  17
   0  -8  -3-2.73332 201.098  13
   0  -8  -3 279.159 257.189  17
   0  -8  -4 5114.07 761.524  13
   0  -8  -4 5583.26 778.256  17
   0  -8  -5-23.1039 223.858  13
   0  -8  -6 5405.01 724.207  20
   0   8   7 449.917 252.077  19
   0  -8  -7 148.638 192.081  20
   0  -8  -8 2185.14 359.971  20
   0   8   8 1765.13 388.310  19
   0  -9   6 55.5424 124.939  14
   0  -9   5 271.258 211.989  14
   0  -9   5 238.040 155.066  17
   0  -9   4 2362.37 506.524  14
   0  -9   4 2545.52 468.331  17
   0  -9   3 321.444 193.424  14
   0  -9   3 341.038 247.413  17
   0  -9   2-90.5130 205.449  17
   0  -9   2 116.369 228.998  14
   0  -9   1 16482.6 1345.10  17
   0  -9   0 1159.19 377.265  17
   0  -9  -1 393.296 273.850  17
   0  -9  -2 830.963 355.209  17
   0  -9  -3 9116.19 895.675  13
   0  -9  -3 7569.03 871.088  17
   0  -9  -4 349.819 217.296  17
   0  -9  -4-467.910 233.934  13
   0  -9  -5 1866.45 443.469  20
   0   9   6 99.2533 185.925  19
   0  -9  -6-116.075 127.542  20
   0  -9  -7 877.169 225.797  20
   0   9   7 986.844 289.775  19
   0 -10   4 2633.88 376.838  17
   0 -10   3-77.9876 165.519  17
   0 -10   2 104.273 195.303  17
   0 -10   1-58.1901 163.451  17
   0 -10   0 2017.93 439.274  17
   0 -10  -1 100.296 176.319  17
   0 -10  -2 12.3542 166.552  17
   0 -10  -3 4424.07 583.955  20
   0 -10  -3 5140.71 618.953  17
   0 -10  -4 1035.98 306.577  20
   0 -10  -4 853.742 262.277  17
   0  10   5 72.7198 164.629  19
   0 -10  -5 432.368 201.322  20
   0 -10  -6 881.488 224.341  20
   0 -11   1 705.507 222.076  17
   0 -11   0 123.706 151.055  17
   0 -11  -1 378.771 155.750  17
   0 -11  -2-57.6270 89.1623  17
  -1  10   4 84.4940 84.0455  19
   1 -10  -4 105.986 101.836  17
   1 -10  -4 103.653 131.456  20
   1 -10  -3 487.381 217.082  17
   1 -10  -3 565.028 236.866  20
   1 -10  -2 64.8289 146.923  20
   1 -10  -2 123.579 195.509  17
   1 -10  -1 3555.14 536.450  17
   1 -10   0 1653.96 396.100  17
   1 -10   1 591.089 235.264  18
   1 -10   1 407.628 251.306  17
   1 -10   2 916.561 286.538  17
   1 -10   3 932.134 257.566  17
   1  -9  -6 601.944 221.469  20
  -1   9   6 749.218 249.835  19
   1  -9  -5-0.65692 148.335  20
   1  -9  -5 107.861 125.195  17
  -1   9   5 155.949 143.603  19
   1  -9  -4 2163.83 437.711  17
   1  -9  -4 2213.21 463.765  20
   1  -9  -3-51.9988 163.415  17
   1  -9  -3 31.6375 199.223  20
   1  -9  -2 4504.30 680.624  17
   1  -9  -1 166.221 299.452  17
   1  -9   0 4617.95 719.067  17
   1  -9   1 999.109 388.272  17
   1  -9   2 1842.99 446.970  14
   1  -9   2 1489.86 411.896  17
   1  -9   3 210.769 212.349  14
   1  -9   3 1022.51 316.212  17
   1  -9   4-21.6362 175.380  17
   1  -9   4 75.2843 186.880  14
   1  -9   5 25.6222 153.724  14
   1  -9   6 752.050 242.574  14
  -1   8   8 1487.61 291.396  19
   1  -8  -7 126.294 146.087  20
  -1   8   7 240.571 220.840  19
   1  -8  -6 403.274 227.809  20
  -1   8   6 507.846 300.317  19
   1  -8  -5 732.680 322.232  20
   1  -8  -5 834.797 311.237  17
   1  -8  -4-70.7278 238.341  17
   1  -8  -4 195.244 222.272  13
   1  -8  -3 2532.35 553.384  17
   1  -8  -2 2940.96 605.213  17
   1  -8  -1 5864.02 820.850  17
   1  -8   0 1599.80 518.831  17
   1  -8   1 306.830 260.710  17
   1  -8   1-96.5995 239.277  14
   1  -8   2 3018.80 627.141  14
   1  -8   2 3670.89 666.705  17
   1  -8   3 299.614 313.429  14
   1  -8   3 279.744 277.094  17
   1  -8   4 450.811 312.525  14
   1  -8   4-70.6570 210.500  17
   1  -8   5 2312.78 519.119  14
   1  -8   6 929.827 311.458  14
   1  -8   7 164.690 148.545  14
  -1   7   9 99.6215 95.5105  19
   1  -7  -8 62.6628 145.225  20
  -1   7   8-68.1076 201.968  19
   1  -7  -7 629.695 265.433  20
  -1   7   7 1209.40 391.110  19
   1  -7  -6 8138.61 911.169  20
  -1   7   6 7596.58 942.987  19
   1  -7  -5 4783.93 744.437  20
   1  -7  -5 4803.45 707.437  17
   1  -7  -4 7781.60 910.822  13
   1  -7  -4 7098.56 881.715  17
   1  -7  -3 6492.98 856.360  17
   1  -7  -2 821.781 349.331  17
   1  -7  -1 2721.27 571.266  17
   1  -7   0 581.013 288.322  17
   1  -7   0 958.764 387.976  14
   1  -7   1-349.723 268.525  17
   1  -7   1 151.499 278.433  14
   1  -7   2 6855.10 872.503  17
   1  -7   2 5869.88 843.994  14
   1  -7   3 1059.27 387.495  17
   1  -7   3 1232.49 412.429  14
   1  -7   4 463.293 325.998  17
   1  -7   4 385.457 294.978  14
   1  -7   5 2948.64 644.235  24
   1  -7   5 1862.35 510.268  14
   1  -7   6 663.289 383.793  24
   1  -7   6 643.901 333.610  14
   1  -7   7-7.92520 202.785  14
   1  -7   8 423.964 233.363  14
   1  -7   9-213.794 148.332  14
  -1   6  10 1380.77 291.533  19
  -1   6   9 306.442 233.855  19
  -1   6   8 1922.03 475.258  19
   1  -6  -8 1850.76 405.264  20
  -1   6   7 1013.79 442.304  19
   1  -6  -7 1680.57 444.106  20
   1  -6  -6 256.441 203.553  20
  -1   6   6 613.487 351.830  19
   1  -6  -5 2103.59 508.454  17
   1  -6  -5 2179.46 504.605  13
   1  -6  -4 12674.6 1144.49  13
   1  -6  -4 19209.9 1399.26  17
  -1   6   3 5044.99 771.471   7
   1  -6  -2 4004.74 705.002   5
   1  -6  -2 3058.54 599.002   6
   1  -6  -1 36038.1 1978.53   5
   1  -6  -1 24893.6 1654.48   6
   1  -6   0 638.045 332.359   5
   1  -6   0 176.572 235.636   6
   1  -6   1-223.004 283.534   6
   1  -6   1-57.8674 173.210   5
   1  -6   2 955.406 414.433   6
   1  -6   3 1031.21 429.223   6
   1  -6   3 3053.36 579.128  14
   1  -6   4 3035.55 591.626  24
   1  -6   4 2782.78 589.757  14
   1  -6   5 8811.01 1014.03  14
   1  -6   5 8566.07 1023.33  24
   1  -6   6 1563.11 511.216  24
   1  -6   6 2058.17 531.688  14
   1  -6   7 1709.21 492.803  14
   1  -6   7 1394.71 507.807  24
   1  -6   8 240.030 220.210  14
   1  -6   9 352.402 238.386  14
  -1   5  10 3859.18 525.255  19
  -1   5   9 1186.70 412.881  19
   1  -5  -8 679.734 287.373  20
  -1   5   8 888.721 412.115  19
  -1   5   7 5175.74 823.910  19
   1  -5  -7 4685.74 698.595  20
  -1   5   6 10772.1 1044.48  25
  -1   5   6 13757.3 1262.91  19
   1  -5  -6 12271.4 1145.71  20
   1  -5  -5 11938.0 1091.42  13
  -1   5   4 3356.44 622.357   7
   1  -5  -4 3661.54 635.090   5
  -1   5   3-137.280 199.804   7
   1  -5  -3 308.053 224.275   5
   1  -5  -2 5353.69 740.583   5
   1  -5  -2 5942.75 715.551   6
  -1   5   2 6129.60 745.964   7
   1  -5  -1 1010.37 330.365   6
  -1   5   1 916.786 299.778   7
   1  -5  -1 971.181 344.373   5
   1  -5   0 35689.5 1708.81   5
   1  -5   0 34912.4 1744.05   6
   1  -5   0 36219.3 1669.61   8
   1  -5   1 43609.4 1939.84   8
   1  -5   1 43703.9 1978.29   6
   1  -5   1 42664.1 1824.26   5
   1  -5   2 12866.8 1103.50   6
   1  -5   2 12281.3 1097.16   8
   1  -5   2 12242.6 966.845   5
   1  -5   2 11551.0 972.749   9
   1  -5   3 5340.47 751.223   6
   1  -5   4 25358.5 1605.98   6
   1  -5   5 5204.77 779.257  24
   1  -5   5 8048.93 930.953  14
   1  -5   6 893.652 431.823  24
   1  -5   6 1127.83 392.457  14
   1  -5   7 2713.49 598.536  14
   1  -5   7 2145.45 552.374  24
   1  -5   8 7971.51 973.327  24
   1  -5   8 6401.91 881.806  14
   1  -5   9 1459.16 397.258  14
   1  -5  10 1047.61 306.219  14
  -1   4  11 243.179 151.873  19
  -1   4  10 33.5791 198.278  19
  -1   4   9 71.3303 243.394  19
  -1   4   8 4152.88 722.419  19
   1  -4  -7-313.664 204.169  20
  -1   4   7 264.755 260.513  19
  -1   4   6 864.122 368.660  19
  -1   4   6 608.641 262.861  25
   1  -4  -6 1294.67 384.367  20
  -1   4   5 2154.37 538.006   7
  -1   4   4 19472.9 1385.84   7
   1  -4  -4 19526.5 1329.52   5
   1  -4  -3 1818.64 364.075   6
  -1   4   3 1928.72 433.036   7
   1  -4  -3 2479.73 465.463   5
   1  -4  -2 8693.90 818.893   5
  -1   4   2 8886.66 796.814   7
   1  -4  -2 9930.66 808.453   6
  -1   4   1 24798.9 1201.77   7
   1  -4  -1 25072.6 1119.15   8
   1  -4  -1 25434.7 1312.19   5
   1  -4  -1 25641.4 1296.19   6
   1  -4  -1 25085.6 1093.14   9
   1  -4   0 153.212 116.831   9
   1  -4   0 242.945 181.256   8
   1  -4   0 183.290 195.133   5
   1  -4   0 127.219 161.771   6
   1  -4   1 117070. 2788.81   8
   1  -4   1 117179. 2615.91   5
   1  -4   1 112636. 2775.93   6
   1  -4   1 116163. 2539.42   9
   1  -4   2 60773.5 2084.30   6
   1  -4   2 60687.9 1820.60   5
  -1   4  -2 58018.3 1745.77  12
   1  -4   2 57841.8 1943.30   9
   1  -4   2 58636.0 2122.11   8
   1  -4   3 9722.06 877.138   6
  -1   4  -3 10852.8 884.068  12
  -1   4  -4 14016.2 1107.48  12
   1  -4   4 14174.1 1076.79   6
  -1   4  -5 7014.14 890.753  12
   1  -4   6 36962.7 2012.07  24
   1  -4   7 14452.9 1315.60  24
   1  -4   8 7432.36 961.006  24
   1  -4   9 149.384 221.658  14
   1  -4   9-38.4411 182.508  24
   1  -4  10 141.963 183.708  14
   1  -4  11 618.133 195.720  14
  -1   3  11 843.051 244.084  19
  -1   3  10-285.289 248.368  19
  -1   3   9 865.904 402.340  19
  -1   3   8 5081.89 800.611  19
  -1   3   7 18770.7 1462.38  19
  -1   3   6 5048.21 820.840   7
   1  -3  -6 6719.59 859.529   1
   1  -3  -5 6.41893 73.9471   1
  -1   3   5 10.1859 204.063   7
   1  -3  -4 262083. 4267.16   1
  -1   3   4 249772. 4590.53   7
   1  -3  -4 257370. 4286.71   5
   1  -3  -3 18596.4 943.672  11
  -1   3   3 15539.9 1053.16   7
   1  -3  -3 15581.9 1012.92   5
   1  -3  -3 16529.7 868.956   6
   1  -3  -3 18594.6 981.518   1
  -1   3   2 24041.7 1173.80   7
  -1   3   2 23020.8 989.331   3
   1  -3  -2 24056.5 920.293   1
   1  -3  -2 22673.0 1146.06   5
   1  -3  -2 22850.4 1040.47   6
  -1   3   1 26434.1 1092.31   7
   1  -3  -1 26844.3 957.161   8
   1  -3  -1 26728.6 1166.10   5
   1  -3  -1 26553.2 1133.72   6
  -1   3   1 26359.2 917.399   3
   1  -3   0 7821.73 581.429   8
   1  -3   0 7994.50 569.177   9
  -1   3   0 6847.12 495.467   7
   1  -3   0 7786.59 619.337   5
  -1   3   0 8763.16 467.415   3
   1  -3   0 7802.99 629.929   6
   1  -3   1 30640.2 1141.53   5
   1  -3   1 29830.4 1127.37   9
  -1   3  -1 29567.2 843.285   7
  -1   3  -1 28889.9 822.842   3
   1  -3   1 28822.0 1205.79   8
   1  -3   1 30353.7 1248.41   6
   1  -3   2 151344. 2818.63   9
   1  -3   2 154575. 2433.83   5
   1  -3   2 154934. 3014.90   8
   1  -3   2 151376. 2857.29   6
   1  -3   3 23534.5 916.729   4
  -1   3  -3 22744.8 1165.19  12
   1  -3   3 23638.8 1232.52   9
   1  -3   3 23043.5 1159.26   6
  -1   3  -3 23044.4 1019.21   1
  -1   3  -4 106691. 2852.16  12
   1  -3   4 105597. 2500.22   6
  -1   3  -4 101070. 2503.08   1
  -1   3  -5 17956.8 1206.90   1
  -1   3  -5 19487.8 1368.36  12
  -1   3  -6 16552.7 1393.56  12
   1  -3   7 464.230 272.720  24
   1  -3   8 48792.0 2375.07  24
   1  -3   8 51353.5 2339.79  23
   1  -3   9 6505.86 861.147  24
   1  -3   9 6349.21 835.522  23
   1  -3  10 957.830 321.880  23
   1  -3  11 6801.35 645.509  23
   1  -3  11 7139.66 727.413  14
  -1   2  11 195.708 148.164  23
  -1   2  11 1143.29 324.460  19
  -1   2  10 886.255 273.782  23
  -1   2  10 1093.11 390.017  19
  -1   2   9 3116.38 594.612  23
  -1   2   9 2063.80 534.641  19
  -1   2   8 7891.61 971.387  19
  -1   2   8 8186.70 910.404  23
  -1   2   7 86.9236 244.806  19
  -1   2   6 1668.35 506.010   7
   1  -2  -6 2307.37 511.385   1
   1  -2  -6 1077.53 394.771  11
   1  -2  -5 38200.6 1781.09   1
  -1   2   5 37760.9 1860.38   7
   1  -2  -5 39968.9 1828.34  11
   1  -2  -4 16185.5 1028.81   1
  -1   2   4 16414.4 1118.40   7
   1  -2  -4 17361.6 1078.57  11
  -1   2   3 16988.1 936.228   3
  -1   2   3 18448.9 1054.65   7
   1  -2  -3 17767.2 722.526   6
   1  -2  -3 18024.6 955.633   5
   1  -2  -3 17816.5 921.816   1
   1  -2  -3 18258.1 951.371  11
  -1   2   2 233228. 3007.32   3
   1  -2  -2 223523. 2658.68   6
  -1   2   2 228168. 3255.86   7
   1  -2  -2 225788. 3146.74   5
   1  -2  -2 232080. 2715.56   1
  -1   2   1 14884.2 613.873   2
   1  -2  -1 15326.3 559.276   8
  -1   2   1 15199.8 664.213   3
   1  -2  -1 15465.0 528.020   1
  -1   2   1 15664.3 745.042   7
   1  -2  -1 15336.4 716.695   6
  -1   2   0 88409.8 1459.13   7
  -1   2   0 91797.4 1369.13   3
  -1   2   0 91387.9 1134.23   2
   1  -2   0 91589.7 1604.02   8
  -1   2  -1 412003. 2106.95   2
   1  -2   1 408464. 3833.63   8
  -1   2  -1 405922. 2322.41   7
   1  -2   2 208839. 2832.86   6
   1  -2   2 210393. 2921.30   9
   1  -2   2 209021. 2235.61   5
   1  -2   2 209069. 2047.77   4
   1  -2   2 206316. 3036.45   8
   1  -2   3 38330.1 1244.29   6
  -1   2  -3 36664.2 1214.16   1
   1  -2   3 37729.5 1395.62   9
  -1   2  -3 35821.2 1341.09  12
  -1   2  -4 2587.93 409.317   1
   1  -2   4 2907.84 353.436   4
  -1   2  -4 2857.00 478.472  12
   1  -2   4 3397.86 393.023   6
  -1   2  -5 48122.3 1901.13   1
  -1   2  -5 50871.0 2067.20  12
  -1   2  -6 22413.5 1494.39   1
  -1   2  -6 24135.5 1601.37  12
  -1   2  -7 17693.2 1513.25  12
  -1   2  -7 19321.2 1532.97   1
   1  -2   8 3347.63 648.746  24
   1  -2   8 3933.35 696.777  16
   1  -2   8 4522.70 773.259  23
   1  -2   9-152.373 260.822  23
   1  -2   9 73.0220 258.084  24
   1  -2  10 31.9917 234.386  23
   1  -2  11 159.863 160.333  23
  -1   1  11 351.314 228.080  23
  -1   1  11 822.561 297.144  19
  -1   1  10 1152.43 348.468  23
  -1   1  10 1361.93 421.100  19
  -1   1   9 92.4986 281.559  19
  -1   1   9 154.275 236.962  23
  -1   1   8 9212.06 1037.19  19
  -1   1   8 8363.25 946.287  23
  -1   1   7 19441.8 1585.83   4
   1  -1  -7 21424.8 1629.68   1
  -1   1   7 18858.4 1527.65   7
  -1   1   6 19901.2 1436.09   7
   1  -1  -6 21305.3 1490.22   1
   1  -1  -6 20701.6 1480.02  11
   1  -1  -5 102.546 160.633   1
  -1   1   5 212.113 243.072   7
  -1   1   4 62169.8 2011.90   7
   1  -1  -4 62860.1 1973.01   1
  -1   1   4 62712.9 1694.84  10
  -1   1   3 19084.3 988.523   7
   1  -1  -3 17680.8 900.069   1
  -1   1   3 16156.2 892.275   3
   1  -1  -2 472999. 3752.68   1
  -1   1   2 468311. 4045.88   3
   1  -1  -2 463882. 3807.51   5
   1  -1  -1 16974.4 646.564  11
  -1   1   1 16361.7 616.342   2
  -1   1   1 15990.3 633.515   3
   1  -1  -1 16023.8 568.531   6
   1  -1  -1 16537.2 517.327   1
  -1   1   0 578356. 2780.87   2
  -1   1   0 577470. 2978.50   7
   1  -1   1 44789.5 867.620   5
   1  -1   1 47238.7 557.957   4
  -1   1  -1 45882.3 657.349   1
  -1   1  -2 465618. 3281.47   1
   1  -1   2 478294. 3414.41   6
   1  -1   2 476750. 2559.15   4
  -1   1  -2 469184. 2373.18  10
   1  -1   3 118027. 2223.07   9
  -1   1  -3 122124. 2134.25   1
  -1   1  -3 118654. 2232.59  12
  -1   1  -4 14419.3 888.200   1
  -1   1  -4 14622.1 938.700  12
   1  -1   4 15322.3 789.846   4
  -1   1  -5 27738.2 1455.87  12
  -1   1  -5 29122.1 1449.93   1
   1  -1   5 30313.1 1312.57   4
  -1   1  -6 66581.3 2501.21   1
  -1   1  -6 70650.8 2599.77  12
   1  -1   6 67387.3 2253.57   4
  -1   1  -7 983.570 425.868  12
  -1   1  -7 1476.61 472.938   1
   1  -1   8 78555.3 2886.48  23
   1  -1   8 73266.9 2781.68  16
   1  -1   9 36988.7 2042.37  16
   1  -1   9 40887.2 2149.53  23
   1  -1  10 803.567 373.616  23
   1  -1  11 10015.1 946.128  23
   1  -1  12 962.083 268.809  23
  -1   0  11 6300.70 680.867  19
  -1   0  11 5806.12 687.426  23
  -1   0  10 5289.52 729.706  19
  -1   0  10 5168.07 743.695  23
  -1   0   9 4415.44 735.171  23
  -1   0   9 3512.93 673.082  19
  -1   0   8 14977.5 1275.07  23
  -1   0   8 13193.2 1221.19  19
   1   0  -7 25289.7 1785.52   1
  -1   0   7 19267.8 1567.53   4
  -1   0   6 4253.04 694.215   4
  -1   0   6 4583.70 690.135   7
   1   0  -6 4619.25 709.977   1
  -1   0   5 41910.9 1770.80   7
   1   0  -5 40605.8 1808.49   1
  -1   0   4 139056. 2850.51   7
   1   0  -4 141213. 2955.57   1
  -1   0   3 113810. 2234.99   7
  -1   0   3 106352. 2190.19   3
  -1   0   3 108044. 1732.20  10
   1   0  -3 111882. 2266.31   1
  -1   0   2 40214.6 1145.31   2
  -1   0   2 38675.4 1131.82   3
  -1   0   2 39496.4 959.945  10
  -1   0   2 40984.2 652.327   8
  -1   0   1 633657. 3616.82   2
  -1   0   1 632641. 3422.50  10
  -1   0   0 506.502 95.5593   3
  -1   0   0 527.453 93.1288   2
  -1   0   0 577.469 76.0523   4
  -1   0  -1 3105.69 191.620  10
  -1   0  -1 3432.46 212.568   1
  -1   0  -2 169429. 2036.02   1
   1   0   2 169091. 1522.01   7
  -1   0  -3 62349.9 1547.64   1
   1   0   3 64212.5 1237.78   7
  -1   0  -4 76508.5 1987.76  12
  -1   0  -4 71449.1 1975.89   1
   1   0   5 89767.7 2085.08   7
  -1   0  -5 84076.5 2449.96   1
  -1   0  -5 86845.6 2439.72  12
  -1   0  -6 4302.39 653.841   1
  -1   0  -6 3579.75 576.505  12
   1   0   7 3564.88 642.749   4
  -1   0  -7 4341.51 736.419   1
  -1   0  -7 6001.99 843.430  12
   1   0   8 16683.5 1343.01  23
   1   0   8 16127.1 1319.97  16
   1   0   9-272.328 292.142  16
   1   0   9 766.100 379.508  23
   1   0  10 4732.22 741.870  16
   1   0  10 4020.97 699.528  23
   1   0  11 239.705 235.947  23
   1   0  12 809.741 258.910  23
  -1  -1  11 2128.95 422.756  23
  -1  -1  11 2597.68 449.967  19
  -1  -1  10 229.126 262.828  19
  -1  -1  10 378.417 265.582  23
  -1  -1   9-122.299 200.326  23
  -1  -1   9 65.1963 222.125  19
  -1  -1   8 3813.83 658.575  23
  -1  -1   8 4896.48 759.806  19
  -1  -1   7 61.9713 244.351   4
   1   1  -6 5946.82 794.889   1
  -1  -1   6 5899.90 791.435   4
  -1  -1   5 33556.1 1541.37   7
  -1  -1   5 31370.2 1601.22   4
   1   1  -5 30963.0 1628.38   1
  -1  -1   4 62520.2 1976.91   4
  -1  -1   4 67907.4 1916.84   7
   1   1  -4 66570.3 2095.65   1
   1   1  -4 63423.3 2068.11  12
  -1  -1   3 14509.9 829.350   4
  -1  -1   3 16029.2 815.868   7
   1   1  -3 13584.0 836.489  12
  -1  -1   3 14440.4 443.791   6
  -1  -1   2 5032.03 408.941   3
  -1  -1   2 4854.09 398.614   2
  -1  -1   2 5169.89 362.113   8
  -1  -1   1 17182.9 588.526   2
  -1  -1   1 16601.6 570.559   3
  -1  -1   0 153280. 1392.81   2
   1   1   0 150380. 1390.93  11
   1   1   1 174013. 1051.06   9
  -1  -1  -1 179405. 1847.83   1
  -1  -1  -2 38154.5 1051.27   1
   1   1   2 40282.6 977.084   7
  -1  -1  -2 39582.6 817.482   5
  -1  -1  -3 41166.8 1300.95   1
  -1  -1  -3 41406.6 879.452   5
   1   1   4 6210.99 548.447   7
  -1  -1  -4 5684.03 578.838   1
  -1  -1  -4 6624.37 369.393   5
  -1  -1  -4 6462.37 562.782  12
  -1  -1  -5 182.044 190.721   1
   1   1   5 68.5079 158.431   7
  -1  -1  -5 15.5514 176.729  12
  -1  -1  -6 14263.2 1162.85   1
  -1  -1  -6 16655.0 1190.14  12
   1   1   6 17195.8 1145.45   7
  -1  -1  -7 1400.04 409.240   1
  -1  -1  -7 1786.88 474.154  12
   1   1   8 5795.84 784.235  25
   1   1   8 6186.83 824.138  23
   1   1   8 5316.10 790.980  19
   1   1   9 7290.25 894.886  19
   1   1   9 7368.08 924.201  16
   1   1   9 5685.58 806.229  23
   1   1  10 927.618 377.670  23
   1   1  10 1235.62 370.781  19
   1   1  10 234.061 246.289  16
   1   1  11 4403.90 636.136  23
   1   1  12 6623.29 637.977  23
  -1  -2  11 2973.51 466.526  23
  -1  -2  11 2099.59 359.180  14
  -1  -2  11 1833.89 344.098  19
  -1  -2  10 6140.61 758.819  19
  -1  -2  10 6021.60 787.794  23
  -1  -2   9 971.089 404.042  23
  -1  -2   9 732.591 325.350  19
  -1  -2   8 548.215 338.762  23
  -1  -2   8 323.256 240.413  19
  -1  -2   7 18059.1 1369.90  23
  -1  -2   7 12612.6 1137.43  19
  -1  -2   6 521.881 293.193   4
   1   2  -6 844.002 312.601   1
  -1  -2   5 72852.1 2446.63   4
   1   2  -5 75807.6 2651.72  12
   1   2  -5 73365.5 2567.52   1
  -1  -2   4 129669. 2880.64   4
  -1  -2   4 134058. 2733.97   8
   1   2  -4 131992. 3091.67  12
   1   2  -3 140291. 2781.12  12
  -1  -2   3 146346. 2658.86   4
  -1  -2   2 51076.4 1404.62   8
  -1  -2   2 51529.2 1387.72   4
   1   2  -2 48622.4 1367.75  12
  -1  -2   1 339370. 2496.79   2
  -1  -2   1 344842. 2317.53   3
  -1  -2   0 185455. 1074.01   3
   1   2   0 181072. 1488.30  11
  -1  -2  -1 1416.73 221.877   1
  -1  -2  -2 46227.6 832.513  12
  -1  -2  -2 45098.6 1264.13   1
  -1  -2  -2 44516.3 1141.66   5
  -1  -2  -3 484764. 3977.01   5
  -1  -2  -3 479218. 4750.58   1
  -1  -2  -4 12961.7 751.840  12
  -1  -2  -4 13749.3 923.533   1
   1   2   4 12634.5 866.112   7
  -1  -2  -4 12872.6 698.991   5
  -1  -2  -5 280986. 4085.45  12
   1   2   5 280957. 4465.62   7
  -1  -2  -5 293765. 4755.25   1
   1   2   6 4753.07 672.503   7
  -1  -2  -6 5153.92 677.812  12
  -1  -2  -6 4934.44 700.307   1
   1   2   7 12622.6 1177.90   7
  -1  -2  -7 16856.8 1418.35   1
   1   2   8 10297.0 1011.82  23
   1   2   8 10974.6 1087.60  19
   1   2   9 2204.69 552.586  19
   1   2   9 2723.45 558.291  23
   1   2  10 2728.20 538.659  19
   1   2  10 2080.26 487.310  23
   1   2  10 2309.26 538.238  16
   1   2  11-420.174 235.060  23
   1   2  12 3156.07 423.544  23
  -1  -3  11 183.386 150.994  22
  -1  -3  10 593.321 272.567  23
  -1  -3  10 422.022 237.985  14
  -1  -3  10 321.239 235.360  19
  -1  -3   9 3744.12 657.221  23
  -1  -3   9 3313.14 629.988  19
  -1  -3   8 6938.52 907.323  23
  -1  -3   8 5780.27 808.203  19
  -1  -3   7 2451.17 558.363  23
  -1  -3   7 3405.69 621.306  19
   1   3  -6 22503.1 1641.47   1
  -1  -3   6 13111.8 1177.52   4
  -1  -3   5 11052.1 975.539   4
   1   3  -5 11610.7 1084.46   1
  -1  -3   4 69578.0 2190.35   4
   1   3  -4 69780.1 2367.20  12
  -1  -3   4 70866.5 2296.29   8
   1   3  -3 191.654 192.143  12
  -1  -3   3-86.5515 147.105   6
  -1  -3   3 377.611 197.374   4
  -1  -3   3 160.255 133.118   5
  -1  -3   3-247.707 186.828   8
  -1  -3   2 7390.47 641.898   8
  -1  -3   2 7641.98 599.269   6
  -1  -3   2 7825.13 599.268   4
   1   3  -2 7633.66 587.036  12
  -1  -3   2 7649.91 539.888   5
  -1  -3   1 9359.11 647.321   6
  -1  -3   1 10279.0 630.212   5
  -1  -3   1 10649.8 647.308   4
   1   3  -1 8305.42 490.141  12
  -1  -3   1 9602.47 683.577   8
  -1  -3   0 1964.36 290.869   5
   1   3   0 1278.70 132.956  11
  -1  -3   0 1703.30 270.764   4
  -1  -3   0 1430.09 269.757   6
  -1  -3   0 1558.60 284.771   8
  -1  -3   0 1138.72 115.636   2
  -1  -3  -1 8583.23 595.345   4
  -1  -3  -1 8204.78 593.679   6
   1   3   2 4062.17 450.795   7
  -1  -3  -2 3325.31 395.142   1
  -1  -3  -2 3285.37 382.746   6
  -1  -3  -2 3328.31 393.468   5
  -1  -3  -3 10481.1 714.774   5
  -1  -3  -3 10459.8 657.077   6
  -1  -3  -3 9716.72 731.808   1
   1   3   3 9745.92 750.563   7
   1   3   4 13259.4 970.643   7
  -1  -3  -4 13593.7 963.843   1
  -1  -3  -4 13176.9 848.921   5
   1   3   5 12698.0 1048.69   7
  -1  -3  -5 14658.7 1120.19   1
  -1  -3  -5 13065.4 883.636   5
   1   3   6 480.542 289.282   7
  -1  -3  -6 501.156 262.304   1
  -1  -3  -7 3606.32 656.337   1
   1   3   7 2939.65 633.668   7
   1   3   8 1325.53 404.791  23
   1   3   8 1805.84 479.827  19
   1   3   8 1728.54 496.106  25
   1   3   9 4005.29 651.090  23
   1   3   9 4092.82 709.309  25
   1   3   9 4106.74 698.101  19
   1   3  10 1353.72 412.700  16
   1   3  10 590.792 323.860  19
   1   3  10 1124.70 378.779  23
   1   3  11 1083.48 314.642  19
   1   3  11 1761.39 379.751  23
  -1  -4  10 583.919 242.924  22
  -1  -4  10 1086.68 308.557  14
  -1  -4   9 441.047 261.375  19
  -1  -4   9-92.3560 160.410  23
  -1  -4   9 218.343 197.880  14
  -1  -4   8 633.128 360.349  19
  -1  -4   8 800.208 338.476  23
  -1  -4   7 24412.9 1611.88  19
  -1  -4   6 1005.33 356.916  19
  -1  -4   6 1287.50 404.745  24
  -1  -4   5 459.290 248.949   4
   1   4  -5 1398.31 463.536   1
   1   4  -4 2093.19 459.729  12
  -1  -4   4 3150.91 555.258   8
  -1  -4   4 2014.94 426.904   4
  -1  -4   3 24701.9 1414.14   8
  -1  -4   3 24362.9 1271.43   4
   1   4  -3 25875.0 1332.54  12
  -1  -4   3 25472.2 1312.30   6
  -1  -4   2 76939.6 2097.46   4
  -1  -4   2 77020.0 2340.27   8
  -1  -4   2 77445.7 1988.66   5
  -1  -4   2 77757.2 2242.90   6
   1   4  -2 78693.8 1953.65  12
  -1  -4   1 75757.7 2198.20   8
  -1  -4   1 75993.9 1987.84   5
  -1  -4   1 76553.2 2157.00   6
  -1  -4   1 78532.1 2033.17   4
  -1  -4   0 82553.9 2186.79   8
  -1  -4   0 89042.1 2179.37   4
  -1  -4   0 88555.5 2150.09   5
  -1  -4   0 88602.2 2276.58   6
  -1  -4  -1 410.131 222.504   5
   1   4   1 550.637 193.474   7
  -1  -4  -1 278.049 207.333   6
  -1  -4  -2 19331.9 1076.27   5
  -1  -4  -2 19915.3 1065.67   6
   1   4   2 20366.1 1090.63   7
  -1  -4  -2 19783.2 1035.34   1
  -1  -4  -3 134160. 2920.81   1
   1   4   3 137646. 3047.51   7
  -1  -4  -3 135935. 2780.51   6
  -1  -4  -3 133922. 2928.69   5
  -1  -4  -4 7831.61 783.675   1
   1   4   4 6904.33 764.177   7
   1   4   5 30678.4 1741.45   7
  -1  -4  -5 33141.2 1753.75   1
  -1  -4  -5 30059.8 1527.16   5
   1   4   6 1512.46 470.049   7
  -1  -4  -6 1591.58 450.510   1
   1   4   7 4924.15 739.530  19
   1   4   7 8428.97 935.222  25
   1   4   8 6335.01 883.876  19
   1   4   8 6028.23 824.053  25
   1   4   9 7420.45 902.087  25
   1   4   9 6735.93 908.177  19
   1   4  10 2400.47 497.923  19
   1   4  11 103.692 141.434  19
  -1  -5  10 150.722 149.364  22
  -1  -5  10 264.913 157.695  14
  -1  -5   9 432.159 241.848  14
  -1  -5   9 471.873 265.886  22
  -1  -5   8 116.765 231.371  14
  -1  -5   8 212.273 206.479  22
  -1  -5   7 95.6043 219.110  14
  -1  -5   6 13445.7 1239.66  14
  -1  -5   6 14594.6 1323.66  24
  -1  -5   5 4156.09 711.821  24
  -1  -5   5 4835.62 739.642  14
  -1  -5   4 6677.04 810.367   4
  -1  -5   4 7473.10 937.306   8
  -1  -5   3 1234.22 379.645   4
  -1  -5   3 1579.40 419.090   8
  -1  -5   3 1670.41 440.983   6
  -1  -5   2 95840.6 2846.07   6
  -1  -5   2 95977.5 2959.23   8
  -1  -5   2 98651.0 2684.43   4
  -1  -5   2 99475.6 2604.92   5
  -1  -5   1 7926.60 753.527   5
  -1  -5   1 6638.92 705.101   4
  -1  -5   1 7148.94 791.597   8
  -1  -5   1 6983.13 779.099   6
  -1  -5   0 3362.76 517.967   5
   1   5   0 3564.21 481.492   7
  -1  -5   0 4753.05 636.039   6
  -1  -5   0 3250.45 505.703   4
  -1  -5   0 3329.01 526.755   8
   1   5   1 3010.67 461.668   7
  -1  -5  -1 3616.22 537.375   6
  -1  -5  -1 3072.81 501.040   5
  -1  -5  -1 3626.13 517.635   8
  -1  -5  -2 24465.9 1264.69   8
   1   5   2 24901.7 1358.34   7
  -1  -5  -2 27601.7 1438.96   6
  -1  -5  -2 25643.6 1405.43   5
  -1  -5  -3 43557.7 1805.74   6
   1   5   3 40706.6 1846.61   7
  -1  -5  -3 42090.8 1854.08   5
   1   5   4 7044.59 852.702   7
  -1  -5  -4 8721.84 881.251   1
  -1  -5  -4 7444.84 823.716   5
   1   5   5 171.824 203.403   7
  -1  -5  -5-57.0337 199.480   5
  -1  -5  -5 264.297 214.323   1
  -1  -5  -6 2077.43 512.893  13
   1   5   7 3617.79 643.987  25
   1   5   7 3659.29 672.496  19
   1   5   8 2241.29 523.980  25
   1   5   8 2520.51 605.752  19
   1   5   9 143.482 262.238  25
   1   5   9-0.93724 304.953  19
   1   5  10 1164.13 353.140  19
   1   5  11-67.0510 142.937  19
  -1  -6   9 188.077 169.689  14
  -1  -6   9 381.460 224.093  22
  -1  -6   8 2344.00 477.399  22
  -1  -6   8 2436.67 521.459  14
  -1  -6   7 183.891 309.824  14
  -1  -6   7 798.256 389.602  22
  -1  -6   6 1485.66 455.315  14
  -1  -6   6 1808.74 472.697  22
  -1  -6   5 27536.5 1764.60  14
  -1  -6   5 28542.2 1765.27  22
  -1  -6   4 3340.51 617.508  24
  -1  -6   4 3230.86 607.983  22
  -1  -6   4 4819.71 727.214  14
  -1  -6   3 566.253 336.104   8
  -1  -6   3 305.491 240.517   6
  -1  -6   2 20887.9 1499.46   6
  -1  -6   2 14932.1 1199.23   4
  -1  -6   1 7811.40 864.826   5
  -1  -6   1 6509.43 835.142   8
  -1  -6   1 6932.82 799.310   4
  -1  -6   1 8119.21 921.817   6
  -1  -6   0 23387.8 1536.69   6
  -1  -6   0 22048.2 1458.92   8
  -1  -6   0 21918.8 1418.71   5
  -1  -6  -1 19327.5 1326.50   8
   1   6   1 18837.5 1259.13   7
  -1  -6  -1 19839.3 1369.16   5
  -1  -6  -1 19448.4 1379.71   6
   1   6   2 484.152 248.633   7
  -1  -6  -2 647.679 294.646   5
  -1  -6  -2 237.091 208.052   6
  -1  -6  -3 1348.02 400.067   6
   1   6   3 1030.19 359.174   7
  -1  -6  -3 1387.90 413.669   5
  -1  -6  -4 229.121 236.511   5
   1   6   4 996.756 361.505   7
  -1  -6  -5 23236.9 1543.20  13
   1   6   6 5018.61 729.758  25
  -1  -6  -6 4127.30 695.554  13
  -1  -6  -7 4733.72 748.897  13
   1   6   7 4577.13 718.203  25
   1   6   8-91.6967 267.523  19
   1   6   8-77.9929 233.774  25
   1   6   9 829.264 306.180  19
   1   6  10 1543.24 380.127  19
  -1  -7   8 1105.29 323.473  14
  -1  -7   8 1056.44 306.560  22
  -1  -7   7 291.105 221.561  22
  -1  -7   7-29.0337 152.670  14
  -1  -7   6 44.9670 199.010  14
  -1  -7   6 353.808 296.012  22
  -1  -7   5 1411.62 421.465  14
  -1  -7   5 1535.44 438.980  22
  -1  -7   4 3665.32 676.175  14
  -1  -7   4 4204.90 717.497  22
  -1  -7   3 6124.09 828.352  22
  -1  -7   3 6441.90 841.702  14
  -1  -7   2 16259.8 1222.21  13
  -1  -7   2 16684.4 1347.77  14
  -1  -7   2 15894.2 1283.81  22
  -1  -7   1 157.400 244.439  14
  -1  -7   1-17.2795 221.513   5
  -1  -7   0 155.936 265.627   8
  -1  -7   0 20.6479 178.880   5
  -1  -7   0 661.093 380.740   6
  -1  -7  -1 1175.70 417.005   6
  -1  -7  -1 1019.59 386.818   5
  -1  -7  -1 1513.30 438.173   8
  -1  -7  -2 42162.6 2223.44   6
   1   7   2 41199.6 2143.29   7
  -1  -7  -3 1471.46 396.513  17
  -1  -7  -3 757.773 317.624  13
  -1  -7  -4 2265.32 549.742  13
  -1  -7  -5 3030.16 610.664  13
  -1  -7  -6-117.841 237.658  13
   1   7   6 316.580 208.617  25
  -1  -7  -7 675.920 278.320  20
   1   7   7 520.811 284.556  25
   1   7   8 1422.10 434.057  19
   1   7   8 1077.19 360.334  25
   1   7   9-31.6625 177.169  19
   1   7  10 389.102 183.286  19
  -1  -8   7 1446.24 350.650  14
  -1  -8   6 594.787 270.071  14
  -1  -8   5 3634.68 659.977  22
  -1  -8   5 3065.33 609.064  14
  -1  -8   4-89.8765 244.886  14
  -1  -8   3 5555.76 832.017  14
  -1  -8   2 283.945 269.965  14
  -1  -8   1 2185.39 548.875  14
  -1  -8   1 2934.43 562.514  13
  -1  -8   0 2226.57 485.596  13
  -1  -8   0 1821.94 526.960  14
  -1  -8  -1 29565.1 1719.82  13
  -1  -8  -1 25374.0 1658.42  17
  -1  -8  -2 511.870 278.253  17
  -1  -8  -2 412.517 248.039  13
  -1  -8  -3 835.006 362.366  13
  -1  -8  -3 536.080 301.268  17
  -1  -8  -4 744.949 357.102  13
  -1  -8  -5 5575.40 793.092  13
  -1  -8  -6 3695.56 663.195  13
   1   8   7 4246.57 575.602  25
  -1  -8  -7 4198.48 615.299  20
   1   8   7 4562.74 716.774  19
   1   8   8 1877.98 432.363  19
  -1  -8  -8 1845.93 363.777  20
   1   8   9 2921.26 438.844  19
  -1  -9   6 438.006 172.428  14
  -1  -9   5 4193.88 616.434  14
  -1  -9   5 3740.13 521.941  17
  -1  -9   4 1727.93 410.246  17
  -1  -9   4 849.270 324.054  14
  -1  -9   3 2423.50 521.678  17
  -1  -9   3 2637.83 547.640  14
  -1  -9   2 9290.66 1016.17  17
  -1  -9   2 9702.98 1056.31  14
  -1  -9   1-186.102 246.897  17
  -1  -9   1 36.2458 225.465  14
  -1  -9   0 109.794 239.082  13
  -1  -9   0 93.7724 204.297  17
  -1  -9  -1 181.623 247.427  17
  -1  -9  -1 423.024 250.120  13
  -1  -9  -2 19954.0 1409.12  13
  -1  -9  -2 18799.8 1400.80  17
  -1  -9  -3 4849.66 700.324  17
  -1  -9  -3 3823.27 646.156  13
  -1  -9  -4 2018.52 492.644  13
  -1  -9  -4 1789.37 431.991  17
  -1  -9  -5 520.966 262.611  13
  -1  -9  -6-76.0913 155.953  20
  -1  -9  -7 1556.64 336.080  20
   1   9   7 1078.96 359.343  19
   1   9   8-11.9225 125.553  19
  -1 -10   4 250.117 180.907  17
  -1 -10   3 244.612 207.955  17
  -1 -10   2-254.119 211.165  17
  -1 -10   1 4460.02 651.216  17
  -1 -10   0 164.503 213.005  17
  -1 -10  -1 118.516 207.347  17
  -1 -10  -2 2661.98 468.072  13
  -1 -10  -2 2461.37 483.026  17
  -1 -10  -3 694.810 279.129  17
  -1 -10  -3 1074.43 313.947  13
  -1 -10  -4 1198.98 318.811  13
  -1 -10  -5 4288.95 553.908  20
   1  10   6 77.7581 154.144  19
  -1 -10  -6 31.2836 121.970  20
  -1 -11   2 1450.92 300.322  17
  -1 -11   1-53.8212 136.054  17
  -1 -11   0-158.997 151.092  17
  -1 -11  -1 344.836 176.925  17
  -1 -11  -2 579.958 206.673  17
  -1 -11  -3 36.7545 118.047  20
  -1 -11  -4 8271.36 613.572  20
   2 -10  -3 392.514 160.823  17
   2 -10  -2 4752.29 519.563  17
   2 -10  -1 1390.73 344.428  17
   2 -10   0 162.279 190.138  17
   2 -10   1 530.035 207.734  17
   2 -10   1 787.141 248.348  18
   2 -10   2 466.517 174.818  17
   2  -9  -5 2316.04 348.340  17
   2  -9  -5 2628.73 391.576  20
  -2   9   5 2523.46 362.219  19
   2  -9  -4 1884.12 362.871  17
  -2   9   4 2117.95 374.470  19
   2  -9  -4 1716.89 372.836  20
   2  -9  -3 5897.04 692.497  17
   2  -9  -3 5133.61 625.131  20
   2  -9  -2-17.0493 185.726  17
   2  -9  -2 88.6744 175.456  20
   2  -9  -1 161.094 216.526  17
   2  -9   0 7819.32 853.024  17
   2  -9   1 3958.95 637.907  17
   2  -9   2 241.349 174.460  18
   2  -9   2 215.659 243.684  17
   2  -9   3 1716.22 386.191  17
   2  -9   3 1336.87 366.268  18
   2  -9   4 339.114 222.751  14
   2  -9   5 1016.17 259.667  14
  -2   8   7-5.90111 113.246  19
   2  -8  -7 48.7859 90.5400  20
  -2   8   6-447.328 236.252  19
   2  -8  -6 72.5421 143.393  20
   2  -8  -5 345.123 178.376  17
  -2   8   5 301.871 200.165  19
   2  -8  -5 345.619 237.007  20
   2  -8  -4 560.847 285.199  17
   2  -8  -4 729.307 306.777  20
   2  -8  -3 6162.75 805.315  17
   2  -8  -3 5892.61 783.313  20
   2  -8  -2 7508.38 912.014  17
   2  -8  -2 8132.65 894.392  20
   2  -8  -1 4403.03 748.868  17
   2  -8  -1 5065.48 705.440  20
   2  -8   0-277.954 295.833  17
   2  -8   1-108.266 225.659  17
   2  -8   2 9234.35 999.029  17
   2  -8   2 8484.55 1000.23  14
   2  -8   3 1438.08 467.667  14
   2  -8   3 2066.04 488.579  17
   2  -8   3 1644.59 464.629  18
   2  -8   4 4041.46 650.768  14
   2  -8   4 5086.89 705.370  18
   2  -8   5 3440.28 591.164  14
   2  -8   6 2023.10 433.825  14
   2  -8   7 29.3693 121.503  14
   2  -7  -8 473.657 164.080  20
  -2   7   8 231.674 157.015  19
  -2   7   7-142.980 159.559  19
   2  -7  -7 137.532 146.266  20
   2  -7  -6 194.502 208.925  17
   2  -7  -6-200.359 193.630  20
  -2   7   6-403.402 271.993  19
  -2   7   5 934.611 386.578  19
   2  -7  -5 529.983 281.786  20
   2  -7  -5 721.883 337.255  17
   2  -7  -4 216.674 283.944  17
   2  -7  -4 189.164 225.322  20
   2  -7  -3 14360.6 1269.70  17
   2  -7  -3 16314.8 1322.51  20
   2  -7  -2 1881.90 515.472  17
   2  -7  -1 2229.04 514.411  17
   2  -7   0 2093.18 510.436  17
   2  -7   1 3631.10 705.641  14
   2  -7   1 3368.49 650.370  17
   2  -7   2-216.138 271.210  17
   2  -7   2-403.190 312.749  14
   2  -7   3 11578.3 1165.76  14
   2  -7   3 9487.02 1010.68  17
   2  -7   4 2378.84 542.338  18
   2  -7   4 2396.45 571.071  14
   2  -7   5 91.0685 197.450  18
   2  -7   5-201.295 285.265  14
   2  -7   5 264.880 228.280  24
   2  -7   6 17.9954 179.026  24
   2  -7   6 206.245 232.397  14
   2  -7   7 2142.14 470.280  14
   2  -7   8 197.747 145.373  14
  -2   6   9 1048.54 268.911  19
  -2   6   8-138.597 181.058  19
   2  -6  -8-83.7884 132.798  20
   2  -6  -7 92.2950 153.510  20
  -2   6   7 34.3567 141.058  19
   2  -6  -6-79.5665 233.803  17
   2  -6  -6-205.174 263.964  20
  -2   6   6 296.758 288.852  19
   2  -6  -5 4265.25 695.887  20
   2  -6  -5 4557.85 701.889  17
   2  -6  -4-347.317 287.200  20
   2  -6  -4 16.3395 204.882  17
   2  -6  -3 616.370 355.666  17
   2  -6  -2 2732.66 561.806  17
   2  -6  -1 8226.82 944.444  17
   2  -6   0 412.820 286.540   5
   2  -6   0 496.256 318.284   6
   2  -6   1 2454.67 533.282   5
   2  -6   2 8654.77 966.981  14
   2  -6   2 9332.20 967.320  17
   2  -6   2 8776.59 1028.30  21
   2  -6   3 1204.83 423.533  14
   2  -6   3 1191.81 427.647  17
   2  -6   4 12632.7 1171.60  18
   2  -6   4 14282.1 1272.99  14
   2  -6   5 2159.78 528.643  18
   2  -6   5 2143.65 576.436  24
   2  -6   5 2664.08 602.801  14
   2  -6   6 363.449 314.374  14
   2  -6   6 284.790 280.683  24
   2  -6   7 567.645 322.817  14
   2  -6   7 778.291 395.641  24
   2  -6   8 676.933 333.685  24
   2  -6   8-111.439 191.238  14
   2  -6   9-25.7654 145.004  14
  -2   5  10 1175.59 252.272  19
  -2   5   9 1435.99 365.012  19
   2  -5  -8 115.800 143.992  20
  -2   5   8 315.494 250.900  19
   2  -5  -7 1166.85 387.370  20
  -2   5   7 1526.56 492.395  19
  -2   5   6 4499.06 773.652  19
   2  -5  -6 5288.92 788.144  20
   2  -5  -5-291.403 289.351  17
   2  -5  -5-37.7151 216.164  20
   2  -5  -4 10308.6 1036.33  17
   2  -5  -4 8962.77 940.774  20
   2  -5  -4 10235.0 1006.10  13
  -2   5   3 376.991 356.245   7
   2  -5  -2 976.244 336.021   6
   2  -5  -2 455.310 270.765   5
   2  -5  -1 9125.61 964.540   5
   2  -5  -1 9508.27 963.904   6
   2  -5   0 16700.7 1264.57   5
   2  -5   0 16515.7 1276.19   6
   2  -5   1 54547.5 2203.55   5
   2  -5   1 53314.5 2133.50   9
   2  -5   1 55241.4 2340.41   6
   2  -5   2 2210.09 517.880   6
   2  -5   2 2066.23 488.718   9
   2  -5   3 19392.9 1431.59   9
   2  -5   3 29126.1 1792.80   6
   2  -5   4 1434.87 544.297   6
   2  -5   5 407.008 332.035  18
   2  -5   5 1108.66 397.829  24
   2  -5   5 332.820 257.347  14
   2  -5   6 2495.21 585.476  14
   2  -5   6 2238.99 570.992  24
   2  -5   7 5572.40 860.089  24
   2  -5   7 6868.37 907.807  14
   2  -5   8 101.027 214.976  14
   2  -5   8 63.5289 264.763  24
   2  -5   9 3132.24 561.924  14
   2  -5   9 3236.44 586.613  24
   2  -5  10 3381.89 485.588  14
  -2   4  10 352.840 211.638  19
  -2   4   9 3950.41 626.657  19
   2  -4  -8 2553.68 512.428  20
  -2   4   8 2358.00 541.774  19
   2  -4  -7-59.0668 189.490  20
  -2   4   7-10.2820 228.648  19
   2  -4  -6 27244.2 1674.79  20
  -2   4   6 24217.9 1660.17  19
   2  -4  -5 30347.4 1716.95  20
  -2   4   5 33158.2 2022.76  10
  -2   4   5 30144.1 1782.18  19
  -2   4   4 9176.93 1019.23   7
  -2   4   3 1503.97 408.541   7
  -2   4   2 151.274 188.170   7
   2  -4  -2 457.186 264.393   5
   2  -4  -2 393.728 228.384   6
   2  -4  -1 17467.5 1191.49   5
  -2   4   1 19046.6 1119.28   7
   2  -4  -1 18217.5 1180.17   6
   2  -4  -1 18243.4 1121.60   9
   2  -4   0 34782.7 1643.59   6
   2  -4   0 34218.1 1600.61   5
   2  -4   0 33975.5 1518.25   9
   2  -4   1 10065.2 903.358   6
   2  -4   1 11650.8 914.868   9
   2  -4   1 12159.4 935.108   5
   2  -4   2 79753.9 2512.11   9
   2  -4   2 82423.7 2609.02   6
   2  -4   2 85610.4 2353.57   5
   2  -4   3 1394.34 392.943   9
  -2   4  -3 1362.31 340.813  12
   2  -4   3 1636.52 418.754   6
  -2   4  -4 52373.8 2222.57  12
   2  -4   4 52689.2 2231.46   6
  -2   4  -5 6355.89 858.068  12
   2  -4   6 2269.39 486.942  18
   2  -4   6 1293.09 443.252  24
   2  -4   7 4211.71 750.163  24
   2  -4   8 7197.43 923.989  14
   2  -4   8 7646.46 969.602  24
   2  -4   9 124.808 217.660  24
   2  -4   9 120.337 220.048  14
   2  -4  10 3964.91 608.475  14
   2  -4  11 2412.37 394.999  14
  -2   3  10 23.8060 188.071  19
  -2   3   9 157.729 202.033  19
  -2   3   8 15448.8 1325.66  19
   2  -3  -7 590.119 295.302  20
  -2   3   7 381.773 348.759  19
  -2   3   6 2372.19 549.928  19
   2  -3  -6 2338.21 491.634  20
  -2   3   5 48984.4 2379.10   7
  -2   3   5 53468.0 2370.45  10
  -2   3   4 14465.0 1205.71   7
  -2   3   3 5163.39 679.747   7
  -2   3   3 3143.02 495.679   3
  -2   3   2 22993.4 1161.87   3
  -2   3   2 22865.3 1242.39   7
   2  -3  -2 20897.6 1220.65   5
   2  -3  -2 23114.2 1167.50   6
  -2   3   1 7583.21 649.483   7
   2  -3  -1 6846.93 647.579   6
   2  -3  -1 7629.60 712.986   5
  -2   3   1 8162.95 638.213   3
  -2   3   0 516.101 178.660   7
   2  -3   0 299.109 194.741   6
   2  -3   0 246.944 175.978   9
  -2   3   0 270.503 158.918   3
   2  -3   0 547.337 218.478   5
   2  -3   1 73948.4 2136.40   6
   2  -3   1 76734.2 2019.12   5
  -2   3  -1 75414.6 1707.01   3
   2  -3   1 73588.8 2061.24   9
   2  -3   2 7797.23 727.102   6
   2  -3   2 7285.07 597.462   5
  -2   3  -2 8410.99 594.955   3
   2  -3   2 7548.37 706.154   9
   2  -3   3 126870. 3056.11   9
   2  -3   3 129031. 2977.41   6
   2  -3   4 6505.86 767.409   9
   2  -3   4 9048.41 833.461   6
  -2   3  -4 7407.06 793.605  12
  -2   3  -5 12859.7 1137.84  12
  -2   3  -6 2996.27 612.695  12
   2  -3   7 22979.9 1625.71  24
   2  -3   8 7296.33 952.225  24
   2  -3   9 2203.58 552.016  24
   2  -3  10 5137.86 663.645  23
   2  -3  10 4615.48 671.850  24
   2  -3  11 573.744 241.729  14
  -2   2  11 23.4334 137.329  19
  -2   2  10 883.242 325.132  19
  -2   2   9 3306.56 571.096  23
  -2   2   9 4713.83 742.901  19
  -2   2   8 104.420 211.864  23
  -2   2   8 289.976 268.211  19
  -2   2   7 913.585 334.926  23
  -2   2   7-541.180 341.934  19
  -2   2   6 9349.24 1099.35   7
   2  -2  -6 9782.35 1124.62  11
  -2   2   5 575.895 305.595   7
   2  -2  -5-100.638 255.949  11
   2  -2  -5 319.015 204.190   1
  -2   2   4 99991.2 2953.71   7
   2  -2  -4 109663. 2745.68   1
   2  -2  -4 106526. 2911.30  11
  -2   2   4 104429. 2852.25  10
   2  -2  -3 128546. 2548.60   1
  -2   2   3 125430. 3001.58   7
   2  -2  -3 127497. 2856.63  11
  -2   2   3 125505. 2858.66   3
  -2   2   2 9473.75 726.269   3
  -2   2   2 8507.77 710.050   7
   2  -2  -2 9884.63 578.259   1
   2  -2  -2 9651.35 666.310   6
  -2   2   2 9481.52 695.571   2
   2  -2  -2 9453.39 715.432  11
   2  -2  -1 239129. 3443.28   5
  -2   2   1 236859. 3224.68   7
  -2   2   1 239823. 3212.41   3
  -2   2   1 238073. 2991.72   2
   2  -2  -1 239829. 3267.31   6
   2  -2  -1 236922. 1921.87   1
  -2   2   0 60229.3 1310.02   2
  -2   2   0 57561.1 1355.68   7
  -2   2   0 61559.8 1486.79   3
   2  -2   0 60699.8 1659.62   6
   2  -2   0 61340.9 1639.45   5
  -2   2  -1 8241.31 395.344   7
   2  -2   1 7438.42 598.892   9
   2  -2   1 8303.64 577.637   5
  -2   2  -1 8083.84 449.192   2
   2  -2   1 8147.74 633.374   6
  -2   2  -1 8326.98 543.949   3
   2  -2   2 25689.2 1135.51   9
  -2   2  -2 27628.7 667.856   1
   2  -2   2 28567.9 1192.23   6
  -2   2  -2 26506.1 854.040   2
  -2   2  -2 27776.4 1022.28  10
  -2   2  -3-20.5195 81.9660   1
   2  -2   3 58.4248 163.165   6
   2  -2   3-4.28489 168.990   9
  -2   2  -4 202150. 3217.47   1
   2  -2   4 193959. 3706.08   9
  -2   2  -5 7203.34 722.491   1
  -2   2  -5 8827.90 876.014  12
  -2   2  -6 3416.84 629.217  12
  -2   2  -7 3943.80 758.996  12
   2  -2   8 97541.2 3307.35  16
   2  -2   8 94685.0 3198.18  23
   2  -2   8 103923. 3385.85  24
   2  -2   9 1021.62 418.817  23
   2  -2   9 611.527 339.167  24
   2  -2  10 1387.27 415.739  23
   2  -2  10 552.851 287.912  24
   2  -2  11 10624.9 907.064  23
   2  -2  12 24.6365 41.1874  14
  -2   1  11 279.351 182.990  19
  -2   1  10 3473.03 588.644  19
  -2   1  10 3231.06 527.797  23
  -2   1   9 10904.4 1078.37  23
  -2   1   9 10472.3 1090.93  19
  -2   1   8 14817.1 1267.26  23
  -2   1   8 13991.0 1275.89  19
  -2   1   7 644.358 299.378  23
  -2   1   7-375.564 300.948  19
  -2   1   6 11768.1 1194.91   7
   2  -1  -6 12355.6 1247.89  11
  -2   1   6 10661.7 1150.26   4
   2  -1  -6 8332.56 955.469   1
   2  -1  -5 28288.7 1587.77   1
   2  -1  -5 27712.8 1665.90  11
  -2   1   5 24799.3 1557.69   7
   2  -1  -4 63103.2 2260.42  11
   2  -1  -4 65995.4 2120.38   1
  -2   1   4 65875.7 2285.04   7
  -2   1   4 62169.0 2158.28   3
  -2   1   4 62636.4 1993.82  10
   2  -1  -3 133136. 2931.01  11
  -2   1   3 133476. 2898.59   7
   2  -1  -3 137698. 2635.47   1
  -2   1   3 133335. 2849.98   3
  -2   1   3 134471. 2729.08  10
   2  -1  -2 8459.67 554.383   1
  -2   1   2 7776.42 638.096   7
  -2   1   2 8277.75 644.157  10
  -2   1   2 8154.37 622.731   2
  -2   1   2 7550.57 636.300   3
   2  -1  -2 8710.24 672.982  11
  -2   1   1 334865. 3512.43   7
  -2   1   1 327494. 3400.87   2
  -2   1   1 326797. 3567.19   3
   2  -1  -1 327723. 3674.96  11
   2  -1  -1 335938. 2649.17   1
  -2   1   0 75008.4 1416.72   2
  -2   1   0 73953.7 1397.73   7
  -2   1   0 77506.2 1561.03   3
   2  -1   0 72773.2 1603.89   6
  -2   1  -1 568067. 3771.38   2
  -2   1  -1 574549. 4164.87   3
  -2   1  -1 571446. 2938.41   7
  -2   1  -1 576931. 4262.65  10
   2  -1   2 39145.0 1243.46   6
  -2   1  -2 39148.2 900.103   1
  -2   1  -2 38398.3 1052.56   2
  -2   1  -2 37484.3 1016.78  10
   2  -1   3 61677.1 872.990   4
  -2   1  -3 63991.0 1495.26   1
   2  -1   3 61572.3 1729.61   9
  -2   1  -3 60714.7 1114.44  10
   2  -1   4 14818.8 949.132   9
  -2   1  -4 15221.0 885.830   1
  -2   1  -5 2445.92 474.990  12
  -2   1  -5 2783.26 449.269   1
  -2   1  -6 1841.62 421.814   1
  -2   1  -6 1077.94 411.392  12
  -2   1  -7 21832.6 1562.86   1
  -2   1  -7 24721.0 1723.70  12
   2  -1   8 9780.02 1057.37  16
   2  -1   8 9913.40 1058.15  23
   2  -1   8 9007.64 1000.11  24
   2  -1   9 248.838 305.939  16
   2  -1   9 59.0720 227.944  23
   2  -1  10 3474.79 651.819  23
   2  -1  11 853.831 344.524  23
   2  -1  12 760.010 253.494  23
  -2   0  11 1018.06 292.330  19
  -2   0  10 1850.55 427.175  23
  -2   0  10 2330.36 525.748  19
  -2   0   9 2712.73 630.936  19
  -2   0   9 2327.79 513.991  23
  -2   0   8 21535.1 1563.75  23
  -2   0   8 21722.7 1579.75  19
  -2   0   7 1107.03 377.353  23
  -2   0   7 1432.81 472.728  19
  -2   0   6 7321.92 947.765   7
   2   0  -6 6882.01 950.407  11
  -2   0   6 6632.82 895.009   4
   2   0  -6 6902.91 894.499   1
   2   0  -5 1210.87 357.517   1
  -2   0   5 1277.56 391.675   4
  -2   0   5 1109.78 365.192   7
   2   0  -5 1453.18 423.552  11
   2   0  -4 53353.3 1942.69   1
  -2   0   4 51523.3 1931.34   3
  -2   0   4 57011.1 2041.55   7
  -2   0   4 48658.3 1912.24   4
  -2   0   4 50131.9 1586.00  10
   2   0  -4 52349.5 2039.23  11
   2   0  -3 107.506 148.075   1
  -2   0   3 129.213 193.928   7
   2   0  -3 152.491 214.603  11
  -2   0   3 382.222 166.750  10
  -2   0   3 229.757 197.428   2
  -2   0   3 128.992 186.352   3
   2   0  -2 7830.94 637.747  11
  -2   0   2 5804.40 287.357   8
  -2   0   2 8143.02 616.508   7
  -2   0   2 6926.52 565.786   2
  -2   0   2 7702.49 613.374   3
  -2   0   2 7788.18 571.429  10
  -2   0   1 107352. 1784.61   4
  -2   0   1 106106. 1890.88   2
  -2   0   1 104545. 1928.73   3
  -2   0   0 353089. 2481.00   4
  -2   0   0 358948. 2970.62   7
  -2   0   0 353085. 3161.83   3
  -2   0   0 355117. 3034.66   2
  -2   0  -1 15398.4 345.218   4
  -2   0  -1 16087.4 642.176   2
  -2   0  -1 16895.0 535.031   1
  -2   0  -1 14832.8 638.662  10
   2   0   2 34445.8 1020.29   9
  -2   0  -2 32647.4 871.025  10
  -2   0  -2 35861.6 963.036   1
   2   0   3 33295.8 1139.47   9
  -2   0  -3 35528.3 1165.35   1
   2   0   3 34558.2 812.941   7
   2   0   4 60743.4 1726.12   9
   2   0   4 62820.6 1312.51   7
  -2   0  -4 60505.9 1778.99   1
  -2   0  -5 5947.83 657.839   1
  -2   0  -5 5310.53 645.121  12
  -2   0  -6 16570.6 1227.26  12
  -2   0  -6 15779.7 1188.83   1
  -2   0  -7 12945.2 1205.17  12
  -2   0  -7 13044.5 1218.00   1
   2   0   8 21257.9 1506.94  16
   2   0   8 22229.9 1533.35  23
   2   0   9 2072.70 530.381  16
   2   0   9 3110.83 635.599  23
   2   0  10 25805.2 1708.04  16
   2   0  10 24786.2 1662.38  23
   2   0  11 976.603 376.048  23
   2   0  12 2151.48 390.662  23
  -2  -1  11 453.027 223.979  19
  -2  -1  10 1931.57 431.228  23
  -2  -1  10 1947.41 454.551  19
  -2  -1   9 1144.12 379.636  23
  -2  -1   9 896.484 412.264  19
  -2  -1   8 573.689 292.791  23
  -2  -1   8 289.856 330.698  19
  -2  -1   7 5176.92 767.065  19
  -2  -1   7 4830.00 727.330  23
   2   1  -6 25344.4 1691.86   1
  -2  -1   6 25606.7 1735.87   4
   2   1  -6 22394.3 1684.46  11
   2   1  -5 103.439 198.353   1
  -2  -1   5 73.1489 228.443   4
  -2  -1   5-20.3813 219.652   7
   2   1  -5 65.8538 200.441  11
  -2  -1   4 44706.3 1775.67   7
  -2  -1   4 41974.6 1772.13   4
   2   1  -4 42561.4 1795.13   1
  -2  -1   3 30213.4 1305.76   3
  -2  -1   3 32802.4 1357.51   7
  -2  -1   3 31226.6 1331.81   2
   2   1  -3 30707.5 1404.07  11
  -2  -1   3 30945.0 1351.19   4
  -2  -1   2 9735.56 664.843   4
   2   1  -2 10143.2 719.836  11
  -2  -1   2 9729.84 658.445   2
  -2  -1   2 9309.27 650.279   3
  -2  -1   2 10683.4 687.151   7
  -2  -1   1 226667. 2701.21   4
  -2  -1   1 234455. 2750.05   2
  -2  -1   1 231423. 2750.64   3
  -2  -1   0 75283.6 1293.79   4
  -2  -1   0 80111.5 1413.87   3
   2   1   0 75925.3 1466.84  11
  -2  -1   0 78088.9 1424.72   2
  -2  -1  -1 441028. 3393.70   2
  -2  -1  -1 437154. 3372.25   1
  -2  -1  -1 430419. 2827.81   4
   2   1   2 2201.02 232.846   9
  -2  -1  -2 2315.99 294.384   1
   2   1   3 84562.1 1575.59   9
  -2  -1  -3 86337.2 1941.28   1
  -2  -1  -3 84557.3 1349.56   5
   2   1   4 51927.2 1457.08   7
  -2  -1  -4 50040.4 1692.40   1
  -2  -1  -4 52199.5 1568.77  12
   2   1   5 106446. 2372.16   7
  -2  -1  -5 108587. 2630.25  12
  -2  -1  -5 103153. 2754.01   1
  -2  -1  -6 1223.23 391.732   1
  -2  -1  -6 1020.25 357.683  12
  -2  -1  -7 21706.7 1581.81   1
  -2  -1  -7 25393.3 1624.06  12
   2   1   8 12046.4 1119.64  23
   2   1   9 1973.77 501.189  23
   2   1   9 856.750 369.784  16
   2   1  10-171.113 316.845  16
   2   1  10 356.413 240.286  23
   2   1  11 4335.18 660.306  16
   2   1  11 3260.72 566.269  23
   2   1  12 1026.89 302.429  23
  -2  -2  11 538.227 203.683  19
  -2  -2  10-160.058 225.951  23
  -2  -2  10 146.853 247.454  19
  -2  -2   9 3948.95 685.910  19
  -2  -2   9 4227.51 708.572  23
  -2  -2   8 6553.61 881.728  23
  -2  -2   8 6376.97 864.137  19
  -2  -2   7 270.704 279.429  23
  -2  -2   7 181.152 270.401  19
  -2  -2   6 69190.5 2793.48   4
   2   2  -6 70572.2 2927.72   1
   2   2  -6 72599.7 3039.55  11
   2   2  -5 345.809 244.290   1
  -2  -2   5-192.178 228.529   4
  -2  -2   4 2034.51 364.864   8
  -2  -2   4 1248.11 342.202   4
  -2  -2   3 12007.5 765.335   8
  -2  -2   3 12821.2 881.050   4
   2   2  -2 2553.23 378.969  11
  -2  -2   2 2220.13 330.835   8
  -2  -2   2 2615.10 364.505   4
  -2  -2   2 2226.11 332.984   2
  -2  -2   2 2029.58 312.956   3
  -2  -2   1 611.949 173.552   2
  -2  -2   1 435.025 151.438   3
   2   2  -1 568.540 184.303  11
  -2  -2   0 244119. 2567.13   2
  -2  -2   0 242816. 2330.61   3
   2   2   0 244661. 2528.25  11
  -2  -2  -1 64016.1 1322.91   2
  -2  -2  -1 63078.5 1376.77   4
   2   2   2 732882. 2922.44   9
  -2  -2  -2 735685. 5421.95   1
  -2  -2  -2 742460. 4849.62   5
  -2  -2  -3 80536.6 2010.58   1
  -2  -2  -3 82727.4 1670.23   5
   2   2   4 10424.3 743.632   7
  -2  -2  -4 10390.6 611.868   5
  -2  -2  -4 12195.0 888.859   1
  -2  -2  -4 11026.5 707.002  12
   2   2   5 3883.74 526.790   7
  -2  -2  -5 3265.96 459.626  12
   2   2   6 6640.86 756.551   7
  -2  -2  -6 5916.01 701.393  12
  -2  -2  -6 5529.09 748.099   1
  -2  -2  -7-69.3505 176.079   1
  -2  -2  -7 630.117 315.333  12
   2   2   8-118.420 230.306  23
   2   2   8-860.125 335.360  25
   2   2   9 6810.85 862.574  25
   2   2   9 5700.00 814.241  23
   2   2  10 3631.04 640.168  23
   2   2  10 3635.32 683.048  16
   2   2  11 149.626 204.729  16
   2   2  11 471.868 270.747  23
   2   2  12 98.6873 129.170  23
  -2  -3  10 884.356 309.977  19
  -2  -3   9 1323.41 411.868  23
  -2  -3   9 1589.61 466.961  19
  -2  -3   8 113.348 237.107  23
  -2  -3   8 195.140 267.484  19
  -2  -3   7 2098.38 552.975  19
  -2  -3   7 2710.61 589.232  23
  -2  -3   6 13766.9 1301.31   4
  -2  -3   6 13321.5 1165.69  19
  -2  -3   5 5305.69 741.530   4
   2   3  -5 4859.94 751.210   1
  -2  -3   4 2584.38 464.171   8
  -2  -3   4 2377.56 472.202   4
  -2  -3   3 384.300 156.034   5
  -2  -3   3 33.9863 192.150   8
  -2  -3   3 147.852 185.637   4
  -2  -3   3 165.915 143.850   6
  -2  -3   2 38055.7 1445.46   4
  -2  -3   2 36743.0 1454.29   8
  -2  -3   2 38304.6 1277.67   2
  -2  -3   2 38846.4 1389.94   6
  -2  -3   1 1022.82 240.719   4
  -2  -3   1 1330.24 228.933   2
  -2  -3   1 1003.72 180.590   3
   2   3  -1 1247.35 240.062  11
  -2  -3   0 2682.60 356.424   4
   2   3   0 3218.01 286.446  11
  -2  -3   0 3230.18 242.034   3
  -2  -3   0 2700.79 284.411   2
  -2  -3   0 2750.39 355.657   5
  -2  -3  -1 195921. 2410.69   2
  -2  -3  -1 198934. 1919.07   3
  -2  -3  -1 194640. 2889.05   4
  -2  -3  -1 197673. 2881.66   5
  -2  -3  -2 26152.9 1084.50   5
  -2  -3  -2 26201.5 1147.57   1
  -2  -3  -3 56150.0 1144.09  12
  -2  -3  -3 56828.8 1822.16   1
   2   3   3 56691.4 1748.48   7
  -2  -3  -3 54855.0 1601.32   5
  -2  -3  -4 30447.0 1237.92   5
   2   3   4 31662.5 1424.25   7
  -2  -3  -4 30894.7 1474.47   1
   2   3   5 11405.5 963.948   7
  -2  -3  -5 10806.9 972.260   1
   2   3   6 781.268 358.075   7
  -2  -3  -6 795.700 319.456   1
   2   3   7 30715.2 1847.90   7
  -2  -3  -7 50899.9 2493.56   1
   2   3   8 488.807 335.601  25
   2   3   8 806.696 311.814  23
   2   3   9 10376.9 1059.22  23
   2   3   9 10073.8 1055.15  25
   2   3  10 6203.28 793.344  23
   2   3  11 360.792 221.320  16
   2   3  11 384.514 211.527  23
   2   3  12 128.898 102.899  23
  -2  -4  10-229.749 158.194  22
  -2  -4   9 711.683 302.723  19
  -2  -4   9 592.079 241.963  14
  -2  -4   8 5484.59 790.407  23
  -2  -4   8 3831.04 650.420  14
  -2  -4   8 4509.09 718.335  19
  -2  -4   7 1153.73 426.623  23
  -2  -4   7 1057.58 426.572  19
  -2  -4   6 14070.4 1217.33  19
  -2  -4   6 12337.7 1119.51  23
   2   4  -5 1976.51 521.554   1
  -2  -4   5 862.381 366.711   4
   2   4  -5 2330.34 584.008  11
  -2  -4   4 125.748 177.713   8
  -2  -4   4 217.209 220.645   4
  -2  -4   3 14421.8 1054.00   4
  -2  -4   3 13710.2 980.976   6
  -2  -4   3 15019.8 1127.08   8
  -2  -4   2 34237.5 1496.09   4
  -2  -4   2 36204.3 1639.11   8
  -2  -4   2 35236.4 1539.46   6
   2   4  -2 37185.9 1454.79  11
  -2  -4   2 36325.7 1464.73   5
  -2  -4   1 3683.64 477.562   4
  -2  -4   1 2754.86 463.446   8
  -2  -4   1 3633.40 502.646   6
  -2  -4   1 2581.42 404.785   5
  -2  -4   0 115446. 2685.51   6
  -2  -4   0 117007. 2566.63   4
  -2  -4   0 119707. 2582.15   5
  -2  -4  -1 16486.7 1004.39   6
  -2  -4  -1 17156.6 714.167   2
  -2  -4  -1 17149.5 999.476   5
  -2  -4  -1 16161.7 974.370   4
  -2  -4  -2 200398. 3406.95   5
  -2  -4  -2 191964. 3412.14   6
  -2  -4  -2 192782. 2727.98   2
  -2  -4  -3 11193.3 893.334   1
  -2  -4  -3 11411.3 842.566   6
   2   4   3 11979.0 912.014   7
  -2  -4  -3 11394.5 851.454   5
   2   4   4 10108.1 897.060   7
  -2  -4  -4 9774.87 896.234   1
  -2  -4  -4 10826.5 812.121   6
  -2  -4  -4 9636.58 809.190   5
  -2  -4  -5 27104.0 1398.68   5
  -2  -4  -5 28109.7 1636.12   1
   2   4   5 27294.7 1594.46   7
  -2  -4  -6 25636.5 1697.83   1
   2   4   6 24628.8 1665.14   7
   2   4   7 8878.58 1059.97   7
   2   4   7 8893.04 959.231  25
   2   4   8 892.815 362.208  19
   2   4   8 221.319 300.889  25
   2   4   9 3105.40 631.435  25
   2   4   9 3288.68 641.988  19
   2   4  10 1309.33 398.585  25
   2   4  11 393.568 220.070  16
  -2  -5  10 345.692 172.589  22
  -2  -5   9 280.569 192.088  14
  -2  -5   9 158.324 210.475  22
  -2  -5   8 236.998 172.539  14
  -2  -5   8-15.1685 202.482  22
  -2  -5   7 6251.14 840.132  14
  -2  -5   7 6680.16 879.778  19
  -2  -5   6 11522.4 1136.16  19
  -2  -5   6 11378.9 1123.08  14
  -2  -5   5 1017.59 401.735  19
  -2  -5   5 451.851 263.653  14
  -2  -5   4 20161.5 1534.82   8
  -2  -5   4 14579.7 1227.52   4
  -2  -5   3 23580.7 1571.71   8
  -2  -5   3 24447.7 1483.29   6
  -2  -5   3 23102.9 1447.78   4
  -2  -5   2 5804.27 705.873   4
  -2  -5   2 5573.08 713.884   6
  -2  -5   2 3621.76 615.542   8
  -2  -5   2 5154.02 631.590   5
  -2  -5   1 21391.2 1361.17   8
  -2  -5   1 23668.2 1401.37   6
  -2  -5   1 25426.1 1395.49   4
  -2  -5   1 24519.5 1334.72   5
  -2  -5   0 39109.2 1774.97   8
  -2  -5   0 40314.0 1700.90   5
  -2  -5   0 42050.2 1753.65   4
  -2  -5   0 39641.6 1784.22   6
  -2  -5  -1 44162.8 1807.03   4
  -2  -5  -1 43183.9 1826.58   8
   2   5   1 42236.0 1710.07   7
  -2  -5  -1 43573.8 1841.57   6
  -2  -5  -1 43826.8 1784.53   5
  -2  -5  -2 24183.4 1365.96   6
  -2  -5  -2 23205.1 1318.82   5
   2   5   2 23728.8 1330.89   7
   2   5   3 101850. 2889.49   7
  -2  -5  -3 102490. 2807.53   6
  -2  -5  -3 101791. 2817.71   5
  -2  -5  -4 35577.1 1646.53   6
   2   5   4 30706.8 1686.16   7
  -2  -5  -4 32657.7 1667.74   5
  -2  -5  -4 30805.9 1702.31   1
  -2  -5  -5 2526.12 543.578   1
  -2  -5  -5 2339.37 478.660   5
   2   5   5 2499.69 555.948   7
   2   5   6 6552.66 958.168   7
  -2  -5  -6 5183.65 803.643   1
   2   5   7 24013.4 1570.22  25
  -2  -5  -7 23971.3 1587.54  13
   2   5   8 2223.37 558.572  19
   2   5   8 1746.58 503.076  25
   2   5   9 8989.52 997.784  19
   2   5   9 9474.70 1009.58  25
   2   5  10 4029.70 623.741  25
   2   5  10 4329.63 615.225  19
   2   5  11 1377.85 311.005  16
  -2  -6   9 3129.81 479.880  22
  -2  -6   8 446.764 209.647  13
  -2  -6   8 228.966 186.814  14
  -2  -6   7-61.6585 145.225  13
  -2  -6   7 165.324 194.280  22
  -2  -6   7 166.589 200.987  14
  -2  -6   6 8445.71 978.948  14
  -2  -6   6 8220.95 995.538  22
  -2  -6   5 985.606 385.050  22
  -2  -6   5 1081.48 422.984  14
  -2  -6   4 2093.73 506.198  14
  -2  -6   4 2177.53 506.891  22
  -2  -6   3 9377.11 1023.69   4
  -2  -6   3 9062.49 1098.86   8
  -2  -6   2 102252. 3192.54   4
  -2  -6   2 96961.1 3241.83   6
  -2  -6   1 3066.78 608.716   8
  -2  -6   1 3214.72 598.904   4
  -2  -6   1 3147.93 588.667   6
  -2  -6   1 3125.28 573.952   5
  -2  -6   0 31366.2 1695.28   4
  -2  -6   0 28178.7 1694.26   8
   2   6   0 27143.6 1503.79   7
  -2  -6   0 30646.9 1674.27   5
  -2  -6   0 30597.8 1757.06   6
  -2  -6  -1 1906.81 437.085   8
   2   6   1 1154.48 347.517   7
  -2  -6  -1 1291.16 379.701   6
  -2  -6  -1 1124.21 343.678   5
  -2  -6  -2-240.192 235.256   8
   2   6   2-113.034 200.543   7
  -2  -6  -2 289.579 244.389   5
  -2  -6  -2 344.906 252.262   6
  -2  -6  -3 2509.54 506.985   6
   2   6   3 2151.07 481.383   7
  -2  -6  -3 2169.27 479.660   5
   2   6   4 613.888 323.967   7
  -2  -6  -4 948.972 357.396   5
  -2  -6  -5 6013.84 847.996   5
  -2  -6  -6 19799.0 1449.00  13
   2   6   6 20804.9 1446.81  25
   2   6   7 696.617 358.535  25
  -2  -6  -7 1051.79 408.468  13
   2   6   8-272.599 359.906  19
   2   6   8 118.636 217.152  25
   2   6   9 2128.57 496.804  25
   2   6   9 2311.08 527.028  19
   2   6  10 1956.03 409.944  19
  -2  -7   8 97.5245 91.3037  14
  -2  -7   8 92.4274 138.606  22
  -2  -7   7 1002.80 310.761  14
  -2  -7   7 720.845 292.379  22
  -2  -7   6 4243.74 699.422  22
  -2  -7   6 4463.05 701.261  14
  -2  -7   6 4393.08 640.244  13
  -2  -7   5 2096.28 500.785  13
  -2  -7   5 2135.34 533.109  14
  -2  -7   5 3256.11 638.983  22
  -2  -7   4 18648.6 1461.31  14
  -2  -7   4 20108.3 1426.88  13
  -2  -7   4 18201.1 1443.34  22
  -2  -7   3 6197.37 839.331  22
  -2  -7   3 6875.06 897.529  14
  -2  -7   3 6138.28 790.322  13
  -2  -7   2 344.604 249.255  13
  -2  -7   2 159.970 258.803  14
  -2  -7   2 396.035 287.818  22
  -2  -7   1 10856.2 1013.54  13
  -2  -7   1 13219.6 1233.68   4
  -2  -7   1 12083.7 1189.94   5
  -2  -7   1 13020.0 1159.78  22
  -2  -7   0 17204.9 1469.04   8
  -2  -7   0 12942.5 1224.37   5
  -2  -7  -1 10646.1 1112.81   8
   2   7   1 12220.3 1146.77   7
  -2  -7  -1 12982.3 1234.84   5
  -2  -7  -1 12029.3 1214.06   6
  -2  -7  -2 75.5446 167.271   8
  -2  -7  -2 241.070 226.503   6
   2   7   2 268.037 315.942   7
  -2  -7  -2 361.570 287.956   5
  -2  -7  -3 10776.5 1034.57  13
  -2  -7  -3 9545.86 1093.87   6
  -2  -7  -4 1079.74 363.509  13
   2   7   5-32.2771 161.532  25
  -2  -7  -5-262.533 265.128  13
  -2  -7  -6 7147.45 887.646  13
   2   7   6 7164.39 874.973  25
   2   7   7 18624.0 1373.93  25
  -2  -7  -7 18155.1 1397.99  13
   2   7   8 361.581 248.444  25
   2   7   8-178.720 249.108  19
   2   7   9 422.171 208.695  25
   2   7   9 546.285 241.813  19
   2   7  10 2179.37 356.970  19
  -2  -8   7 3041.27 433.850  14
  -2  -8   7 2909.97 479.757  22
  -2  -8   6 1237.82 344.814  14
  -2  -8   6 1751.64 417.816  22
  -2  -8   5 5143.90 726.840  14
  -2  -8   5 5294.42 685.103  13
  -2  -8   5 4322.61 697.813  22
  -2  -8   4 2308.15 512.296  13
  -2  -8   4 2769.96 587.161  14
  -2  -8   4 1737.17 485.464  22
  -2  -8   3 21569.2 1565.74  22
  -2  -8   3 19784.9 1519.95  14
  -2  -8   3 20804.6 1444.42  13
  -2  -8   2 27370.3 1785.55  14
  -2  -8   2 29137.7 1720.91  13
  -2  -8   1 313.829 264.489  14
  -2  -8   1-98.9668 227.932  13
  -2  -8   0 56661.2 2395.65  13
  -2  -8   0 54004.4 2479.81  14
  -2  -8  -1 185.267 240.523  13
  -2  -8  -2 23302.6 1558.13  13
  -2  -8  -2 22853.0 1538.23  17
  -2  -8  -3 4602.29 707.268  17
  -2  -8  -3 4511.46 727.720  13
  -2  -8  -4 15001.3 1283.59  13
  -2  -8  -5 66.9053 234.206  13
   2   8   6 3360.47 582.146  25
  -2  -8  -6 3346.95 639.708  13
   2   8   7 3929.66 606.775  25
  -2  -8  -7 2476.45 534.867  13
   2   8   8 15.1680 183.226  19
   2   8   8 211.478 173.416  25
   2   8   9 243.172 190.250  19
  -2  -9   6 1181.39 291.721  14
  -2  -9   5 2589.75 452.436  14
  -2  -9   4 1322.35 377.123  14
  -2  -9   3 4578.44 640.378  13
  -2  -9   3 4404.02 696.632  14
  -2  -9   2 1409.15 452.744  14
  -2  -9   2 1008.52 365.064  13
  -2  -9   1 750.997 360.721  14
  -2  -9   1 408.978 291.793  13
  -2  -9   0 520.638 330.343  13
  -2  -9  -1 1076.09 415.988  17
  -2  -9  -1 275.848 248.948  13
  -2  -9  -2 8734.32 980.635  17
  -2  -9  -2 9870.50 1029.66  13
  -2  -9  -3-311.383 278.367  17
  -2  -9  -3 381.548 284.583  13
  -2  -9  -4 3639.45 658.668  13
  -2  -9  -5 706.737 345.236  13
  -2  -9  -6 560.981 265.507  13
   2   9   7 1249.03 382.014  19
  -2  -9  -7 1105.62 300.525  20
  -2  -9  -8 355.871 150.419  20
   2   9   8 274.038 215.656  19
  -2 -10   4 301.814 186.988  17
  -2 -10   3 6098.85 707.244  17
  -2 -10   2 13705.0 1098.31  17
  -2 -10   1 719.311 317.777  17
  -2 -10   1 708.595 256.992  13
  -2 -10   0 644.767 279.424  17
  -2 -10   0 770.534 307.612  13
  -2 -10  -1 1708.22 415.187  17
  -2 -10  -1 1951.37 443.194  13
  -2 -10  -2 1043.53 332.025  13
  -2 -10  -2 1383.36 372.807  17
  -2 -10  -3-303.814 240.815  17
  -2 -10  -3 146.892 198.891  13
  -2 -10  -4 17296.6 1197.54  13
  -2 -10  -5 72.4606 157.544  13
  -2 -10  -6 541.401 215.647  20
   2  10   7 143.406 149.069  19
  -2 -11   2 437.925 201.894  17
  -2 -11   1 963.005 265.918  17
  -2 -11   0 1028.28 274.175  17
  -2 -11  -1-169.500 159.390  17
  -2 -11  -1 157.533 159.618  13
  -2 -11  -2 22.4102 63.4026  17
  -2 -11  -2-323.204 139.176  13
  -2 -11  -3 20.1494 83.0273  13
  -2 -11  -4 942.570 226.491  13
  -2 -11  -5 747.601 210.508  20
   3  -9  -4 1396.31 268.786  17
   3  -9  -4 1192.11 245.083  20
   3  -9  -3 1475.85 360.000  17
   3  -9  -3 868.063 218.457  20
   3  -9  -2 1618.31 376.815  17
   3  -9  -1 2596.67 486.747  17
   3  -9   0 2077.27 445.960  17
   3  -9   1 1194.43 330.819  17
   3  -9   2-62.0705 165.710  18
   3  -9   2 323.412 196.244  17
   3  -9   3-56.1861 147.562  18
   3  -9   4 431.669 206.700  18
   3  -8  -6 100.566 113.159  20
   3  -8  -5 283.429 200.061  17
   3  -8  -5 453.479 235.096  20
   3  -8  -4 1982.11 434.806  17
   3  -8  -4 2550.69 478.621  20
   3  -8  -3 6435.57 787.625  17
   3  -8  -3 6342.29 736.254  20
   3  -8  -2 843.943 341.740  17
   3  -8  -2 700.040 274.724  20
   3  -8  -1 451.295 309.647  17
   3  -8   0 639.935 323.534  17
   3  -8   1 392.824 323.189  17
   3  -8   2 251.687 250.596  17
   3  -8   3 1575.46 426.704  18
   3  -8   3 2084.32 448.587  17
   3  -8   3 1689.93 414.871  14
   3  -8   4-34.8622 165.437  18
   3  -8   4 31.5806 95.9051  14
   3  -8   5 1660.78 364.824  14
   3  -8   5 1645.64 367.123  18
   3  -8   6 572.133 202.479  14
   3  -7  -7 856.508 239.908  20
  -3   7   7 820.506 226.632  19
   3  -7  -6-42.7768 165.223  17
   3  -7  -6 150.102 191.357  20
  -3   7   6-183.813 196.540  19
  -3   7   5 895.483 299.695  19
   3  -7  -5 100.048 184.916  17
   3  -7  -5 401.135 285.630  20
  -3   7   4 810.625 282.167  19
   3  -7  -4 855.384 402.493  17
   3  -7  -4 1051.86 358.709  20
   3  -7  -3 775.404 378.308  17
   3  -7  -3 599.989 319.092  20
   3  -7  -2 7494.86 928.437  17
   3  -7  -2 6183.70 815.416  20
   3  -7  -1 15432.8 1306.41  17
   3  -7  -1 14766.7 1192.86  20
   3  -7   0-94.9730 240.404  17
   3  -7   0-223.530 285.185  21
   3  -7   1 1802.64 504.827  17
   3  -7   2 3448.39 651.725  17
   3  -7   2 4179.60 697.722  14
   3  -7   3 1936.99 488.663  17
   3  -7   3 1767.49 491.344  14
   3  -7   4-119.193 212.301  18
   3  -7   4 240.663 243.574  14
   3  -7   5 2998.59 559.396  14
   3  -7   5 2775.04 555.146  18
   3  -7   6 3182.73 528.223  18
   3  -7   6 3274.42 560.378  14
   3  -7   6 3431.65 559.981  24
   3  -7   7 1238.67 334.404  14
   3  -7   7 1202.78 331.565  24
   3  -7   8 1272.82 266.242  14
   3  -6  -8 1514.80 287.049  20
  -3   6   8 2309.28 366.377  19
   3  -6  -7 388.670 206.483  20
  -3   6   7 204.693 191.443  19
   3  -6  -6 1.56465 76.2254  17
   3  -6  -6 260.263 228.022  20
   3  -6  -5 14.4696 307.700  17
  -3   6   5 337.170 249.040  19
   3  -6  -5 211.811 230.709  20
  -3   6   4 502.680 321.208  19
   3  -6  -4 436.771 357.450  17
   3  -6  -4 334.957 305.177  20
   3  -6  -3 787.051 371.628  17
   3  -6  -3 555.535 319.665  20
   3  -6  -2 1695.48 472.515  17
   3  -6  -2 1689.29 470.233  20
   3  -6  -1 6745.96 867.924  17
   3  -6  -1 4677.74 684.148  20
   3  -6   0 4417.10 740.953  17
   3  -6   0 2374.90 538.320  21
   3  -6   1 471.439 223.615  17
   3  -6   1 445.315 355.704  21
   3  -6   2 700.565 300.056  17
   3  -6   2 550.663 317.341  21
   3  -6   3 23197.5 1557.76  14
   3  -6   3 22646.2 1684.89  21
   3  -6   4 180.975 236.675  18
   3  -6   4 198.538 257.823  14
   3  -6   5 338.541 266.047  18
   3  -6   5 698.243 377.542  14
   3  -6   5 378.045 271.671  24
   3  -6   6 2993.79 592.087  18
   3  -6   6 3022.75 588.905  14
   3  -6   6 1446.94 440.073  24
   3  -6   7 980.572 353.201  14
   3  -6   7 806.846 359.924  24
   3  -6   8 98.3336 185.002  14
   3  -6   8 182.226 207.015  24
   3  -6   9 7383.82 671.864  14
  -3   5   9 775.093 220.562  19
   3  -5  -8 16117.6 1062.79  20
  -3   5   8 17080.2 1145.11  19
  -3   5   7 11825.1 1067.34  19
   3  -5  -7 12435.9 1062.33  20
   3  -5  -6 1744.30 470.901  17
   3  -5  -6 2153.14 497.411  20
  -3   5   6 1599.29 472.446  19
   3  -5  -5 2976.55 602.621  17
  -3   5   5 2373.79 536.123  19
   3  -5  -5 2004.09 502.048  20
   3  -5  -4 21541.5 1524.23  17
   3  -5  -4 22805.5 1551.29  20
  -3   5   4 20739.4 1492.23  19
   3  -5  -3-175.196 257.483  17
   3  -5  -3 103.488 243.316  20
   3  -5  -2 13544.5 1187.94  17
   3  -5  -2 14257.1 1174.72  20
   3  -5  -1 2425.89 545.229   6
   3  -5   0 27846.7 1812.83   6
  -3   5  -1 122.049 268.021  10
   3  -5   1 172.388 191.523   9
   3  -5   1-110.504 198.621   6
   3  -5   2 24350.1 1665.97   9
   3  -5   2 25126.2 1763.23   6
   3  -5   3 2989.80 675.468   9
   3  -5   3 4264.61 749.264  21
   3  -5   4 3726.49 647.572  18
   3  -5   4 4286.32 716.799  24
   3  -5   4 4262.56 688.841  14
   3  -5   4 3616.24 689.568  21
   3  -5   5 238.582 230.056  18
   3  -5   5 219.192 228.101  14
   3  -5   5-289.714 273.009  24
   3  -5   6 1446.19 442.018  18
   3  -5   6 1444.41 446.185  14
   3  -5   6 1272.16 458.446  24
   3  -5   7 210.760 271.502  18
   3  -5   7-129.054 186.391  14
   3  -5   7 418.951 370.720  24
   3  -5   8 8548.27 973.933  24
   3  -5   8 9410.64 990.138  14
   3  -5   9 478.318 276.293  24
   3  -5   9 155.158 179.542  14
   3  -5  10 1460.80 313.260  14
  -3   4   9 1536.86 352.573  19
   3  -4  -8 341.061 186.611  20
  -3   4   8 439.732 250.513  19
   3  -4  -7 6023.88 785.511  20
  -3   4   7 5620.69 803.087  19
   3  -4  -6 1017.71 393.436  17
   3  -4  -6 882.720 374.192  20
  -3   4   6 1152.21 407.663  19
  -3   4   5 5420.75 806.601  19
   3  -4  -5 5812.85 815.718  17
   3  -4  -5 5949.15 815.014  20
   3  -4  -4 5170.90 760.045  17
   3  -4  -4 4260.95 654.522  20
  -3   4   3 826.564 382.755  10
  -3   4   3 1409.30 413.671   7
  -3   4   2 27342.4 1596.66   7
   3  -4  -1 30746.1 1673.82   9
   3  -4  -1 33043.7 1766.46   6
   3  -4   0 5904.16 760.271   9
   3  -4   0 6092.52 778.412   6
   3  -4   1 2390.36 489.652   9
   3  -4   1 2453.97 530.985   6
  -3   4  -2 3895.49 609.279  10
   3  -4   2 3244.31 592.228   9
   3  -4   2 3973.63 681.415   6
   3  -4   3 27045.4 1701.15   6
   3  -4   3 25110.5 1623.51   9
   3  -4   4 11768.3 1164.47   9
  -3   4  -4 11962.6 1137.86  12
   3  -4   5 2419.12 544.003  18
   3  -4   5 2659.39 601.429  24
  -3   4  -5 2373.18 560.108  12
   3  -4   6 640.210 352.778  18
   3  -4   6 632.995 356.146  24
   3  -4   6 391.766 285.556  14
   3  -4   7 776.353 384.542  18
   3  -4   7 579.480 347.151  24
   3  -4   7 595.183 350.510  14
   3  -4   8 3048.61 635.210  24
   3  -4   8 3178.64 632.740  14
   3  -4   9 8337.36 934.254  14
   3  -4   9 9428.42 1006.51  24
   3  -4  10 6300.21 725.722  14
   3  -4  10 6497.14 739.719  24
  -3   3  10 1320.00 277.115  19
  -3   3   9-233.092 229.048  19
   3  -3  -8 14831.7 1142.35  20
  -3   3   8 17094.5 1332.10  19
   3  -3  -7 2221.42 531.098  20
  -3   3   7 2408.39 588.757  19
   3  -3  -6 293.007 266.598  17
   3  -3  -6 193.090 251.857  20
  -3   3   6-367.780 342.555  19
   3  -3  -5 18534.5 1353.28  17
   3  -3  -5 18792.1 1364.54  20
  -3   3   5 16625.6 1317.04  19
  -3   3   4 100515. 3210.25   3
  -3   3   4 108677. 3510.54  10
  -3   3   3 8410.90 910.047   7
  -3   3   3 7588.16 925.613  10
  -3   3   3 6997.03 811.805   3
  -3   3   2 10879.7 942.728   7
  -3   3   2 10160.6 908.830   3
  -3   3   2 10654.5 1016.66  10
  -3   3   1 3127.71 465.756   7
   3  -3  -1 3888.34 565.126   6
  -3   3   1 3536.74 514.425   3
   3  -3   0 95478.2 2691.24   9
  -3   3   0 102878. 2483.38   3
   3  -3   0 104389. 2844.73   6
   3  -3   1 18490.3 1199.01   9
   3  -3   1 20005.0 1268.09   6
  -3   3  -1 19647.0 1054.18   3
  -3   3  -1 19470.0 1194.05  10
   3  -3   2 19014.8 1229.70   9
   3  -3   2 23221.1 1392.75   6
  -3   3  -2 21009.7 1104.46   3
  -3   3  -2 21016.0 1195.25  10
   3  -3   3 5488.07 714.444   9
  -3   3  -3 5836.17 614.580   3
   3  -3   3 6566.50 773.421   6
   3  -3   4 22.9697 214.585   9
   3  -3   5 74.4950 241.044   9
  -3   3  -5-401.406 250.747  12
   3  -3   6 61024.7 2556.01  24
  -3   3  -6 59893.2 2778.01  12
   3  -3   7 8458.66 959.950  18
   3  -3   7 7058.40 932.410  24
   3  -3   8-70.0853 210.990  24
   3  -3   9 3775.90 684.483  24
   3  -3  10-126.338 206.481  24
   3  -3  10 51.8249 161.737  14
   3  -3  11-204.870 150.932  14
  -3   2  10 4843.60 576.533  19
  -3   2   9 665.159 282.260  19
  -3   2   8 122.081 266.518  19
   3  -2  -7 5179.47 735.569  20
  -3   2   7 4139.24 728.724  19
   3  -2  -6 824.275 358.790  20
  -3   2   6 609.691 325.081  19
  -3   2   5 9949.39 1101.21   7
   3  -2  -5 7778.07 980.622  11
  -3   2   4 30489.0 1785.01   7
  -3   2   4 30124.3 1724.63   3
   3  -2  -4 33747.8 1842.81  11
  -3   2   4 31561.7 1765.95  10
  -3   2   3 78432.2 2554.21   3
  -3   2   3 84753.0 2708.65   7
  -3   2   3 81520.5 2674.07  10
   3  -2  -3 86401.3 2688.54  11
  -3   2   2 5154.54 627.161   7
  -3   2   2 4661.62 591.333   3
  -3   2   2 4204.71 551.277   2
  -3   2   2 4992.35 653.906  10
  -3   2   1 48243.0 1663.42   7
  -3   2   1 47017.7 1584.89   2
  -3   2   1 48723.2 1724.38   3
  -3   2   1 45661.0 1810.35  10
  -3   2   0 24164.7 1036.73   7
  -3   2   0 23535.1 1027.23   2
  -3   2   0 24349.1 1145.07   3
  -3   2   0 24216.9 1254.29  10
  -3   2  -1 327.217 188.762  10
   3  -2   1 332.565 220.448   9
   3  -2   1 677.303 269.775   6
  -3   2  -1 278.996 167.494   3
  -3   2  -1 554.135 159.949   2
   3  -2   2 7272.13 701.622   9
  -3   2  -2 6925.67 529.438   2
  -3   2  -2 6976.41 619.841   3
   3  -2   2 7693.87 729.126   6
  -3   2  -2 7009.92 627.067  10
   3  -2   3 10831.0 895.692   9
  -3   2  -3 11849.8 736.378   2
  -3   2  -3 11485.7 738.186  10
   3  -2   4 6224.70 735.070   9
   3  -2   5 17101.9 1275.78   9
  -3   2  -5 18436.8 1329.87  12
  -3   2  -6 1774.00 483.433  12
   3  -2   7 23146.8 1564.27  16
   3  -2   7 22975.2 1590.00  24
   3  -2   8 92.7996 285.774  23
   3  -2   8-546.255 313.939  24
   3  -2   9 759.240 362.196  23
   3  -2   9 232.691 274.105  24
   3  -2  10 332.450 235.359  24
   3  -2  10 653.015 325.775  23
   3  -2  11 1240.19 300.918  23
  -3   1  10 3057.58 490.614  19
  -3   1   9 671.793 316.424  19
  -3   1   8-122.600 190.250  23
  -3   1   8 203.582 256.673  19
  -3   1   7 937.768 413.445  23
  -3   1   7 946.058 400.945  19
  -3   1   6 1738.76 444.550  23
   3  -1  -6 1315.35 407.985  20
  -3   1   6 1479.77 447.371  19
  -3   1   5-281.081 239.001   4
  -3   1   5 151.611 311.647   7
   3  -1  -5-198.200 190.475   1
   3  -1  -5-201.634 258.068  11
   3  -1  -4 26692.1 1436.79   1
  -3   1   4 26326.1 1596.87   7
  -3   1   4 23760.2 1494.00   4
  -3   1   4 24177.6 1510.19   3
   3  -1  -4 26846.6 1618.47  11
  -3   1   4 27584.3 1523.00  10
  -3   1   3-33.8309 198.386  10
  -3   1   3-71.8463 172.685   7
  -3   1   3 140.551 219.352   3
   3  -1  -3 75.6678 127.239   1
  -3   1   3 117.153 183.204   2
   3  -1  -3 181.165 221.429  11
  -3   1   2 4285.59 539.678   7
  -3   1   2 3968.37 522.656   2
  -3   1   2 3951.23 539.521   3
   3  -1  -2 4346.20 435.780   1
   3  -1  -2 4311.73 568.292  11
  -3   1   2 4408.32 569.744  10
   3  -1  -1 16859.2 690.173   1
  -3   1   1 16115.8 912.466   7
  -3   1   1 15696.7 894.508   2
  -3   1   1 16532.9 968.140   3
  -3   1   1 16336.5 1000.16  10
  -3   1   0 126993. 2267.72   7
  -3   1   0 122044. 1772.59   4
  -3   1   0 124253. 2287.99   2
  -3   1   0 121443. 2414.67   3
  -3   1   0 121614. 2537.48  10
  -3   1  -1 22099.5 933.873   2
  -3   1  -1 22845.9 806.080   7
  -3   1  -1 23282.3 1043.61   3
  -3   1  -1 21258.8 1030.71  10
  -3   1  -2 1056.22 240.788   2
   3  -1   2 717.729 238.967   9
  -3   1  -2 836.580 233.676  10
  -3   1  -3 10362.0 589.254   1
   3  -1   3 9512.19 751.092   9
  -3   1  -3 9862.21 622.551  10
  -3   1  -3 10205.9 698.147   2
   3  -1   4 8592.26 786.979   9
  -3   1  -4 8023.19 645.145   1
   3  -1   5 28308.7 1515.24   9
  -3   1  -5 26888.2 1359.41   1
  -3   1  -6 3880.96 663.913  12
  -3   1  -7 3127.75 669.538  12
   3  -1   8 8696.60 1002.63  16
   3  -1   8 10917.6 1096.09  24
   3  -1   8 9348.28 1019.71  23
   3  -1   9 515.536 341.175  16
   3  -1   9 284.962 260.661  24
   3  -1   9-29.4421 230.911  23
   3  -1  10 177.336 221.359  23
   3  -1  11 3637.39 583.308  23
   3  -1  12 190.732 155.487  23
   3   0 -10 3154.15 460.823  25
  -3   0  10 3917.86 580.476  19
  -3   0   9-139.585 209.584  19
  -3   0   8 4151.52 677.249  23
  -3   0   8 2982.26 615.190  19
  -3   0   7 1882.93 510.574  23
  -3   0   7 2197.55 544.866  19
   3   0  -6 15886.3 1387.98   1
  -3   0   6 16031.7 1259.13  23
  -3   0   6 16040.4 1294.77  19
   3   0  -5 5250.86 718.299   1
  -3   0   5 5409.26 785.885   7
  -3   0   5 5189.55 777.794   4
   3   0  -5 5426.98 837.853  11
   3   0  -4 2327.01 443.910   1
  -3   0   4 3085.42 547.412   4
  -3   0   4 3481.63 594.381   7
   3   0  -4 3095.96 588.970  11
  -3   0   4 2640.44 517.269   3
  -3   0   4 2777.33 477.227  10
  -3   0   3 22767.9 1318.87   7
  -3   0   3 22480.0 1267.08   4
  -3   0   3 20654.9 1229.87   2
  -3   0   3 21652.3 1183.77  10
  -3   0   3 23711.4 1331.07   3
   3   0  -3 23252.6 1375.33  11
   3   0  -3 21867.1 1195.54   1
  -3   0   2 2961.59 444.006   2
  -3   0   2 1893.16 374.224   7
  -3   0   2 1775.66 353.281   4
   3   0  -2 1754.87 379.543  11
  -3   0   2 1385.99 326.319   3
  -3   0   2 2190.23 395.158  10
  -3   0   1 75837.5 1926.55   7
  -3   0   1 75054.5 1724.45   4
  -3   0   1 73999.6 1961.36   3
  -3   0   1 74755.2 1907.91   2
   3   0  -1 77835.2 2081.58  11
  -3   0   1 74553.2 1958.21  10
  -3   0   0 4348.85 346.708   4
  -3   0   0 6139.71 497.653   7
  -3   0   0 5868.68 524.018   3
  -3   0   0 5933.14 508.151   2
  -3   0   0 5937.49 541.610  10
  -3   0  -1 13388.9 731.582   2
  -3   0  -1 13199.0 436.203   4
  -3   0  -1 13603.7 772.222   3
  -3   0  -1 12157.0 729.959  10
  -3   0  -2 47585.3 1389.66   2
   3   0   2 48806.5 1469.81   9
  -3   0  -2 48880.8 1199.46   1
  -3   0  -2 48091.0 1354.05  10
  -3   0  -3 20345.0 902.781   1
   3   0   3 21746.2 1019.16   9
   3   0   3 22747.7 708.645   7
   3   0   4 220086. 3568.81   9
  -3   0  -4 219936. 3434.96   1
   3   0   5 3322.23 490.221   9
  -3   0  -5 4198.51 557.729   1
  -3   0  -6 1543.57 379.495   1
  -3   0  -6 917.922 345.000  12
  -3   0  -7 3923.04 706.185   1
  -3   0  -7 4821.47 789.287  12
   3   0   8 3701.39 673.985  16
   3   0   8 4192.37 700.460  23
   3   0   9 13555.6 1252.48  23
   3   0   9 13768.6 1281.78  16
   3   0  10 248.828 270.198  16
   3   0  10 126.602 221.030  23
   3   0  11 2248.26 487.933  23
   3   0  12 1651.37 350.669  23
  -3  -1  10 31.0427 190.813  19
  -3  -1   9 3195.31 581.043  23
  -3  -1   9 3539.20 650.343  19
  -3  -1   8 863.612 324.282  23
  -3  -1   8 519.527 349.574  19
  -3  -1   7 13369.4 1236.10  19
  -3  -1   7 11867.8 1143.02  23
  -3  -1   6 1899.41 524.763   7
  -3  -1   6 2297.32 531.893  23
  -3  -1   6 2473.29 560.972  19
   3   1  -5 2615.20 547.943   1
  -3  -1   5 1926.81 477.153   4
  -3  -1   5 2396.57 546.043   7
   3   1  -5 2362.99 586.883  11
   3   1  -4 17880.8 1325.42  11
  -3  -1   4 18732.2 1290.56   7
  -3  -1   4 17312.1 1247.63   4
  -3  -1   4 16910.3 1218.67   3
   3   1  -4 18271.6 1272.35   1
  -3  -1   3 6510.34 710.041   7
  -3  -1   3 6088.61 680.121   4
  -3  -1   3 6368.75 683.643   2
  -3  -1   3 6735.10 710.285   3
   3   1  -3 7642.62 799.231  11
  -3  -1   2 10021.0 760.915   4
  -3  -1   2 11393.7 832.486   7
  -3  -1   2 10633.0 794.865   2
  -3  -1   2 10708.6 809.630   3
   3   1  -2 10043.6 819.905  11
  -3  -1   2 10331.7 748.411  10
  -3  -1   1 69518.5 1832.74   7
  -3  -1   1 69990.2 1817.19   2
  -3  -1   1 68400.9 1832.17   3
   3   1  -1 66203.6 1880.00  11
  -3  -1   1 70226.6 1807.52  10
  -3  -1   1 67543.9 1666.96   4
  -3  -1   0 5649.57 427.303   4
  -3  -1   0 5599.88 492.917   2
  -3  -1   0 5306.15 492.635  10
  -3  -1   0 5410.04 488.835   3
  -3  -1  -1 4521.96 441.655   2
  -3  -1  -1 4132.16 326.228   4
  -3  -1  -1 4130.07 423.006   3
  -3  -1  -2 103361. 2090.03   2
   3   1   2 106204. 1919.03   9
  -3  -1  -2 109299. 2026.70   1
   3   1   3 75747.1 1688.20   9
  -3  -1  -3 79037.6 1920.13   1
   3   1   4 3204.43 403.453   9
   3   1   4 3178.70 365.580   7
  -3  -1  -4 2965.89 439.146   1
  -3  -1  -5 15141.0 1025.81  12
  -3  -1  -5 13555.7 1021.98   1
  -3  -1  -6 275.885 268.472  12
  -3  -1  -6 680.301 320.470   1
  -3  -1  -7 6661.60 873.098   1
  -3  -1  -7 6477.15 843.472  12
   3   1   8 11692.4 1130.89  23
   3   1   9 2813.47 626.898  16
   3   1   9 3081.62 618.824  23
   3   1  10 7015.92 898.195  23
   3   1  10 7864.87 972.231  16
   3   1  11 4133.53 669.753  16
   3   1  11 5155.40 709.065  23
   3   1  12 242.576 151.513  23
  -3  -2  10 4325.43 579.339  19
  -3  -2   9 105.254 231.487  19
  -3  -2   8-340.951 276.614  23
  -3  -2   8-90.1702 217.176  19
  -3  -2   7 3149.68 634.566  23
  -3  -2   7 3623.67 654.166  19
  -3  -2   6 1748.32 478.539  23
  -3  -2   6 1983.96 460.728  19
   3   2  -5 1220.64 407.766   1
  -3  -2   5 1447.11 445.076   4
   3   2  -5 1039.74 408.491  11
  -3  -2   4 1492.51 398.110   4
   3   2  -4 1299.45 404.301  11
  -3  -2   3 24564.6 1123.93   8
  -3  -2   3 24504.3 1337.14   4
  -3  -2   3 23575.7 1311.52   2
  -3  -2   3 24548.2 1312.34   3
   3   2  -3 24297.1 1418.35  11
  -3  -2   2 4652.08 540.154   4
  -3  -2   2 4500.80 532.874   2
  -3  -2   2 3640.98 475.653   3
   3   2  -2 4539.96 564.477  11
   3   2  -1 30596.5 1266.74  11
  -3  -2   1 30569.2 1200.38   4
  -3  -2   1 30143.8 1208.84   2
  -3  -2   1 29045.5 1165.88   3
  -3  -2   0 15621.1 785.157   4
  -3  -2   0 16207.2 828.958   2
  -3  -2   0 16315.2 801.169   3
   3   2   0 16441.2 843.497  11
  -3  -2  -1 6932.19 547.685   2
  -3  -2  -1 7076.49 520.025   3
  -3  -2  -1 7703.70 531.063   4
  -3  -2  -2 4230.14 404.176   4
   3   2   2 4143.92 337.168   9
  -3  -2  -2 4273.67 468.292   1
  -3  -2  -2 4666.01 467.076   2
   3   2   3 14736.5 648.390   9
  -3  -2  -3 14432.1 899.391   1
  -3  -2  -4 11545.2 884.047   1
   3   2   4 12173.1 811.247   7
  -3  -2  -4 11799.0 698.757   5
   3   2   5 36812.7 1530.95   7
  -3  -2  -5 37533.1 1530.52  12
  -3  -2  -5 32496.5 1623.01   1
  -3  -2  -6 26730.4 1468.89  12
  -3  -2  -6 25006.5 1573.52   1
  -3  -2  -7 3864.22 637.118  12
  -3  -2  -7 6489.41 906.895   1
   3   2   8 4004.60 653.694  23
   3   2   9 13906.0 1248.44  23
   3   2  10 758.507 388.635  16
   3   2  10 838.751 371.405  23
   3   2  11-256.855 275.594  16
   3   2  11 240.940 169.278  23
   3   2  12 2732.19 441.552  16
   3   2  12 2965.47 453.380  23
  -3  -3  10-25.9378 170.636  19
  -3  -3   9 279.029 275.382  19
  -3  -3   8 625.991 320.857  23
  -3  -3   8 562.041 372.296  19
  -3  -3   7 11938.7 1167.98  23
  -3  -3   7 11965.9 1167.92  19
  -3  -3   6 361.022 284.982  23
  -3  -3   6 103.191 201.228  19
   3   3  -5 3788.62 696.019   1
  -3  -3   5 2724.74 594.168   4
   3   3  -5 3046.70 644.086  11
  -3  -3   4 16891.9 1287.65   4
   3   3  -4 15800.9 1304.95  11
  -3  -3   3 8026.00 757.238   8
  -3  -3   3 8821.50 840.908   4
  -3  -3   3 7872.90 760.714   2
   3   3  -3 8278.53 866.615  11
  -3  -3   2 81678.5 2322.98   4
  -3  -3   2 80133.5 2283.97   8
  -3  -3   2 78310.2 2165.85   2
  -3  -3   2 80111.0 2056.33   3
   3   3  -2 84916.2 2403.24  11
  -3  -3   1 12196.1 732.517   3
  -3  -3   1 11998.0 775.654   2
  -3  -3   1 12902.0 846.428   4
   3   3  -1 12987.2 829.773  11
  -3  -3   0 203.005 162.480   4
  -3  -3   0 346.926 165.561   2
  -3  -3   0 309.503 146.232   3
  -3  -3  -1 40852.8 1391.12   4
  -3  -3  -1 39560.4 1305.34   2
  -3  -3  -1 38418.4 1151.52   3
  -3  -3  -2 449502. 4579.43   2
  -3  -3  -2 445712. 4725.51   4
  -3  -3  -2 451763. 4698.52   5
  -3  -3  -3 14541.4 986.218   1
  -3  -3  -3 13954.2 851.905   5
   3   3   4 4778.32 585.948   7
  -3  -3  -4 4590.68 512.070   5
  -3  -3  -4 4564.63 607.477   1
  -3  -3  -4 5266.90 474.670  12
  -3  -3  -5 5694.33 736.196   1
   3   3   5 6129.44 703.949   7
  -3  -3  -6 77819.4 2864.92   1
   3   3   6 85954.2 2829.89   7
  -3  -3  -7 425.210 285.170   1
   3   3   8 8904.15 974.660  25
   3   3   8 14854.9 1236.95  23
   3   3   9 4583.51 742.029  25
   3   3   9 4780.69 737.953  23
   3   3  10 1315.36 397.712  25
   3   3  10 946.722 350.191  23
   3   3  11 6284.02 784.361  16
   3   3  11 5612.26 700.617  23
   3   3  12 278.069 173.679  16
   3   3  12 851.376 235.247  23
  -3  -4  10 267.262 157.894  22
  -3  -4   9 1652.78 413.082  19
  -3  -4   8 4733.69 735.142  19
  -3  -4   7 1955.29 514.816  19
  -3  -4   6 1614.43 462.100  23
  -3  -4   6 1297.69 417.998  19
  -3  -4   5 6109.52 810.775  23
  -3  -4   5 7466.37 875.360  19
  -3  -4   4 6669.04 855.477   4
   3   4  -4 6715.59 896.334  11
  -3  -4   3 5009.92 681.666   4
  -3  -4   3 3996.34 621.220   8
   3   4  -3 3826.25 622.281  11
  -3  -4   2 35953.5 1646.49   4
  -3  -4   2 32962.5 1641.80   8
  -3  -4   2 32567.2 1561.24   6
   3   4  -2 36557.7 1599.46  11
  -3  -4   2 32747.1 1511.21   5
  -3  -4   1 144808. 3129.44   4
  -3  -4   1 139176. 3268.13   8
  -3  -4   1 142551. 2645.42   2
  -3  -4   1 144495. 3058.63   5
  -3  -4   0 47526.4 1455.33   2
  -3  -4   0 46304.3 1708.89   4
  -3  -4   0 47442.2 1727.74   5
  -3  -4  -1 100568. 2500.64   4
  -3  -4  -1 101401. 2106.43   2
  -3  -4  -1 101923. 2515.10   5
  -3  -4  -2 2550.76 440.855   4
  -3  -4  -2 2248.05 416.611   5
  -3  -4  -3 150168. 2972.50   2
  -3  -4  -3 148276. 3353.56   1
   3   4   3 151431. 3262.55   7
  -3  -4  -3 151254. 3143.87   5
   3   4   4 73298.7 2405.29   7
  -3  -4  -4 74105.5 2534.15   1
  -3  -4  -4 75439.5 2250.96   5
   3   4   5 57084.4 2254.07   7
  -3  -4  -5 55624.8 1993.11   5
  -3  -4  -5 54999.9 2341.89   1
  -3  -4  -6 7181.90 904.841   1
   3   4   6 8425.30 969.421   7
   3   4   7 6230.34 931.342   7
   3   4   7 6846.72 841.468  25
   3   4   8 1205.49 392.350  23
   3   4   8 678.893 347.676  25
   3   4   9 13282.6 1211.85  25
   3   4   9 14052.7 1195.22  23
   3   4  10 649.362 295.207  25
   3   4  10 82.3091 146.930  23
   3   4  11 444.400 266.205  16
   3   4  11 476.644 231.515  23
   3   4  12 1250.80 272.032  16
  -3  -5   9 721.800 274.174  22
  -3  -5   8 288.148 227.381  22
  -3  -5   7 1798.81 514.314  19
  -3  -5   6 410.246 326.449  19
  -3  -5   5 977.409 382.555  19
  -3  -5   4 26147.8 1751.73   4
  -3  -5   4 28003.1 1836.51   8
  -3  -5   4 27333.7 1623.26  19
  -3  -5   3-114.598 196.810   8
  -3  -5   3 147.040 165.553   4
  -3  -5   2 18473.2 1311.59   4
  -3  -5   2 16391.1 1308.07   8
  -3  -5   2 17862.9 1292.92   6
  -3  -5   2 18458.6 1254.11   5
  -3  -5   1 21980.7 1461.57   8
  -3  -5   1 22880.1 1437.19   6
  -3  -5   1 23872.8 1415.88   4
  -3  -5   1 24850.5 1424.26   5
  -3  -5   0 54568.9 2076.41   4
  -3  -5   0 52281.6 2180.27   8
  -3  -5   0 54465.3 2175.65   6
  -3  -5   0 59176.1 2161.39   5
  -3  -5  -1 1920.33 432.118   6
  -3  -5  -1 2314.45 466.108   4
  -3  -5  -1 2336.06 441.515   5
  -3  -5  -2 129719. 3195.37   5
  -3  -5  -2 128543. 3274.65   6
   3   5   3 5543.17 709.912   7
  -3  -5  -3 6859.60 783.025   6
  -3  -5  -3 6233.43 729.991   5
   3   5   4 2590.14 529.599   7
  -3  -5  -4 2253.51 500.692   1
  -3  -5  -4 2517.82 500.248   6
  -3  -5  -4 3468.17 559.319   5
   3   5   5 6947.34 870.765   7
  -3  -5  -5 6861.34 898.247   1
  -3  -5  -5 6563.48 792.715   5
   3   5   6 144919. 4175.60   7
  -3  -5  -6 105560. 3672.79   1
   3   5   7 481.874 311.920  25
  -3  -5  -7 288.180 289.306  13
   3   5   8 21477.9 1526.86  25
   3   5   9 4622.86 713.666  25
   3   5  10 9932.97 976.267  25
   3   5  11 2253.94 422.904  16
  -3  -6   9 179.740 135.054  22
  -3  -6   8 1794.04 410.965  22
  -3  -6   8 1594.64 354.433  13
  -3  -6   7 1034.25 379.242  22
  -3  -6   6 251.882 284.517  22
  -3  -6   5 8353.50 992.471  22
  -3  -6   4 6124.07 832.530  22
  -3  -6   3 3670.68 618.451  22
  -3  -6   2 42401.8 2276.83   8
  -3  -6   2 32613.9 1933.41   6
  -3  -6   1 105657. 3282.10   4
  -3  -6   1 93111.1 3248.03   8
  -3  -6   1 99120.6 3292.74   6
  -3  -6   1 102006. 3155.19   5
  -3  -6   0 693.010 326.162   8
  -3  -6   0 35.0794 233.852   4
  -3  -6   0 219.137 230.495   6
  -3  -6   0-61.9081 152.603   5
  -3  -6  -1 24964.0 1565.65   4
  -3  -6  -1 21958.9 1524.87   8
  -3  -6  -1 25005.4 1594.90   6
  -3  -6  -1 23181.0 1486.89   5
  -3  -6  -2 309.482 175.381   8
   3   6   2 53.9780 208.572   7
  -3  -6  -2-251.874 265.503   6
   3   6   3 15900.7 1281.08   7
  -3  -6  -3 15660.0 1264.56   6
  -3  -6  -3 15616.2 1252.10   5
  -3  -6  -4 30488.3 1754.19   6
   3   6   4 32603.5 1898.89   7
  -3  -6  -5 142850. 3931.65   5
   3   6   6 1680.45 469.994  25
  -3  -6  -6 1495.20 455.964  13
   3   6   7 2409.33 541.044  25
  -3  -6  -7 2482.28 539.616  13
   3   6   8-492.005 302.284  19
   3   6   8 83.8274 256.358  25
   3   6   9 4478.02 694.515  25
   3   6  10-365.065 244.338  25
   3   6  11 823.711 242.632  16
  -3  -7   8 248.442 173.938  22
  -3  -7   7 1537.21 373.101  13
  -3  -7   7 1509.96 407.290  22
  -3  -7   6 1654.92 419.755  13
  -3  -7   6 2218.56 519.175  22
  -3  -7   5 2243.17 515.320  13
  -3  -7   5 2831.47 606.207  22
  -3  -7   4 325.620 297.803  14
  -3  -7   4 116.956 210.787  13
  -3  -7   4 557.877 304.682  22
  -3  -7   3 2743.68 579.968  14
  -3  -7   3 2025.42 502.426  22
  -3  -7   3 3103.41 590.453  13
  -3  -7   2 10550.9 1058.53  14
  -3  -7   2 10663.4 1048.23  13
  -3  -7   2 10526.0 1076.14  22
  -3  -7   1 8349.88 953.492  14
  -3  -7   1 9122.67 954.896  13
  -3  -7   1 10518.9 1043.28  22
  -3  -7   0 47415.8 2368.90   4
  -3  -7   0 43396.1 2020.81  13
   3   7   0 42762.1 2147.50   7
  -3  -7   0 47489.2 2348.34   5
  -3  -7  -1 2624.07 586.153   8
   3   7   1 1954.48 505.455   7
  -3  -7  -1 3544.65 697.151   6
  -3  -7  -1 3734.21 682.187   5
  -3  -7  -2 15481.5 1341.07   8
  -3  -7  -2 15240.0 1390.26   6
   3   7   2 15773.7 1363.52   7
  -3  -7  -2 17355.0 1437.82   5
  -3  -7  -3 453.701 231.311  13
  -3  -7  -4 6342.44 834.647  13
   3   7   4 6695.67 807.593  25
   3   7   5 791.782 384.201  25
  -3  -7  -5 905.157 417.360  13
   3   7   6 56799.1 2403.24  25
  -3  -7  -6 56263.1 2467.64  13
  -3  -7  -7 2887.19 580.580  13
   3   7   7 3945.22 674.967  25
   3   7   8 3301.22 628.956  19
   3   7   8 3307.27 606.547  25
   3   7   9 7759.70 834.267  25
   3   7   9 6012.37 727.926  19
   3   7  10 7915.27 736.355  25
  -3  -8   7 1378.45 322.933  22
  -3  -8   6 1163.01 361.615  22
  -3  -8   6 986.008 285.817  13
  -3  -8   5 913.892 288.654  14
  -3  -8   5 817.924 332.394  22
  -3  -8   5 607.722 279.047  13
  -3  -8   4 10026.6 1034.62  14
  -3  -8   4 9420.92 977.289  13
  -3  -8   4 9825.13 1064.58  22
  -3  -8   3 1897.18 481.445  14
  -3  -8   3 2598.37 560.562  22
  -3  -8   3 2154.96 495.697  13
  -3  -8   2 5254.46 774.587  13
  -3  -8   2 6038.24 845.076  14
  -3  -8   2 4885.53 771.145  22
  -3  -8   1 23220.9 1626.80  14
  -3  -8   1 25262.0 1623.87  13
  -3  -8   0 6095.14 833.852  13
  -3  -8   0 6242.32 877.556  14
  -3  -8  -1 832.906 362.870  13
  -3  -8  -2 3790.88 666.548  13
  -3  -8  -3 12828.9 1183.95  13
  -3  -8  -4 1080.50 398.142  13
   3   8   5 10721.1 1042.57  25
  -3  -8  -5 9064.81 1004.08  13
   3   8   6 1386.80 408.119  25
  -3  -8  -6 1020.58 358.651  13
  -3  -8  -7 1028.76 381.900  13
   3   8   7 618.742 290.214  25
   3   8   8 905.023 333.145  19
   3   8   8 768.736 297.351  25
   3   8   9 842.232 288.390  25
   3   8   9 649.099 215.610  19
  -3  -9   5 803.228 220.051  13
  -3  -9   4 1086.35 302.754  14
  -3  -9   4 793.999 297.708  13
  -3  -9   3 863.047 325.185  13
  -3  -9   3 461.744 209.808  14
  -3  -9   2 1247.81 407.321  14
  -3  -9   2 1372.51 415.600  13
  -3  -9   1 2086.52 509.324  13
  -3  -9   1 1876.85 522.741  14
  -3  -9   0 472.166 318.492  13
  -3  -9  -1 5077.56 766.324  13
  -3  -9  -2 6266.77 823.106  17
  -3  -9  -2 5876.95 808.544  13
  -3  -9  -3 3965.72 695.566  13
  -3  -9  -4 108.597 226.891  13
  -3  -9  -5 58.6906 207.793  13
  -3  -9  -6 2814.13 545.080  13
   3   9   7 1014.56 279.445  25
  -3  -9  -7 710.684 297.375  13
   3   9   8 874.361 268.080  19
   3   9   8 976.019 267.543  25
  -3 -10   4 2659.72 421.135  17
  -3 -10   3 2664.89 420.761  13
  -3 -10   2 369.040 212.994  13
  -3 -10   1 525.133 256.139  17
  -3 -10   1 59.3961 99.6386  13
  -3 -10   0 7218.81 814.352  17
  -3 -10   0 6035.41 744.912  13
  -3 -10  -1 353.270 221.482  17
  -3 -10  -1 130.627 230.950  13
  -3 -10  -2 2739.80 492.865  17
  -3 -10  -2 2815.53 537.338  13
  -3 -10  -3 6933.89 811.839  13
  -3 -10  -4 31.2952 150.229  13
  -3 -10  -5 999.877 306.482  13
  -3 -10  -6 1103.61 307.868  13
   3  10   7 223.873 183.966  19
  -3 -10  -7 649.553 179.532  20
  -3 -11   2 345.860 175.350  17
  -3 -11   1 246.210 163.253  17
  -3 -11   1-306.570 149.266  13
  -3 -11   0-57.3897 136.372  17
  -3 -11   0 371.280 182.452  13
  -3 -11  -1 185.947 154.510  17
  -3 -11  -1 360.583 192.888  13
  -3 -11  -2 5.83012 91.0349  17
  -3 -11  -2 348.485 200.662  13
  -3 -11  -3 237.488 165.793  13
  -3 -11  -4 1071.11 268.443  13
  -3 -11  -5 277.431 147.287  13
   4  -9  -2 180.382 160.491  17
   4  -9  -1-122.685 164.727  17
   4  -9   0 654.237 224.386  18
   4  -9   0 829.581 252.239  17
   4  -9   1 36.4585 139.725  18
   4  -9   1 142.848 116.916  17
   4  -9   2 129.765 145.661  18
   4  -9   3 81.6877 139.220  18
   4  -8  -4 434.951 214.679  17
   4  -8  -4 443.635 165.056  20
   4  -8  -3 36.2009 195.489  17
   4  -8  -3-300.172 156.302  20
   4  -8  -2 925.951 294.493  17
   4  -8  -2 904.950 282.828  20
   4  -8  -1-129.737 188.079  17
   4  -8   0 1628.10 399.375  17
   4  -8   1 91.4649 173.286  17
   4  -8   2 196.957 233.599  18
   4  -8   2 445.235 251.180  17
   4  -8   3-210.611 222.344  18
   4  -8   4 7330.85 753.886  18
   4  -8   5 1778.92 346.587  18
   4  -7  -6 156.889 124.659  20
   4  -7  -5-60.1113 178.293  17
   4  -7  -5 81.7615 157.522  20
   4  -7  -4 620.735 279.201  17
   4  -7  -4 765.610 279.089  20
   4  -7  -3 593.533 296.883  17
   4  -7  -3 698.862 314.374  20
   4  -7  -2 207.742 278.816  17
   4  -7  -2 258.276 184.870  20
   4  -7  -1 5158.83 765.313  17
   4  -7   0 634.147 354.515  17
   4  -7   0 11.5106 200.865  21
   4  -7   1-35.7612 289.067  17
   4  -7   1-376.123 317.822  21
   4  -7   2 947.915 371.390  17
   4  -7   3 1521.04 470.572  18
   4  -7   4-111.245 187.366  18
   4  -7   5 2482.84 504.427  18
   4  -7   6 3293.88 526.073  18
   4  -7   7 3916.13 488.696  24
   4  -6  -7 2042.21 357.566  20
   4  -6  -6 623.106 269.477  17
   4  -6  -6 572.850 263.855  20
   4  -6  -5 31.0891 148.212  17
   4  -6  -5 360.061 250.237  20
   4  -6  -4 442.456 312.376  17
   4  -6  -4 683.117 333.541  20
   4  -6  -3-8.63418 249.487  17
   4  -6  -3 313.665 264.117  20
   4  -6  -2 16731.7 1364.70  17
   4  -6  -2 15300.3 1252.62  20
   4  -6  -1 193.985 263.926  17
   4  -6  -1-160.209 287.644  21
   4  -6  -1 178.847 273.696  20
   4  -6   0 17573.4 1393.98  17
   4  -6   0 20470.1 1560.79  21
   4  -6   1 1045.42 409.177  17
   4  -6   1 2053.41 582.059  21
   4  -6   2 35813.1 1917.41  17
   4  -6   2 36144.6 2121.99  21
   4  -6   3 2210.44 596.529  21
   4  -6   4 18862.8 1470.45  18
   4  -6   5 4825.31 767.293  18
   4  -6   5 4872.18 740.772  24
   4  -6   6 1506.27 419.764  18
   4  -6   6 1170.76 355.520  14
   4  -6   6 988.820 381.053  24
   4  -6   7 1298.07 394.753  24
   4  -6   7 1411.07 366.554  14
   4  -6   8 4324.76 525.572  14
   4  -6   8 4878.39 630.808  24
  -4   5   8 4019.98 447.131  19
   4  -5  -7 2989.93 492.367  20
  -4   5   7 2521.65 437.869  19
   4  -5  -6 103.536 148.359  17
   4  -5  -6-46.2719 157.851  20
  -4   5   6-346.250 177.859  19
   4  -5  -5-43.9420 236.545  17
   4  -5  -5-83.3559 206.458  20
   4  -5  -4 966.684 424.802  17
   4  -5  -4 1188.26 420.449  20
   4  -5  -3 9385.19 1031.89  17
   4  -5  -3 9144.91 1003.09  20
   4  -5  -2 907.064 368.621  17
   4  -5  -2 912.322 339.782  20
   4  -5  -1 637.049 359.792  17
   4  -5  -1 192.048 341.204  21
   4  -5  -1 888.879 351.154  20
   4  -5   0 1528.66 439.144  17
   4  -5   0 1197.96 428.938  21
   4  -5   1 4522.48 726.263  17
   4  -5   1 7761.77 956.199  21
   4  -5   2 4090.42 724.962  21
   4  -5   3 3366.48 678.496  21
   4  -5   4 19009.6 1464.63  18
   4  -5   4 18477.1 1444.68  24
   4  -5   4 18061.9 1498.73  21
   4  -5   5 408.590 289.393  18
   4  -5   5 920.102 366.500  24
   4  -5   5 460.778 330.945  21
   4  -5   6 3808.91 678.168  18
   4  -5   6 3231.58 612.788  14
   4  -5   6 2022.42 544.359  24
   4  -5   7 10418.5 1063.45  18
   4  -5   7 12134.0 1099.00  14
   4  -5   7 11915.3 1172.25  24
   4  -5   8 1880.18 409.130  14
   4  -5   8 777.775 340.663  24
   4  -5   9 104.494 137.111  14
   4  -5   9-71.2287 207.782  24
  -4   4   8 2004.33 397.278  19
   4  -4  -7 1942.93 414.850  20
  -4   4   7 2067.19 462.022  19
   4  -4  -6 138.560 275.854  17
   4  -4  -6 483.054 287.929  20
  -4   4   6 694.535 331.216  19
   4  -4  -5 1871.27 517.273  17
   4  -4  -5 1731.24 470.894  20
  -4   4   5 2041.63 540.534  19
   4  -4  -4 2770.58 619.962  17
   4  -4  -4 2897.82 606.145  20
   4  -4  -3 8073.96 945.944  17
   4  -4  -3 9292.63 999.398  20
   4  -4  -2 18394.5 1382.51  17
   4  -4  -2 17579.8 1473.66   9
   4  -4  -2 19071.4 1353.60  20
  -4   4   1 1890.43 505.959  10
   4  -4  -1 1947.58 503.706   9
  -4   4   0 365.913 283.511  10
   4  -4   0 361.994 261.547   9
  -4   4  -1 2184.95 567.984  10
   4  -4   1 1947.78 530.518   9
   4  -4   2 31423.9 1888.36   9
   4  -4   3 3606.77 667.622   9
   4  -4   4 66407.1 2602.99  18
   4  -4   4 71632.6 2749.82  24
   4  -4   4 62583.9 2655.90  21
   4  -4   5 441.527 300.503  18
   4  -4   5 802.782 349.874  24
   4  -4   5 303.787 320.726  21
   4  -4   6 610.664 361.532  18
   4  -4   6 1356.62 411.025  21
   4  -4   7 17343.6 1395.00  18
   4  -4   7 18637.1 1399.75  14
   4  -4   7 17463.3 1465.69  24
   4  -4   8 11456.8 1088.23  14
   4  -4   8 10203.4 1103.43  24
   4  -4   9 1750.45 436.626  24
   4  -4   9 1264.44 351.852  14
   4  -4  10-268.327 130.006  14
   4  -4  10-133.949 101.307  24
  -4   3   9-85.1160 137.648  19
  -4   3   8 11807.9 996.643  19
   4  -3  -7 1731.68 428.747  20
  -4   3   7 1546.44 452.400  19
   4  -3  -6 7215.05 885.051  20
  -4   3   6 8229.23 959.024  19
   4  -3  -5 52968.3 2378.93  17
   4  -3  -5 51355.0 2316.53  20
  -4   3   5 51842.0 2328.74  19
   4  -3  -4 18651.5 1391.07  17
   4  -3  -4 19773.0 1415.20  20
  -4   3   3 8391.57 988.603   7
  -4   3   3 6875.98 909.715   3
  -4   3   3 7163.40 973.854  10
  -4   3   2 59737.8 2422.92   7
  -4   3   2 54280.1 2329.46   3
  -4   3   1 75507.7 2605.75   3
  -4   3   1 76854.6 2852.58  10
   4  -3   0 14557.3 1200.45   9
  -4   3   0 15798.5 1149.90   3
  -4   3   0 15536.6 1253.12  10
   4  -3   1 34794.4 1840.63   9
  -4   3  -1 34826.2 1641.73   3
  -4   3  -1 35888.5 1830.95  10
  -4   3  -2 3909.65 625.957  10
   4  -3   2 2744.03 553.767   9
  -4   3  -2 3409.54 533.958   3
   4  -3   3 134.715 200.606   9
   4  -3   4 835.776 351.665   9
   4  -3   5 55296.1 2597.96   9
   4  -3   6 9399.47 1029.78  18
   4  -3   6 6899.89 923.693  24
   4  -3   7 1962.43 525.588  18
   4  -3   7 2344.07 576.057  24
   4  -3   8 32.3670 212.703  24
   4  -3   8 573.168 371.074  14
   4  -3   9 120.606 165.234  14
   4  -3   9 155.994 239.469  24
   4  -3  10 329.986 194.947  14
   4  -3  10 521.684 257.480  24
   4  -3  11 843.088 216.179  14
  -4   2   9 617.235 251.451  19
  -4   2   8 2298.90 498.516  19
   4  -2  -7 730.848 298.145  20
  -4   2   7 748.333 336.981  19
   4  -2  -6 256.693 213.158  20
  -4   2   6 159.142 255.339  19
   4  -2  -5 9426.59 1007.84  17
   4  -2  -5 9643.95 1018.15  20
  -4   2   5 8981.47 966.313  19
  -4   2   4 12993.0 1285.90   7
  -4   2   4 15601.4 1345.97   4
  -4   2   4 15603.1 1384.50   3
  -4   2   4 13265.6 1296.06  10
  -4   2   3 32431.7 1863.24   7
  -4   2   3 28877.4 1737.46   3
  -4   2   3 33650.9 1942.87  10
  -4   2   2 790.221 336.900  10
  -4   2   2 414.569 236.811   7
  -4   2   2 1507.79 406.201   2
  -4   2   2 1477.83 402.710   3
  -4   2   1 3268.78 584.836  10
  -4   2   1 3234.36 514.397   7
  -4   2   1 2503.21 448.025   2
  -4   2   1 3108.23 540.592   3
  -4   2   0 81790.6 2272.97   2
  -4   2   0 82991.2 2486.65   3
  -4   2   0 86787.3 2701.86  10
   4  -2   1 48764.8 2041.48   9
  -4   2  -1 51758.7 1720.51   2
  -4   2  -1 50795.9 1877.72   3
  -4   2  -1 50029.9 1978.93  10
   4  -2   2 3960.45 582.767   9
  -4   2  -2 3726.63 464.681   2
  -4   2  -2 3787.52 535.651   3
  -4   2  -2 3832.78 559.335  10
   4  -2   3 46177.5 2001.10   9
  -4   2  -3 50710.1 1835.48  10
   4  -2   4 46379.3 2107.34   9
   4  -2   5 1337.84 415.528   9
  -4   2  -6 777.488 361.182  12
   4  -2   7 3048.28 614.761  24
   4  -2   8 8010.30 1002.13  24
   4  -2   9 428.992 279.533  24
   4  -2   9 658.101 338.593  23
   4  -2  10 6191.91 789.444  24
   4  -2  10 5780.91 712.135  23
   4  -2  11 1786.57 370.299  14
   4  -2  11 2151.73 355.803  24
   4  -2  11 1589.62 332.815  23
   4  -1 -10 104.962 121.697  25
  -4   1  10 126.137 83.0892  19
  -4   1   9 112.320 191.005  19
  -4   1   8 9026.09 953.336  19
  -4   1   7 15043.6 1285.58  19
   4  -1  -6 16855.8 1316.11  20
  -4   1   6 15738.7 1310.50  19
   4  -1  -5 50385.8 2213.69  20
  -4   1   5 49345.2 2197.42  19
  -4   1   4 6727.94 911.002   7
  -4   1   4 11120.6 1102.58   4
  -4   1   4 9559.23 1073.47   3
   4  -1  -4 12177.7 1219.28  11
  -4   1   4 7422.05 913.667  10
  -4   1   3 1952.59 501.425   7
  -4   1   3 2155.43 446.525   4
  -4   1   3 2324.04 522.090   2
  -4   1   3 2397.88 523.295   3
  -4   1   3 1829.84 472.038  10
  -4   1   2 17651.5 1221.18   7
  -4   1   2 15907.2 1051.65   4
  -4   1   2 15555.4 1131.16   2
  -4   1   2 14595.8 1146.99   3
  -4   1   2 16279.3 1209.20  10
  -4   1   1 136263. 3036.44   7
  -4   1   1 136374. 2630.78   4
  -4   1   1 131238. 3003.03   2
  -4   1   1 132675. 3164.59   3
  -4   1   1 134149. 3248.54  10
  -4   1   0 5883.81 587.123   7
  -4   1   0 6022.91 617.784   2
  -4   1   0 5878.75 651.257   3
  -4   1   0 6079.01 690.197  10
  -4   1  -1 117154. 2539.13   2
  -4   1  -1 116496. 2750.52   3
  -4   1  -1 118330. 2811.18  10
   4  -1   2 82535.8 2450.82   9
  -4   1  -2 82133.2 2124.03   2
  -4   1  -2 83432.4 2318.09   3
  -4   1  -2 86242.4 2312.27  10
   4  -1   3 12087.8 954.286   9
  -4   1  -3 10932.7 814.880   2
  -4   1  -3 11756.6 913.148   3
  -4   1  -3 11840.4 835.261  10
  -4   1  -4 37831.3 1598.42   2
   4  -1   4 38249.2 1762.77   9
   4  -1   5 31234.3 1701.54   9
  -4   1  -5 29001.5 1514.87   2
  -4   1  -6 2308.53 498.145   2
  -4   1  -6 1188.58 390.948  12
   4  -1   7-436.731 297.741  16
   4  -1   7 124.643 210.296  23
   4  -1   8 6405.15 882.155  16
   4  -1   8 7473.84 950.409  24
   4  -1   8 6631.52 891.414  23
   4  -1   9 5346.44 825.431  16
   4  -1   9 5048.10 765.813  23
   4  -1   9 4387.11 729.571  24
   4  -1  10-424.441 231.235  24
   4  -1  10-387.678 275.095  23
   4  -1  11 1618.99 407.218  23
   4  -1  12 335.926 143.550  14
   4  -1  12 685.740 204.366  23
   4   0 -10 659.479 190.574  25
  -4   0  10-3.92635 129.791  19
   4   0  -9 2359.01 461.002  25
  -4   0   9 2178.44 456.554  19
  -4   0   8 253.045 250.111  19
  -4   0   7 6694.59 897.673  19
  -4   0   6 496.505 283.605  23
  -4   0   6 249.172 322.411  19
  -4   0   5 24688.9 1764.30   4
   4   0  -4 2103.25 459.394   1
  -4   0   4 1774.04 477.345   7
  -4   0   4 1762.82 431.707   4
   4   0  -4 2116.59 525.361  11
  -4   0   4 1128.09 391.701   3
  -4   0   3 16470.4 1244.63   7
  -4   0   3 16697.0 1199.94   4
  -4   0   3 16072.7 1235.91   3
  -4   0   3 15660.6 1207.91   2
   4   0  -3 17136.6 1325.06  11
  -4   0   3 16185.7 1200.57  10
   4   0  -3 16236.6 1118.80   1
  -4   0   2 435.388 221.543   4
  -4   0   2 702.647 276.168   7
  -4   0   2 829.924 315.858   2
  -4   0   2-100.351 192.981   3
   4   0  -2 195.813 234.289  11
  -4   0   2 558.373 276.032  10
  -4   0   1 58348.3 1728.40   4
  -4   0   1 56996.5 2026.04   3
  -4   0   1 54864.5 1914.82   2
  -4   0   1 54495.9 1970.87  10
  -4   0   0 34005.3 1097.79   4
  -4   0   0 31986.5 1362.06   2
  -4   0   0 33224.3 1448.25   3
  -4   0   0 33229.9 1475.01  10
  -4   0  -1 183276. 3148.59   2
  -4   0  -1 191096. 3360.63   3
  -4   0  -1 188803. 3356.94  10
   4   0   2 66651.8 2013.21   9
  -4   0  -2 63511.9 1875.54   2
  -4   0  -2 64829.4 1977.98   3
  -4   0  -2 68632.6 1951.27  10
  -4   0  -3 4311.87 524.861   2
   4   0   3 4100.86 519.431   9
  -4   0  -3 3484.23 401.046   1
   4   0   4 13736.4 983.214   9
  -4   0  -4 14610.4 911.570   1
  -4   0  -4 15451.3 1030.30   2
   4   0   5 1143.25 354.838   9
  -4   0  -5 692.861 257.361   1
  -4   0  -6 61296.3 2498.25  12
  -4   0  -7 428.868 321.569  12
   4   0   8 12556.8 1198.31  23
   4   0   8 14469.9 1268.67  16
   4   0   8 13625.6 1205.22  24
   4   0   9 248.740 278.131  16
   4   0   9 351.260 301.605  23
   4   0  10 27226.4 1761.92  16
   4   0  10 27920.3 1736.09  23
   4   0  11 1465.03 397.257  23
   4   0  12 402.316 214.654  23
  -4  -1  10-166.061 126.671  19
   4   1  -9-225.703 186.369  25
  -4  -1   9 244.598 217.090  19
  -4  -1   8 330.041 298.851  19
  -4  -1   7 2234.14 546.800  19
  -4  -1   6 9604.08 1042.61  23
  -4  -1   6 9622.59 1038.77  19
   4   1  -5 8526.65 1013.10   1
  -4  -1   5 7344.07 982.424   4
  -4  -1   5 7488.31 996.661   7
   4   1  -5 9478.89 1188.93  11
   4   1  -4 3313.01 577.026   1
  -4  -1   4 2255.37 498.859   4
  -4  -1   4 2815.86 570.245   7
   4   1  -4 3462.05 669.989  11
  -4  -1   4 2803.50 538.740   3
  -4  -1   3 7365.51 804.950   4
  -4  -1   3 8669.75 911.070   7
  -4  -1   3 7058.39 809.371   2
  -4  -1   3 7287.11 822.930   3
   4   1  -3 7589.02 871.706  11
  -4  -1   2 24854.9 1302.50   4
  -4  -1   2 24345.4 1370.03   7
  -4  -1   2 26258.0 1418.67   2
  -4  -1   2 23210.0 1362.47   3
   4   1  -2 23941.1 1419.85  11
  -4  -1   2 24878.7 1368.11  10
  -4  -1   1 24264.8 1131.76   4
  -4  -1   1 23130.0 1232.47   2
  -4  -1   1 23269.3 1260.75   3
   4   1  -1 23738.8 1315.84  11
  -4  -1   1 23157.5 1252.79  10
  -4  -1   0 835.594 214.182   4
  -4  -1   0 754.042 243.812   2
  -4  -1   0 1189.80 305.769   3
  -4  -1   0 975.561 302.214  10
  -4  -1  -1 22922.0 857.122   4
  -4  -1  -1 22002.7 1095.83   2
  -4  -1  -1 24430.9 1170.59   3
   4   1   2 104.054 146.041   9
  -4  -1  -2 78.9338 155.678   2
  -4  -1  -2 103.544 155.605   3
  -4  -1  -3 60129.7 1903.35   2
   4   1   3 63962.9 1818.23   9
  -4  -1  -3 61069.1 1793.91   1
   4   1   4 4057.10 501.129   9
  -4  -1  -4 3912.59 523.049   1
  -4  -1  -4 4052.36 553.528   2
   4   1   5 306.135 205.275   9
  -4  -1  -5 375.869 214.232   1
  -4  -1  -6 811.582 346.522  12
  -4  -1  -6 741.711 330.203   1
  -4  -1  -7 8942.43 1029.88   1
  -4  -1  -7 7541.04 929.709  12
   4   1   8 10979.8 1118.49  16
   4   1   8 9917.17 1052.94  23
   4   1   9 119.971 241.798  16
   4   1   9 195.070 263.653  23
   4   1  10 84.4630 270.629  16
   4   1  10 767.622 362.595  23
   4   1  11 1861.79 480.469  16
   4   1  11 2768.71 536.338  23
   4   1  12 2264.99 417.737  23
  -4  -2  10 493.554 207.878  19
  -4  -2   9 734.444 300.713  19
   4   2  -8 0.83440 275.635  25
  -4  -2   8 121.500 227.051  19
   4   2  -7 4682.17 709.386  25
  -4  -2   7 4549.04 756.703  19
  -4  -2   6 12371.6 1191.78  23
  -4  -2   6 10908.0 1103.57  19
  -4  -2   5 21508.9 1490.24  23
  -4  -2   4 1454.08 425.061   4
   4   2  -4 1881.01 488.573  11
  -4  -2   4 1669.21 434.076   3
  -4  -2   3 11454.5 1005.55   4
  -4  -2   3 12105.3 1066.56   2
  -4  -2   3 11772.1 1037.38   3
   4   2  -3 13059.9 1145.19  11
  -4  -2   2 3688.69 539.516   4
  -4  -2   2 3972.93 576.199   2
  -4  -2   2 3738.63 557.019   3
   4   2  -2 3848.14 596.560  11
  -4  -2   1 15171.4 951.630   4
  -4  -2   1 14928.8 1004.28   2
  -4  -2   1 15674.6 1014.28   3
   4   2  -1 17506.7 1118.14  11
  -4  -2   0 854.060 231.021   4
  -4  -2   0 1003.93 274.936   2
  -4  -2   0 884.725 263.251   3
  -4  -2  -1 11589.0 719.564   4
  -4  -2  -1 10976.3 791.844   2
  -4  -2  -1 9810.20 741.160   3
  -4  -2  -2 53856.2 1514.43   4
  -4  -2  -2 52525.4 1745.94   2
   4   2   2 51481.5 1468.06   9
  -4  -2  -2 51870.3 1688.32   3
  -4  -2  -3 9596.05 785.326   2
   4   2   3 9558.45 633.247   9
  -4  -2  -3 8801.00 753.769   1
   4   2   4 136004. 2521.51   9
  -4  -2  -4 132441. 3091.43   1
  -4  -2  -4 130610. 2573.62   5
  -4  -2  -4 134706. 3111.28   2
  -4  -2  -5 6563.05 762.548   1
  -4  -2  -6 2618.29 542.641   1
  -4  -2  -6 2745.76 548.499  12
  -4  -2  -7 11997.0 1213.70   1
  -4  -2  -7 12835.6 1178.97  12
   4   2   8 16161.0 1341.64  23
   4   2   9 1783.85 485.047  23
   4   2  10 29294.7 1818.27  16
   4   2  10 30360.4 1801.72  23
   4   2  11 7967.27 888.200  16
   4   2  11 8240.08 881.906  23
   4   2  12-120.297 166.490  16
   4   2  12 57.4932 135.249  23
  -4  -3   9-204.061 224.988  19
  -4  -3   8 537.974 272.336  19
   4   3  -7 291.670 224.696  25
  -4  -3   7 857.229 348.211  19
   4   3  -6 7524.51 892.362  25
  -4  -3   6 7794.29 941.771  19
   4   3  -5 430.679 225.740  25
  -4  -3   5 108.411 222.874  19
  -4  -3   4-161.331 162.146   4
   4   3  -4 179.321 259.758  11
  -4  -3   3 4463.23 685.438   4
  -4  -3   3 4913.37 684.080   2
  -4  -3   3 4898.75 669.831   3
   4   3  -3 5545.44 771.144  11
  -4  -3   2 45112.7 1877.17   4
  -4  -3   2 49089.0 1925.98   8
  -4  -3   2 44632.7 1809.83   3
  -4  -3   2 46712.1 1914.93   2
   4   3  -2 47759.6 2001.98  11
  -4  -3   1 70956.4 2179.93   4
  -4  -3   1 70424.6 2187.80   2
  -4  -3   1 72390.4 2131.71   3
   4   3  -1 73732.4 2262.46  11
  -4  -3   0 27719.4 1283.97   4
  -4  -3   0 28112.7 1303.79   2
  -4  -3   0 29024.1 1270.81   3
  -4  -3  -1 396387. 4772.89   2
  -4  -3  -1 391608. 4486.14   3
  -4  -3  -2 25858.9 1206.43   4
  -4  -3  -2 25887.1 1264.66   2
  -4  -3  -2 25199.9 1174.98   3
  -4  -3  -3 193512. 3576.25   2
  -4  -3  -3 188681. 3356.56   5
   4   3   4 6441.03 691.699   7
  -4  -3  -4 6219.05 739.333   1
  -4  -3  -4 6709.78 651.723   5
  -4  -3  -4 6996.28 740.736   2
  -4  -3  -5 904.413 342.553   1
   4   3   5 821.271 309.705   7
  -4  -3  -6-90.0757 196.036   1
  -4  -3  -7 69655.9 2991.19   1
   4   3   8 358.293 305.509  25
   4   3   8 607.567 304.590  23
   4   3   9 8767.57 990.751  23
   4   3   9 7091.01 865.786  25
   4   3  10 6139.49 871.957  16
   4   3  10 4594.68 707.205  23
   4   3  11 7249.38 840.872  16
   4   3  11 8333.37 851.552  23
   4   3  12 2083.60 392.504  16
   4   3  12 2977.19 431.860  23
  -4  -4   9 1421.91 347.997  22
  -4  -4   8 345.305 252.920  19
  -4  -4   7 310.583 288.431  19
  -4  -4   6 20659.1 1509.23  19
  -4  -4   5 7245.69 887.196  19
   4   4  -4 1437.64 437.418  11
  -4  -4   3 2604.68 538.917   8
  -4  -4   3 1720.94 438.866   4
   4   4  -3 2647.34 577.725  11
  -4  -4   2 14533.2 1140.23   4
  -4  -4   2 12594.5 1090.19   8
  -4  -4   2 14123.9 1069.76   2
   4   4  -2 13884.6 1101.69  11
  -4  -4   1 12159.7 993.059   4
  -4  -4   1 11976.8 921.963   2
   4   4  -1 12482.7 937.555  11
  -4  -4   0 3002.92 450.282   2
  -4  -4   0 2709.93 458.116   4
  -4  -4  -1 49589.5 1852.78   4
  -4  -4  -1 47396.6 1705.68   2
  -4  -4  -1 46839.5 1833.07   5
  -4  -4  -2 97029.1 2608.96   4
  -4  -4  -2 99995.2 2535.74   2
  -4  -4  -2 96678.8 2621.85   5
  -4  -4  -3 1750.16 370.250   2
  -4  -4  -3 1176.65 328.381   5
  -4  -4  -4 558.334 299.217   1
  -4  -4  -4 298.207 206.703   2
   4   4   4 350.145 243.769   7
  -4  -4  -4 523.280 255.052   5
   4   4   5 6111.83 791.990   7
  -4  -4  -5 6747.21 870.655   1
   4   4   6 5558.33 790.167   7
  -4  -4  -6 7644.55 998.598   1
   4   4   7 4695.21 702.274  25
   4   4   8 22167.1 1511.51  23
   4   4   8 23565.6 1578.81  25
   4   4   9 131.165 228.580  25
   4   4   9 438.640 312.640  23
   4   4  10 2931.70 553.459  25
   4   4  10 2543.17 511.000  23
   4   4  11 5708.66 738.426  16
   4   4  11 6454.95 698.919  23
   4   4  12 171.398 137.941  16
  -4  -5   9-225.998 136.794  22
  -4  -5   9 88.8785 132.056  13
  -4  -5   8 1448.81 404.400  22
  -4  -5   7 59.7687 155.144  22
  -4  -5   6 1053.66 390.705  19
  -4  -5   5 5183.62 782.099  19
  -4  -5   4 5028.75 737.754  19
  -4  -5   3 2769.97 633.417   8
  -4  -5   3 2039.89 537.056   4
  -4  -5   2 26552.0 1653.12   4
  -4  -5   2 23326.6 1549.31   6
  -4  -5   1 23015.3 1482.77   4
  -4  -5   1 21657.7 1524.00   8
  -4  -5   1 23973.6 1563.78   6
  -4  -5   1 24382.5 1504.15   5
  -4  -5   0 4364.58 643.857   4
  -4  -5   0 4901.29 678.166   5
  -4  -5  -1 155497. 3670.44   4
  -4  -5  -1 149801. 3597.32   5
  -4  -5  -2 4917.06 681.032   4
  -4  -5  -2 5535.01 709.202   5
   4   5   3 144927. 3631.19   7
  -4  -5  -3 142613. 3570.11   5
  -4  -5  -4 6675.80 769.969   2
   4   5   4 7808.08 894.567   7
  -4  -5  -4 6856.55 801.265   5
  -4  -5  -5 43861.8 2292.45   1
   4   5   5 45757.2 2227.75   7
  -4  -5  -5 43670.3 2023.69   5
  -4  -5  -5 42022.3 2039.65   2
   4   5   6 7551.20 882.126  25
   4   5   6 8270.71 1037.74   7
  -4  -5  -6 7807.16 923.212   2
   4   5   7 97066.1 3151.59  25
   4   5   8 1006.72 417.369  25
   4   5   9 147.768 252.816  25
   4   5  10 7334.86 830.025  25
   4   5  11 3829.82 558.183  16
  -4  -6   8 224.945 179.772  22
  -4  -6   8 347.128 188.623  13
  -4  -6   7 560.213 291.375  22
  -4  -6   7 38.9907 176.648  13
  -4  -6   6 5170.95 785.269  22
  -4  -6   5 4533.59 760.536  22
  -4  -6   4 22076.3 1582.10  22
  -4  -6   3 27912.1 1725.33  22
  -4  -6   2 43644.1 2294.55   6
  -4  -6   2 43116.7 2011.16  13
  -4  -6   2 41932.6 2026.88  22
  -4  -6   1 18195.0 1516.45   8
  -4  -6   1 21119.1 1596.58   6
  -4  -6   1 15924.3 1346.30   5
  -4  -6   0 1334.62 447.549   6
  -4  -6   0 946.504 388.088   8
  -4  -6   0 928.363 353.922   4
  -4  -6   0 2077.40 496.500   5
  -4  -6  -1 10454.7 1064.00   4
  -4  -6  -1 12817.0 1211.53   6
  -4  -6  -1 12755.0 1170.26   5
  -4  -6  -2 5414.45 806.024   6
  -4  -6  -2 4284.40 687.726   5
   4   6   3 1427.21 437.006   7
  -4  -6  -3 1822.07 481.140   6
  -4  -6  -3 1429.23 445.816   5
   4   6   4 6516.61 889.112   7
  -4  -6  -4 7318.36 910.357   6
  -4  -6  -4 4573.37 718.396   5
   4   6   5 942.800 366.671  25
  -4  -6  -5 976.578 373.354   5
   4   6   6 16199.1 1301.64  25
  -4  -6  -6 15495.9 1266.05  13
   4   6   7 2113.78 485.477  25
  -4  -6  -7 2183.71 516.488  13
   4   6   8 19206.3 1438.12  25
   4   6   9 944.462 370.587  25
   4   6  10 1052.92 343.204  25
   4   6  11 328.264 232.061  16
  -4  -7   7 63.2450 132.676  22
  -4  -7   7-209.078 149.960  13
  -4  -7   6 847.913 326.961  22
  -4  -7   6 1088.29 330.016  13
  -4  -7   5 2963.51 610.140  22
  -4  -7   5 3042.85 594.265  13
  -4  -7   4 5117.43 790.702  22
  -4  -7   4 4404.33 715.681  13
  -4  -7   3 1098.44 389.617  22
  -4  -7   3 1279.59 426.919  13
  -4  -7   2 4415.78 713.972  22
  -4  -7   2 4842.48 722.245  13
  -4  -7   1 69075.2 2635.26  13
  -4  -7   1 72472.6 2764.01  22
  -4  -7   0 3336.64 593.451  13
  -4  -7  -1 19616.8 1377.21  13
  -4  -7  -2 141.739 220.548  13
   4   7   3 47.4950 208.137  25
  -4  -7  -3 725.260 287.379  13
   4   7   4-318.405 259.731  25
  -4  -7  -4-29.5371 231.604  13
   4   7   5 28358.6 1697.16  25
  -4  -7  -5 27054.6 1681.93  13
  -4  -7  -6 4999.96 756.533  13
   4   7   6 5559.32 786.522  25
   4   7   7 2573.77 584.557  25
  -4  -7  -7 2888.48 587.395  13
   4   7   8 1485.20 450.176  25
  -4  -7  -8 672.318 298.031  13
   4   7   9 860.271 308.460  25
   4   7  10-230.454 196.055  25
  -4  -8   6 629.060 280.722  22
  -4  -8   6 330.220 205.978  13
  -4  -8   5 4999.98 678.217  13
  -4  -8   5 4455.58 675.658  22
  -4  -8   4 57.9420 166.588  22
  -4  -8   4 241.510 217.068  13
  -4  -8   3 1231.28 425.960  22
  -4  -8   3 1454.44 409.398  13
  -4  -8   2 5021.72 743.550  13
  -4  -8   2 5094.72 768.163  22
  -4  -8   1 784.471 350.673  13
  -4  -8   0 26379.9 1679.11  13
  -4  -8  -1 38146.6 2005.43  13
  -4  -8  -2 5260.07 777.392  13
  -4  -8  -3 781.537 318.756  13
   4   8   4 8550.68 931.873  25
  -4  -8  -4 8982.70 996.497  13
  -4  -8  -5 7771.05 927.797  13
   4   8   5 7854.23 892.323  25
   4   8   6 1137.33 380.607  25
  -4  -8  -6 986.027 381.250  13
   4   8   7 1060.58 350.932  25
  -4  -8  -7 1171.80 380.582  13
   4   8   8 558.335 252.351  25
   4   8   9-138.828 190.852  25
  -4  -9   5 150.254 131.934  13
  -4  -9   4 398.349 211.962  13
  -4  -9   3 382.842 208.827  13
  -4  -9   2 71.7245 206.717  13
  -4  -9   1 2879.28 578.480  13
  -4  -9   0-95.3198 257.890  13
  -4  -9  -1 4934.48 739.982  13
  -4  -9  -2 232.950 248.836  13
  -4  -9  -3 3585.23 648.749  13
  -4  -9  -4 32.7389 226.430  13
  -4  -9  -5 5639.69 774.308  13
   4   9   6 544.812 245.622  25
  -4  -9  -6 130.608 189.928  13
   4   9   7-433.042 185.655  25
  -4  -9  -7 137.410 189.768  13
   4   9   8 358.982 178.957  25
  -4 -10   3 1274.34 315.870  13
  -4 -10   2 4541.18 607.988  13
  -4 -10   1 160.365 170.957  13
  -4 -10   0 3172.86 557.549  13
  -4 -10  -1 269.046 169.905  17
  -4 -10  -1-74.7282 196.507  13
  -4 -10  -2 185.250 161.070  17
  -4 -10  -2 20.0618 191.237  13
  -4 -10  -3 190.035 212.704  13
  -4 -10  -4 6145.54 758.449  13
  -4 -10  -5 887.814 290.380  13
  -4 -10  -6 522.322 240.322  13
   4  10   7 131.956 168.072  19
  -4 -10  -7 648.609 172.986  20
  -4 -11   2 523.214 175.655  17
  -4 -11   1 193.020 146.876  17
  -4 -11   1 137.472 149.825  13
  -4 -11   0 125.254 115.513  17
  -4 -11   0 103.683 140.114  13
  -4 -11  -1 590.007 189.730  17
  -4 -11  -1 683.878 241.524  13
  -4 -11  -2 242.350 208.152  13
  -4 -11  -3 283.522 195.100  13
  -4 -11  -4-247.021 176.556  13
  -4 -11  -5 329.365 167.393  13
   5  -8  -3 125.959 140.023  17
   5  -8  -2 419.242 141.496  18
   5  -8  -2 912.892 270.691  17
   5  -8  -1-135.055 155.653  18
   5  -8  -1 145.635 174.933  17
   5  -8   0 1863.58 369.030  18
   5  -8   0 1906.12 369.892  17
   5  -8   1 135.968 176.458  18
   5  -8   1 232.025 174.264  17
   5  -8   2 183.882 115.679  18
   5  -8   3 2434.35 419.041  18
   5  -8   4 427.515 175.790  18
   5  -7  -4 706.500 239.141  17
   5  -7  -4 226.382 153.051  15
   5  -7  -4 563.559 208.397  20
   5  -7  -3 975.177 331.771  17
   5  -7  -3 810.701 265.979  15
   5  -7  -3 529.335 208.363  20
   5  -7  -2 1184.33 365.614  17
   5  -7  -2 1027.44 267.039  20
   5  -7  -1 2671.86 508.606  17
   5  -7   0 16499.9 1199.59  17
   5  -7   1 265.585 209.161  17
   5  -7   2 400.025 213.065  18
   5  -7   3 2677.97 533.600  18
   5  -7   4 3483.36 582.755  18
   5  -7   5 5263.84 646.277  18
   5  -7   6 4134.56 527.461  18
   5  -6  -6-51.1547 84.3297  20
   5  -6  -5 31.9229 157.215  17
   5  -6  -5 30.6138 138.888  20
   5  -6  -4 392.006 265.690  17
   5  -6  -4 139.168 173.087  20
   5  -6  -3 1431.51 430.197  17
   5  -6  -3 1490.29 401.020  20
   5  -6  -2 332.733 323.802  17
   5  -6  -2 190.513 227.499  20
   5  -6  -1 11472.0 1096.55  17
   5  -6  -1 9688.37 1013.92  21
   5  -6   0 362.089 328.904  17
   5  -6   0 409.558 290.872  21
   5  -6   1 12563.6 1143.64  17
   5  -6   1 13195.3 1258.19  21
   5  -6   2 7345.75 952.675  21
   5  -6   3 3381.88 630.362  18
   5  -6   3 3015.11 638.737  21
   5  -6   4 295.605 280.282  18
   5  -6   4 228.171 288.451  21
   5  -6   5 4816.73 730.440  18
   5  -6   6 625.930 287.594  18
   5  -6   6 418.140 271.374  24
   5  -6   7 6037.86 672.895  24
   5  -6   8 500.536 202.313  24
   5  -5  -6 66.8256 162.905  20
   5  -5  -5 1499.05 420.724  17
   5  -5  -5 1392.61 390.249  20
   5  -5  -4 940.246 404.070  17
   5  -5  -4 1120.79 361.500  20
   5  -5  -3-26.7056 273.046  17
   5  -5  -3 66.6587 241.430  20
   5  -5  -2 1047.95 429.795  17
   5  -5  -2 1198.43 427.323  20
   5  -5  -1 10789.2 1112.80  17
   5  -5  -1 11134.0 1051.16  20
   5  -5  -1 13462.6 1245.85  21
   5  -5   0 42563.3 2144.51  17
   5  -5   0 46775.6 2316.41  21
   5  -5   1 34532.8 1895.51  17
   5  -5   1 37692.0 2123.15  21
   5  -5   2 1951.22 570.383  21
   5  -5   3 8129.89 981.409  18
   5  -5   3 8239.91 1050.02  21
   5  -5   4 7658.07 956.371  18
   5  -5   4 7957.27 1040.69  21
   5  -5   5 1690.94 514.726  18
   5  -5   5 3224.02 621.511  24
   5  -5   5 2585.88 593.352  21
   5  -5   6 12337.1 1174.04  18
   5  -5   6 12585.9 1186.41  24
   5  -5   7 10961.9 1037.56  18
   5  -5   7 10516.5 1039.26  24
   5  -5   8 61.9495 234.126  24
   5  -5   9 44.2204 159.151  24
   5  -4  -7 2123.97 370.822  25
   5  -4  -6 949.771 328.720  20
   5  -4  -5 79.2990 221.653  17
   5  -4  -5 357.024 252.551  20
   5  -4  -4 1355.56 425.080  17
   5  -4  -4 1145.50 408.034  20
   5  -4  -3 28593.3 1776.31  17
   5  -4  -3 27188.6 1685.34  20
   5  -4  -2 882.077 421.864  17
   5  -4  -2 834.172 351.335  20
   5  -4  -1 1864.66 489.451  21
   5  -4  -1 2390.88 527.417  20
   5  -4   0 351.705 295.154  17
   5  -4   0 492.406 351.281  21
   5  -4   1 33884.7 1820.46  17
   5  -4   1 35901.5 2032.31  21
   5  -4   2 16452.7 1397.08  21
   5  -4   3 75701.3 2843.33  18
   5  -4   3 81582.8 3125.20  21
   5  -4   4 1292.97 431.545  18
   5  -4   4 1456.05 487.950  24
   5  -4   4 845.040 406.569  21
   5  -4   5 1719.90 530.323  18
   5  -4   5 2260.16 547.958  24
   5  -4   5 1831.29 505.986  21
   5  -4   6 71.5831 252.218  18
   5  -4   6 10.7728 310.306  24
   5  -4   6-15.5303 166.568  21
   5  -4   7 14166.6 1250.55  18
   5  -4   7 16642.5 1405.69  24
   5  -4   8 2439.51 546.676  24
   5  -4   9 4168.09 626.178  24
   5  -4  10 405.152 183.796  24
   5  -3  -8 504.805 159.157  15
   5  -3  -8 930.590 268.791  25
  -5   3   8 458.815 163.188  19
  -5   3   7 310.383 153.252  19
   5  -3  -6 104.947 207.039  20
   5  -3  -5 395.291 321.917  17
   5  -3  -5 180.897 235.722  20
   5  -3  -4 3882.29 717.768  17
   5  -3  -4 3970.27 693.296  20
   5  -3  -3 10520.7 1081.96  17
   5  -3  -3 10580.0 1055.24  20
   5  -3  -2 7465.63 897.211  17
   5  -3  -2 5448.82 744.577  20
   5  -3  -1 6523.91 924.163   9
  -5   3   1 9287.87 1032.84   3
  -5   3   1 8670.90 1104.25  10
   5  -3   0 7252.96 957.858   9
  -5   3   0 7674.41 903.453   3
  -5   3  -1 5018.02 776.053  10
   5  -3   1 6335.62 900.276   9
  -5   3  -1 5822.33 788.980   3
   5  -3   2 14656.1 1315.73   9
  -5   3  -2 17877.2 1397.21  10
   5  -3   3 7230.68 950.753   9
   5  -3   4 21108.3 1472.76  18
   5  -3   4 17948.7 1407.83  24
   5  -3   4 22291.6 1588.01  21
   5  -3   5 32150.9 1863.62  18
   5  -3   5 33848.0 1991.18  24
   5  -3   5 31746.6 1878.16  21
   5  -3   6 7642.08 960.381  18
   5  -3   6 6092.24 888.389  24
   5  -3   7 250.444 337.106  18
   5  -3   7-51.6806 265.657  24
   5  -3   8-79.5183 240.027  24
   5  -3   9 2382.46 516.743  24
   5  -3  10 469.653 247.448  24
   5  -2  -9-406.298 168.070  25
   5  -2  -8-165.424 182.264  25
  -5   2   8-37.8773 83.8346  19
  -5   2   7 170.671 156.568  19
   5  -2  -6 5080.92 741.115  20
  -5   2   6 3577.60 630.311  19
   5  -2  -5 7289.52 905.388  20
   5  -2  -4 1048.89 416.387  17
   5  -2  -4 733.129 369.120  20
   5  -2  -3 13549.4 1189.01  17
   5  -2  -3 13650.0 1170.51  20
  -5   2   2 7921.35 962.321   7
  -5   2   2 6407.81 837.948   2
  -5   2   2 6802.60 919.661   3
  -5   2   2 6220.76 905.591  10
  -5   2   1 3022.81 575.212   2
  -5   2   1 3067.22 614.118   3
  -5   2   1 1449.89 436.688  10
  -5   2   0 7486.06 828.808   2
  -5   2   0 6362.52 815.306   3
  -5   2   0 6399.18 857.779  10
   5  -2   1 22112.5 1537.90   9
  -5   2  -1 22337.2 1443.48   3
  -5   2  -1 22312.9 1501.62  10
   5  -2   2 30136.4 1787.33   9
  -5   2  -2 29933.9 1655.89   3
  -5   2  -2 31278.8 1720.80  10
   5  -2   3 50166.3 2300.89   9
  -5   2  -3 50517.3 2196.70   3
   5  -2   4 9155.68 1033.72   9
  -5   2  -4 9294.11 985.537   3
   5  -2   5 624.384 418.595   9
  -5   2  -5 887.828 348.026   3
   5  -2   6 1765.73 465.227  18
   5  -2   6 1287.72 420.711  24
   5  -2   7 16557.6 1418.70  24
   5  -2   8 582.523 345.131  24
   5  -2   9 7899.76 944.355  24
   5  -2  10 70.0939 147.496  24
   5  -2  11-57.1625 109.235  24
   5  -1  -9 2178.14 361.759  25
  -5   1   9 2168.44 351.111  19
   5  -1  -8 684.927 279.769  25
  -5   1   8 747.948 253.218  19
  -5   1   7 97.6615 190.146  19
  -5   1   6 2932.17 589.561  19
   5  -1  -5 13361.3 1193.90  20
   5  -1  -4 134.721 220.017  20
  -5   1   3 16177.0 1388.23   7
  -5   1   3 24220.6 1680.50   2
  -5   1   3 23827.1 1699.76   3
  -5   1   3 15067.9 1373.30  10
  -5   1   2 2568.55 532.739   7
  -5   1   2 2243.98 526.292   2
  -5   1   2 1903.84 469.682   3
  -5   1   2 2436.73 571.417  10
  -5   1   1 92.3509 160.493   7
  -5   1   1 195.350 251.679   2
  -5   1   1 346.592 264.747   3
  -5   1   1 197.766 277.773  10
  -5   1   0 47815.9 1975.55   2
  -5   1   0 47309.8 2078.33   3
  -5   1   0 46674.4 2101.93  10
   5  -1   1 74990.0 2639.40   9
  -5   1  -1 74045.4 2514.89   3
  -5   1  -1 74794.3 2565.53  10
   5  -1   2 199.350 221.491   9
  -5   1  -2 468.881 209.452   2
  -5   1  -2-99.6608 235.317   3
  -5   1  -2 55.5141 189.761  10
   5  -1   3 13867.1 1152.72   9
  -5   1  -3 11499.3 946.770   2
  -5   1  -3 12779.0 1073.53   3
  -5   1  -3 13301.6 1036.42  10
   5  -1   4 28004.2 1661.33   9
  -5   1  -4 25255.8 1439.35   2
  -5   1  -4 26112.9 1578.99   3
   5  -1   5 1165.99 372.260   9
  -5   1  -5 1317.36 378.753   2
   5  -1   6 14974.3 1324.36   9
   5  -1   6 13955.5 1196.62  18
   5  -1   7 121.895 194.958  16
   5  -1   7 182.363 234.903  24
   5  -1   7 590.712 368.450  23
   5  -1   8 160.920 266.086  16
   5  -1   8-96.3911 223.254  24
   5  -1   8-188.081 258.896  23
   5  -1   9 459.071 298.148  24
   5  -1   9 550.153 305.397  23
   5  -1  10 5859.98 742.378  24
   5  -1  10 6465.43 793.865  23
   5  -1  11 944.354 270.880  14
   5  -1  11 1467.41 339.825  23
   5   0  -9 155.368 163.643  25
  -5   0   9 147.789 141.952  19
   5   0  -8 249.316 215.145  25
  -5   0   8-118.448 166.232  19
  -5   0   7 1178.14 384.677  19
  -5   0   6 8695.75 986.363  19
  -5   0   5 1930.07 488.890  19
   5   0  -4 6409.69 812.934  20
  -5   0   3 7989.62 900.387   4
  -5   0   3 6111.39 830.665   7
  -5   0   3 7213.46 914.091   2
  -5   0   3 7942.62 969.703   3
  -5   0   3 7928.49 965.826  10
  -5   0   2 639.089 283.359   7
  -5   0   2 433.860 252.676   2
  -5   0   2 451.059 239.525   3
  -5   0   2 726.077 313.712  10
  -5   0   1-170.284 219.124   2
  -5   0   1 310.002 233.248   3
  -5   0   1-8.48049 224.831  10
  -5   0   0 15861.1 1132.50   2
  -5   0   0 16534.2 1191.95   3
  -5   0   0 14777.3 1144.62  10
  -5   0  -1-298.935 208.210   2
  -5   0  -1-7.93999 213.792   3
  -5   0  -1-22.7797 211.857  10
   5   0   2 38857.0 1778.94   9
  -5   0  -2 33255.6 1560.61   2
  -5   0  -2 38309.3 1748.32   3
  -5   0  -2 38403.8 1715.80  10
   5   0   3-0.73739 176.447   9
  -5   0  -3 412.645 227.541   2
  -5   0  -3 75.2367 196.630   3
  -5   0  -4 459.952 240.761   2
   5   0   4 147.593 149.058   9
   5   0   5 14665.1 1187.26   9
  -5   0  -5 14065.8 1155.20   2
   5   0   6 4258.13 693.652   9
  -5   0  -6 2993.94 597.807   2
   5   0   7 1905.06 502.982  16
   5   0   7 3355.55 636.487  24
   5   0   8 1716.62 522.690  16
   5   0   8 2023.92 474.932  24
   5   0   8 1521.24 457.557  23
   5   0   9 24719.8 1681.17  16
   5   0   9 24545.5 1625.33  24
   5   0   9 25320.3 1693.29  23
   5   0  10 658.881 364.678  16
   5   0  10 217.785 264.099  23
   5   0  11 670.539 318.868  23
   5   0  12 787.979 223.894  23
   5   1  -9 3796.04 469.262  25
  -5  -1   9 4082.32 510.192  19
   5   1  -8 380.327 256.924  25
  -5  -1   8-12.3167 130.367  19
   5   1  -7-249.788 225.300  25
  -5  -1   7 238.052 271.438  19
  -5  -1   6 84.0621 208.058  19
  -5  -1   5 15294.8 1243.21  19
  -5  -1   3 4759.75 701.631   4
  -5  -1   3 4545.20 723.028   2
   5   1  -3 2660.99 583.021  11
  -5  -1   3 4351.08 723.266   3
  -5  -1   2 16380.9 1155.48   4
  -5  -1   2 15593.3 1245.50   2
  -5  -1   2 14540.8 1231.11   3
  -5  -1   1 3031.44 473.594   4
  -5  -1   1 3569.97 584.508   2
  -5  -1   1 3476.35 607.914   3
  -5  -1   0 1331.16 361.864   2
  -5  -1   0 937.417 319.856   3
  -5  -1  -1 93021.3 2596.97   2
  -5  -1  -1 95857.0 2689.14   3
   5   1   2 15276.7 1036.89   9
  -5  -1  -2 13465.6 997.664   2
  -5  -1  -2 13734.4 1038.04   3
   5   1   3 308.517 214.129   9
  -5  -1  -3 463.951 241.678   2
  -5  -1  -3-50.9775 151.615   3
   5   1   4 25069.8 1351.64   9
  -5  -1  -4 21874.1 1359.05   2
  -5  -1  -5 17647.6 1295.01   2
   5   1   5 16095.5 1159.39   9
  -5  -1  -6 24137.4 1614.54   2
   5   1   7 64.0690 207.853  16
   5   1   8-178.384 278.757  16
   5   1   8 408.034 308.618  23
   5   1   9 308.994 353.819  16
   5   1   9 916.352 413.046  23
   5   1  10 9542.97 1045.81  16
   5   1  10 8763.15 989.793  23
   5   1  11-180.643 241.018  16
   5   1  11-189.393 206.651  23
   5   1  12 386.714 198.933  23
   5   2  -9 764.067 198.524  25
  -5  -2   9 222.328 139.755  19
   5   2  -8 442.608 247.965  25
  -5  -2   8 1208.05 351.658  19
   5   2  -7 88.4668 230.233  25
  -5  -2   7 506.842 341.868  19
   5   2  -6 11516.9 1104.15  25
  -5  -2   6 9867.32 1040.26  19
   5   2  -5 2367.43 525.121  25
  -5  -2   5 2741.25 560.936  19
   5   2  -4 5278.06 792.719   1
   5   2  -4 5394.03 740.356  25
  -5  -2   3 137.337 235.664   4
  -5  -2   3 579.136 261.597   2
   5   2  -3 709.669 371.678  11
  -5  -2   3 1291.00 438.667   3
  -5  -2   2 36599.4 1778.01   4
  -5  -2   2 33661.2 1830.33   2
  -5  -2   2 35250.1 1861.99   3
   5   2  -2 36606.5 1953.77  11
  -5  -2   1 96858.9 2629.58   4
  -5  -2   1 95400.9 2882.46   2
  -5  -2   1 90494.5 2809.38   3
  -5  -2   0 73308.0 2108.48   4
  -5  -2   0 71247.7 2357.62   2
  -5  -2   0 72280.9 2381.78   3
  -5  -2  -1 261.409 157.817   4
  -5  -2  -1-51.1763 146.687   2
  -5  -2  -1 58.3747 169.843   3
   5   2   2 26858.4 1282.96   9
  -5  -2  -2 27696.8 1437.79   2
  -5  -2  -2 26908.2 1417.21   3
  -5  -2  -3 60629.8 2190.61   2
   5   2   3 62083.0 1911.61   9
  -5  -2  -3 60851.3 2172.95   3
  -5  -2  -4 6148.09 734.572   2
  -5  -2  -5 10112.7 1005.83   2
  -5  -2  -5 11025.2 1026.20   1
  -5  -2  -6 8911.63 1013.55   1
  -5  -2  -6 7899.25 957.242   2
   5   2   7 28540.2 1654.92  15
  -5  -2  -7 28824.2 1830.51  12
   5   2   8-53.3438 211.913  23
   5   2   9 51710.4 2431.90  16
   5   2   9 50201.9 2375.62  23
   5   2  10 1115.91 453.511  16
   5   2  10 1806.13 497.340  23
   5   2  11 175.562 230.083  16
   5   2  11-221.289 201.406  23
   5   2  12 1179.43 298.145  23
  -5  -3   9 184.362 120.362  22
   5   3  -8 1626.07 366.593  25
  -5  -3   8 602.649 277.784  19
   5   3  -7 11951.2 1063.85  25
  -5  -3   7 13827.2 1186.53  19
   5   3  -6 5213.09 747.072  25
  -5  -3   6 5344.40 780.825  19
   5   3  -5 1081.71 370.383  25
  -5  -3   5 1180.35 371.551  19
   5   3  -4 202.221 206.998  25
  -5  -3   4 296.206 197.454  19
  -5  -3   3 9182.05 999.119   4
  -5  -3   3 9569.98 1056.16   2
  -5  -3   2 3661.91 625.269   4
  -5  -3   2 3946.84 644.862   2
   5   3  -2 3671.18 645.395  11
  -5  -3   2 4077.17 642.796   3
  -5  -3   1 1330.27 346.008   4
  -5  -3   1 1552.31 406.284   2
  -5  -3   1 1025.47 337.891   3
  -5  -3   0 35819.4 1600.67   4
  -5  -3   0 36534.4 1721.48   2
  -5  -3   0 33454.7 1619.43   3
  -5  -3  -1 5002.76 581.454   4
  -5  -3  -1 5565.03 674.108   2
  -5  -3  -1 5572.46 644.472   3
  -5  -3  -2 19267.9 1127.81   4
  -5  -3  -2 18277.4 1202.07   2
  -5  -3  -2 20674.2 1229.06   3
  -5  -3  -3 6485.92 743.110   2
  -5  -3  -3 6809.15 736.662   3
  -5  -3  -4 372.702 193.799   5
  -5  -3  -4 97.1793 191.351   2
   5   3   5 49.3057 236.849   7
  -5  -3  -5 541.049 196.700   2
  -5  -3  -5 47.6765 207.254   1
  -5  -3  -6 26497.6 1770.82   1
  -5  -3  -6 27568.3 1767.77   2
   5   3   7 1403.30 387.104  15
   5   3   7 1947.94 528.640  25
   5   3   8 2431.49 578.846  23
   5   3   9 804.621 354.513  23
   5   3  10 6118.83 841.033  16
   5   3  10 6268.83 820.110  23
   5   3  11 1961.64 456.036  16
   5   3  11 2141.51 457.295  23
   5   3  12 345.290 193.176  16
   5   3  12 376.044 196.749  23
  -5  -4   8 380.814 206.330  22
  -5  -4   7 2593.92 521.118  19
   5   4  -6 406.160 267.363  25
  -5  -4   6 1114.61 394.751  19
   5   4  -5 1595.16 428.378  25
  -5  -4   5 1157.93 401.891  19
   5   4  -4 4451.91 683.002  25
  -5  -4   4 3919.84 654.091  19
   5   4  -3 4333.44 739.053  11
  -5  -4   2 23611.5 1570.90   4
  -5  -4   2 25451.9 1649.77   8
  -5  -4   2 25461.6 1640.47   2
  -5  -4   1 25417.2 1542.45   4
  -5  -4   1 26657.1 1572.24   2
  -5  -4   0 1188.52 346.259   4
  -5  -4   0 599.486 294.831   2
  -5  -4  -1 18409.2 1213.88   4
  -5  -4  -1 18249.1 1222.38   2
  -5  -4  -2 10274.2 928.469   4
  -5  -4  -2 9312.20 882.090   2
  -5  -4  -3 69932.2 2473.57   2
  -5  -4  -3 66595.7 2366.47   5
   5   4   4-197.764 266.177   7
  -5  -4  -4 189.208 195.198   2
  -5  -4  -4-140.936 186.005   5
   5   4   5 180.695 241.682   7
  -5  -4  -5 186.453 171.432   2
  -5  -4  -6 1302.90 447.572   1
  -5  -4  -6 1480.94 408.403   2
   5   4   7 65539.3 2582.92  15
   5   4   7 65801.2 2564.64  25
   5   4   8 221.883 275.851  25
   5   4   8 592.099 291.613  23
   5   4   9 26508.9 1669.26  23
   5   4   9 27947.6 1697.51  25
   5   4  10 9089.72 910.165  25
   5   4  10 9002.10 918.089  23
   5   4  11 90.3205 174.542  16
   5   4  11 107.131 155.402  23
   5   4  12 656.797 246.296  16
  -5  -5   8 4.22447 99.7318  22
  -5  -5   7 3370.35 561.177  22
  -5  -5   6 338.966 250.353  22
  -5  -5   5 8040.18 947.566  22
  -5  -5   5 7819.03 935.407  19
  -5  -5   4 31055.4 1827.45  22
  -5  -5   4 32488.4 1851.99  19
  -5  -5   3 40165.2 1996.83  22
   5   5  -3 37074.3 1857.95  25
  -5  -5   2 123.650 267.692   5
  -5  -5   2-120.877 257.419   8
  -5  -5   1 5027.25 826.008   8
  -5  -5   1 3502.59 614.393   4
  -5  -5   1 5261.44 802.694   5
  -5  -5   0 23633.5 1550.82   4
  -5  -5   0 24017.6 1585.10   5
  -5  -5  -1 2109.31 480.904   4
  -5  -5  -1 3658.22 624.577   5
  -5  -5  -2 71210.4 2603.19   4
  -5  -5  -2 69804.5 2601.82   5
  -5  -5  -3 4086.81 600.064   2
  -5  -5  -3 4688.94 692.887   5
   5   5   4 1722.66 505.845   7
  -5  -5  -4 745.647 307.847   2
  -5  -5  -4 1189.48 412.696   5
  -5  -5  -5 332.931 202.033   2
   5   5   5 337.212 248.530   7
   5   5   6 106371. 3233.82  15
   5   5   6 112754. 3339.69  25
   5   5   7 5792.71 814.262  25
   5   5   8 122.553 259.637  25
   5   5   8-72.8279 218.854  23
   5   5   9-238.286 254.538  25
   5   5   9 330.989 244.846  23
   5   5  10 3746.88 590.047  25
   5   5  10 2737.46 480.976  23
   5   5  11 768.443 296.281  16
   5   5  11 532.886 216.234  25
  -5  -6   8 233.892 135.557  13
  -5  -6   7 331.334 158.821  22
  -5  -6   7-17.5107 137.892  13
  -5  -6   6 2951.45 538.177  22
  -5  -6   5 1311.58 415.938  22
  -5  -6   4 2444.18 559.303  22
  -5  -6   3 29064.7 1794.83  22
  -5  -6   2 118.549 238.103  22
  -5  -6   2 352.336 262.551  13
  -5  -6   1-8.03590 264.724  22
  -5  -6   1 375.945 250.081  13
  -5  -6   0-36.2098 258.741   8
  -5  -6   0-315.335 225.631   4
  -5  -6   0-129.241 214.146   6
  -5  -6   0-475.439 325.988   5
  -5  -6  -1 70.5823 154.780   4
  -5  -6  -1 115.244 191.449   6
  -5  -6  -1 170.271 187.920   5
  -5  -6  -2 665.755 304.589   6
  -5  -6  -2 432.418 255.677   5
   5   6   3 8213.68 1000.97   7
  -5  -6  -3 8497.02 1021.22   6
  -5  -6  -3 8858.11 1011.35   5
   5   6   4 1068.66 389.406  25
   5   6   5-98.4234 217.077  25
  -5  -6  -5 765.441 363.317  13
   5   6   6 13545.8 1209.03  25
   5   6   7 17895.1 1391.39  25
   5   6   8 14198.8 1227.27  25
   5   6   9 287.802 257.797  25
   5   6  10 956.331 324.994  25
   5   6  11 26.3123 169.018  16
   5   6  11-29.3152 119.555  25
  -5  -7   7 909.232 254.253  22
  -5  -7   7 1972.01 342.465  13
  -5  -7   6 2668.42 511.654  22
  -5  -7   6 3326.44 528.579  13
  -5  -7   5 905.305 318.712  22
  -5  -7   5 561.772 278.091  13
  -5  -7   4 2631.39 581.317  22
  -5  -7   4 2810.15 580.631  13
  -5  -7   3 279.045 208.656  22
  -5  -7   3 265.385 286.199  13
  -5  -7   2 844.268 364.798  22
  -5  -7   2 909.063 371.135  13
  -5  -7   1 3646.24 646.605  22
  -5  -7   1 3545.21 648.244  13
  -5  -7   0 17277.5 1321.18  13
   5   7   1 261.145 245.188  25
  -5  -7  -1-119.171 242.066  13
   5   7   2 10720.4 1014.41  25
  -5  -7  -2 10360.0 1021.28  13
   5   7   3 450.681 299.978  25
  -5  -7  -3 715.524 301.337  13
   5   7   4 8110.88 919.025  25
  -5  -7  -4 7930.86 917.140  13
   5   7   5 2024.91 493.610  25
  -5  -7  -5 3170.71 612.505  13
   5   7   6 18480.9 1406.89  25
  -5  -7  -6 20442.1 1466.03  13
   5   7   7 223.611 238.662  25
  -5  -7  -7 257.148 208.063  13
   5   7   8 17835.9 1330.08  25
  -5  -7  -8 16535.7 1212.14  13
   5   7   9-26.9230 197.569  25
   5   7  10 10162.6 832.203  25
  -5  -8   6 1930.20 352.586  13
  -5  -8   5 16.6344 135.413  22
  -5  -8   5 79.8003 157.788  13
  -5  -8   4 2272.23 523.606  22
  -5  -8   4 2865.10 548.627  13
  -5  -8   3 199.432 234.891  22
  -5  -8   3 139.595 230.770  13
  -5  -8   2 516.334 302.194  13
  -5  -8   1 14476.2 1260.91  13
  -5  -8   0 2400.92 533.393  13
  -5  -8  -1 2723.92 570.617  13
  -5  -8  -2 784.709 349.522  13
   5   8   3 2651.13 547.832  25
  -5  -8  -3 2387.12 537.692  13
   5   8   4 3235.29 580.150  25
  -5  -8  -4 4434.90 713.815  13
   5   8   5 206.101 329.243  25
  -5  -8  -5 1196.13 409.567  13
   5   8   6 479.720 287.130  25
  -5  -8  -6 246.192 236.231  13
   5   8   7 1992.00 472.562  25
  -5  -8  -7 2766.02 525.669  13
   5   8   8 1311.69 369.671  25
   5   8   9 1258.79 343.498  25
   5   8  10 1683.94 299.041  25
  -5  -9   5 118.431 109.802  13
  -5  -9   4 518.868 194.622  13
  -5  -9   3 297.941 208.166  13
  -5  -9   2 2377.16 483.137  13
  -5  -9   1 1192.71 402.691  13
  -5  -9   0 3807.35 655.885  13
  -5  -9  -1 897.331 367.127  13
  -5  -9  -2 146.443 227.420  13
  -5  -9  -3 2542.73 533.811  13
   5   9   4 2881.03 546.310  25
  -5  -9  -4 3565.23 629.350  13
   5   9   5 613.382 240.451  25
  -5  -9  -5 457.533 229.085  13
   5   9   6 1721.70 400.022  25
  -5  -9  -6 1834.51 432.352  13
   5   9   7 2097.89 399.653  25
  -5  -9  -7 1455.47 356.061  13
   5   9   8 5402.20 593.889  25
   5   9   9 3550.28 419.960  25
  -5 -10   3 308.083 175.696  13
  -5 -10   2 526.993 217.382  13
  -5 -10   1 1628.14 400.453  13
  -5 -10   0 2443.43 483.780  13
  -5 -10  -1 834.100 293.638  17
  -5 -10  -1 202.460 210.019  13
  -5 -10  -2-218.660 210.192  13
  -5 -10  -3 1308.33 382.682  13
  -5 -10  -4 358.162 216.708  13
  -5 -10  -5 6708.19 734.706  13
  -5 -10  -6 2162.12 392.660  13
  -5 -10  -7-7.27988 101.994  13
  -5 -11   1 1202.57 275.350  13
  -5 -11   0 795.626 200.649  17
  -5 -11   0 691.054 221.277  13
  -5 -11  -1 1085.67 287.146  13
  -5 -11  -2 570.264 218.903  13
  -5 -11  -3 155.139 157.999  13
  -5 -11  -4 75.6580 140.069  13
  -5 -11  -5 98.7747 114.369  13
   6  -7  -2 174.659 163.486  17
   6  -7  -1 3597.71 450.125  18
   6  -7  -1 3954.15 504.420  17
   6  -7   0 479.301 205.125  18
   6  -7   0 590.383 235.216  17
   6  -7   1 372.214 222.285  18
   6  -7   1 692.984 241.481  17
   6  -7   2 2867.06 476.210  18
   6  -7   3 76.4278 130.103  18
   6  -7   4 604.586 240.182  18
   6  -7   5 3774.54 479.693  18
   6  -6  -4 9.64567 90.0672  15
   6  -6  -4 11.8488 107.062  20
   6  -6  -3-141.778 190.618  17
   6  -6  -3-41.6327 150.441  15
   6  -6  -3 345.537 198.050  20
   6  -6  -2 1063.29 328.524  17
   6  -6  -2 1431.67 341.918  15
   6  -6  -1 23.4642 179.199  17
   6  -6   0 416.459 241.092  17
   6  -6   0 514.506 286.831  21
   6  -6   1 9491.79 943.536  18
   6  -6   1 10177.0 918.409  17
   6  -6   1 8997.33 955.091  21
   6  -6   2 105.456 158.667  18
   6  -6   2 138.531 215.951  21
   6  -6   3 202.562 175.604  18
   6  -6   3-91.1457 230.509  21
   6  -6   4 5135.22 707.280  18
   6  -6   5-100.366 144.180  18
   6  -6   6 730.457 292.622  18
   6  -5  -6-187.760 135.360  15
   6  -5  -5-23.6894 153.849  15
   6  -5  -5 93.6699 133.852  20
   6  -5  -4 3977.17 588.934  17
   6  -5  -4 4517.87 624.569  15
   6  -5  -4 4863.46 610.586  20
   6  -5  -3 547.755 303.875  17
   6  -5  -3 300.899 213.630  15
   6  -5  -3 35.3559 165.037  20
   6  -5  -2 81.9935 251.524  17
   6  -5  -2-6.01301 249.349  15
   6  -5  -2 65.7449 97.8351  20
   6  -5  -1 8826.01 965.681  17
   6  -5  -1 8003.68 919.865  15
   6  -5  -1 9101.49 960.550  21
   6  -5   0 142.827 228.694  17
   6  -5   0 304.547 258.088  15
   6  -5   0-453.062 314.162  21
   6  -5   1 595.859 328.294  17
   6  -5   1 65.1387 231.821  21
   6  -5   2 3156.45 586.869  18
   6  -5   2 3017.56 680.227  21
   6  -5   3 21016.6 1509.59  18
   6  -5   3 20869.9 1604.67  21
   6  -5   4 369.100 291.316  18
   6  -5   4 100.152 237.040  21
   6  -5   5 5682.75 774.053  18
   6  -5   5 7012.04 830.172  24
   6  -5   5 4647.29 744.008  21
   6  -5   6 4702.79 691.985  18
   6  -5   6 4729.15 681.439  24
   6  -5   7 48.2871 179.754  24
   6  -5   8 623.132 243.663  24
   6  -4  -6-213.920 176.268  15
   6  -4  -5 1719.80 391.643  20
   6  -4  -4 7836.18 886.574  17
   6  -4  -4 8749.55 905.844  20
   6  -4  -3 135.976 268.116  17
   6  -4  -3-181.952 233.132  20
   6  -4  -2 95.5805 226.467  17
   6  -4  -2-200.484 229.690  20
   6  -4  -1 417.356 318.392  17
   6  -4  -1-45.9124 192.264  15
   6  -4  -1 776.983 344.302  21
   6  -4  -1 491.913 280.494  20
   6  -4   0 642.464 350.541  17
   6  -4   0 214.166 236.549  15
   6  -4   0 386.467 379.770  21
   6  -4   1 6061.22 802.300  17
   6  -4   1 5440.26 756.957  15
   6  -4   1 5154.58 833.506  21
   6  -4   2 1098.54 395.793  18
   6  -4   2 1299.42 461.246  21
   6  -4   3-141.723 195.681  18
   6  -4   3 232.745 279.415  21
   6  -4   4 917.732 395.592  18
   6  -4   4 502.077 325.214  24
   6  -4   4 125.421 287.398  21
   6  -4   5 6002.09 846.227  18
   6  -4   5 6167.44 862.824  24
   6  -4   5 4955.41 787.290  21
   6  -4   6 114.154 206.711  18
   6  -4   6-517.306 339.714  24
   6  -4   6-307.268 257.130  21
   6  -4   7 3958.81 684.045  24
   6  -4   8 1317.42 376.576  24
   6  -4   9 95.5245 128.137  24
   6  -3  -7-56.8612 94.6338  15
   6  -3  -7 173.661 154.222  25
   6  -3  -6 569.707 245.678  25
   6  -3  -5-159.072 134.168  25
   6  -3  -5-64.4994 197.960  20
   6  -3  -4 3059.17 613.742  17
   6  -3  -4 2439.74 536.630  20
   6  -3  -3 7734.17 947.239  17
   6  -3  -3 8302.94 956.169  20
   6  -3  -2 20786.5 1506.86  17
   6  -3  -2 20658.5 1450.68  20
   6  -3  -1 191.749 276.050  17
   6  -3  -1 428.306 308.343  21
   6  -3  -1-80.8408 179.217  20
   6  -3   0 305.653 197.243  17
   6  -3   0 732.029 372.525  21
   6  -3   1-96.9066 191.299  15
   6  -3   1-223.754 287.617  21
   6  -3   2 14200.6 1207.38  18
   6  -3   2 16260.9 1275.08  15
   6  -3   2 14933.0 1344.85  21
   6  -3   3 28297.1 1720.76  18
   6  -3   3 27659.5 1836.42  21
   6  -3   4 14946.7 1285.20  18
   6  -3   4 14593.5 1338.06  24
   6  -3   4 13746.4 1289.15  21
   6  -3   5 27903.8 1787.69  18
   6  -3   5 31893.3 1966.71  24
   6  -3   5 30016.9 1886.52  21
   6  -3   6 1393.72 442.382  18
   6  -3   6 1501.40 461.070  24
   6  -3   6 1147.84 424.360  21
   6  -3   7 194.092 268.345  24
   6  -3   8 63.3719 218.512  24
   6  -3   9 2829.16 523.961  24
   6  -3  10 50.7379 58.6950  24
   6  -2  -7 142.479 125.775  25
   6  -2  -6 841.008 310.581  25
   6  -2  -5 2943.85 548.613  25
   6  -2  -4 5458.43 745.410  25
   6  -2  -4 4195.03 702.407  20
   6  -2  -3 1429.40 489.012  17
   6  -2  -3 1248.49 418.951  20
   6  -2  -2 7154.83 894.159  17
   6  -2  -2 6034.06 798.149  20
   6  -2  -1 1964.26 478.739  17
   6  -2  -1 4444.23 691.912  20
   6  -2   0 6543.20 846.167  17
   6  -2   0 6035.59 802.958  15
  -6   2  -1 416.954 258.488   3
  -6   2  -1-43.9889 223.849  10
  -6   2  -2 12951.2 1246.13   3
  -6   2  -2 14400.2 1306.45  10
   6  -2   3 1205.41 440.930  21
   6  -2   4-9.27725 196.617  18
   6  -2   4 912.613 357.988  21
   6  -2   5 13490.1 1230.21  18
   6  -2   5 12735.9 1266.88  24
   6  -2   5 12894.7 1209.57  21
   6  -2   6 1627.66 496.713  18
   6  -2   6 1798.74 519.778  24
   6  -2   7 1822.33 530.103  24
   6  -2   8 1191.75 468.266  24
   6  -2   9 890.221 356.014  24
   6  -2  10 105.830 163.802  24
   6  -1  -8 1936.59 343.833  25
   6  -1  -7 287.074 211.950  25
   6  -1  -6 2283.35 481.995  25
   6  -1  -5 5801.35 788.249  25
   6  -1  -4 4288.99 716.628  20
   6  -1  -3 3359.32 570.904  25
   6  -1  -3 2430.08 555.548  20
   6  -1  -2 20570.1 1455.88  17
   6  -1  -2 20923.7 1428.95  20
  -6   1   1 2593.77 560.954   2
  -6   1   1 2825.30 646.750   3
  -6   1   1 3036.00 701.775  10
  -6   1   0 8389.04 968.860   2
  -6   1   0 9418.03 1060.50   3
  -6   1   0 8359.46 1029.02  10
   6  -1   1 1751.80 504.156   9
  -6   1  -1 2680.08 547.345   2
  -6   1  -1 3242.73 649.015   3
  -6   1  -1 2185.51 539.172  10
  -6   1  -2 62988.9 2445.90   2
  -6   1  -2 63861.9 2620.38   3
  -6   1  -2 60049.3 2533.14  10
  -6   1  -3 8536.59 907.022   2
  -6   1  -3 8326.62 972.161   3
   6  -1   4 13202.4 1266.94   9
  -6   1  -4 15468.4 1338.01   3
   6  -1   5 33792.5 1843.73  18
   6  -1   6 163.620 275.040  18
   6  -1   6-117.829 217.545  24
   6  -1   7 2792.19 637.105  24
   6  -1   7 2587.79 596.818  23
   6  -1   8-30.7726 158.535  24
   6  -1   8 82.5956 262.163  23
   6  -1   9 7605.07 888.866  24
   6  -1   9 7904.43 896.486  23
   6  -1  10 96.9150 124.104  24
   6  -1  10-275.644 191.263  23
   6  -1  11 3924.23 454.532  23
   6   0  -8 217.211 167.881  25
   6   0  -7 2616.10 488.281  25
   6   0  -6 1351.89 432.292  25
   6   0  -5 38.9343 240.588  25
   6   0  -4 10399.7 1062.71  25
   6   0  -3 4554.05 696.283  25
   6   0  -2 4186.02 651.373  20
  -6   0   2 4735.92 842.887  10
  -6   0   1 8838.32 1028.93   2
  -6   0   1 9255.84 1049.79   3
  -6   0   1 7159.22 955.609  10
  -6   0   0 7824.32 926.242   2
  -6   0   0 7811.77 932.115   3
  -6   0   0 6935.67 906.045  10
  -6   0  -1 4868.18 726.242   2
  -6   0  -1 3976.64 663.933   3
  -6   0  -1 4598.39 725.806  10
   6   0   2 55865.6 2404.89   9
  -6   0  -2 57037.7 2310.63   2
  -6   0  -2 53641.9 2345.27   3
   6   0   3 3723.16 618.636   9
  -6   0  -3 4623.70 685.326   2
  -6   0  -3 3968.15 676.237   3
   6   0   4 2178.91 499.372   9
  -6   0  -4 1434.40 378.191   2
  -6   0  -4 1829.12 500.060   3
   6   0   5 913.052 330.819   9
  -6   0  -5 1703.25 440.038   2
  -6   0  -5 1069.88 391.908   3
   6   0   6 522.303 285.962  24
   6   0   7 2862.45 568.160  16
   6   0   7 1919.14 516.127  24
   6   0   8 10463.7 1081.60  16
   6   0   8 9861.01 1080.81  23
   6   0   9 2229.25 558.598  16
   6   0   9 1688.54 458.367  24
   6   0   9 2518.71 577.395  23
   6   0  10 1154.09 371.294  23
   6   0  11 287.527 192.236  23
   6   1  -8 113.800 106.051  25
  -6  -1   8 615.276 203.635  19
   6   1  -7-67.4036 160.459  25
  -6  -1   7 297.679 219.986  19
   6   1  -6 547.943 306.938  25
  -6  -1   6 653.327 318.234  19
   6   1  -5 18682.9 1416.51  25
   6   1  -4 3390.40 625.823  25
   6   1  -3 27939.3 1666.85  25
  -6  -1   2 26092.0 1793.18   2
  -6  -1   2 26308.1 1820.82   3
  -6  -1   1 4934.46 769.483   2
  -6  -1   1 5669.48 821.811   3
  -6  -1   0 1152.73 380.770   2
  -6  -1   0 1409.94 405.648   3
  -6  -1  -1 32578.8 1762.31   2
  -6  -1  -1 36464.2 1914.74   3
   6   1   2 13155.4 1111.03   9
  -6  -1  -2 11380.1 1042.32   2
  -6  -1  -2 13780.4 1165.71   3
   6   1   3 828.339 308.748   9
  -6  -1  -3 817.149 333.520   2
  -6  -1  -3 1150.35 394.409   3
   6   1   4 7194.14 823.449   9
  -6  -1  -4 6915.74 854.758   2
  -6  -1  -4 6642.55 844.959   3
  -6  -1  -5 43357.8 2186.08   2
  -6  -1  -5 44650.9 2254.96   3
   6   1   6 2182.56 506.085  15
   6   1   7 7373.00 899.263  16
   6   1   7 9887.98 1007.64  15
   6   1   7 7839.30 944.266  24
   6   1   8-5.87935 283.712  16
   6   1   8 292.015 194.100  24
   6   1   8 197.697 247.997  23
   6   1   9 29493.5 1787.60  16
   6   1   9 26396.2 1723.01  23
   6   1  10 1406.19 402.428  16
   6   1  10 1953.16 463.518  23
   6   1  11 4124.02 584.412  23
   6   1  12 2593.67 382.391  23
   6   2  -8 256.316 171.071  25
  -6  -2   8-340.525 187.251  19
   6   2  -7 4946.85 664.154  25
  -6  -2   7 5348.26 669.613  19
   6   2  -6 764.733 341.528  25
  -6  -2   6 609.567 301.521  19
   6   2  -5 11616.6 1129.34  25
   6   2  -4 757.242 359.557  25
   6   2  -3 884.553 345.490  25
  -6  -2   2 58374.4 2422.00   4
  -6  -2   2 55918.5 2611.03   2
  -6  -2   1 15089.9 1277.54   2
  -6  -2   1 14774.5 1303.01   3
  -6  -2   0 5363.46 746.191   2
  -6  -2   0 5222.00 760.720   3
  -6  -2  -1 8912.86 938.970   2
  -6  -2  -1 8722.23 944.344   3
   6   2   2 204406. 4097.51   9
  -6  -2  -2 198920. 4338.22   2
  -6  -2  -2 202106. 4408.46   3
  -6  -2  -3 234.824 198.758   2
  -6  -2  -3 70.9598 232.023   3
  -6  -2  -4 37720.5 1973.49   2
  -6  -2  -4 40282.5 2036.06   3
  -6  -2  -5 211.059 200.704   2
  -6  -2  -5 438.248 237.793   3
   6   2   6 5747.48 773.409  15
   6   2   7 6380.01 835.722  16
   6   2   7 4378.25 702.290  15
   6   2   8 20350.2 1500.01  16
   6   2   8 20373.0 1468.35  15
   6   2   8 20182.7 1528.89  23
   6   2   9-581.074 372.043  16
   6   2   9 272.578 297.346  23
   6   2  10 917.324 351.220  16
   6   2  10 933.736 374.350  23
   6   2  11-292.452 242.999  16
   6   2  11 177.342 202.840  23
   6   2  12 22.4482 126.742  23
   6   3  -8-104.741 106.535  25
   6   3  -7 4971.82 645.780  25
  -6  -3   7 5125.59 650.218  19
   6   3  -6-236.189 233.813  25
  -6  -3   6-70.7538 170.727  19
   6   3  -5 3019.50 602.407  25
  -6  -3   5 3304.38 596.757  19
   6   3  -4 423.513 283.227  25
   6   3  -3 14439.1 1219.81  25
  -6  -3   2 2353.92 521.793   4
   6   3  -2 1846.11 448.872  25
  -6  -3   2 2037.15 533.835   2
  -6  -3   1 2990.22 567.842   4
  -6  -3   1 2834.36 583.322   2
  -6  -3   1 2319.74 521.054   3
  -6  -3   0 2409.01 467.324   4
  -6  -3   0 2519.14 536.597   2
  -6  -3   0 2495.06 538.909   3
  -6  -3  -1 10893.4 1032.05   2
  -6  -3  -1 10367.4 1020.69   3
  -6  -3  -2 268.626 163.401   2
  -6  -3  -2 318.803 283.249   3
  -6  -3  -3 1450.79 394.091   2
  -6  -3  -3 1366.86 418.293   3
  -6  -3  -4 20119.4 1467.31   2
  -6  -3  -4 22400.9 1520.08   3
  -6  -3  -5 4853.19 754.390   2
  -6  -3  -5 2266.79 512.840   3
   6   3   6 5969.88 776.564  15
   6   3   7 3242.84 613.511  15
   6   3   8 1184.90 426.541  15
   6   3   9 5907.80 847.050  16
   6   3   9 5859.49 811.294  23
   6   3  10 461.668 262.400  16
   6   3  10 372.013 225.508  23
   6   3  11 9362.71 867.181  16
   6   3  11 8659.24 822.498  23
   6   3  12 68.5035 104.922  23
   6   4  -7 18.1651 147.509  25
  -6  -4   7-642.488 245.805  22
   6   4  -6-246.951 214.245  25
  -6  -4   6 97.7129 124.682  22
  -6  -4   6 122.715 180.583  19
   6   4  -5 27660.2 1673.79  25
  -6  -4   5 29537.5 1724.16  19
   6   4  -4 690.152 384.826  25
  -6  -4   4 216.254 232.635  19
   6   4  -3 282.496 203.325  25
   6   4  -2 28754.4 1663.26  25
  -6  -4   1 12136.7 1153.90   4
  -6  -4   1 12233.4 1208.33   2
  -6  -4   0 2427.31 515.251   4
  -6  -4   0 1272.97 377.625   2
  -6  -4  -1 3886.41 622.240   4
  -6  -4  -1 3681.51 628.883   2
  -6  -4  -2 119960. 3478.99   2
  -6  -4  -3 903.705 303.962   5
  -6  -4  -3 640.781 286.541   2
  -6  -4  -4 107627. 3450.04   2
  -6  -4  -4 106129. 3239.06   5
  -6  -4  -5 10.9070 83.0527   2
   6   4   6 41889.8 2046.82  15
   6   4   6 26481.8 1621.98  25
   6   4   7 27161.2 1698.18  15
   6   4   7 27297.1 1678.15  25
   6   4   8 15677.8 1276.54  25
   6   4   8 14618.3 1277.56  23
   6   4   9 451.094 312.183  25
   6   4   9 805.316 365.220  23
   6   4  10-79.5140 167.691  16
   6   4  10-128.650 180.102  23
   6   4  11 2122.46 426.004  16
   6   4  11 2011.76 424.226  23
  -6  -5   7 839.651 228.799  22
  -6  -5   7 137.084 144.569  13
  -6  -5   6 1088.80 318.978  22
  -6  -5   5 16266.4 1281.66  22
   6   5  -5 16181.0 1226.48  25
   6   5  -4 12694.7 1141.60  25
   6   5  -3 484.732 276.267  25
   6   5  -2 813.637 340.501  25
   6   5  -1 9640.53 979.173  25
  -6  -5   1 9913.66 961.931  13
  -6  -5   0 2872.43 589.945   4
  -6  -5  -1 1605.35 500.953   5
  -6  -5  -1 2798.67 616.102   4
  -6  -5  -2 4211.83 715.842   4
  -6  -5  -2 4974.06 745.353   5
  -6  -5  -3 6129.40 823.901   2
  -6  -5  -3 2880.45 591.478   5
   6   5   4 177.674 252.666  25
   6   5   4 29.9137 279.885   7
  -6  -5  -4-384.224 242.571   2
  -6  -5  -4 685.490 355.800   5
   6   5   5 19206.7 1380.05  15
   6   5   5 20343.3 1432.31  25
   6   5   6 5630.32 790.643  15
   6   5   6 6391.14 836.616  25
   6   5   7 1431.80 466.774  25
   6   5   8 5999.53 816.163  23
   6   5   8 5787.78 800.328  25
   6   5   9 395.927 286.733  25
   6   5   9 774.861 309.294  23
   6   5  10 732.258 273.007  16
   6   5  10 811.947 324.407  25
   6   5  10 527.015 247.359  23
   6   5  11 1669.53 358.043  16
   6   5  11 1956.27 334.049  23
  -6  -6   7 915.342 238.684  13
  -6  -6   6-42.0904 159.858  22
  -6  -6   6-13.3972 96.1084  13
  -6  -6   5 1779.71 370.050  22
  -6  -6   5 629.649 299.505  13
  -6  -6   4 539.848 304.084  22
  -6  -6   4 787.528 318.237  13
   6   6  -3 2852.02 592.085  25
  -6  -6   3 3272.33 637.057  22
  -6  -6   3 2861.06 582.323  13
   6   6  -2 949.899 345.662  25
  -6  -6   2 803.259 324.752  13
   6   6  -1 3176.55 574.159  25
  -6  -6   1 2700.08 555.154  13
   6   6   0 1913.67 477.602  25
  -6  -6   0 2212.32 489.074  13
   6   6   1 4357.86 672.412  25
  -6  -6  -1 4106.32 659.979  13
  -6  -6  -2 15059.6 1190.27  13
   6   6   2 14480.9 1189.55  25
   6   6   3 255.460 229.643  25
   6   6   4 10290.9 1006.69  15
   6   6   4 10011.7 1015.15  25
   6   6   5 4707.92 711.064  15
   6   6   5 3921.30 683.657  25
   6   6   6 4934.85 757.267  25
   6   6   7 3219.46 624.323  25
   6   6   8 17391.8 1340.59  25
   6   6   9 3224.49 569.242  25
   6   6  10-12.2661 191.386  25
   6   6  11 3666.14 461.504  16
  -6  -7   6-214.204 149.957  22
  -6  -7   6-75.7950 110.976  13
  -6  -7   5 349.070 183.327  22
  -6  -7   5 588.274 249.105  13
  -6  -7   4 9913.79 978.718  13
  -6  -7   4 10348.9 995.151  22
  -6  -7   3 260.876 238.942  22
  -6  -7   3 119.366 245.049  13
  -6  -7   2 1122.43 400.757  22
  -6  -7   2 1414.83 407.448  13
   6   7  -1 10038.5 994.595  25
  -6  -7   1 8256.77 937.622  13
   6   7   0 400.794 264.876  25
  -6  -7   0 216.045 271.700  13
  -6  -7  -1 26799.6 1652.12  13
   6   7   1 27977.5 1669.79  25
   6   7   2 4378.47 681.337  25
  -6  -7  -2 5580.36 772.021  13
   6   7   3-264.901 258.792  25
  -6  -7  -3-67.0383 182.809  13
   6   7   4 146.670 224.169  25
  -6  -7  -4 287.525 260.078  13
   6   7   5 6425.05 859.232  25
   6   7   6 379.263 308.359  25
   6   7   7 10050.4 1035.77  25
   6   7   8 95.3357 242.567  25
   6   7   9 3465.09 558.026  25
   6   7  10 978.426 271.164  25
  -6  -8   5 293.651 195.696  13
  -6  -8   4 264.720 209.984  13
  -6  -8   3-171.996 148.651  13
  -6  -8   2 643.064 320.034  13
  -6  -8   1 450.733 235.286  13
  -6  -8   0-310.964 266.748  13
   6   8   1 6688.05 826.688  25
  -6  -8  -1 6852.38 880.225  13
   6   8   2 8425.86 934.901  25
  -6  -8  -2 7640.30 902.146  13
   6   8   3 2272.77 500.439  25
  -6  -8  -3 2149.65 489.015  13
   6   8   4 625.496 322.252  25
  -6  -8  -4 677.344 311.291  13
   6   8   5-127.937 232.304  25
  -6  -8  -5 274.888 213.460  13
   6   8   6-211.528 250.472  25
  -6  -8  -6 28.5008 170.734  13
   6   8   7 1008.68 328.410  25
   6   8   8 8517.17 851.980  25
   6   8   9 2351.03 420.140  25
  -6  -9   4 233.245 145.500  13
  -6  -9   3-56.8416 141.743  13
  -6  -9   2 1748.18 417.768  13
  -6  -9   1 4212.92 639.832  13
  -6  -9   0 55.6051 205.944  13
  -6  -9  -1 8125.18 913.124  13
  -6  -9  -2 67.6609 182.139  13
   6   9   3 455.563 233.576  25
  -6  -9  -3 496.339 269.019  13
   6   9   4 1762.56 397.964  25
  -6  -9  -4 2084.64 473.914  13
   6   9   5 6501.30 753.111  25
  -6  -9  -5 6604.37 770.274  13
   6   9   6 7.98926 135.383  25
  -6  -9  -6 369.280 208.801  13
   6   9   7 5970.98 660.033  25
  -6  -9  -7 6102.06 642.736  13
   6   9   8 553.212 168.267  25
  -6 -10   2-260.552 170.088  13
  -6 -10   1 604.770 235.046  13
  -6 -10   0 92.7343 169.519  13
  -6 -10  -1 3076.80 516.595  13
  -6 -10  -2 298.920 214.353  13
  -6 -10  -3 1871.88 400.489  13
  -6 -10  -4 10797.9 908.713  13
  -6 -10  -5 79.9886 116.769  13
   6  10   6 541.932 188.470  25
  -6 -10  -6 870.421 243.753  13
  -6 -11   0-67.9351 118.304  13
  -6 -11  -1 5327.55 548.765  13
  -6 -11  -2 12.0567 63.0911  13
  -6 -11  -3 300.830 144.857  13
  -6 -11  -4 623.204 182.399  13
   7  -6  -1 155.719 168.320  17
   7  -6   0 898.450 238.663  17
   7  -6   0 322.762 180.412  21
   7  -6   1 3148.78 462.366  18
   7  -6   1 1014.09 318.090  21
   7  -6   2 19.4756 128.129  18
   7  -6   2 120.655 160.074  21
   7  -6   3 368.567 180.486  18
   7  -6   4 326.268 194.233  18
   7  -6   5 1633.63 331.507  18
   7  -5  -4 49.2370 85.3601  15
   7  -5  -3 65.1537 121.970  15
   7  -5  -2 341.515 220.135  17
   7  -5  -2 792.344 263.280  15
   7  -5  -1 1035.44 334.586  17
   7  -5  -1 1332.10 369.625  15
   7  -5  -1 505.058 236.027  21
   7  -5   0 914.337 301.705  17
   7  -5   0 867.284 281.031  15
   7  -5   0 878.961 301.331  21
   7  -5   1 188.206 161.013  18
   7  -5   1 236.548 248.621  21
   7  -5   2 438.912 237.699  18
   7  -5   2 502.235 278.071  21
   7  -5   3 1097.32 352.114  18
   7  -5   3 1348.26 411.891  21
   7  -5   4 2095.56 443.762  18
   7  -5   4 841.015 381.654  21
   7  -5   5 1466.35 390.880  18
   7  -5   5 344.744 230.331  21
   7  -5   6 752.555 249.705  24
   7  -5   7-146.466 129.208  24
   7  -4  -5-116.976 125.905  15
   7  -4  -4-174.238 163.276  15
   7  -4  -3 455.699 256.479  15
   7  -4  -2 712.320 314.894  17
   7  -4  -2 357.226 229.058  15
   7  -4  -2 668.460 255.726  20
   7  -4  -1 85.0459 231.183  17
   7  -4  -1 217.125 244.676  15
   7  -4  -1 247.328 181.224  21
   7  -4   0 2592.48 534.228  17
   7  -4   0 2749.54 579.542  15
   7  -4   0 2216.86 563.116  21
   7  -4   1 319.381 246.797  15
   7  -4   1 400.884 309.921  21
   7  -4   2 1016.05 359.852  18
   7  -4   2 1270.00 414.712  21
   7  -4   3 2257.42 508.029  18
   7  -4   3 2473.78 556.019  21
   7  -4   4 190.845 231.249  18
   7  -4   4-339.749 238.485  24
   7  -4   4-204.098 292.317  21
   7  -4   5-10.7628 119.089  18
   7  -4   5 453.615 255.569  24
   7  -4   5 188.797 224.253  21
   7  -4   6 6089.12 767.028  18
   7  -4   6 6757.76 808.919  24
   7  -4   7 2920.33 520.998  24
   7  -4   8 305.970 208.381  24
   7  -3  -6 237.102 110.774  15
   7  -3  -5 216.464 162.390  15
   7  -3  -4-87.3212 172.775  15
   7  -3  -3 738.563 320.491  15
   7  -3  -2-95.2261 253.051  17
   7  -3  -2-91.5450 241.767  15
   7  -3  -2-111.092 183.724  21
   7  -3  -2 161.618 225.374  20
   7  -3  -1 1591.75 478.260  17
   7  -3  -1 1784.87 488.871  15
   7  -3  -1 2115.71 537.081  21
   7  -3  -1 1463.78 400.498  20
   7  -3   0 2490.88 533.150  17
   7  -3   0 3210.32 622.145  15
   7  -3   0 3379.47 655.666  21
   7  -3   1 100.321 280.902  15
   7  -3   1 27.0656 237.840  21
   7  -3   2 3603.13 646.304  15
   7  -3   2 5077.28 830.339  21
   7  -3   3 736.109 350.333  18
   7  -3   3 54.5715 209.565  24
   7  -3   3 118.663 275.597  21
   7  -3   4 6492.78 869.611  18
   7  -3   4 6231.78 888.904  24
   7  -3   4 7579.41 957.755  21
   7  -3   5 313.028 288.351  18
   7  -3   5 404.573 340.303  24
   7  -3   5 103.863 171.982  21
   7  -3   6 4974.29 748.026  18
   7  -3   6 4822.52 778.362  24
   7  -3   6 3353.24 606.115  21
   7  -3   7-6.51796 221.758  24
   7  -3   8 1024.52 329.717  24
   7  -3   9 192.683 182.896  24
   7  -2  -6 3910.41 474.177  15
   7  -2  -6 4315.83 494.147  25
   7  -2  -5-44.5709 136.623  25
   7  -2  -5-77.1583 152.435  15
   7  -2  -4 171.182 203.265  15
   7  -2  -3 6.58326 238.497  15
   7  -2  -2 1079.96 424.321  15
   7  -2  -1 2335.86 571.499  17
   7  -2  -1 2135.37 552.924  15
   7  -2   0 3332.97 632.754  17
   7  -2   0 2725.79 582.281  15
   7  -2   1 1566.69 458.896  15
   7  -2   2 1814.51 478.474  15
   7  -2   3 20913.3 1460.99  15
   7  -2   3 20719.1 1614.83  21
   7  -2   4 509.771 299.416  18
   7  -2   4-241.319 293.808  24
   7  -2   4 547.957 338.241  21
   7  -2   5 1025.65 400.816  18
   7  -2   5 817.427 397.217  24
   7  -2   5 1145.31 404.486  21
   7  -2   6 1792.58 491.260  18
   7  -2   6 2022.67 534.765  24
   7  -2   7 3301.49 652.089  24
   7  -2   8 1942.32 483.002  24
   7  -2   9 5631.04 703.394  24
   7  -2  10 252.194 177.481  24
   7  -1  -7 124.425 144.784  25
   7  -1  -6 747.174 285.783  25
   7  -1  -5 940.851 304.730  15
   7  -1  -5 1435.53 376.319  25
   7  -1  -4 326.643 252.675  15
   7  -1  -4 518.459 313.291  25
   7  -1  -3 339.383 255.134  15
   7  -1  -3-179.066 221.063  25
   7  -1  -2 436.509 292.203  15
   7  -1  -1 825.232 347.531  15
   7  -1   0 7716.28 876.086  17
   7  -1   0 6271.15 846.048  15
   7  -1   1 2925.95 597.428  15
   7  -1   2 693.933 338.546  15
   7  -1   3-41.0936 131.966  15
   7  -1   4 5666.79 788.253  18
   7  -1   4 4997.32 734.016  15
   7  -1   4 5376.93 831.916  21
   7  -1   5 331.892 293.061  18
   7  -1   5-283.254 272.043  15
   7  -1   5 583.869 323.956  21
   7  -1   6 10140.6 1127.47  24
   7  -1   7 254.836 293.298  24
   7  -1   8 617.908 351.187  24
   7  -1   9 714.679 308.712  24
   7  -1  10 14075.3 992.198  24
   7   0  -7 912.718 252.878  25
   7   0  -6 150.183 176.881  25
   7   0  -5 384.585 265.346  25
   7   0  -4 4717.78 694.051  15
   7   0  -4 5009.18 732.232  25
   7   0  -3 6485.32 844.006  15
   7   0  -3 6775.58 856.272  25
   7   0  -2 8259.91 948.472  15
   7   0  -2 7659.53 906.326  25
   7   0  -1 5511.32 787.833  15
   7   0  -1 5100.45 748.575  25
   7   0   0 5314.08 744.112  15
   7   0   1 16430.0 1278.20  15
   7   0   2 2267.55 506.389  15
   7   0   3 45796.0 2111.87  15
   7   0   4 1058.07 370.992  15
   7   0   5 8810.79 946.719  15
   7   0   6-417.245 268.297  15
   7   0   6-381.041 314.437  24
   7   0   7 24645.6 1728.16  24
   7   0   8-159.151 196.255  24
   7   0   8 277.284 248.602  23
   7   0   9 4286.52 649.275  24
   7   0   9 3882.16 642.710  23
   7   0  10 1151.38 314.137  24
   7   0  10 834.908 279.694  23
   7   0  11-91.1894 145.823  23
   7   1  -7 548.372 210.300  25
   7   1  -6 131.546 184.878  25
   7   1  -5 3698.59 641.043  25
   7   1  -4 114.902 243.444  25
   7   1  -3 28124.0 1671.13  15
   7   1  -3 24841.1 1626.39  25
   7   1  -2 16071.7 1285.61  15
   7   1  -2 16249.1 1291.18  25
   7   1  -1 661.192 331.842  15
   7   1  -1 690.667 343.599  25
   7   1   0 12993.9 1143.73  15
   7   1   0 14007.5 1163.01  25
   7   1   1 11003.7 1154.72   9
   7   1   2 4951.02 793.112   9
  -7  -1  -2 6499.76 881.387   2
  -7  -1  -2 4950.65 779.019   3
   7   1   3 8721.97 982.233   9
   7   1   3 9183.57 945.076  15
   7   1   4 21063.2 1441.75  15
   7   1   5 2584.69 532.503  15
   7   1   6 17236.7 1332.95  15
   7   1   7 455.193 270.653  15
   7   1   7-135.941 243.829  24
   7   1   8 15922.5 1332.69  24
   7   1   8 14362.8 1284.93  23
   7   1   9 44.1850 165.925  24
   7   1   9-133.212 214.322  23
   7   1  10 8334.34 880.994  23
   7   1  11 1691.55 343.759  23
   7   2  -7 160.777 140.345  25
   7   2  -6 2293.24 463.151  25
   7   2  -5 603.849 314.942  25
   7   2  -4 1070.94 398.673  25
   7   2  -3 9222.47 1004.30  25
   7   2  -2 7772.30 930.067  25
   7   2  -1-60.9881 202.028  15
   7   2  -1 266.889 260.034  25
   7   2   0 4637.14 681.371  25
  -7  -2  -1 54873.0 2598.78   3
  -7  -2  -2 958.922 382.145   2
  -7  -2  -2 821.141 319.486   3
  -7  -2  -3 8922.73 1043.43   3
   7   2   4 11372.6 1073.50  15
   7   2   5 196.113 219.788  15
   7   2   6 8027.21 926.284  15
   7   2   7 26898.8 1681.36  15
   7   2   7 25280.7 1708.45  24
   7   2   8-46.1384 167.166  15
   7   2   9 5826.86 748.768  16
   7   2   9 5021.48 775.232  23
   7   2  10-133.759 214.689  16
   7   2  10-55.3983 218.470  23
   7   2  11 666.650 257.155  23
   7   3  -7 8135.29 682.535  25
   7   3  -6-164.971 180.721  25
   7   3  -5 7436.85 858.155  25
   7   3  -4-237.414 231.354  25
   7   3  -3 31613.8 1834.00  25
   7   3  -2 30213.3 1785.19  25
   7   3  -1 7312.23 873.952  25
   7   3   0 17719.8 1306.91  25
  -7  -3  -1 6684.41 900.912   3
  -7  -3  -2 4511.58 740.752   2
  -7  -3  -2 4467.91 763.256   3
  -7  -3  -3 95194.6 3341.23   3
   7   3   4 38616.9 1933.66  15
   7   3   4 41381.7 1956.63  25
   7   3   5 6652.84 839.270  15
   7   3   6 2100.16 492.248  15
   7   3   7 419.780 315.769  15
   7   3   8 3524.99 634.520  15
   7   3   9 2008.89 457.065  16
   7   3   9 2108.12 497.849  23
   7   3  10 16147.9 1161.44  16
   7   3  10 14513.2 1149.05  23
   7   3  11 2400.74 400.289  16
   7   3  11 1624.38 348.599  23
  -7  -4   7 896.667 219.760  13
   7   4  -6 6216.27 682.959  25
   7   4  -5 2516.63 502.632  25
   7   4  -4-294.538 193.656  25
   7   4  -3 6241.72 844.851  25
   7   4  -2 14209.5 1217.85  25
   7   4  -1 11137.3 1090.84  25
   7   4   0 27940.3 1673.09  25
   7   4   1 27979.7 1648.10  25
   7   4   2 3040.35 587.415  25
   7   4   3 25688.4 1561.30  15
   7   4   3 18889.4 1359.92  25
   7   4   4 5408.08 761.788  15
   7   4   4 3401.77 629.749  25
   7   4   5 54193.8 2355.38  15
   7   4   5 56930.7 2391.44  25
   7   4   6 1193.44 398.677  15
   7   4   6 649.073 368.797  25
   7   4   7 9845.63 1055.89  15
   7   4   7 9716.47 1012.30  25
   7   4   8-94.0215 263.796  15
   7   4   9 7728.54 856.897  16
   7   4   9 5645.59 773.551  23
   7   4  10 1787.03 420.733  16
   7   4  10 1493.25 379.225  23
   7   4  11 1101.87 289.619  16
   7   4  11 504.349 202.217  23
   7   5  -6 1603.19 320.933  25
  -7  -5   6 1690.73 342.873  13
   7   5  -5 190.292 168.622  25
  -7  -5   5 125.088 196.230  13
   7   5  -4 174.268 189.015  25
   7   5  -3 13970.5 1212.75  25
  -7  -5   3 13640.2 1165.68  13
   7   5  -2 17258.1 1358.05  25
  -7  -5   2 20354.6 1422.52  13
   7   5  -1 2946.17 581.300  25
   7   5   0 3787.39 645.288  25
   7   5   1 13767.4 1195.24  25
   7   5   2-241.337 272.529  25
   7   5   3 3255.59 583.633  15
   7   5   3 3224.10 618.101  25
   7   5   4 6302.48 795.046  15
   7   5   4 6709.26 848.561  25
   7   5   5 7768.03 918.360  15
   7   5   5 8565.42 974.954  25
   7   5   6 1689.31 472.021  15
   7   5   6 1799.56 495.515  25
   7   5   7 21511.7 1524.33  15
   7   5   7 23984.5 1588.42  25
   7   5   8-437.728 293.079  25
   7   5   8-350.794 250.968  23
   7   5   9 469.939 230.122  16
   7   5   9 679.454 279.943  25
   7   5   9 259.364 202.891  23
   7   5  10 5468.88 650.212  16
   7   5  10 5524.63 634.378  23
   7   5  11-180.385 125.481  16
   7   5  11 425.896 163.567  23
  -7  -6   6 1146.82 268.490  13
  -7  -6   5 416.958 200.636  13
   7   6  -4 121.726 202.889  25
  -7  -6   4 594.329 266.972  13
   7   6  -3 43.8255 212.951  25
  -7  -6   3 362.687 256.485  13
   7   6  -2 4720.52 713.917  25
  -7  -6   2 4451.53 697.079  13
   7   6  -1 2815.84 571.425  25
  -7  -6   1 3681.06 637.783  13
   7   6   0 26470.1 1670.06  25
  -7  -6   0 29311.9 1702.41  13
   7   6   1 6760.07 836.074  25
   7   6   2-188.496 219.758  25
   7   6   3 5627.92 806.340  25
   7   6   4 2383.99 537.281  15
   7   6   4 1452.86 469.114  25
   7   6   5 1878.74 481.865  15
   7   6   5 2156.71 513.010  25
   7   6   6 622.544 302.706  15
   7   6   6 595.824 363.083  25
   7   6   7 35214.7 1899.74  25
   7   6   8 21.2641 184.513  25
   7   6   8-30.1267 98.6119  23
   7   6   9 2636.75 488.588  25
   7   6  10 4613.10 545.029  16
   7   6  10 5547.96 576.401  25
  -7  -7   5 523.827 204.641  13
  -7  -7   4 540.637 229.115  13
  -7  -7   3 867.130 313.040  13
   7   7  -2-28.0167 232.694  25
  -7  -7   2 138.589 198.154  13
   7   7  -1 100.002 169.960  25
  -7  -7   1 48.0849 197.330  13
   7   7   0 13421.8 1178.94  25
  -7  -7   0 13357.2 1178.43  13
  -7  -7  -1 5874.85 795.081  13
   7   7   1 4996.63 748.053  25
   7   7   2 47.9183 209.204  25
   7   7   3 397.977 254.517  25
   7   7   4 1980.78 509.896  25
   7   7   5 1397.56 453.284  25
   7   7   6 2719.56 584.363  25
   7   7   7 551.578 323.883  25
   7   7   8-53.4343 194.622  25
   7   7   9 1255.65 346.809  25
   7   7  10 2522.58 377.044  25
  -7  -8   4 428.978 202.529  13
  -7  -8   3 151.522 156.454  13
  -7  -8   2 497.298 241.043  13
  -7  -8   1 711.019 326.059  13
   7   8   0 3584.82 606.678  25
  -7  -8   0 4575.39 677.075  13
   7   8   1 686.301 362.600  25
  -7  -8  -1 673.622 309.562  13
   7   8   2 5581.69 761.157  25
  -7  -8  -2 4900.47 700.281  13
   7   8   3 881.720 342.938  25
  -7  -8  -3 739.079 313.227  13
   7   8   4 4637.41 697.908  25
   7   8   5 1184.69 388.229  25
   7   8   6 1234.19 356.658  25
   7   8   7 7503.71 806.916  25
   7   8   8 200.429 208.135  25
   7   8   9 9147.72 720.462  25
  -7  -9   3-54.5694 98.8912  13
  -7  -9   2 353.528 169.226  13
  -7  -9   1 28.9202 153.558  13
  -7  -9   0 1958.79 435.398  13
  -7  -9  -1 1143.70 345.455  13
   7   9   2 1864.13 418.700  25
  -7  -9  -2 2724.33 492.345  13
   7   9   3 105.468 140.450  25
  -7  -9  -3 255.465 207.524  13
   7   9   4 5612.81 674.210  25
  -7  -9  -4 7304.31 773.385  13
   7   9   5 625.640 259.859  25
  -7  -9  -5 848.858 248.930  13
   7   9   6 4944.62 623.844  25
   7   9   7-71.2330 146.288  25
   7   9   8 28.1515 102.001  25
  -7 -10   1 2517.43 385.098  13
  -7 -10   0 1257.77 297.737  13
  -7 -10  -1 599.050 229.256  13
  -7 -10  -2-192.994 182.254  13
  -7 -10  -3 1979.34 369.872  13
  -7 -10  -4 760.281 252.475  13
   7  10   5-121.848 128.021  25
  -7 -10  -5 113.333 111.033  13
   7  10   6 3058.91 388.068  25
   8  -5  -1 536.026 165.274  15
   8  -5   0-170.034 165.320  21
   8  -5   1 154.099 180.411  21
   8  -5   2 380.853 254.467  21
   8  -5   3 397.846 172.550  18
   8  -5   3 380.056 197.069  21
   8  -5   4-52.5217 137.731  21
   8  -4  -3 1446.55 311.091  15
   8  -4  -2 260.706 180.779  15
   8  -4  -1 1209.34 336.301  15
   8  -4  -1-364.767 216.263  21
   8  -4   0 440.240 211.753  15
   8  -4   0 222.930 204.960  21
   8  -4   1 346.523 207.094  15
   8  -4   1-193.184 261.787  21
   8  -4   2-0.83240 211.630  21
   8  -4   3 303.523 203.844  21
   8  -4   4 567.803 240.995  18
   8  -4   4 344.630 227.813  21
   8  -4   5 658.911 269.275  24
   8  -4   5 85.5404 121.079  21
   8  -4   6 1122.34 290.755  24
   8  -4   7 304.477 159.599  24
   8  -3  -4 1996.90 354.443  15
   8  -3  -3 482.270 207.587  15
   8  -3  -2 404.412 252.350  15
   8  -3  -1-223.729 175.120  15
   8  -3  -1 78.9780 168.091  21
   8  -3   0 188.005 231.892  15
   8  -3   0 193.552 209.917  21
   8  -3   1 3327.44 582.430  15
   8  -3   1 4588.13 735.096  21
   8  -3   2 3062.46 558.231  15
   8  -3   2 3216.30 623.950  21
   8  -3   3 4252.81 616.760  15
   8  -3   3 4678.13 708.710  24
   8  -3   3 4762.02 735.925  21
   8  -3   4-73.3400 89.8862  18
   8  -3   4 322.371 235.692  24
   8  -3   4 372.525 192.009  21
   8  -3   5 7135.77 843.605  24
   8  -3   5 5093.23 707.485  21
   8  -3   6 1005.55 341.597  24
   8  -3   6 52.4023 70.0458  21
   8  -3   7 254.889 214.303  24
   8  -3   8 401.222 205.356  24
   8  -2  -5 169.698 126.100  15
   8  -2  -4 157.567 165.404  15
   8  -2  -3 875.124 300.103  15
   8  -2  -2 1322.24 405.061  15
   8  -2  -2 1175.80 331.124  21
   8  -2  -1 2162.94 506.329  15
   8  -2  -1 2366.96 535.405  21
   8  -2   0 169.868 250.239  15
   8  -2   0 137.865 267.221  21
   8  -2   1 100.183 181.621  15
   8  -2   1 95.5882 295.516  21
   8  -2   2 4959.68 748.670  15
   8  -2   2 5002.03 780.579  21
   8  -2   3-80.2838 239.122  15
   8  -2   3 342.667 254.838  21
   8  -2   4 1985.22 468.338  15
   8  -2   4 2365.02 568.441  24
   8  -2   4 1941.18 522.178  21
   8  -2   5 4368.82 742.346  24
   8  -2   5 5486.91 766.017  21
   8  -2   6 1918.10 519.457  24
   8  -2   7 1903.40 477.490  24
   8  -2   8 4374.26 625.512  24
   8  -2   9 381.860 178.147  24
   8  -1  -5 308.891 157.719  15
   8  -1  -5 240.567 129.626  25
   8  -1  -4 1593.34 350.729  15
   8  -1  -4 1679.09 376.598  25
   8  -1  -3 315.172 243.488  15
   8  -1  -2 2449.16 526.610  15
   8  -1  -1 8322.73 957.819  15
   8  -1   0 275.864 263.666  15
   8  -1   1 1782.78 489.079  15
   8  -1   2-84.4442 248.096  15
   8  -1   3 17185.5 1374.54  15
   8  -1   4 6984.86 885.469  15
   8  -1   4 7073.90 936.822  21
   8  -1   5 50431.4 2237.22  15
   8  -1   5 48257.6 2429.15  24
   8  -1   5 47839.9 2295.85  21
   8  -1   6 452.816 356.053  24
   8  -1   7 574.349 314.015  24
   8  -1   8 210.946 241.535  24
   8  -1   9 16283.7 1108.16  24
   8   0  -6 536.419 184.793  25
   8   0  -5 1212.41 312.071  25
   8   0  -4 1875.77 424.131  15
   8   0  -4 1316.40 349.076  25
   8   0  -3 587.311 290.274  15
   8   0  -3 707.386 297.377  25
   8   0  -2 10150.4 1035.06  15
   8   0  -2 11019.1 1043.33  25
   8   0  -1 19464.2 1441.05  15
   8   0   0 1331.20 456.298  15
   8   0   1 56.7280 165.484  15
   8   0   2 17360.7 1364.53  15
   8   0   3 323.499 295.219  15
   8   0   4 873.607 378.643  15
   8   0   5 16325.6 1331.18  15
   8   0   5 14719.4 1302.33  21
   8   0   6 56447.2 2378.16  15
   8   0   6 50566.5 2504.93  24
   8   0   7 10338.9 1102.08  24
   8   0   8 2300.77 505.030  24
   8   0   8 2864.65 530.534  23
   8   0   9 8.91720 127.709  24
   8   0   9 422.089 220.176  23
   8   0  10 1916.10 336.456  24
   8   0  10 2067.72 345.703  23
   8   1  -6 702.616 241.499  25
   8   1  -5 264.897 191.161  25
   8   1  -4 2340.93 473.069  25
   8   1  -3 2263.72 487.483  15
   8   1  -3 2395.46 520.687  25
   8   1  -2-58.8859 205.051  15
   8   1  -2 166.120 259.616  25
   8   1  -1 21282.6 1506.97  15
   8   1  -1 24353.2 1567.53  25
   8   1   0 3561.37 659.211  15
   8   1   0 2953.83 598.567  25
   8   1   1 6681.19 867.918  15
   8   1   2 148.284 245.488  15
   8   1   3 17453.7 1383.47  15
   8   1   4 15648.1 1303.75  15
   8   1   5 54096.0 2397.50  15
   8   1   6 6103.50 821.809  15
   8   1   7 2195.80 498.146  15
   8   1   7 2118.39 545.131  24
   8   1   8 1662.00 402.966  15
   8   1   8 1369.51 407.156  24
   8   1   8 1671.01 449.974  23
   8   1   9 13337.8 1047.78  24
   8   1   9 13809.1 1102.50  23
   8   1  10 321.168 178.827  23
   8   2  -6 259.841 185.036  25
   8   2  -5 2045.75 433.113  25
   8   2  -4 1891.81 480.364  25
   8   2  -3 4263.62 694.059  25
   8   2  -2 6802.13 859.148  25
   8   2  -1 4288.02 677.699  15
   8   2  -1 4177.41 672.466  25
   8   2   0 2932.99 594.178  15
   8   2   0 2779.15 561.006  25
   8   2   1 23992.1 1591.93  15
   8   2   1 26234.9 1626.08  25
   8   2   2 39873.6 2049.37  15
   8   2   2 40872.7 1978.33  25
   8   2   3 41768.7 2098.21  15
   8   2   4 2379.05 545.635  15
   8   2   5 8742.08 984.176  15
   8   2   6 51922.8 2345.27  15
   8   2   7 4711.87 740.013  15
   8   2   7 5820.82 838.018  24
   8   2   8 19519.3 1366.79  15
   8   2   8 17126.3 1296.99  24
   8   2   9 228.810 248.209  23
   8   2  10 2706.81 476.720  23
   8   2  11 877.009 239.051  23
   8   3  -6 3187.21 437.445  25
   8   3  -5 89.9269 173.104  25
   8   3  -4 6383.42 770.514  25
   8   3  -3 288.460 264.429  25
   8   3  -2 267.857 266.990  25
   8   3  -1 275.942 301.487  25
   8   3   0 625.643 311.073  15
   8   3   0 463.505 298.760  25
   8   3   1 709.856 377.805  15
   8   3   1 584.167 314.881  25
   8   3   2 11360.7 1099.63  15
   8   3   2 11647.9 1110.42  25
   8   3   3 65937.2 2617.06  15
   8   3   3 70452.4 2636.95  25
   8   3   4 459.294 325.967  15
   8   3   4 907.048 437.298  25
   8   3   5 326.657 248.228  15
   8   3   6 6265.43 852.272  15
   8   3   7 1231.04 414.534  15
   8   3   8 2443.97 543.357  15
   8   3   9 8777.83 921.383  23
   8   3  10 3097.73 501.819  23
   8   3  11 1993.03 332.414  23
   8   4  -5 376.443 209.478  25
   8   4  -4 5396.45 697.791  25
   8   4  -3 1131.57 385.464  25
   8   4  -2-95.3565 249.020  25
   8   4  -1 2961.35 589.306  25
   8   4   0 1689.21 463.006  25
   8   4   1 582.496 330.128  25
   8   4   2 14989.9 1230.12  15
   8   4   2 17078.3 1337.94  25
   8   4   3 1615.00 427.051  15
   8   4   3 1933.56 472.824  25
   8   4   4 840.298 322.420  15
   8   4   4 716.178 342.471  25
   8   4   5 10862.9 1092.03  15
   8   4   5 11974.6 1126.83  25
   8   4   6 5775.22 824.985  15
   8   4   6 6568.51 815.231  25
   8   4   7 650.195 345.188  15
   8   4   8 14831.7 1219.60  15
   8   4   9 897.487 338.691  23
   8   4  10 664.610 264.229  23
   8   5  -5-101.862 152.018  25
  -8  -5   5 172.535 111.298  13
   8   5  -4 7170.60 771.877  25
   8   5  -3-306.569 254.436  25
   8   5  -2 2879.85 584.364  25
   8   5  -1 6789.52 862.642  25
   8   5   0 30107.8 1787.19  25
   8   5   1 256.321 289.560  25
   8   5   2 14286.0 1239.82  25
   8   5   3 1461.48 467.996  15
   8   5   3 2041.52 542.485  25
   8   5   4 600.831 304.436  15
   8   5   4 614.558 365.803  25
   8   5   5 8604.68 968.403  15
   8   5   5 11118.5 1094.94  25
   8   5   6 3705.60 653.295  15
   8   5   6 3518.41 628.478  25
   8   5   7 2641.26 550.847  15
   8   5   7 1810.84 485.034  25
   8   5   8 2213.22 464.252  25
   8   5   8 2005.18 442.492  23
   8   5   9 5886.37 691.751  23
   8   5  10-360.298 154.772  23
   8   6  -4 161.467 199.443  25
  -8  -6   4 199.851 151.510  13
   8   6  -3 665.814 275.511  25
  -8  -6   3 724.567 243.445  13
   8   6  -2-87.7110 169.373  25
   8   6  -1 928.026 377.681  25
   8   6   0 1215.03 381.647  25
   8   6   1 4571.66 712.764  25
   8   6   2 1005.54 386.284  25
   8   6   3 1086.19 408.399  25
   8   6   4 1213.34 375.842  15
   8   6   4 838.955 356.582  25
   8   6   5 74.3918 154.249  15
   8   6   5-369.455 292.273  25
   8   6   6 491.620 283.286  15
   8   6   6 395.298 278.884  25
   8   6   7 55.6473 161.200  25
   8   6   8 3878.91 576.861  25
   8   6   8 3493.08 554.489  23
   8   6   9 464.537 215.711  25
   8   6   9 179.525 143.478  23
  -8  -7   4 6906.17 594.225  13
   8   7  -3 526.330 200.679  25
  -8  -7   3 553.728 202.570  13
   8   7  -2 294.786 184.136  25
  -8  -7   2 251.427 169.653  13
   8   7  -1-257.203 186.127  25
  -8  -7   1 92.7937 139.666  13
   8   7   0 6966.80 838.425  25
   8   7   1 256.014 280.270  25
   8   7   2 15059.0 1251.45  25
   8   7   3 438.903 305.727  25
   8   7   4 249.045 239.250  25
   8   7   5 8748.91 938.470  25
   8   7   6 4264.00 664.501  25
   8   7   7 1393.29 392.103  25
   8   7   8 105.074 178.249  25
   8   7   9 9563.72 738.217  25
  -8  -8   3 6.47605 44.5265  13
  -8  -8   2-362.989 202.191  13
   8   8  -1 2256.34 402.983  25
  -8  -8   1 2726.67 460.089  13
   8   8   0-165.317 155.992  25
  -8  -8   0-367.584 172.766  13
   8   8   1 167.104 129.361  25
   8   8   2 1797.12 427.196  25
   8   8   3 3136.01 551.232  25
   8   8   4 1647.57 430.301  25
   8   8   5 56.9586 200.640  25
   8   8   6-112.762 140.763  25
   8   8   7-132.646 204.996  25
   8   8   8 6089.92 617.130  25
  -8  -9   1 2326.55 378.262  13
  -8  -9   0 2342.63 393.202  13
   8   9   1 1293.63 300.845  25
  -8  -9  -1 1512.04 345.324  13
   8   9   2 626.687 234.278  25
  -8  -9  -2 807.776 265.306  13
   8   9   3 814.548 243.003  25
   8   9   4-98.4354 130.531  25
   8   9   5 4896.81 591.982  25
   8   9   6 374.856 158.353  25
   8   9   7-70.2226 81.8222  25
   9  -4   1 115.917 141.622  21
   9  -4   2 41.1204 145.200  21
   9  -4   3 161.410 131.645  21
   9  -4   4-67.4290 106.432  21
   9  -3  -2 95.4383 114.136  15
   9  -3  -1 1106.49 275.174  15
   9  -3  -1-457.534 197.369  21
   9  -3   0 247.714 181.111  15
   9  -3   0 56.9939 158.853  21
   9  -3   1 1381.65 350.391  15
   9  -3   1 727.855 280.111  21
   9  -3   2 1943.78 380.457  15
   9  -3   2 1841.37 409.215  21
   9  -3   3 888.447 259.680  15
   9  -3   3 480.472 232.207  21
   9  -3   4 294.718 192.123  24
   9  -3   4 153.492 154.357  21
   9  -3   5 159.025 139.267  24
   9  -3   5 234.586 156.736  21
   9  -3   6 2825.70 414.683  24
   9  -2  -3 110.494 85.5131  15
   9  -2  -2 862.192 267.444  15
   9  -2  -1 186.618 202.653  15
   9  -2  -1-86.6866 137.079  21
   9  -2   0-148.717 191.806  15
   9  -2   0 44.4603 154.193  21
   9  -2   1 3827.89 580.990  15
   9  -2   1 2969.90 582.003  21
   9  -2   2 87.2939 156.176  15
   9  -2   2 211.200 213.358  24
   9  -2   2-312.039 250.179  21
   9  -2   3-59.3234 106.289  15
   9  -2   3 229.277 226.886  24
   9  -2   3-39.0989 144.202  21
   9  -2   4 3435.45 526.899  15
   9  -2   4 2646.77 495.211  24
   9  -2   4 1701.34 423.813  21
   9  -2   5 1114.21 373.685  24
   9  -2   5 809.743 278.408  21
   9  -2   6 324.914 260.859  24
   9  -2   7 7285.21 724.089  24
   9  -2   8 3028.59 434.883  24
   9  -1  -3 1293.14 294.629  15
   9  -1  -2 332.448 206.125  15
   9  -1  -2 17.6824 164.416  21
   9  -1  -1 7169.13 805.411  15
   9  -1  -1 3714.60 613.567  21
   9  -1   0 786.621 324.267  15
   9  -1   1 1259.03 385.812  15
   9  -1   2 1220.78 400.633  15
   9  -1   2 2341.89 534.570  21
   9  -1   3 161.562 183.964  15
   9  -1   3-14.5739 146.821  21
   9  -1   4 8514.05 901.692  15
   9  -1   4 9157.45 1014.25  24
   9  -1   4 9547.72 997.954  21
   9  -1   5 2469.00 466.897  15
   9  -1   5 1529.31 437.288  24
   9  -1   5 1442.90 382.627  21
   9  -1   6 377.421 289.356  24
   9  -1   7 3.87501 142.251  24
   9  -1   8 4805.37 585.983  24
   9   0  -4 147.140 151.324  25
   9   0  -3 1802.09 344.543  15
   9   0  -3 1814.08 370.430  25
   9   0  -2 2884.38 505.521  15
   9   0  -1 7737.37 865.373  15
   9   0   0 9.00603 183.343  15
   9   0   1 548.495 310.892  15
   9   0   2 625.696 318.669  15
   9   0   3 3029.34 603.176  15
   9   0   4 1466.15 449.275  15
   9   0   4 1670.56 442.020  21
   9   0   5 6328.99 793.789  15
   9   0   5 4747.41 711.406  21
   9   0   6 3027.14 548.326  15
   9   0   6 2715.91 542.625  24
   9   0   7 2419.10 520.667  24
   9   0   8 634.497 271.940  24
   9   0   9 387.900 199.132  24
   9   1  -4 188.283 144.419  25
   9   1  -3-222.480 216.025  25
   9   1  -2 2880.07 481.089  15
   9   1  -2 2594.14 494.568  25
   9   1  -1 65.4747 200.411  15
   9   1  -1 1.57383 165.738  25
   9   1   0 67.9660 200.232  15
   9   1   1 15710.4 1297.69  15
   9   1   2 2656.14 576.169  15
   9   1   3-67.2238 236.767  15
   9   1   4 24376.6 1617.88  15
   9   1   5 554.440 298.997  15
   9   1   6 1922.67 482.216  15
   9   1   6 2264.17 535.674  24
   9   1   7 2168.06 465.941  15
   9   1   7 1906.89 473.714  24
   9   1   8 11676.3 908.306  15
   9   1   8 11907.4 1005.47  24
   9   1   8 11667.1 979.512  23
   9   1   9 530.191 201.490  24
   9   1   9 130.381 171.367  23
   9   2  -5 147.602 130.815  25
   9   2  -4 1971.97 390.828  25
   9   2  -3 535.635 258.835  25
   9   2  -2 1877.45 446.615  25
   9   2  -1-10.9723 127.352  15
   9   2  -1-65.3510 213.518  25
   9   2   0 9044.47 979.720  15
   9   2   0 9414.64 972.579  25
   9   2   1 14611.0 1246.62  15
   9   2   1 16125.6 1242.60  25
   9   2   2 8955.63 993.159  15
   9   2   3 157.429 213.193  15
   9   2   4 5800.04 820.164  15
   9   2   5 3070.35 614.419  15
   9   2   6 783.063 350.103  15
   9   2   7 471.959 254.820  15
   9   2   7 279.221 203.305  24
   9   2   8 2293.37 464.403  15
   9   2   8 2731.39 507.342  24
   9   2   8 2947.47 553.809  23
   9   2   9 292.294 201.349  23
   9   2  10 2266.43 354.900  23
   9   3  -5 855.539 237.574  25
   9   3  -4 275.805 206.699  25
   9   3  -3-5.83777 151.950  25
   9   3  -2 1764.69 426.396  25
   9   3  -1 41.1492 226.766  25
   9   3   0 260.954 218.581  15
   9   3   0 223.284 259.862  25
   9   3   1 2584.48 548.303  15
   9   3   1 2453.56 527.876  25
   9   3   2 27569.4 1691.31  15
   9   3   2 25778.4 1606.15  25
   9   3   3 11172.2 1101.13  15
   9   3   3 12077.9 1100.09  25
   9   3   4 2121.57 509.564  15
   9   3   5 175.728 248.297  15
   9   3   6 1785.11 485.129  15
   9   3   7 2253.58 485.499  15
   9   3   7 1739.29 429.322  24
   9   3   8 5169.66 672.755  15
   9   3   9 422.471 249.869  23
   9   3  10 4275.57 502.205  23
   9   4  -4-109.428 150.719  25
   9   4  -3-185.438 191.433  25
   9   4  -2 7664.68 846.370  25
   9   4  -1 0.87306 229.397  25
   9   4   0 3929.19 680.968  25
   9   4   1 6730.16 823.496  15
   9   4   1 6677.53 844.456  25
   9   4   2 5249.13 740.435  15
   9   4   2 4091.69 672.658  25
   9   4   3 5155.90 750.213  15
   9   4   3 4795.84 740.574  25
   9   4   4 21305.6 1493.21  15
   9   4   4 23451.5 1532.63  25
   9   4   5 6511.65 847.394  15
   9   4   5 6939.77 849.660  25
   9   4   6-80.3895 220.233  15
   9   4   7 5134.65 714.452  15
   9   4   8 19688.2 1293.18  15
   9   4   9 816.868 273.222  23
   9   4  10 852.122 235.061  23
   9   5  -4 142.555 120.652  25
   9   5  -3 5096.54 629.407  25
   9   5  -2 1354.03 380.405  25
   9   5  -1 173.187 228.378  25
   9   5   0 3805.91 650.839  25
   9   5   1 1623.84 465.347  25
   9   5   2 452.911 298.285  25
   9   5   3 4901.81 712.334  15
   9   5   3 4817.43 735.126  25
   9   5   4 8470.94 937.442  15
   9   5   4 8983.46 962.633  25
   9   5   5 862.055 325.940  15
   9   5   5 651.378 331.249  25
   9   5   6-328.543 217.788  15
   9   5   6 172.260 268.541  25
   9   5   7 4617.53 666.884  15
   9   5   7 3755.84 564.297  25
   9   5   8 5343.99 654.535  23
   9   5   9 233.500 176.744  23
   9   6  -3 483.578 208.413  25
   9   6  -2 2049.87 402.709  25
   9   6  -1 604.206 286.663  25
   9   6   0 2430.29 497.029  25
   9   6   1 6870.67 826.856  25
   9   6   2 123.829 305.425  25
   9   6   3 5667.92 780.659  25
   9   6   4 4482.94 649.924  15
   9   6   4 4347.94 688.167  25
   9   6   5 3240.44 540.441  15
   9   6   5 3160.87 580.079  25
   9   6   6-153.648 138.806  15
   9   6   6 99.7181 176.151  25
   9   6   7 13373.0 1014.35  25
   9   6   8 2993.03 450.209  25
   9   6   8 2410.61 430.622  23
   9   6   9 215.246 123.952  23
   9   7  -2-240.882 118.089  25
   9   7  -1-142.545 242.894  25
   9   7   0 9606.94 882.996  25
   9   7   1 6179.83 752.850  25
   9   7   2 409.841 254.565  25
   9   7   3 311.222 216.978  25
   9   7   4 8585.33 885.746  25
   9   7   5 1437.41 396.336  25
   9   7   6 4214.38 608.624  25
   9   7   7 1062.71 301.500  25
   9   7   8 3920.29 470.058  25
   9   8  -1 62.6209 118.288  25
   9   8   0 1238.18 313.080  25
   9   8   1 7223.17 720.980  25
   9   8   2 1022.42 327.388  25
   9   8   3 3834.30 565.120  25
   9   8   4 100.153 161.754  25
   9   8   5 147.482 164.472  25
   9   8   6 215.078 187.641  25
   9   8   7 13824.8 877.041  25
   9   9   2 230.428 125.136  25
   9   9   3 26.7172 131.621  25
   9   9   4 7367.91 650.891  25
   9   9   5 834.301 231.532  25
   9   9   6 1212.99 254.876  25
  10  -2   0 1396.75 275.410  15
  10  -2   1 106.531 127.395  15
  10  -2   1 101.305 155.140  21
  10  -2   2 259.299 176.142  15
  10  -2   2-34.6317 142.958  21
  10  -2   3 1343.22 284.256  15
  10  -2   3 286.455 159.553  21
  10  -2   4 1449.07 306.157  24
  10  -2   4 423.407 156.701  21
  10  -2   5 323.083 187.247  24
  10  -1  -1 127.275 149.612  15
  10  -1   0-219.965 143.346  15
  10  -1   0-627.199 216.321  21
  10  -1   1 52.1817 136.738  15
  10  -1   1 90.1244 178.020  21
  10  -1   2 111.628 152.682  15
  10  -1   2 391.674 221.988  24
  10  -1   2-183.796 160.188  21
  10  -1   3 833.442 272.984  15
  10  -1   3 564.612 261.240  24
  10  -1   4 619.991 234.599  15
  10  -1   4 234.048 206.664  24
  10  -1   4 286.586 203.951  21
  10  -1   5 222.921 129.748  15
  10  -1   5 67.3562 136.592  24
  10  -1   5 113.800 107.547  21
  10  -1   6 380.506 199.347  24
  10  -1   7 2410.80 379.430  24
  10   0  -2 2545.17 361.220  15
  10   0  -1 3814.13 511.943  15
  10   0  -1 535.556 206.746  21
  10   0   0 603.152 260.670  15
  10   0   0 350.218 229.309  21
  10   0   1-212.743 188.516  15
  10   0   1 72.5938 160.147  21
  10   0   2 1309.95 357.348  15
  10   0   2 885.211 317.247  21
  10   0   3 614.799 270.532  15
  10   0   3 236.557 205.386  21
  10   0   4 1414.84 362.876  15
  10   0   4 1504.21 403.540  24
  10   0   4 251.495 223.301  21
  10   0   5 690.866 266.497  15
  10   0   5 239.976 204.267  21
  10   0   6 7306.27 678.147  15
  10   0   6 7791.29 798.451  24
  10   0   7 1166.68 280.126  24
  10   1  -2-130.655 118.149  15
  10   1  -1 2152.25 392.492  15
  10   1   0 6345.55 717.402  15
  10   1   1-181.351 192.411  15
  10   1   2 1093.62 364.555  15
  10   1   3 5040.02 695.246  15
  10   1   4 158.950 180.193  15
  10   1   4 185.492 212.728  21
  10   1   5 795.163 313.968  15
  10   1   6-109.232 145.456  15
  10   1   6 42.7563 179.474  24
  10   1   7 1210.46 284.707  15
  10   1   7 1040.67 294.250  24
  10   1   7 449.648 198.926  23
  10   1   8 1034.17 264.529  24
  10   2  -2-61.5779 137.002  25
  10   2  -1 1581.48 340.068  15
  10   2  -1 1290.76 335.337  25
  10   2   0 969.605 307.755  15
  10   2   0 1634.34 373.543  25
  10   2   1 1054.41 341.467  15
  10   2   2 32.2472 148.930  15
  10   2   3 1972.24 474.566  15
  10   2   4 553.307 281.721  15
  10   2   5 4198.24 635.683  15
  10   2   6 1492.53 365.648  15
  10   2   6 1451.20 405.673  24
  10   2   7 1771.48 362.230  15
  10   2   7 1993.97 409.186  24
  10   2   8 5470.82 560.354  15
  10   2   8 5513.23 582.005  24
  10   2   8 6223.22 625.383  23
  10   3  -3-52.0846 124.006  25
  10   3  -2 705.618 248.808  25
  10   3  -1 2450.34 454.635  25
  10   3   0 1566.65 336.882  15
  10   3   0 1801.63 403.753  25
  10   3   1 315.848 228.564  15
  10   3   1 99.6777 206.812  25
  10   3   2 1146.54 343.534  15
  10   3   2 1287.24 363.715  25
  10   3   3 4260.44 639.056  15
  10   3   4 2951.42 545.895  15
  10   3   5 1398.49 385.756  15
  10   3   6 1017.02 334.250  15
  10   3   7-131.715 176.454  15
  10   3   7-115.512 157.623  24
  10   3   8 692.601 243.182  15
  10   3   8 1168.67 320.651  23
  10   3   9 5583.92 536.529  23
  10   4  -3 4148.13 452.949  25
  10   4  -2 587.846 229.628  25
  10   4  -1 3031.34 499.375  25
  10   4   0 201.434 211.035  25
  10   4   1-34.7718 198.102  25
  10   4   2 1925.47 401.092  15
  10   4   2 1896.37 433.581  25
  10   4   3 1802.52 408.639  15
  10   4   3 1769.97 426.319  25
  10   4   4 117.395 158.363  15
  10   4   4 290.686 194.140  25
  10   4   5 4347.37 628.844  15
  10   4   6 7244.51 799.545  15
  10   4   7 452.183 230.942  15
  10   4   8 3573.28 487.308  23
  10   4   9 234.431 162.384  23
  10   5  -2 224.574 160.638  25
  10   5  -1 49.5785 179.556  25
  10   5   0 1864.37 416.995  25
  10   5   1-135.988 201.861  25
  10   5   2 1973.79 436.783  25
  10   5   3 4985.94 630.416  15
  10   5   3 4876.02 658.014  25
  10   5   4 250.655 199.627  15
  10   5   4-57.1354 226.507  25
  10   5   5 5025.39 639.040  15
  10   5   5 5156.17 647.851  25
  10   5   6 1746.81 392.967  15
  10   5   6 1652.15 368.879  25
  10   5   7 1510.65 345.565  15
  10   5   8 196.586 154.891  23
  10   6  -1 2965.06 438.738  25
  10   6   0 1311.96 332.028  25
  10   6   1 1494.63 381.448  25
  10   6   2 3084.60 525.848  25
  10   6   3 4246.09 612.792  25
  10   6   4 393.691 182.443  15
  10   6   4 390.696 232.269  25
  10   6   5 1428.63 340.357  15
  10   6   5 1164.24 345.061  25
  10   6   6 4412.95 553.900  25
  10   6   7 927.381 236.454  25
  10   7   0 3688.64 465.709  25
  10   7   1 1872.48 371.122  25
  10   7   2 8787.57 780.866  25
  10   7   3 6068.22 665.182  25
  10   7   4 105.769 192.721  25
  10   7   5 7784.37 719.722  25
  10   7   6 4064.37 496.456  25
  10   8   1 1086.47 243.350  25
  10   8   2 262.057 162.473  25
  10   8   3 6139.78 588.972  25
  10   8   4 917.666 261.757  25
  10   8   5-4.13807 116.782  25
  11   0   2 2033.44 327.976  15
  11   0   3 145.459 113.464  15
  11   0   4 704.801 201.081  15
  11   0   4 886.783 245.789  24
  11   1   1 865.406 223.653  15
  11   1   1 127.270 135.525  21
  11   1   2 466.892 173.640  15
  11   1   2-265.478 162.617  21
  11   1   3-91.4653 152.302  15
  11   1   3-126.548 120.709  21
  11   1   4 206.842 159.350  15
  11   1   4 322.922 193.669  24
  11   1   4-124.129 95.4402  21
  11   1   5 152.999 137.440  15
  11   1   5 139.224 142.778  24
  11   1   6-54.3457 122.644  24
  11   2   1-260.493 156.048  15
  11   2   2 3299.35 462.687  15
  11   2   3 770.467 247.470  15
  11   2   3-279.998 136.904  21
  11   2   4 2993.73 456.270  15
  11   2   4-92.9692 103.209  21
  11   2   5 154.643 150.921  15
  11   2   5 242.260 166.803  24
  11   2   6-13.7947 116.608  15
  11   2   6 94.0951 114.226  24
  11   3   1 1766.96 299.438  15
  11   3   2 1193.53 275.816  15
  11   3   3-0.58779 116.831  15
  11   3   4 3020.58 458.421  15
  11   3   5 2332.40 399.498  15
  11   3   5 2838.14 451.117  24
  11   3   6-120.830 139.245  15
  11   3   6 56.2771 130.795  24
  11   4   1 334.180 173.242  25
  11   4   2 2312.89 357.716  15
  11   4   2 2508.23 373.161  25
  11   4   3 175.415 172.538  15
  11   4   4 2879.78 442.409  15
  11   4   5 5531.55 587.591  15
  11   4   6 627.178 210.566  15
  11   4   7 1915.18 328.306  23
  11   5   1 430.433 191.473  25
  11   5   2 2730.73 398.733  25
  11   5   3-231.197 169.997  25
  11   5   4 6243.25 583.958  15
  11   5   4 6329.50 565.720  25
  11   5   5 1177.20 294.278  15
  11   5   6 143.781 120.719  15
  11   6   2 1038.94 249.906  25
  11   6   3-121.403 139.546  25
  11   6   4 6844.64 581.538  25
   0   0   0    0.00    0.00   0

TITL 202110279 in P-1
REM P-1 (#2 in standard setting)
CELL 1.54184   9.457083   9.507336  10.309142  82.7225  74.5309  73.5050
ZERR    1.00   0.000875   0.000759   0.000908   0.0069   0.0079   0.0077
LATT  1
SFAC C H N O F S
UNIT 30.00 3.00 1.00 4.00 3.00 1.00
TREF
HKLF 4
END
;
_shelx_hkl_checksum              90598
_olex2_submission_special_instructions 'No special instructions were received'
_oxdiff_exptl_absorpt_empirical_details
;
Empirical correction (ABSPACK) includes:
- Absorption correction using spherical harmonics
- Frame scaling
;
_oxdiff_exptl_absorpt_empirical_full_max 1.127
_oxdiff_exptl_absorpt_empirical_full_min 0.904
loop_
_space_group_symop_operation_xyz
'x, y, z'
'-x, -y, -z'
loop_
_atom_site_label
_atom_site_type_symbol
_atom_site_fract_x
_atom_site_fract_y
_atom_site_fract_z
_atom_site_U_iso_or_equiv
_atom_site_adp_type
_atom_site_occupancy
_atom_site_site_symmetry_order
_atom_site_calc_flag
_atom_site_refinement_flags_posn
_atom_site_refinement_flags_adp
_atom_site_refinement_flags_occupancy
_atom_site_disorder_assembly
_atom_site_disorder_group
C1 C 0.5511(3) 0.1508(4) 0.0956(3) 0.0551(8) Uani 1 1 d . . . . .
H1 H 0.6042 0.0756 0.1451 0.066 Uiso 1 1 calc R . . . .
C2 C 0.6290(4) 0.2145(4) -0.0198(3) 0.0639(9) Uani 1 1 d . . . . .
H2 H 0.7344 0.1823 -0.0468 0.077 Uiso 1 1 calc R . . . .
C3 C 0.5518(4) 0.3245(4) -0.0942(3) 0.0642(9) Uani 1 1 d . . . . .
H3 H 0.6052 0.3675 -0.1706 0.077 Uiso 1 1 calc R . . . .
C4 C 0.3949(4) 0.3722(4) -0.0565(3) 0.0563(8) Uani 1 1 d . . . . .
H4 H 0.3421 0.4454 -0.1079 0.068 Uiso 1 1 calc R . . . .
C5 C 0.3176(3) 0.3090(3) 0.0590(3) 0.0450(6) Uani 1 1 d . . . . .
C6 C 0.3940(3) 0.1994(3) 0.1373(3) 0.0433(6) Uani 1 1 d . . . . .
C7 C 0.3090(3) 0.1419(3) 0.2677(3) 0.0440(6) Uani 1 1 d . . . . .
C8 C 0.1968(3) 0.0569(3) 0.2728(3) 0.0441(6) Uani 1 1 d . . . . .
C9 C 0.0859(3) 0.0951(3) 0.1974(3) 0.0455(6) Uani 1 1 d . . . . .
C10 C -0.0136(3) 0.0088(3) 0.2103(3) 0.0533(7) Uani 1 1 d . . . . .
H10 H -0.0864 0.0349 0.1601 0.064 Uiso 1 1 calc R . . . .
C11 C -0.0064(4) -0.1147(4) 0.2959(3) 0.0560(8) Uani 1 1 d . . . . .
H11 H -0.0732 -0.1720 0.3022 0.067 Uiso 1 1 calc R . . . .
C12 C 0.0997(4) -0.1545(3) 0.3731(3) 0.0521(7) Uani 1 1 d . . . . .
C13 C 0.1987(3) -0.0676(3) 0.3597(3) 0.0493(7) Uani 1 1 d . . . . .
H13 H 0.2700 -0.0938 0.4116 0.059 Uiso 1 1 calc R . . . .
C14 C 0.1115(4) -0.2900(4) 0.4674(4) 0.0680(10) Uani 1 1 d . . . . .
H14A H 0.1856 -0.3713 0.4214 0.102 Uiso 1 1 calc GR . . . .
H14B H 0.0145 -0.3120 0.4962 0.102 Uiso 1 1 calc GR . . . .
H14C H 0.1418 -0.2728 0.5445 0.102 Uiso 1 1 calc GR . . . .
C15 C 0.3370(3) 0.1617(3) 0.3837(3) 0.0499(7) Uani 1 1 d . . . . .
H15 H 0.2836 0.1240 0.4633 0.060 Uiso 1 1 calc R . . . .
C16 C 0.3957(4) 0.2975(4) 0.5662(3) 0.0567(8) Uani 1 1 d . . . . .
C17 C 0.0864(4) 0.4740(3) 0.1955(3) 0.0607(8) Uani 1 1 d . . . . .
H17A H -0.0222 0.4998 0.2098 0.091 Uiso 1 1 calc GR . . . .
H17B H 0.1233 0.5586 0.1598 0.091 Uiso 1 1 calc GR . . . .
H17C H 0.1133 0.4397 0.2796 0.091 Uiso 1 1 calc GR . . . .
F1 F 0.2533(3) 0.3765(2) 0.5941(2) 0.0917(7) Uani 1 1 d . . . . .
F2 F 0.3981(3) 0.1802(2) 0.6495(2) 0.0830(7) Uani 1 1 d . . . . .
F3 F 0.4805(3) 0.3719(3) 0.5969(2) 0.0927(8) Uani 1 1 d . . . . .
N1 N 0.1546(3) 0.3578(2) 0.0999(2) 0.0479(6) Uani 1 1 d . . . . .
O1 O 0.1323(3) 0.1894(3) -0.0514(2) 0.0764(7) Uani 1 1 d . . . . .
O2 O -0.0948(3) 0.3216(3) 0.1110(3) 0.0889(9) Uani 1 1 d . . . . .
S1 S 0.06200(9) 0.24697(9) 0.07918(9) 0.0565(2) Uani 1 1 d . . . . .
S2 S 0.46946(10) 0.25524(11) 0.39335(8) 0.0669(3) Uani 1 1 d . . . . .
loop_
_atom_site_aniso_label
_atom_site_aniso_U_11
_atom_site_aniso_U_22
_atom_site_aniso_U_33
_atom_site_aniso_U_23
_atom_site_aniso_U_13
_atom_site_aniso_U_12
C1 0.0445(16) 0.063(2) 0.0557(18) -0.0109(15) -0.0135(14) -0.0060(14)
C2 0.0475(18) 0.085(2) 0.056(2) -0.0201(18) -0.0036(15) -0.0142(17)
C3 0.060(2) 0.083(2) 0.0497(18) -0.0069(17) -0.0039(15) -0.0265(18)
C4 0.065(2) 0.0587(19) 0.0465(17) -0.0041(14) -0.0139(15) -0.0176(16)
C5 0.0441(15) 0.0480(16) 0.0463(16) -0.0089(12) -0.0126(13) -0.0132(12)
C6 0.0440(15) 0.0478(15) 0.0413(15) -0.0110(12) -0.0120(12) -0.0120(12)
C7 0.0402(14) 0.0424(15) 0.0496(16) -0.0039(12) -0.0163(12) -0.0056(12)
C8 0.0444(15) 0.0436(15) 0.0463(15) -0.0077(12) -0.0141(12) -0.0098(12)
C9 0.0475(16) 0.0452(15) 0.0475(16) -0.0069(12) -0.0163(13) -0.0113(13)
C10 0.0498(17) 0.0609(19) 0.0559(18) -0.0090(15) -0.0177(14) -0.0180(15)
C11 0.0556(18) 0.0619(19) 0.0564(19) -0.0107(15) -0.0071(15) -0.0277(15)
C12 0.0553(18) 0.0505(17) 0.0469(17) -0.0096(13) -0.0013(14) -0.0153(14)
C13 0.0484(16) 0.0511(17) 0.0490(17) -0.0071(13) -0.0146(13) -0.0096(13)
C14 0.081(3) 0.061(2) 0.061(2) 0.0041(16) -0.0097(18) -0.0273(19)
C15 0.0498(17) 0.0585(18) 0.0486(17) -0.0013(13) -0.0192(13) -0.0193(14)
C16 0.061(2) 0.060(2) 0.0562(19) -0.0018(15) -0.0257(16) -0.0181(16)
C17 0.061(2) 0.0498(18) 0.063(2) -0.0086(15) -0.0075(16) -0.0060(15)
F1 0.0825(15) 0.0836(16) 0.0968(17) -0.0225(13) -0.0179(13) 0.0014(12)
F2 0.1133(17) 0.0804(15) 0.0641(13) 0.0177(11) -0.0387(12) -0.0326(13)
F3 0.1224(19) 0.1149(18) 0.0734(14) -0.0117(13) -0.0356(13) -0.0681(16)
N1 0.0454(13) 0.0440(13) 0.0545(14) -0.0050(11) -0.0152(11) -0.0082(11)
O1 0.117(2) 0.0800(17) 0.0549(14) 0.0019(12) -0.0425(14) -0.0438(15)
O2 0.0546(14) 0.0760(17) 0.142(3) 0.0272(17) -0.0488(16) -0.0173(13)
S1 0.0557(5) 0.0564(5) 0.0682(5) 0.0057(4) -0.0349(4) -0.0170(4)
S2 0.0671(5) 0.0991(7) 0.0516(5) -0.0079(4) -0.0161(4) -0.0451(5)
loop_
_atom_type_symbol
_atom_type_description
_atom_type_scat_dispersion_real
_atom_type_scat_dispersion_imag
_atom_type_scat_source
C C 0.0181 0.0091 'International Tables Vol C Tables 4.2.6.8 and 6.1.1.4'
H H 0.0000 0.0000 'International Tables Vol C Tables 4.2.6.8 and 6.1.1.4'
F F 0.0727 0.0534 'International Tables Vol C Tables 4.2.6.8 and 6.1.1.4'
N N 0.0311 0.0180 'International Tables Vol C Tables 4.2.6.8 and 6.1.1.4'
O O 0.0492 0.0322 'International Tables Vol C Tables 4.2.6.8 and 6.1.1.4'
S S 0.3331 0.5567 'International Tables Vol C Tables 4.2.6.8 and 6.1.1.4'
loop_
_geom_angle_atom_site_label_1
_geom_angle_atom_site_label_2
_geom_angle_atom_site_label_3
_geom_angle
_geom_angle_site_symmetry_1
_geom_angle_site_symmetry_3
_geom_angle_publ_flag
C2 C1 H1 120.0 . . ?
C6 C1 H1 120.0 . . ?
C6 C1 C2 120.1(3) . . ?
C1 C2 H2 119.8 . . ?
C3 C2 C1 120.5(3) . . ?
C3 C2 H2 119.8 . . ?
C2 C3 H3 119.8 . . ?
C2 C3 C4 120.4(3) . . ?
C4 C3 H3 119.8 . . ?
C3 C4 H4 120.5 . . ?
C3 C4 C5 118.9(3) . . ?
C5 C4 H4 120.5 . . ?
C4 C5 C6 121.5(3) . . ?
C4 C5 N1 119.6(3) . . ?
C6 C5 N1 118.9(2) . . ?
C1 C6 C5 118.5(3) . . ?
C1 C6 C7 121.0(3) . . ?
C5 C6 C7 120.4(2) . . ?
C8 C7 C6 121.9(2) . . ?
C15 C7 C6 119.8(3) . . ?
C15 C7 C8 118.2(3) . . ?
C9 C8 C7 124.7(3) . . ?
C13 C8 C7 118.3(3) . . ?
C13 C8 C9 116.9(3) . . ?
C8 C9 S1 125.4(2) . . ?
C10 C9 C8 120.1(3) . . ?
C10 C9 S1 114.5(2) . . ?
C9 C10 H10 119.4 . . ?
C11 C10 C9 121.1(3) . . ?
C11 C10 H10 119.4 . . ?
C10 C11 H11 119.8 . . ?
C10 C11 C12 120.4(3) . . ?
C12 C11 H11 119.8 . . ?
C11 C12 C13 118.1(3) . . ?
C11 C12 C14 121.8(3) . . ?
C13 C12 C14 120.1(3) . . ?
C8 C13 H13 118.3 . . ?
C12 C13 C8 123.3(3) . . ?
C12 C13 H13 118.3 . . ?
C12 C14 H14A 109.5 . . ?
C12 C14 H14B 109.5 . . ?
C12 C14 H14C 109.5 . . ?
H14A C14 H14B 109.5 . . ?
H14A C14 H14C 109.5 . . ?
H14B C14 H14C 109.5 . . ?
C7 C15 H15 118.3 . . ?
C7 C15 S2 123.4(2) . . ?
S2 C15 H15 118.3 . . ?
F1 C16 F2 105.2(3) . . ?
F1 C16 F3 108.5(3) . . ?
F1 C16 S2 113.7(2) . . ?
F2 C16 F3 107.6(3) . . ?
F2 C16 S2 113.4(2) . . ?
F3 C16 S2 108.2(2) . . ?
H17A C17 H17B 109.5 . . ?
H17A C17 H17C 109.5 . . ?
H17B C17 H17C 109.5 . . ?
N1 C17 H17A 109.5 . . ?
N1 C17 H17B 109.5 . . ?
N1 C17 H17C 109.5 . . ?
C5 N1 C17 118.2(2) . . ?
C5 N1 S1 116.57(18) . . ?
C17 N1 S1 121.9(2) . . ?
N1 S1 C9 109.06(13) . . ?
O1 S1 C9 106.25(14) . . ?
O1 S1 N1 107.36(14) . . ?
O2 S1 C9 106.65(15) . . ?
O2 S1 N1 107.60(15) . . ?
O2 S1 O1 119.61(18) . . ?
C15 S2 C16 97.53(15) . . ?
loop_
_geom_bond_atom_site_label_1
_geom_bond_atom_site_label_2
_geom_bond_distance
_geom_bond_site_symmetry_2
_geom_bond_publ_flag
C1 H1 0.9300 . ?
C1 C2 1.389(4) . ?
C1 C6 1.388(4) . ?
C2 H2 0.9300 . ?
C2 C3 1.370(5) . ?
C3 H3 0.9300 . ?
C3 C4 1.383(4) . ?
C4 H4 0.9300 . ?
C4 C5 1.385(4) . ?
C5 C6 1.389(4) . ?
C5 N1 1.438(3) . ?
C6 C7 1.497(4) . ?
C7 C8 1.492(4) . ?
C7 C15 1.337(4) . ?
C8 C9 1.409(4) . ?
C8 C13 1.390(4) . ?
C9 C10 1.385(4) . ?
C9 S1 1.771(3) . ?
C10 H10 0.9300 . ?
C10 C11 1.374(4) . ?
C11 H11 0.9300 . ?
C11 C12 1.384(4) . ?
C12 C13 1.386(4) . ?
C12 C14 1.508(4) . ?
C13 H13 0.9300 . ?
C14 H14A 0.9600 . ?
C14 H14B 0.9600 . ?
C14 H14C 0.9600 . ?
C15 H15 0.9300 . ?
C15 S2 1.759(3) . ?
C16 F1 1.317(4) . ?
C16 F2 1.318(4) . ?
C16 F3 1.326(3) . ?
C16 S2 1.784(3) . ?
C17 H17A 0.9600 . ?
C17 H17B 0.9600 . ?
C17 H17C 0.9600 . ?
C17 N1 1.462(4) . ?
N1 S1 1.613(2) . ?
O1 S1 1.434(3) . ?
O2 S1 1.418(2) . ?
loop_
_geom_torsion_atom_site_label_1
_geom_torsion_atom_site_label_2
_geom_torsion_atom_site_label_3
_geom_torsion_atom_site_label_4
_geom_torsion
_geom_torsion_site_symmetry_1
_geom_torsion_site_symmetry_2
_geom_torsion_site_symmetry_3
_geom_torsion_site_symmetry_4
_geom_torsion_publ_flag
C1 C2 C3 C4 -1.0(5) . . . . ?
C1 C6 C7 C8 -116.8(3) . . . . ?
C1 C6 C7 C15 60.7(4) . . . . ?
C2 C1 C6 C5 1.9(4) . . . . ?
C2 C1 C6 C7 -174.5(3) . . . . ?
C2 C3 C4 C5 1.3(5) . . . . ?
C3 C4 C5 C6 0.0(5) . . . . ?
C3 C4 C5 N1 179.7(3) . . . . ?
C4 C5 C6 C1 -1.6(4) . . . . ?
C4 C5 C6 C7 174.8(3) . . . . ?
C4 C5 N1 C17 -93.1(3) . . . . ?
C4 C5 N1 S1 107.2(3) . . . . ?
C5 C6 C7 C8 66.8(4) . . . . ?
C5 C6 C7 C15 -115.6(3) . . . . ?
C5 N1 S1 C9 71.1(2) . . . . ?
C5 N1 S1 O1 -43.6(2) . . . . ?
C5 N1 S1 O2 -173.5(2) . . . . ?
C6 C1 C2 C3 -0.6(5) . . . . ?
C6 C5 N1 C17 86.6(3) . . . . ?
C6 C5 N1 S1 -73.1(3) . . . . ?
C6 C7 C8 C9 -44.5(4) . . . . ?
C6 C7 C8 C13 136.9(3) . . . . ?
C6 C7 C15 S2 0.7(4) . . . . ?
C7 C8 C9 C10 -179.6(3) . . . . ?
C7 C8 C9 S1 2.0(4) . . . . ?
C7 C8 C13 C12 179.8(3) . . . . ?
C7 C15 S2 C16 159.5(3) . . . . ?
C8 C7 C15 S2 178.3(2) . . . . ?
C8 C9 C10 C11 0.0(4) . . . . ?
C8 C9 S1 N1 -15.0(3) . . . . ?
C8 C9 S1 O1 100.4(3) . . . . ?
C8 C9 S1 O2 -131.0(3) . . . . ?
C9 C8 C13 C12 1.0(4) . . . . ?
C9 C10 C11 C12 0.9(5) . . . . ?
C10 C9 S1 N1 166.5(2) . . . . ?
C10 C9 S1 O1 -78.1(2) . . . . ?
C10 C9 S1 O2 50.6(3) . . . . ?
C10 C11 C12 C13 -0.9(4) . . . . ?
C10 C11 C12 C14 -179.5(3) . . . . ?
C11 C12 C13 C8 -0.1(4) . . . . ?
C13 C8 C9 C10 -0.9(4) . . . . ?
C13 C8 C9 S1 -179.3(2) . . . . ?
C14 C12 C13 C8 178.6(3) . . . . ?
C15 C7 C8 C9 138.0(3) . . . . ?
C15 C7 C8 C13 -40.7(4) . . . . ?
C17 N1 S1 C9 -87.7(3) . . . . ?
C17 N1 S1 O1 157.5(2) . . . . ?
C17 N1 S1 O2 27.6(3) . . . . ?
F1 C16 S2 C15 -59.0(3) . . . . ?
F2 C16 S2 C15 61.1(3) . . . . ?
F3 C16 S2 C15 -179.6(2) . . . . ?
N1 C5 C6 C1 178.7(2) . . . . ?
N1 C5 C6 C7 -4.9(4) . . . . ?
S1 C9 C10 C11 178.5(2) . . . . ?
