#------------------------------------------------------------------------------
#$Date: 2022-07-28 00:51:47 +0300 (Thu, 28 Jul 2022) $
#$Revision: 276966 $
#$URL: file:///home/coder/svn-repositories/cod/cif/7/13/04/7130427.cif $
#------------------------------------------------------------------------------
#
# This file is available in the Crystallography Open Database (COD),
# http://www.crystallography.net/
#
# All data on this site have been placed in the public domain by the
# contributors.
#
data_7130427
loop_
_publ_author_name
'Debnath, Snehasish'
'Nair, Ratish R.'
'Ghosh, Riya'
'Kiranmai, Gaddam'
'Radhakishan, Narsini'
'Nagesh, Narayana'
'Chatterjee, Pabitra B.'
_publ_section_title
;
 A unique water soluble probe for measuring the cardiac marker
 homocysteine and its clinical validation
;
_journal_name_full               'Chemical Communications'
_journal_paper_doi               10.1039/D2CC01515C
_journal_year                    2022
_chemical_formula_sum            'C15 H18 N2 O3'
_chemical_formula_weight         274.31
_space_group_crystal_system      triclinic
_space_group_IT_number           2
_space_group_name_Hall           '-P 1'
_space_group_name_H-M_alt        'P -1'
_atom_sites_solution_hydrogens   mixed
_audit_creation_method           SHELXL-2016/6
_audit_update_record
;
2021-08-27 deposited with the CCDC.	2022-07-18 downloaded from the CCDC.
;
_cell_angle_alpha                73.4860(10)
_cell_angle_beta                 72.5660(10)
_cell_angle_gamma                83.895(2)
_cell_formula_units_Z            2
_cell_length_a                   7.9174(3)
_cell_length_b                   8.2811(3)
_cell_length_c                   11.2569(5)
_cell_measurement_reflns_used    6118
_cell_measurement_temperature    100(2)
_cell_measurement_theta_max      31.51
_cell_measurement_theta_min      2.70
_cell_volume                     674.92(5)
_computing_cell_refinement       'Bruker SAINT'
_computing_data_collection       'Bruker APEX2'
_computing_data_reduction        'Bruker SAINT'
_computing_molecular_graphics    'Bruker SHELXTL'
_computing_structure_refinement  'SHELXL-2016/6 (Sheldrick, 2016)'
_computing_structure_solution    'SHELXT 2014/5 (Sheldrick, 2014)'
_diffrn_ambient_temperature      100(2)
_diffrn_measured_fraction_theta_full 0.968
_diffrn_measured_fraction_theta_max 0.968
_diffrn_measurement_device_type  'Bruker APEX-II CCD'
_diffrn_measurement_method       '\f and \w scans'
_diffrn_radiation_type           MoK\a
_diffrn_radiation_wavelength     0.71073
_diffrn_reflns_av_R_equivalents  0.0256
_diffrn_reflns_av_unetI/netI     0.0349
_diffrn_reflns_Laue_measured_fraction_full 0.968
_diffrn_reflns_Laue_measured_fraction_max 0.968
_diffrn_reflns_limit_h_max       11
_diffrn_reflns_limit_h_min       -11
_diffrn_reflns_limit_k_max       10
_diffrn_reflns_limit_k_min       -12
_diffrn_reflns_limit_l_max       16
_diffrn_reflns_limit_l_min       -16
_diffrn_reflns_number            9015
_diffrn_reflns_point_group_measured_fraction_full 0.968
_diffrn_reflns_point_group_measured_fraction_max 0.968
_diffrn_reflns_theta_full        25.242
_diffrn_reflns_theta_max         31.511
_diffrn_reflns_theta_min         2.697
_diffrn_source                   'MICROFOCUS SEALED TUBE'
_exptl_absorpt_coefficient_mu    0.095
_exptl_absorpt_correction_type   multi-scan
_exptl_absorpt_process_details   'BRUKER SADABS'
_exptl_crystal_colour            brown
_exptl_crystal_density_diffrn    1.350
_exptl_crystal_description       BLOCK
_exptl_crystal_F_000             292
_exptl_crystal_size_max          0.600
_exptl_crystal_size_mid          0.380
_exptl_crystal_size_min          0.300
_exptl_transmission_factor_max   0.7462
_exptl_transmission_factor_min   0.6973
_refine_diff_density_max         0.443
_refine_diff_density_min         -0.210
_refine_diff_density_rms         0.044
_refine_ls_extinction_method     none
_refine_ls_goodness_of_fit_ref   1.040
_refine_ls_hydrogen_treatment    mixed
_refine_ls_matrix_type           full
_refine_ls_number_parameters     188
_refine_ls_number_reflns         4351
_refine_ls_number_restraints     0
_refine_ls_restrained_S_all      1.040
_refine_ls_R_factor_all          0.0441
_refine_ls_R_factor_gt           0.0392
_refine_ls_shift/su_max          0.000
_refine_ls_shift/su_mean         0.000
_refine_ls_structure_factor_coef Fsqd
_refine_ls_weighting_details
'w=1/[\s^2^(Fo^2^)+(0.0610P)^2^+0.1266P] where P=(Fo^2^+2Fc^2^)/3'
_refine_ls_weighting_scheme      calc
_refine_ls_wR_factor_gt          0.1096
_refine_ls_wR_factor_ref         0.1146
_reflns_Friedel_coverage         0.000
_reflns_number_gt                3863
_reflns_number_total             4351
_reflns_threshold_expression     'I > 2\s(I)'
_cod_data_source_file            d2cc01515c2.cif
_cod_data_source_block           SND29A_0m_a
_cod_depositor_comments
;
The following automatic conversions were performed:

data item '_exptl_absorpt_correction_type' value 'MULTI-SCAN' was
changed to 'multi-scan' in accordance with the
/home/data/users/saulius/crontab/automatic-downloads/rss-feeds/RSC/lib/dictionaries/cif_core.dic
dictionary named 'cif_core.dic' version 2.4.2 last updated on
2011-04-26.

Automatic conversion script
Id: cif_fix_values 7556 2019-12-06 15:28:31Z antanas 
;
_cod_database_code               7130427
_shelx_shelxl_version_number     2016/6
_shelx_space_group_comment
;
The symmetry employed for this shelxl refinement is uniquely defined
by the following loop, which should always be used as a source of
symmetry information in preference to the above space-group names.
They are only intended as comments.
;
_shelx_estimated_absorpt_t_min   0.945
_shelx_estimated_absorpt_t_max   0.972
_shelx_res_file
;
TITL SND29A_0m_a.res in P-1
    SND29A_0m_a.res
    created by SHELXL-2016/6 at 15:03:59 on 26-Sep-2018
REM Old TITL SND29A_0m in P-1
REM SHELXT solution in P-1
REM R1 0.112,  Rweak 0.005,  Alpha 0.056,  Orientation as input
REM Formula found by SHELXT:  C15 N2 O3
CELL  0.71073   7.9174   8.2811  11.2569   73.486   72.566   83.895
ZERR    2.000   0.0003   0.0003   0.0005    0.001    0.001    0.002
LATT  1
SFAC C H N O
UNIT 30 36 4 6
CONF
ACTA
TEMP -172.620
SIZE 0.30 0.38 0.60
L.S. 10
BOND $H
LIST 6
FMAP 2
PLAN 20
WGHT    0.061000    0.126600
FVAR       2.29410
O1    4    0.881923    0.575942    0.184573    11.00000    0.01556    0.01559 =
         0.01233   -0.00438   -0.00131   -0.00408
O2    4    1.036158    0.767721    0.017752    11.00000    0.02452    0.02238 =
         0.01645   -0.00539    0.00068   -0.00872
O3    4    0.566034    0.141134    0.527560    11.00000    0.02575    0.01788 =
         0.01469   -0.00188   -0.00241   -0.00627
N1    3    0.634499    0.135335    0.287696    11.00000    0.01554    0.01465 =
         0.01272   -0.00342   -0.00392   -0.00188
N2    3    0.409980    0.278744    0.105812    11.00000    0.02028    0.01822 =
         0.01935   -0.00731   -0.00822    0.00439
C1    1    0.972723    0.726049    0.134086    11.00000    0.01385    0.01551 =
         0.01803   -0.00521   -0.00259   -0.00255
C2    1    0.981878    0.815075    0.224076    11.00000    0.01624    0.01615 =
         0.02048   -0.00732   -0.00417   -0.00254
AFIX  43
H2    2    1.040133    0.919787    0.192356    11.00000   -1.20000
AFIX   0
C3    1    0.909746    0.754144    0.353293    11.00000    0.01397    0.01712 =
         0.01957   -0.00882   -0.00595    0.00083
C4    1    0.821645    0.595604    0.401859    11.00000    0.01413    0.01615 =
         0.01502   -0.00640   -0.00459    0.00017
C5    1    0.741830    0.519415    0.535352    11.00000    0.01959    0.02029 =
         0.01428   -0.00716   -0.00567    0.00032
AFIX  43
H5    2    0.747107    0.574995    0.597226    11.00000   -1.20000
AFIX   0
C6    1    0.658446    0.369910    0.577023    11.00000    0.02145    0.02088 =
         0.01189   -0.00485   -0.00403   -0.00076
AFIX  43
H6    2    0.607720    0.323679    0.667013    11.00000   -1.20000
AFIX   0
C7    1    0.645118    0.279973    0.488226    11.00000    0.01587    0.01627 =
         0.01336   -0.00343   -0.00377   -0.00011
C8    1    0.725373    0.355094    0.352321    11.00000    0.01370    0.01450 =
         0.01221   -0.00400   -0.00330   -0.00082
C9    1    0.810701    0.511016    0.314391    11.00000    0.01185    0.01504 =
         0.01234   -0.00431   -0.00308    0.00007
C10   1    0.919847    0.851300    0.444608    11.00000    0.02403    0.02156 =
         0.02349   -0.01243   -0.00824   -0.00127
AFIX 137
H10A  2    0.986843    0.953903    0.395981    11.00000   -1.50000
H10B  2    0.979372    0.781806    0.507193    11.00000   -1.50000
H10C  2    0.799934    0.881758    0.490397    11.00000   -1.50000
AFIX   0
C11   1    0.714263    0.277052    0.257696    11.00000    0.01271    0.01466 =
         0.01306   -0.00412   -0.00325    0.00002
AFIX  43
H11   2    0.767070    0.330346    0.169153    11.00000   -1.20000
AFIX   0
C12   1    0.606392    0.056991    0.194671    11.00000    0.01582    0.01410 =
         0.01459   -0.00492   -0.00426   -0.00130
AFIX  23
H12A  2    0.619226   -0.066942    0.225279    11.00000   -1.20000
H12B  2    0.696376    0.095868    0.110484    11.00000   -1.20000
AFIX   0
C13   1    0.421523    0.103594    0.178322    11.00000    0.01564    0.01779 =
         0.01864   -0.00598   -0.00528   -0.00194
AFIX  23
H13A  2    0.392043    0.029427    0.132524    11.00000   -1.20000
H13B  2    0.333940    0.085088    0.264480    11.00000   -1.20000
AFIX   0
C14   1    0.227977    0.344129    0.135992    11.00000    0.02470    0.03547 =
         0.03154   -0.01721   -0.01421    0.01247
AFIX 137
H14A  2    0.224162    0.461919    0.086079    11.00000   -1.50000
H14B  2    0.184572    0.337133    0.228453    11.00000   -1.50000
H14C  2    0.152994    0.277237    0.113708    11.00000   -1.50000
AFIX   0
C15   1    0.478784    0.297372   -0.032900    11.00000    0.03124    0.02292 =
         0.01919   -0.00522   -0.00911    0.00490
AFIX 137
H15A  2    0.477506    0.416952   -0.079278    11.00000   -1.50000
H15B  2    0.404566    0.235557   -0.059989    11.00000   -1.50000
H15C  2    0.600480    0.252114   -0.052577    11.00000   -1.50000
REM #####
AFIX   0
H1C   2    0.582938    0.088976    0.373969    11.00000    0.04131
HKLF 4




REM  SND29A_0m_a.res in P-1
REM R1 =  0.0392 for    3863 Fo > 4sig(Fo)  and  0.0441 for all    4351 data
REM    188 parameters refined using      0 restraints

END

WGHT      0.0610      0.1266

REM Highest difference peak  0.443,  deepest hole -0.210,  1-sigma level  0.044
Q1    1   0.6857  0.3192  0.4174  11.00000  0.05    0.44
Q2    1   0.7607  0.4320  0.3326  11.00000  0.05    0.44
Q3    1   0.8080  0.5522  0.3540  11.00000  0.05    0.39
Q4    1   0.5186  0.0778  0.1818  11.00000  0.05    0.38
Q5    1   0.8593  0.6719  0.3769  11.00000  0.05    0.37
Q6    1   0.6913  0.4569  0.5467  11.00000  0.05    0.37
Q7    1   0.9281  0.7915  0.2852  11.00000  0.05    0.37
Q8    1   0.7846  0.5607  0.4679  11.00000  0.05    0.36
Q9    1   0.9826  0.7691  0.1849  11.00000  0.05    0.36
Q10   1   0.7161  0.3209  0.3047  11.00000  0.05    0.35
Q11   1   0.6544  0.3430  0.5270  11.00000  0.05    0.35
Q12   1   0.4394  0.2862  0.0428  11.00000  0.05    0.32
Q13   1   0.6711  0.2067  0.2757  11.00000  0.05    0.32
Q14   1   0.9171  0.7952  0.3960  11.00000  0.05    0.30
Q15   1   0.4062  0.1897  0.1354  11.00000  0.05    0.28
Q16   1   0.6246  0.1037  0.2401  11.00000  0.05    0.27
Q17   1   0.3261  0.3058  0.1204  11.00000  0.05    0.26
Q18   1   0.8421  0.5484  0.2548  11.00000  0.05    0.23
Q19   1   0.9960  0.7534  0.0749  11.00000  0.05    0.22
Q20   1   0.9297  0.6482  0.1616  11.00000  0.05    0.22
;
_shelx_res_checksum              13445
_shelx_hkl_file
;
  -1   0   0  239.08    8.60
  -1   0   0  245.68    8.50
   1   0   0  250.97    8.50
   1   0   0  233.58    8.70
   1   0   0  254.87    8.60
  -2   0   0  964.70   33.10
  -2   0   0  953.20   32.90
  -2   0   0  951.80   32.50
   2   0   0  984.30   32.50
   2   0   0  931.11   32.70
   2   0   0  983.90   33.20
  -3   0   0 2820.52   92.99
   3   0   0 2786.72   93.29
   3   0   0 2674.03   92.59
  -4   0   0  215.48    9.40
  -4   0   0  218.88    9.50
  -4   0   0  228.28    8.60
   4   0   0  220.78    9.00
   4   0   0  214.98    9.80
   4   0   0  211.18    8.40
  -5   0   0 1309.77   44.00
  -5   0   0 1173.18   45.10
  -5   0   0 1330.77   45.50
   5   0   0 1281.07   43.70
   5   0   0 1287.27   44.50
  -6   0   0  415.06   17.30
  -6   0   0  414.16   15.80
  -6   0   0  419.66   17.40
   6   0   0  428.86   16.40
   6   0   0  406.06   15.40
  -7   0   0   38.50    4.00
   7   0   0   40.30    2.90
   7   0   0   41.10    3.40
  -8   0   0   27.30    3.60
   8   0   0   24.30    2.80
   8   0   0   21.70    2.30
  -9   0   0   24.40    4.00
   9   0   0   21.40    2.80
 -10   0   0   36.70    5.00
  10   0   0   28.20    3.50
 -11   0   0  174.58   11.50
 -11   1   0    1.40    2.30
  10  -1   0  160.58    9.30
 -10   1   0  184.68   11.10
   9  -1   0  170.68    9.10
  -9   1   0  155.68    9.80
   8  -1   0   77.19    4.50
   8  -1   0   77.99    5.50
  -8   1   0   72.99    6.00
   7  -1   0    5.70    1.80
  -7   1   0    5.80    2.00
   6  -1   0  214.88    9.20
  -6   1   0  230.58   10.60
   5  -1   0 2045.00   68.89
   5  -1   0 2058.69   67.79
  -5   1   0 1891.21   69.39
  -5   1   0 1977.90   68.89
   4  -1   0 3721.03  125.79
  -4   1   0 3745.73  126.39
  -2  -1   0    4.80    0.90
  -2  -1   0    5.00    0.50
  -2  -1   0    5.10    0.60
   2   1   0    4.70    0.60
   2   1   0    4.80    0.50
  -3  -1   0  365.96   13.80
  -3  -1   0  418.56   15.00
   3   1   0  370.56   13.60
  -4  -1   0   59.49    3.30
  -4  -1   0   51.99    3.00
  -4  -1   0   57.39    3.90
   4   1   0   50.79    2.80
   4   1   0   46.20    2.60
  -5  -1   0   22.90    2.70
  -5  -1   0   31.60    2.50
  -5  -1   0   20.50    2.10
   5   1   0   24.90    2.00
   5   1   0   22.30    1.80
  -6  -1   0  210.08   10.90
  -6  -1   0  221.38    9.50
  -6  -1   0  225.68   10.50
   6   1   0  246.88    9.60
   6   1   0  230.18    9.10
  -7  -1   0   70.69    5.70
  -7  -1   0   66.79    4.30
  -7  -1   0   73.19    5.20
   7   1   0   74.79    4.20
   7   1   0   86.89    4.60
  -8  -1   0    1.20    1.00
  -8  -1   0    2.90    1.80
   8   1   0    0.20    0.90
   8   1   0    1.20    1.00
  -9  -1   0  138.49    9.20
 -10  -1   0  107.59    8.40
 -11  -1   0  158.18   11.10
  10  -2   0   -1.50    1.50
 -10   2   0    1.80    2.30
   9  -2   0   56.69    6.30
  -9   2   0   57.49    5.40
   8  -2   0    6.10    1.90
  -8   2   0    6.50    2.00
   7  -2   0   13.40    2.10
   7  -2   0   12.20    2.40
  -7   2   0   15.80    2.70
   6  -2   0   67.49    4.20
   6  -2   0   69.59    5.00
  -6   2   0   69.89    4.90
   5  -2   0   54.69    4.10
   5  -2   0   52.19    3.30
  -5   2   0   49.20    3.90
   4  -2   0 1136.39   40.10
   4  -2   0 1121.09   39.20
   4  -2   0 1111.89   40.40
  -4   2   0 1156.78   39.80
  -4   2   0 1138.69   41.00
  -1  -2   0  274.57    9.70
  -1  -2   0  276.87   10.40
   1   2   0  289.87   10.60
   1   2   0  272.97    9.80
  -3  -2   0 1292.57   44.20
  -3  -2   0 1276.67   43.60
   3   2   0 1324.57   44.40
  -4  -2   0 5765.72  191.78
  -5  -2   0    1.60    0.90
  -5  -2   0    1.10    0.60
  -5  -2   0    0.10    0.70
   5   2   0    0.70    0.50
  -6  -2   0   11.30    2.40
  -6  -2   0   16.60    2.20
  -6  -2   0   15.70    2.00
   6   2   0   12.80    2.00
  -7  -2   0   15.00    2.30
  -7  -2   0   12.40    2.80
  -7  -2   0   11.40    2.10
   7   2   0   16.90    2.00
  -8  -2   0    2.40    1.60
  -8  -2   0    3.50    1.30
  -9  -2   0   23.90    4.20
  -9  -2   0   24.00    2.80
 -10  -2   0   17.80    3.90
  10  -3   0    1.30    2.00
 -10   3   0   -2.00    1.60
   9  -3   0   43.60    4.70
  -9   3   0   42.90    4.80
   8  -3   0   93.59    6.90
  -8   3   0  108.79    9.70
   7  -3   0    7.60    2.20
  -7   3   0   12.70    2.50
   5  -3   0  429.16   17.80
  -5   3   0  418.86   16.70
   4  -3   0   52.49    4.20
   4  -3   0   54.49    3.80
  -4   3   0   61.59    3.80
  -4   3   0   65.19    7.10
   3  -3   0  601.64   22.40
   3  -3   0  581.14   21.40
  -3   3   0  572.14   22.80
  -3   3   0  596.94   21.40
   2  -3   0  268.67   11.20
   2  -3   0  263.37   10.30
  -2   3   0  279.87   10.60
  -2   3   0  262.17   11.50
   1  -3   0  212.58    8.30
   1  -3   0  210.58    8.90
  -1   3   0  214.78    8.70
  -1   3   0  215.48    9.20
   0  -3   0  171.38    7.30
   0  -3   0  182.08    7.20
   0  -3   0  164.88    7.50
   0   3   0  174.98    7.40
   0   3   0  175.38    7.60
  -3  -3   0 1330.47   45.40
   3   3   0 1311.37   45.90
  -4  -3   0    5.00    1.10
  -4  -3   0    3.90    0.60
   4   3   0    3.10    1.00
  -5  -3   0   47.20    3.60
  -5  -3   0   47.90    3.30
  -5  -3   0   41.10    4.00
   5   3   0   47.20    3.40
  -6  -3   0  263.57   11.00
  -6  -3   0  285.17   13.70
  -6  -3   0  300.77   12.00
   6   3   0  270.07   11.80
  -7  -3   0   66.39    5.10
  -7  -3   0   59.29    4.00
  -7  -3   0   60.69    5.50
  -8  -3   0   26.20    3.10
  -8  -3   0   25.80    4.20
  -8  -3   0   27.30    2.80
  -9  -3   0   25.10    4.20
  -9  -3   0   32.30    3.40
 -10  -3   0    4.20    1.50
 -10  -3   0   -1.00    1.60
  10  -4   0  339.87   17.10
 -10   4   0  346.27   20.80
   9  -4   0   69.69    6.40
  -9   4   0   78.79    6.50
   8  -4   0    7.80    2.40
  -8   4   0    7.80    2.30
   7  -4   0  108.19    7.60
  -7   4   0  113.49    7.10
   6  -4   0   69.99    5.70
  -6   4   0   77.59    5.30
   5  -4   0  336.17   13.80
   5  -4   0  329.27   15.10
  -5   4   0  337.97   14.10
   4  -4   0    1.40    1.00
  -4   4   0    0.70    0.90
   3  -4   0  530.65   20.50
   3  -4   0  510.85   19.30
  -3   4   0  502.15   20.90
  -3   4   0  514.05   19.40
   2  -4   0   56.59    3.30
   2  -4   0   58.69    4.10
  -2   4   0   50.79    5.90
  -2   4   0   62.19    3.80
   1  -4   0    7.70    1.50
   1  -4   0    9.60    1.20
   1  -4   0    8.40    1.50
  -1   4   0    7.70    1.50
  -1   4   0    6.40    1.30
   0  -4   0   16.80    1.70
   0  -4   0   15.00    2.00
   0  -4   0   12.20    1.50
   0   4   0   12.80    1.60
  -2  -4   0 2132.99   69.79
  -2  -4   0 2040.70   71.29
   2   4   0 2086.09   71.99
  -3  -4   0   43.00    3.00
   3   4   0   40.90    3.30
  -4  -4   0 2380.36   79.59
   4   4   0 2288.27   80.29
  -5  -4   0  255.27   12.70
  -5  -4   0  250.87   10.80
  -6  -4   0    1.10    1.10
  -6  -4   0    3.00    1.70
  -7  -4   0  155.98    8.50
  -7  -4   0  180.08   10.60
  -8  -4   0   25.80    3.70
  -8  -4   0   27.70    4.70
  -9  -4   0   89.29    6.20
 -10  -4   0   11.70    2.30
 -10  -4   0   14.90    4.90
   9  -5   0   54.09    5.80
  -9   5   0   49.99    5.60
   8  -5   0    0.50    1.50
  -8   5   0   -1.30    1.50
   7  -5   0   17.70    3.50
  -7   5   0   15.10    2.90
   6  -5   0    1.80    1.60
  -6   5   0    3.00    1.40
   5  -5   0  257.17   12.70
  -5   5   0  247.18   11.60
   4  -5   0  145.59    8.40
  -4   5   0  142.79    7.60
   3  -5   0  129.69    7.60
  -3   5   0  137.49    7.20
   2  -5   0   27.70    2.90
   2  -5   0   26.00    3.00
   2  -5   0   26.80    2.30
  -2   5   0   27.20    3.00
  -2   5   0   27.30    2.80
   0  -5   0 1560.94   55.29
   0  -5   0 1597.34   55.19
   0   5   0 1627.54   55.79
  -1  -5   0  857.11   32.70
  -1  -5   0  896.51   32.80
  -1  -5   0  919.01   31.50
   1   5   0  913.11   32.00
  -2  -5   0  447.86   16.50
  -2  -5   0  475.95   18.40
  -2  -5   0  463.55   18.90
   2   5   0  473.85   16.80
  -3  -5   0  259.97   11.50
  -4  -5   0   76.69    4.70
  -5  -5   0   39.80    3.40
  -6  -5   0 1033.10   37.60
  -6  -5   0 1026.00   40.00
  -7  -5   0   30.90    3.60
  -8  -5   0   65.99    6.60
  -8  -5   0   67.19    5.60
  -9  -5   0   41.80    5.40
  -9  -5   0   37.30    4.50
 -10  -5   0    0.40    2.00
 -10  -5   0   -1.40    2.20
   9  -6   0   36.20    5.60
   9  -6   0   38.10    5.40
  -9   6   0   39.50    5.40
   8  -6   0   57.99    6.00
   8  -6   0   52.99    5.60
  -8   6   0   59.19    5.60
   7  -6   0   22.00    4.10
   7  -6   0   22.30    3.70
  -7   6   0   20.60    3.60
   6  -6   0   10.20    2.40
   6  -6   0   15.60    4.00
  -6   6   0    9.60    2.30
   5  -6   0  148.99    9.20
   5  -6   0  143.99    8.90
  -5   6   0  145.79    8.40
   4  -6   0  721.43   28.70
   4  -6   0  728.93   28.60
  -4   6   0  704.73   27.80
   3  -6   0  211.78   11.00
   3  -6   0  207.88   10.70
  -3   6   0  200.68   10.30
   2  -6   0  825.02   31.70
   2  -6   0  856.61   32.40
  -2   6   0  843.82   32.10
   1  -6   0  434.46   18.30
   1  -6   0  402.06   17.20
  -1   6   0  446.56   18.30
  -1   6   0  438.26   21.90
   0  -6   0  322.47   14.40
   0  -6   0  306.67   13.20
   0   6   0  339.57   15.50
  -1  -6   0   25.50    3.00
  -1  -6   0   27.30    2.30
   1   6   0   25.70    2.50
  -2  -6   0  161.58    6.70
  -2  -6   0  164.68    8.50
   2   6   0  163.08    7.10
  -3  -6   0   44.50    3.80
  -4  -6   0  589.14   22.80
  -5  -6   0  288.77   12.80
  -6  -6   0   12.70    2.50
  -6  -6   0   11.40    3.30
  -7  -6   0   83.49    7.50
  -7  -6   0   83.89    6.00
  -8  -6   0   90.19    6.80
  -8  -6   0  102.79   12.80
  -9  -6   0    0.00    2.70
   8  -7   0   12.30    3.00
   8  -7   0   15.30    5.30
  -8   7   0   17.70    3.80
   7  -7   0  122.29    8.70
   7  -7   0  119.09   10.60
  -7   7   0  117.69    8.40
   6  -7   0   31.00    4.40
   6  -7   0   25.20    4.20
  -6   7   0   36.80    4.30
   5  -7   0   11.60    2.80
  -5   7   0   11.80    2.80
   4  -7   0   76.79    6.10
   4  -7   0   63.39    5.90
  -4   7   0   68.49    5.70
   3  -7   0  441.56   18.70
   3  -7   0  405.26   18.90
  -3   7   0  421.16   18.80
   2  -7   0  326.27   15.50
   2  -7   0  326.37   14.80
  -2   7   0  329.47   15.50
   1  -7   0   67.89    4.90
   1  -7   0   61.49    5.50
   0  -7   0  556.74   21.10
   0  -7   0  517.85   22.30
   0   7   0  552.14   22.10
  -1  -7   0  315.27   14.80
  -1  -7   0  327.57   13.10
   1   7   0  327.47   13.90
  -2  -7   0  532.75   21.50
  -2  -7   0  550.34   19.20
   2   7   0  496.65   19.60
  -3  -7   0   53.09    2.40
  -3  -7   0   69.49    5.00
  -4  -7   0 1159.38   42.30
  -5  -7   0  178.88    9.40
  -6  -7   0   62.49    6.50
  -6  -7   0   64.79    5.20
  -7  -7   0   56.39    6.40
  -7  -7   0   58.59    7.80
  -8  -7   0    8.70    3.50
  -8  -7   0   16.30    3.40
  -9  -7   0   66.89    7.60
  -9  -7   0   50.19    6.30
   7  -8   0    7.50    3.40
  -7   8   0   10.50    3.10
   6  -8   0   38.80    8.40
   6  -8   0   46.70    5.60
  -6   8   0   40.60    5.10
   5  -8   0    5.70    3.70
   5  -8   0    4.60    2.00
  -5   8   0    9.10    2.80
   4  -8   0   13.40    5.00
   4  -8   0   19.00    3.90
  -4   8   0   13.60    3.30
   3  -8   0  461.25   20.00
   3  -8   0  440.96   20.60
  -3   8   0  450.15   20.70
   2  -8   0  146.59    8.60
   2  -8   0  146.19    9.40
  -2   8   0  135.39    9.30
   1  -8   0   82.09    5.70
   1  -8   0   74.89    6.40
   0  -8   0  491.25   21.50
   0  -8   0  496.55   19.80
  -1  -8   0    6.50    2.00
  -1  -8   0    9.10    1.80
   1   8   0    9.80    2.20
  -2  -8   0  932.51   33.40
  -2  -8   0  958.50   36.40
   2   8   0  968.60   34.30
  -3  -8   0    5.80    1.90
  -4  -8   0  137.09    8.20
  -5  -8   0    6.70    2.10
  -6  -8   0   62.49    5.50
  -7  -8   0  228.68   12.50
  -7  -8   0  246.68   14.80
  -8  -8   0  401.76   20.70
  -8  -8   0  389.46   20.90
   6  -9   0    3.90    2.80
  -6   9   0    5.30    2.70
   5  -9   0   11.90    3.50
   5  -9   0    8.40    3.20
  -5   9   0   12.10    3.30
   4  -9   0   57.49    6.40
   4  -9   0   57.39    5.90
  -4   9   0   55.89    6.20
   3  -9   0  371.06   18.40
   3  -9   0  391.26   17.90
  -3   9   0  341.97   21.00
   2  -9   0  274.07   13.60
   2  -9   0  271.57   14.70
   1  -9   0   10.50    2.50
   1  -9   0   13.20    3.10
   0  -9   0  563.74   24.10
   0  -9   0  530.25   21.60
  -1  -9   0  323.37   15.70
  -1  -9   0  310.57   13.50
  -2  -9   0  140.89    6.50
  -2  -9   0  147.29    9.20
  -3  -9   0   27.50    3.80
  -4  -9   0   12.50    2.90
  -5  -9   0  161.78    9.70
  -6  -9   0  141.89   11.50
  -7  -9   0   63.59    8.00
  -7  -9   0   77.99    6.90
   5 -10   0   21.60    4.30
  -5  10   0   25.70    5.20
   4 -10   0  170.68   10.70
   4 -10   0  159.58   11.30
   3 -10   0  257.97   15.40
   3 -10   0  260.77   13.80
   2 -10   0    1.30    2.30
   2 -10   0    0.40    1.40
   1 -10   0    9.30    2.80
   1 -10   0    9.40    2.40
   0 -10   0   44.10    4.10
   0 -10   0   47.20    5.50
  -1 -10   0   40.40    4.90
  -1 -10   0   38.80    3.50
  -2 -10   0    5.40    1.40
  -2 -10   0    3.40    2.50
  -3 -10   0   47.00    5.50
  -4 -10   0    1.10    1.70
  -5 -10   0  593.64   25.30
   3 -11   0  167.98   10.90
   3 -11   0  194.98   12.70
   2 -11   0  140.99    9.20
   1 -11   0    4.20    2.90
   1 -11   0   -1.10    1.70
   0 -11   0    1.60    1.60
   0 -11   0    0.20    1.90
  -1 -11   0   31.10    3.50
  -1 -11   0   35.90    6.30
  -3 -11   0  434.76   20.40
  -3 -11   1  106.29    8.50
  -2 -11   1  104.79    8.30
  -1 -11   1  119.69    9.10
   0 -11   1   52.39    6.30
   0 -11   1   45.10    4.10
   1 -11   1   24.30    3.60
   1 -11   1   28.40    5.20
   2 -11   1   99.59    8.20
   2 -11   1   69.49    6.20
  -5 -10   1   21.10    4.30
  -4 -10   1  333.17   16.50
  -3 -10   1  543.45   23.70
  -2 -10   1    0.50    1.60
  -1 -10   1    1.50    2.10
  -1 -10   1    4.80    1.40
   0 -10   1   31.40    3.40
   1 -10   1   89.99    6.20
   1 -10   1   98.69   12.30
   2 -10   1  899.41   38.80
   2 -10   1  919.51   35.00
   3 -10   1  159.48   10.90
   3 -10   1  160.58    9.60
  -4  10  -1   70.39    7.80
   4 -10   1   67.09    6.80
   4 -10   1   67.59    6.40
  -5  10  -1    3.50    3.10
   5 -10   1    0.80    2.50
  -6  -9   1  237.08   12.90
  -5  -9   1  119.49    9.20
  -4  -9   1   16.00    3.20
  -3  -9   1   93.39    7.00
   2   9  -1    0.60    2.30
  -2  -9   1    1.40    1.40
  -1  -9   1  248.38   10.70
  -1  -9   1  264.17   13.50
   0  -9   1  405.06   16.10
   0  -9   1  375.66   18.20
   1  -9   1    2.70    1.50
   1  -9   1    5.10    2.10
   2  -9   1  607.04   24.30
   2  -9   1  582.64   25.80
  -3   9  -1   -1.20    1.70
   3  -9   1   -0.30    1.30
   3  -9   1    0.60    1.80
  -4   9  -1    2.70    2.40
   4  -9   1    5.60    2.10
   4  -9   1    1.70    1.80
  -5   9  -1  137.09   10.80
   5  -9   1  144.19    9.80
   5  -9   1  134.79   10.00
  -6   9  -1    1.40    2.70
   6  -9   1    5.10    2.70
   6  -9   1   11.90    5.10
  -7  -8   1   84.69    8.70
  -7  -8   1   78.49   10.00
  -6  -8   1    1.50    1.80
  -5  -8   1    0.20    1.60
  -4  -8   1   14.80    2.80
  -3  -8   1   70.89    5.80
   2   8  -1   21.70    2.50
  -2  -8   1   27.70    3.60
  -2  -8   1   25.80    1.90
   1   8  -1   58.99    4.50
  -1  -8   1   55.09    3.60
  -1  -8   1   58.79    5.20
   0  -8   1  951.60   37.00
   0  -8   1  970.10   34.80
   1  -8   1   52.59    4.30
   1  -8   1   48.70    5.10
  -2   8  -1   57.99    5.90
   2  -8   1   65.99    5.90
   2  -8   1   64.99    5.00
  -3   8  -1  194.88   12.00
   3  -8   1  221.28   11.20
   3  -8   1  206.58   11.80
  -4   8  -1    4.90    2.60
   4  -8   1    1.10    2.80
   4  -8   1    3.80    1.80
  -5   8  -1   79.49    7.10
   5  -8   1   82.69    6.70
  -6   8  -1   62.89    6.40
   6  -8   1   62.89    6.10
   6  -8   1   58.89    7.50
  -7   8  -1   30.30    4.90
   7  -8   1   36.30    4.80
   7  -8   1   34.40    4.80
  -8  -7   1  246.28   13.50
  -7  -7   1   89.49    7.00
  -7  -7   1   99.59    9.10
  -6  -7   1    3.00    2.00
  -5  -7   1  141.19    8.30
  -4  -7   1  171.08    9.20
  -3  -7   1  150.18    8.40
   2   7  -1 1177.18   38.70
  -2  -7   1 1138.79   41.00
  -2  -7   1 1019.50   37.70
   1   7  -1    0.90    0.80
  -1  -7   1    1.70    0.90
  -1  -7   1    0.40    0.90
   0   7  -1   12.30    2.20
   0  -7   1    7.90    2.00
   0  -7   1    9.70    1.70
   1  -7   1  129.99    7.20
   1  -7   1  133.59    8.20
  -2   7  -1  107.29    7.60
   2  -7   1  100.99    7.00
   2  -7   1   88.09    6.10
  -3   7  -1   65.09    5.90
   3  -7   1   65.49    5.70
   3  -7   1   70.79    5.50
  -4   7  -1  346.47   16.60
   4  -7   1  349.37   16.10
   4  -7   1  341.67   16.30
  -5   7  -1  269.87   14.20
   5  -7   1  297.17   14.50
  -6   7  -1    9.40    2.70
   6  -7   1   11.90    2.90
   6  -7   1   18.20    3.50
  -7   7  -1   55.59    5.70
   7  -7   1   54.89    6.10
   7  -7   1   51.09    5.50
  -8   7  -1   11.20    3.30
   8  -7   1   10.30    3.40
   8  -7   1    9.00    4.10
  -9  -6   1   11.20    3.60
  -9  -6   1   15.30    3.80
  -8  -6   1   -0.80    2.00
  -8  -6   1    4.70    2.40
  -7  -6   1  171.48    9.70
  -7  -6   1  160.18   11.20
  -6  -6   1   26.30    4.60
  -6  -6   1   28.70    3.70
  -5  -6   1   12.40    2.40
  -4  -6   1   39.40    3.70
  -3  -6   1  148.09    7.90
   2   6  -1  199.08    7.70
  -2  -6   1  186.08    9.30
  -2  -6   1  178.88    7.10
   1   6  -1  523.15   20.20
  -1  -6   1  543.35   19.40
   0   6  -1 1824.22   64.49
   0  -6   1 1767.72   64.89
   0  -6   1 1941.71   63.59
  -1   6  -1   16.00    3.00
  -1   6  -1   17.10    2.80
   1  -6   1   17.30    2.80
   1  -6   1   17.10    2.20
  -2   6  -1  115.69    7.60
   2  -6   1  131.79    7.20
   2  -6   1  129.49    7.70
  -3   6  -1 3782.72  125.19
   3  -6   1 3581.94  124.79
   3  -6   1 3544.35  124.39
  -4   6  -1  169.08    9.40
   4  -6   1  171.58    9.70
   4  -6   1  178.78    9.80
  -5   6  -1   19.80    3.30
   5  -6   1   21.70    3.70
   5  -6   1   26.40    3.60
  -6   6  -1  120.59    7.80
   6  -6   1  114.79    9.50
   6  -6   1  115.69    7.80
  -7   6  -1  122.79    8.20
   7  -6   1  108.69    8.20
   7  -6   1  125.99    8.10
  -8   6  -1    4.80    2.50
   8  -6   1    5.30    2.20
   8  -6   1    6.70    2.70
  -9   6  -1    2.80    2.20
   9  -6   1   -1.60    2.00
   9  -6   1    0.30    2.20
  -9  -5   1    3.00    2.80
  -9  -5   1    3.80    2.30
  -8  -5   1    2.80    2.20
  -8  -5   1    5.70    2.60
  -7  -5   1  248.48   12.40
  -7  -5   1  255.57   14.20
  -6  -5   1   16.90    3.50
  -6  -5   1   15.10    2.70
  -5  -5   1  184.28    9.20
  -4  -5   1   41.20    3.50
  -3  -5   1    5.00    1.40
   2   5  -1  585.44   20.20
  -2  -5   1  602.84   22.60
  -2  -5   1  552.84   19.70
   1   5  -1  115.39    5.90
  -1  -5   1  142.79    9.20
  -1  -5   1  124.59    6.80
  -1  -5   1  131.59    5.50
   0   5  -1  495.65   19.60
   0  -5   1  534.05   20.30
   0  -5   1  518.85   19.80
   0  -5   1  498.85   18.90
  -1   5  -1 1062.09   38.30
  -1   5  -1 1079.39   39.40
   1  -5   1 1042.40   37.90
   1  -5   1  974.90   36.80
   1  -5   1 1046.90   37.00
  -2   5  -1  424.16   17.00
  -2   5  -1  377.16   16.90
   2  -5   1  402.86   16.30
   2  -5   1  407.36   16.80
  -3   5  -1 1920.81   68.99
   3  -5   1 2007.90   69.49
   3  -5   1 2018.00   69.39
  -4   5  -1   65.89    4.80
   4  -5   1   62.89    5.00
  -5   5  -1   33.80    3.60
   5  -5   1   33.50    3.70
   5  -5   1   41.70    4.10
  -6   5  -1  101.09    6.70
   6  -5   1   95.09    6.60
   6  -5   1  102.99    7.20
  -7   5  -1    9.20    2.40
   7  -5   1    6.20    2.20
   7  -5   1    5.00    2.10
  -8   5  -1   17.90    3.20
   8  -5   1   15.50    3.10
   8  -5   1   26.20    4.20
  -9   5  -1   52.39    5.60
   9  -5   1   52.69    5.30
   9  -5   1   51.39    5.80
 -10   5  -1   48.70    5.90
 -10  -4   1   55.39    7.50
 -10  -4   1   53.29    6.50
  -9  -4   1    6.00    3.00
  -9  -4   1    7.30    2.20
  -8  -4   1   56.49    5.10
  -8  -4   1   53.09    6.00
  -7  -4   1   12.20    3.00
  -7  -4   1   11.00    2.50
  -6  -4   1  267.37   12.30
  -6  -4   1  280.97   14.20
  -5  -4   1   16.40    3.00
  -5  -4   1   22.30    2.60
  -4  -4   1  100.09    5.50
   3   4  -1  130.19    6.90
  -3  -4   1  127.39    6.40
   2   4  -1  690.63   26.80
  -2  -4   1  752.72   26.40
   1   4  -1 1050.59   36.10
   1   4  -1 1031.00   37.60
  -1  -4   1 1068.29   37.10
  -1  -4   1 1032.90   35.60
  -1   4  -1 1122.79   39.90
  -1   4  -1 1176.28   40.30
   1  -4   1 1118.39   39.30
   1  -4   1 1129.59   40.00
   1  -4   1 1076.89   39.30
  -2   4  -1 1355.16   51.29
   2  -4   1 1492.15   51.79
   2  -4   1 1530.45   51.59
   2  -4   1 1519.85   50.89
  -3   4  -1   40.30    3.70
  -3   4  -1   40.50    3.30
   3  -4   1   43.90    3.10
   3  -4   1   42.60    3.50
   3  -4   1   46.10    3.60
  -4   4  -1  107.99    6.00
   4  -4   1  110.99    6.60
  -5   4  -1 1565.74   54.69
   5  -4   1 1537.55   55.59
  -6   4  -1   22.00    2.80
   6  -4   1   17.10    3.20
  -7   4  -1 1276.47   45.90
   7  -4   1 1231.68   46.60
  -8   4  -1  120.79    8.00
   8  -4   1  132.59    8.60
  -9   4  -1  177.08   10.40
   9  -4   1  160.58    9.00
   9  -4   1  164.28   10.30
 -10   4  -1  126.09   11.20
  10  -4   1  136.69    9.30
 -10  -3   1   16.30    6.20
 -10  -3   1   23.70    3.20
  -9  -3   1    4.30    1.70
  -9  -3   1    2.10    2.50
  -8  -3   1   91.99    6.20
  -8  -3   1   92.29    7.40
  -8  -3   1   87.99    5.00
  -7  -3   1    5.50    1.90
  -7  -3   1   10.90    2.90
  -7  -3   1    5.00    1.20
  -6  -3   1    0.10    1.00
  -6  -3   1    0.30    1.20
   5   3  -1    3.90    1.00
  -5  -3   1    2.60    1.10
  -5  -3   1    3.70    1.50
   4   3  -1   12.10    1.60
  -4  -3   1    6.50    1.30
   3   3  -1   16.50    1.90
  -3  -3   1   19.50    1.90
   2   3  -1 1827.52   62.09
  -2  -3   1 1791.32   61.59
   1   3  -1   87.39    3.80
  -1  -3   1  102.19    4.70
  -1  -3   1   85.39    4.90
  -1  -3   1   86.99    3.60
  -2   3  -1 2082.59   69.49
  -2   3  -1 2034.40   70.09
   2  -3   1 2064.19   69.69
   2  -3   1 2075.19   69.79
   2  -3   1 1940.61   68.99
  -3   3  -1    0.50    0.70
  -3   3  -1   -0.50    0.60
   3  -3   1    0.40    0.70
   3  -3   1    1.00    1.10
  -4   3  -1 1888.91   65.49
   4  -3   1 1946.01   66.39
   4  -3   1 1884.91   65.69
  -5   3  -1 2532.25   85.39
   5  -3   1 2430.86   84.59
   5  -3   1 2514.05   86.19
  -6   3  -1 3710.23  127.79
   6  -3   1 3812.92  128.59
  -7   3  -1  323.67   14.50
   7  -3   1  322.07   14.90
   7  -3   1  325.07   13.30
  -8   3  -1  189.28   12.70
   8  -3   1  187.08   10.20
   8  -3   1  173.78    8.70
  -9   3  -1   14.50    3.30
   9  -3   1   13.80    3.10
 -10   3  -1   34.30    4.60
  10  -3   1   32.60    4.80
 -10  -2   1    0.40    2.10
  -9  -2   1  667.43   28.00
  -9  -2   1  628.04   25.00
  -8  -2   1    4.40    2.20
  -8  -2   1    3.80    1.50
  -7  -2   1  207.88   10.40
  -7  -2   1  246.38   10.90
  -7  -2   1  248.58   12.50
   6   2  -1   -0.80    0.70
   6   2  -1    1.20    0.60
  -6  -2   1    0.10    0.80
  -6  -2   1    1.80    1.30
  -6  -2   1    1.20    1.40
   5   2  -1   14.60    1.20
   5   2  -1   13.10    1.60
  -5  -2   1   10.90    2.10
  -5  -2   1   11.60    1.60
  -5  -2   1   17.90    2.30
   4   2  -1  233.18    7.90
   4   2  -1  206.48    8.80
  -4  -2   1  217.68   10.40
  -4  -2   1  214.88    9.10
  -4  -2   1  206.98    8.40
   3   2  -1  365.96   13.70
  -3  -2   1  378.76   13.80
  -3  -2   1  351.86   12.70
   2   2  -1   45.60    2.70
  -2  -2   1   47.00    2.60
   1   2  -1 1156.68   38.60
   1   2  -1 1145.99   39.70
  -1  -2   1 1168.78   39.50
   0   2  -1  603.24   22.10
   0   2  -1  630.14   22.00
   0   2  -1  653.13   21.40
   0  -2   1  600.54   21.20
   0  -2   1  603.64   21.90
  -2   2  -1  230.68    9.10
   2  -2   1  244.68    9.10
   2  -2   1  224.18    9.40
  -3   2  -1  165.68    7.70
  -3   2  -1  164.38    7.00
   3  -2   1  152.78    7.00
   3  -2   1  161.88    7.40
   5  -2   1 1342.87   48.50
   5  -2   1 1398.16   47.10
  -6   2  -1  137.29    7.40
   6  -2   1  132.69    7.40
   6  -2   1  136.39    6.40
  -7   2  -1  248.98   11.90
   7  -2   1  236.48   10.30
   7  -2   1  261.67   11.90
  -8   2  -1  126.69    8.10
   8  -2   1  142.59    8.10
   8  -2   1  128.59    7.50
  -9   2  -1   33.70    4.30
   9  -2   1   30.50    4.90
 -10   2  -1    7.90    2.90
  10  -2   1    7.90    2.40
 -11   2  -1    3.60    2.60
  11  -2   1    4.00    2.40
 -10  -1   1   83.99    7.70
   9   1  -1 1752.82   61.69
  -9  -1   1 1810.52   65.39
   8   1  -1   56.39    4.10
  -8  -1   1   67.19    6.10
  -8  -1   1   62.29    4.60
   7   1  -1  284.77   11.80
  -7  -1   1  276.67   13.80
  -7  -1   1  297.17   12.40
  -7  -1   1  292.87   13.20
   6   1  -1  323.47   14.30
   6   1  -1  402.56   14.70
  -6  -1   1  386.76   15.20
  -6  -1   1  393.56   15.80
  -6  -1   1  398.26   16.80
   5   1  -1  407.66   15.70
   5   1  -1  438.66   15.80
  -5  -1   1  436.76   16.40
  -5  -1   1  422.16   19.00
  -5  -1   1  410.46   16.50
   4   1  -1  485.85   18.20
   4   1  -1  513.45   18.40
  -4  -1   1  516.05   18.90
  -4  -1   1  550.04   19.00
  -4  -1   1  484.35   19.70
   3   1  -1   93.49    4.30
   3   1  -1   99.69    4.20
  -3  -1   1   93.79    4.60
  -3  -1   1   92.19    4.50
  -3  -1   1   99.99    5.30
   2   1  -1  653.23   22.70
   2   1  -1  631.44   22.30
  -2  -1   1  680.23   22.90
  -2  -1   1  658.43   22.50
   0  -1   1  849.12   28.80
   0  -1   1  851.11   29.10
  -3   1  -1 2462.25   86.09
   3  -1   1 2651.14   85.89
   3  -1   1 2513.35   85.79
  -4   1  -1  190.78    8.40
  -4   1  -1  181.68    8.70
   4  -1   1  197.78    7.50
   4  -1   1  183.38    8.50
   4  -1   1  200.58    8.50
  -5   1  -1  114.69    6.30
  -5   1  -1  128.69    6.90
   5  -1   1  112.39    6.10
   5  -1   1  129.49    5.40
  -6   1  -1   23.80    2.90
   6  -1   1   18.10    2.40
   6  -1   1   24.80    2.00
  -7   1  -1    4.80    1.70
   7  -1   1    5.00    1.10
   7  -1   1    5.70    1.70
  -8   1  -1   25.20    3.50
   8  -1   1   26.30    2.30
   8  -1   1   34.70    3.40
  -9   1  -1    6.10    2.40
   9  -1   1    5.40    1.70
   9  -1   1    1.70    1.60
 -10   1  -1   35.30    4.60
  10  -1   1   32.30    3.90
 -11   1  -1    9.80    3.20
  10   0  -1  652.23   25.80
 -10   0   1  684.03   28.70
   9   0  -1   39.50    3.70
  -9   0   1   34.40    4.50
   8   0  -1    0.90    1.20
  -8   0   1    2.00    1.60
   7   0  -1   98.79    5.30
   7   0  -1  108.79    6.10
  -7   0   1  109.59    6.00
  -7   0   1  100.19    6.90
   6   0  -1    3.90    1.10
   6   0  -1    3.20    1.10
  -6   0   1    4.00    1.60
  -6   0   1    9.20    1.70
  -6   0   1    0.60    1.10
   5   0  -1  884.61   32.60
   5   0  -1  917.81   32.10
  -5   0   1  945.91   32.50
  -5   0   1  910.61   33.50
  -5   0   1  908.11   33.60
   4   0  -1  112.89    5.50
   4   0  -1  112.59    5.20
  -4   0   1  116.99    6.10
  -4   0   1  119.49    5.50
  -4   0   1  109.79    5.90
   3   0  -1  591.44   21.30
   3   0  -1  580.54   21.90
   3   0  -1  637.14   21.10
  -3   0   1  568.64   21.70
  -3   0   1  597.94   21.20
  -3   0   1  588.94   21.60
   2   0  -1 1253.57   39.50
   2   0  -1 1134.59   39.60
  -2   0   1 1133.29   39.80
  -2   0   1 1125.09   39.90
  -2   0   1 1160.88   39.50
  -3   0  -1  214.08    8.80
  -3   0  -1  209.98    7.80
  -3   0  -1  226.48    8.80
   3   0   1  201.18    8.40
   3   0   1  242.08    9.10
   3   0   1  222.28    7.80
  -4   0  -1 4604.94  154.38
  -5   0  -1   51.59    3.70
  -5   0  -1   53.89    3.80
   5   0   1   50.29    2.60
   5   0   1   49.80    3.30
   5   0   1   47.80    3.80
  -6   0  -1    4.80    1.60
  -6   0  -1   10.50    2.00
   6   0   1    7.70    1.50
   6   0   1    9.00    1.20
  -7   0  -1  177.68    9.50
   7   0   1  182.38    8.60
   7   0   1  180.58    7.30
  -8   0  -1  382.66   16.70
   8   0   1  341.27   13.50
   8   0   1  373.66   15.20
  -9   0  -1   31.30    4.00
   9   0   1   30.80    3.40
   9   0   1   27.50    2.50
 -10   0  -1   87.99    7.70
 -11   0  -1    9.80    3.10
  10  -1  -1   64.29    5.30
 -10   1   1   49.90    5.90
   9  -1  -1    5.80    2.00
  -9   1   1    7.90    2.80
   8  -1  -1    1.30    1.30
  -8   1   1   -0.10    1.60
   7  -1  -1    1.80    1.00
   7  -1  -1    3.40    1.30
  -7   1   1    0.90    1.20
   6  -1  -1   13.90    2.00
  -6   1   1    3.00    1.50
   5  -1  -1    5.10    1.50
   5  -1  -1    6.80    1.30
  -5   1   1    8.20    1.70
  -5   1   1    4.70    1.60
   4  -1  -1 1520.15   53.59
   4  -1  -1 1697.13   58.19
   4  -1  -1 1540.95   52.89
  -4   1   1 1362.56   52.69
  -4   1   1 1596.54   53.49
  -4   1   1 1561.24   54.19
   3  -1  -1  589.84   21.70
   3  -1  -1  596.64   21.90
   3  -1  -1  576.54   21.20
  -3   1   1  577.94   22.10
  -3   1   1  611.34   21.30
  -3   1   1  619.04   21.60
   2  -1  -1  647.74   22.90
   2  -1  -1  657.03   23.60
   2  -1  -1  656.03   23.10
  -2   1   1  656.63   23.00
  -2   1   1  674.63   23.70
   0  -1  -1   90.09    3.10
   0   1   1   82.89    3.60
   0   1   1   84.69    3.10
  -3  -1  -1    0.60    0.50
  -3  -1  -1    0.30    0.30
  -3  -1  -1    1.50    0.40
   3   1   1    0.30    0.40
   3   1   1    0.80    0.30
   3   1   1    0.20    0.20
  -4  -1  -1 4399.26  142.49
   4   1   1 4116.99  143.49
  -5  -1  -1   35.10    2.80
  -5  -1  -1   34.40    2.30
  -5  -1  -1   37.60    3.30
   5   1   1   31.80    2.00
   5   1   1   35.20    2.40
   5   1   1   36.60    3.30
  -6  -1  -1 3778.62  127.19
  -6  -1  -1 3710.73  129.29
  -6  -1  -1 3737.13  129.19
   6   1   1 3755.02  126.79
   6   1   1 4013.80  127.69
  -7  -1  -1  157.08    8.90
  -7  -1  -1  162.18    7.00
   7   1   1  154.18    7.30
   7   1   1  152.68    6.60
  -8  -1  -1    7.30    2.20
   8   1   1    9.10    1.40
  -9  -1  -1   26.20    4.30
 -10  -1  -1  153.18   10.10
 -11  -1  -1   57.19    6.50
  10  -2  -1    3.00    1.80
 -10   2   1   -0.30    2.10
   9  -2  -1   48.20    5.10
  -9   2   1   46.90    5.10
   8  -2  -1  161.88    9.10
  -8   2   1  155.58    9.20
   7  -2  -1   64.79    5.10
  -7   2   1   62.19    5.10
   6  -2  -1  677.63   26.60
   6  -2  -1  686.23   25.50
  -6   2   1  696.43   26.30
   5  -2  -1   36.50    2.90
   5  -2  -1   33.70    3.40
  -5   2   1   35.70    3.80
   4  -2  -1  238.38   10.50
   4  -2  -1  209.18    9.80
   4  -2  -1  229.98    9.50
  -4   2   1  221.18   10.70
  -4   2   1  240.18    9.80
   3  -2  -1   14.60    1.60
   3  -2  -1   14.30    1.90
   3  -2  -1   13.30    1.50
  -3   2   1   14.00    1.60
  -3   2   1   14.80    1.90
   2  -2  -1 2563.44   86.19
   2  -2  -1 2576.14   87.29
   1  -2  -1  388.76   15.40
   1  -2  -1  403.76   15.30
  -1   2   1  439.16   14.90
  -1   2   1  414.06   15.50
  -2  -2  -1  398.96   14.00
   2   2   1  382.56   14.20
  -3  -2  -1  573.24   18.60
  -3  -2  -1  538.55   20.00
  -3  -2  -1  513.25   18.70
   3   2   1  518.45   19.00
  -4  -2  -1  175.88    7.00
  -4  -2  -1  169.08    8.20
  -4  -2  -1  177.78    7.00
   4   2   1  168.18    7.10
  -5  -2  -1 3773.82  129.69
  -5  -2  -1 3880.31  129.39
  -5  -2  -1 4029.90  131.59
   5   2   1 3790.12  129.39
  -6  -2  -1    2.30    1.00
  -6  -2  -1    1.60    0.80
  -6  -2  -1    1.60    1.10
   6   2   1    0.90    0.70
  -7  -2  -1  182.18    8.10
  -7  -2  -1  193.38    9.10
  -7  -2  -1  176.78   10.00
   7   2   1  181.48    8.00
  -8  -2  -1  284.67   14.00
  -8  -2  -1  270.97   11.30
   8   2   1  272.27   12.80
  -9  -2  -1   52.09    5.50
  -9  -2  -1   57.19    3.80
   9   2   1   52.39    4.90
 -10  -2  -1   -0.10    1.90
 -11  -2  -1  161.38   11.10
  10  -3  -1  250.47   13.40
 -10   3   1  242.48   13.40
   9  -3  -1    7.80    2.40
  -9   3   1   -1.90    1.40
   8  -3  -1  616.44   25.50
   7  -3  -1   64.59    5.40
  -7   3   1   56.89    4.80
   6  -3  -1    0.50    1.20
  -6   3   1    2.00    1.30
   5  -3  -1  235.68   10.50
   5  -3  -1  249.58   11.90
  -5   3   1  255.37   10.90
   4  -3  -1  180.98    9.20
   4  -3  -1  184.38    8.50
   4  -3  -1  173.48    8.30
  -4   3   1  186.08    8.10
   3  -3  -1  919.31   31.80
   3  -3  -1  891.81   33.00
  -3   3   1  913.21   31.60
  -3   3   1  873.11   33.30
   2  -3  -1  193.88    9.10
   2  -3  -1  207.88    8.10
  -2   3   1  204.18    8.00
  -2   3   1  192.08    9.30
   1  -3  -1   27.50    2.40
   1  -3  -1   31.30    1.80
  -1   3   1   27.10    2.40
  -1   3   1   26.90    1.90
   0  -3  -1 1948.80   64.29
   0  -3  -1 1935.41   63.59
   0   3   1 1964.90   64.39
   0   3   1 1691.03   63.69
  -1  -3  -1  198.38    8.60
  -1  -3  -1  206.18    9.00
   1   3   1  213.28    8.80
  -2  -3  -1 1576.64   54.69
  -2  -3  -1 1542.95   55.29
   2   3   1 1744.13   55.79
  -4  -3  -1  120.79    6.80
  -4  -3  -1  128.29    5.60
   4   3   1  122.79    6.00
  -5  -3  -1   77.79    4.10
  -5  -3  -1   77.79    3.80
  -5  -3  -1   66.79    5.10
   5   3   1   76.19    4.40
  -6  -3  -1  930.61   32.20
  -6  -3  -1  904.51   32.00
  -6  -3  -1  895.21   34.30
   6   3   1  873.21   32.30
  -7  -3  -1   20.10    3.30
  -7  -3  -1   17.50    2.40
  -7  -3  -1   16.00    2.20
   7   3   1   17.50    2.20
  -8  -3  -1   99.29    5.80
  -8  -3  -1   94.59    5.50
  -8  -3  -1   95.59    7.30
   8   3   1   82.79    5.50
  -9  -3  -1    0.40    1.70
 -10  -3  -1   66.69    7.00
 -10  -3  -1   77.29    4.80
 -11  -3  -1    2.60    2.60
  10  -4  -1  457.15   21.80
   9  -4  -1   62.99    6.30
  -9   4   1   71.19    6.40
   8  -4  -1  108.29    7.90
  -8   4   1  106.69    7.20
   7  -4  -1   55.09    5.40
  -7   4   1   60.39    4.90
   6  -4  -1  523.15   22.20
  -6   4   1  523.55   20.80
   5  -4  -1    9.40    2.30
  -5   4   1    8.50    1.80
   4  -4  -1  167.68    9.10
  -4   4   1  172.88    8.00
   3  -4  -1  438.56   18.50
   3  -4  -1  438.76   17.10
  -3   4   1  461.05   17.20
  -3   4   1  476.45   20.70
   2  -4  -1  994.60   35.50
   2  -4  -1 1002.30   33.90
  -2   4   1  936.51   35.70
  -2   4   1  946.11   34.10
   1  -4  -1  131.59    5.80
   1  -4  -1  132.99    6.90
  -1   4   1  122.49    6.90
  -1   4   1  152.98    6.60
   0  -4  -1  464.55   17.90
   0  -4  -1  459.15   17.30
   0   4   1  477.45   18.10
   0   4   1  485.45   17.90
  -1  -4  -1 1976.30   67.29
  -1  -4  -1 1986.90   67.69
   1   4   1 1967.80   67.29
  -2  -4  -1 3692.53  123.59
  -3  -4  -1  335.97   12.40
  -3  -4  -1  331.47   13.40
   3   4   1  360.56   14.10
  -4  -4  -1    2.50    0.80
  -4  -4  -1    2.30    0.60
  -4  -4  -1    3.00    0.50
  -5  -4  -1  112.19    4.70
  -5  -4  -1  109.79    4.80
  -5  -4  -1  111.89    5.70
  -5  -4  -1  123.29    7.40
   5   4   1  119.49    6.40
  -6  -4  -1   14.90    2.10
  -6  -4  -1   14.40    2.80
  -6  -4  -1   18.00    1.70
   6   4   1   16.30    2.30
  -7  -4  -1   26.20    3.80
  -7  -4  -1   23.20    2.20
  -7  -4  -1   20.90    3.70
  -8  -4  -1  296.87   12.80
  -8  -4  -1  296.67   15.10
  -8  -4  -1  278.17   11.70
  -9  -4  -1  314.87   13.90
  -9  -4  -1  325.77   16.80
 -10  -4  -1    3.00    2.70
 -10  -4  -1    5.70    1.70
   9  -5  -1   86.29    7.40
  -9   5   1   82.89    6.80
   8  -5  -1   39.00    4.70
  -8   5   1   43.60    4.60
   7  -5  -1    8.40    2.60
  -7   5   1   12.40    2.60
   6  -5  -1    2.90    1.90
  -6   5   1    6.10    1.90
   5  -5  -1  834.62   32.90
  -5   5   1  842.52   31.20
   4  -5  -1  141.49    8.40
  -4   5   1  139.89    7.30
   3  -5  -1   94.59    5.40
   3  -5  -1  112.99    6.90
  -3   5   1  107.59    5.90
   2  -5  -1  279.37   11.20
   2  -5  -1  279.07   12.70
  -2   5   1  279.17   11.90
  -2   5   1  279.57   13.40
   1  -5  -1  228.48    9.20
   1  -5  -1  220.78   10.30
  -1   5   1  212.78    9.90
  -1   5   1  223.48   10.60
   0  -5  -1  379.16   16.00
   0  -5  -1  371.96   14.70
   0  -5  -1  375.86   15.30
   0   5   1  402.26   15.80
  -1  -5  -1 4149.18  140.69
  -1  -5  -1 4201.88  141.79
  -1  -5  -1 4438.16  141.39
   1   5   1 3961.70  140.79
  -2  -5  -1  300.37   11.60
  -2  -5  -1  309.57   12.80
  -2  -5  -1  291.07   12.80
   2   5   1  288.77   11.50
  -3  -5  -1  488.25   18.90
  -3  -5  -1  499.25   19.10
  -4  -5  -1  281.17   11.80
  -5  -5  -1  143.89    8.60
  -5  -5  -1  134.59    7.20
  -6  -5  -1  102.69    7.50
  -6  -5  -1  101.89    5.80
  -7  -5  -1  224.78   12.50
  -7  -5  -1  216.68   10.40
  -8  -5  -1  464.85   21.70
  -8  -5  -1  462.15   19.10
  -9  -5  -1   54.09    5.10
  -9  -5  -1   77.89    7.50
 -10  -5  -1    3.60    3.10
 -10  -5  -1    8.90    2.30
   9  -6  -1   15.90    3.80
  -9   6   1   19.30    4.00
   8  -6  -1  156.18   10.60
  -8   6   1  156.58    9.70
   7  -6  -1  599.24   25.60
  -7   6   1  545.15   23.50
   6  -6  -1    8.40    2.90
  -6   6   1    7.40    2.10
   5  -6  -1   27.70    4.40
  -5   6   1   35.70    3.70
   4  -6  -1  165.98    9.70
  -4   6   1  163.48    8.70
   3  -6  -1  584.14   23.80
  -3   6   1  574.64   22.70
   2  -6  -1  204.38   11.00
   2  -6  -1  205.38   10.60
  -2   6   1  224.18   10.50
   1  -6  -1   47.70    4.40
   1  -6  -1   51.89    4.20
   1  -6  -1   46.40    3.30
  -1   6   1   44.90    4.00
  -1   6   1   52.39    5.10
   0  -6  -1  357.16   15.30
   0  -6  -1  345.87   13.90
   0  -6  -1  322.17   14.20
   0   6   1  337.57   14.70
  -1  -6  -1  257.47   12.00
  -1  -6  -1  292.67   13.00
  -1  -6  -1  289.87   11.90
   1   6   1  278.57   12.10
  -2  -6  -1 2406.76   83.09
  -2  -6  -1 2456.55   84.79
   2   6   1 2489.15   83.29
  -3  -6  -1 1085.39   38.20
  -3  -6  -1 1009.50   36.00
  -4  -6  -1  816.72   30.30
  -5  -6  -1  144.79    7.60
  -6  -6  -1  957.90   39.30
  -6  -6  -1 1059.39   37.10
  -7  -6  -1   69.49    6.70
  -7  -6  -1   83.79    5.70
  -8  -6  -1  167.68   11.20
  -8  -6  -1  173.18    9.40
  -9  -6  -1   18.80    4.30
  -9  -6  -1   14.50    3.40
   8  -7  -1   53.29    6.10
  -8   7   1   69.29    6.40
   7  -7  -1  454.45   23.70
   7  -7  -1  451.25   21.60
  -7   7   1  460.85   20.50
   6  -7  -1   87.09    7.40
  -6   7   1   87.59    7.50
   5  -7  -1   24.50    6.50
  -5   7   1   16.00    3.10
   4  -7  -1    4.90    2.30
   4  -7  -1    3.20    1.80
  -4   7   1    4.90    2.00
   3  -7  -1   -0.70    0.80
   3  -7  -1    1.10    1.40
  -3   7   1    0.90    1.30
   2  -7  -1   63.79    5.40
   2  -7  -1   89.49    6.70
  -2   7   1   77.59    5.90
   1  -7  -1  581.14   23.60
   1  -7  -1  597.84   24.70
  -1   7   1  601.64   24.20
   0  -7  -1    9.30    2.30
   0  -7  -1   10.40    2.20
  -1  -7  -1   11.90    2.10
  -1  -7  -1   11.80    2.50
   1   7   1   12.60    2.30
  -2  -7  -1   83.79    6.00
  -2  -7  -1   81.09    4.70
   2   7   1   82.69    4.90
  -3  -7  -1   18.70    3.00
  -3  -7  -1   18.20    1.80
  -4  -7  -1  697.93   26.90
  -5  -7  -1  119.49    7.00
  -6  -7  -1    0.50    1.30
  -6  -7  -1    2.70    3.40
  -7  -7  -1   37.50    5.80
  -7  -7  -1   40.10    4.10
  -8  -7  -1   -0.50    1.80
  -8  -7  -1    1.30    1.90
  -9  -7  -1  139.49    9.20
  -9  -7  -1  148.09   11.20
   7  -8  -1   19.60    4.10
   7  -8  -1   19.50    4.30
   6  -8  -1   -2.60    1.70
   6  -8  -1    0.20    2.10
  -6   8   1    1.00    1.80
   5  -8  -1  178.08   11.60
   5  -8  -1  173.48   11.00
  -5   8   1  157.28   10.50
   4  -8  -1   89.19    7.50
   4  -8  -1   86.49    8.20
  -4   8   1   79.89    6.60
   3  -8  -1  366.86   18.00
   3  -8  -1  373.76   17.50
  -3   8   1  368.36   17.50
   2  -8  -1  109.09    8.00
   2  -8  -1  102.99    7.30
  -2   8   1  107.59    7.80
   1  -8  -1  526.15   20.90
   1  -8  -1  459.05   21.60
   0  -8  -1  250.07   13.20
   0  -8  -1  257.27   12.00
  -1  -8  -1  282.87   14.30
  -1  -8  -1  288.67   12.80
   1   8   1  324.47   17.80
  -2  -8  -1  576.74   21.70
  -2  -8  -1  577.34   24.00
   2   8   1  584.44   24.30
  -3  -8  -1  676.23   23.90
  -3  -8  -1  666.63   26.80
  -4  -8  -1  247.58   12.20
  -5  -8  -1    2.90    1.60
  -6  -8  -1    2.70    2.00
  -6  -8  -1    0.10    1.30
  -7  -8  -1   75.69    6.00
  -8  -8  -1   95.69    9.10
  -8  -8  -1   95.19    7.20
   6  -9  -1   79.19    8.10
   6  -9  -1   83.99    9.70
   5  -9  -1   -2.20    1.60
   5  -9  -1   -2.90    1.70
  -5   9   1   -0.80    1.70
   4  -9  -1  268.27   14.60
   4  -9  -1  275.87   15.30
  -4   9   1  270.07   14.90
   3  -9  -1  108.89    8.00
   3  -9  -1  109.99    8.70
  -3   9   1  111.39    8.50
   2  -9  -1  316.47   15.40
   2  -9  -1  313.97   16.50
   1  -9  -1  243.78   12.60
   1  -9  -1  268.07   14.40
   0  -9  -1    2.70    1.40
   0  -9  -1    4.60    2.70
  -1  -9  -1   69.69    7.30
  -1  -9  -1   76.59    5.20
  -2  -9  -1  187.38   10.90
  -2  -9  -1  181.88    8.60
   2   9   1  179.88    9.20
  -3  -9  -1    5.80    1.10
  -3  -9  -1    5.40    2.10
  -4  -9  -1   68.89    5.70
  -5  -9  -1    0.40    1.40
  -6  -9  -1   75.09    6.10
  -7  -9  -1  625.54   28.60
  -7  -9  -1  597.94   28.30
   5 -10  -1  275.67   16.00
  -5  10   1  268.57   15.90
   4 -10  -1   56.39    6.30
   4 -10  -1   72.69    7.60
  -4  10   1   62.99    6.80
   3 -10  -1    3.70    2.40
   2 -10  -1   -1.20    1.60
   2 -10  -1    1.70    2.00
   1 -10  -1  110.09    8.80
   1 -10  -1  107.29    7.60
   0 -10  -1  126.19    7.80
   0 -10  -1  129.39    9.40
  -1 -10  -1  155.88   10.30
  -1 -10  -1  154.38    8.40
  -2 -10  -1  117.49    8.40
  -3 -10  -1  121.59    8.50
  -3 -10  -1  121.49    5.40
  -5 -10  -1  813.02   32.40
  -6 -10  -1   95.49    7.50
   3 -11  -1  269.77   16.70
   3 -11  -1  287.47   15.20
   2 -11  -1   61.69    7.40
   2 -11  -1   61.99    6.20
   1 -11  -1    3.40    2.60
   1 -11  -1   10.40    2.70
   0 -11  -1    7.50    3.10
   0 -11  -1   12.10    2.80
  -1 -11  -1   70.39    5.10
  -1 -11  -1   65.09    6.80
  -2 -11  -1   46.20    4.40
  -2 -11  -1   47.00    5.90
  -3 -11  -1 1124.39   45.20
  -4 -11  -1  212.08   12.40
  -1 -11   2  105.59    8.30
   0 -11   2   12.50    3.50
   1 -11   2   50.39    6.10
   1 -11   2   59.29    4.70
   2 -11   2   14.80    3.60
  -4 -10   2   18.80    4.00
  -3 -10   2   32.30    4.70
  -2 -10   2   28.40    4.50
  -1 -10   2    9.50    2.90
   0 -10   2   13.70    2.30
   0 -10   2   18.10    3.80
   1 -10   2   11.10    3.00
   1 -10   2   18.90    3.00
   2 -10   2    2.00    2.10
   2 -10   2    4.70    1.90
   3 -10   2    2.90    1.80
   3 -10   2    2.40    2.20
  -4  10  -2  645.74   30.80
   4 -10   2  666.23   27.80
   4 -10   2  684.13   29.00
   5 -10   2   79.79    7.90
  -6  -9   2   16.80    5.70
  -5  -9   2   99.59    7.70
  -4  -9   2    0.40    1.60
  -3  -9   2   32.20    4.20
  -2  -9   2    2.20    1.80
  -1  -9   2  147.89    9.30
   0  -9   2   15.70    2.30
   0  -9   2   14.50    3.20
   1  -9   2  386.16   16.10
   1  -9   2  374.96   17.90
   2  -9   2  240.18   11.90
   2  -9   2  256.37   13.60
  -3   9  -2    9.20    3.30
   3  -9   2    8.40    2.40
   3  -9   2    8.70    2.80
  -4   9  -2   27.00    5.10
   4  -9   2   36.40    4.40
   4  -9   2   37.80    4.80
  -5   9  -2  158.18   11.80
   5  -9   2  173.88   10.60
   5  -9   2  181.18   11.10
  -6   9  -2    6.40    2.70
   6  -9   2   -1.80    2.80
  -7  -8   2    0.90    2.30
  -7  -8   2    9.90    3.60
  -6  -8   2  244.38   16.70
  -5  -8   2    1.00    1.50
  -4  -8   2    6.90    2.20
  -3  -8   2  151.78    9.00
   2   8  -2   61.39    3.50
  -2  -8   2   65.69    6.50
  -1  -8   2  120.49    7.70
  -1  -8   2  114.49    5.50
   0  -8   2  139.09    7.90
   0  -8   2  145.99    8.80
   1  -8   2   20.40    3.50
   1  -8   2   21.40    2.70
   2  -8   2    2.30    1.40
   2  -8   2   -0.40    0.90
  -3   8  -2    1.20    2.00
   3  -8   2    0.50    1.40
   3  -8   2   -1.10    1.00
  -4   8  -2    2.60    1.70
   4  -8   2    0.50    1.60
   4  -8   2   -0.50    1.40
  -5   8  -2   47.30    5.60
   5  -8   2   43.30    4.80
   5  -8   2   41.00    5.00
  -6   8  -2   33.10    7.00
   6  -8   2   54.49    5.50
   6  -8   2   38.40    4.80
  -7   8  -2  608.14   27.80
   7  -8   2  615.54   28.80
   7  -8   2  629.14   26.20
  -8  -7   2   68.59    7.80
  -8  -7   2   61.69    6.90
  -7  -7   2   14.60    3.60
  -7  -7   2   17.30    4.40
  -6  -7   2  107.29    7.70
  -5  -7   2   17.90    3.10
  -4  -7   2    5.30    1.80
  -3  -7   2  125.99    7.60
   2   7  -2    5.80    1.00
  -2  -7   2    6.20    1.90
   1   7  -2  413.96   16.30
  -1  -7   2  393.86   14.90
  -1  -7   2  407.46   17.40
   0   7  -2    3.10    1.30
   0  -7   2    2.10    1.00
   0  -7   2    5.50    1.80
   1  -7   2   33.10    3.80
   1  -7   2   31.60    2.90
  -2   7  -2  633.34   27.00
   2  -7   2  652.63   25.90
   2  -7   2  622.74   24.60
  -3   7  -2   82.49    6.90
   3  -7   2   88.79    6.00
   3  -7   2   83.29    6.30
  -4   7  -2   17.00    3.40
   4  -7   2   20.10    3.40
   4  -7   2   18.60    3.20
  -5   7  -2 1225.28   52.99
   5  -7   2 1167.28   47.50
   5  -7   2 1190.88   44.70
  -6   7  -2   84.49    6.90
   6  -7   2   75.29    6.30
   6  -7   2   69.39    5.90
  -7   7  -2  108.79    8.50
   7  -7   2  106.69    8.10
   7  -7   2  117.39    7.80
  -8   7  -2   27.50    4.70
   8  -7   2   25.90    4.10
  -8  -6   2  118.39   10.00
  -8  -6   2  121.59    8.90
  -7  -6   2    5.00    3.00
  -7  -6   2    4.00    2.40
  -6  -6   2   11.90    3.00
  -6  -6   2   15.00    3.00
  -5  -6   2  179.98    9.80
  -4  -6   2  196.88   10.00
  -3  -6   2  386.66   16.30
   2   6  -2   85.69    3.80
  -2  -6   2   80.09    5.40
   1   6  -2   24.20    2.40
  -1  -6   2   24.90    2.90
  -1  -6   2   24.60    1.80
   0   6  -2  149.99    7.90
   0  -6   2  150.38    8.30
   0  -6   2  163.18    7.10
  -1   6  -2  452.35   19.50
  -1   6  -2  433.66   18.20
   1  -6   2  425.86   18.20
   1  -6   2  437.96   17.10
  -2   6  -2  222.48   11.90
   2  -6   2  225.18   10.40
   2  -6   2  233.98   11.30
  -3   6  -2  295.87   14.30
   3  -6   2  302.67   13.80
   3  -6   2  289.07   13.20
  -4   6  -2 1215.68   45.40
   4  -6   2 1188.28   44.70
   4  -6   2 1251.67   44.80
  -5   6  -2  686.73   29.20
   5  -6   2  788.02   29.70
   5  -6   2  755.12   29.20
  -6   6  -2   45.80    4.80
   6  -6   2   42.30    4.40
   6  -6   2   48.50    4.70
  -7   6  -2   25.80    4.20
   7  -6   2   30.40    4.10
   7  -6   2   35.60    4.30
   8  -6   2  175.78    9.70
   8  -6   2  164.48   10.60
  -9   6  -2  132.29   12.50
   9  -6   2  112.49    8.60
   9  -6   2  113.39    7.80
  -9  -5   2   63.69    7.50
  -9  -5   2   62.29    6.10
  -8  -5   2  321.97   15.70
  -8  -5   2  315.67   17.40
  -7  -5   2  131.89    8.50
  -7  -5   2  130.39    9.70
  -6  -5   2   62.39    5.30
  -6  -5   2   72.19    7.00
  -5  -5   2   56.39    4.70
  -4  -5   2  256.97   11.70
  -3  -5   2    7.80    1.70
   2   5  -2  288.97   10.50
  -2  -5   2  304.07   12.70
   1   5  -2  398.66   15.20
  -1  -5   2  404.56   14.40
   0   5  -2   55.69    3.80
   0  -5   2   54.89    4.50
   0  -5   2   61.79    3.40
   1  -5   2    0.70    0.90
   1  -5   2    3.10    1.00
  -2   5  -2 2874.11   94.89
  -2   5  -2 2681.83   94.39
   2  -5   2 2535.85   93.69
   2  -5   2 2850.51   93.39
  -3   5  -2   90.79    6.00
   3  -5   2   88.09    6.00
   3  -5   2   82.69    5.40
  -4   5  -2 1613.74   59.29
   4  -5   2 1777.22   64.49
   4  -5   2 1635.74   59.19
  -5   5  -2  300.97   13.70
   5  -5   2  290.47   13.80
   5  -5   2  297.17   13.40
  -6   5  -2  244.78   12.10
   6  -5   2  241.68   12.30
   6  -5   2  242.18   11.70
  -7   5  -2    9.40    3.10
   7  -5   2   16.60    3.40
   7  -5   2   10.40    2.30
  -8   5  -2   42.10    4.80
   8  -5   2   35.40    4.00
   8  -5   2   45.60    5.00
  -9   5  -2 1020.80   40.50
   9  -5   2 1029.80   40.60
   9  -5   2 1056.99   38.30
 -10   5  -2  658.63   28.40
  10  -5   2  649.93   28.20
  -9  -4   2   34.10    4.40
  -9  -4   2   29.70    5.10
  -8  -4   2   25.60    4.00
  -8  -4   2   23.30    4.40
  -7  -4   2   13.40    3.40
  -7  -4   2   11.10    2.70
  -6  -4   2   35.00    3.90
  -6  -4   2   35.40    4.50
  -5  -4   2  127.89    7.20
  -4  -4   2  171.68    8.40
  -3  -4   2  730.43   29.90
   2   4  -2    6.50    1.70
  -2  -4   2    3.40    1.00
   1   4  -2  372.36   14.00
   1   4  -2  390.06   15.70
  -1  -4   2  385.86   15.00
  -1  -4   2  374.56   15.80
   0   4  -2 1312.37   45.70
   0   4  -2 1390.26   47.10
   0  -4   2 1238.38   46.40
   0  -4   2 1343.57   45.10
  -1   4  -2    5.30    1.30
  -1   4  -2    2.80    1.10
   1  -4   2    3.40    1.10
   1  -4   2    4.10    1.00
   1  -4   2    6.40    1.30
  -2   4  -2  339.97   14.60
  -2   4  -2  338.47   14.60
   2  -4   2  374.46   14.20
   2  -4   2  354.76   14.40
  -3   4  -2  447.46   17.60
   3  -4   2  437.46   17.30
   3  -4   2  428.86   17.30
  -4   4  -2  318.17   13.30
   4  -4   2  312.47   13.10
   4  -4   2  289.87   13.20
  -5   4  -2 1937.41   67.39
   5  -4   2 1918.01   67.79
   5  -4   2 1924.61   66.99
  -6   4  -2  347.47   15.30
   6  -4   2  330.97   15.40
   6  -4   2  365.86   14.90
  -7   4  -2    5.00    1.90
   7  -4   2    3.70    1.90
   7  -4   2    4.10    1.70
  -8   4  -2 2514.85   88.19
   8  -4   2 2518.65   86.49
   8  -4   2 2496.65   88.49
  -9   4  -2  296.27   16.00
   9  -4   2  299.17   14.70
   9  -4   2  256.07   14.10
 -10   4  -2   26.10    6.20
  10  -4   2   33.90    4.70
 -10  -3   2   31.20    3.60
 -10  -3   2   16.30    4.10
  -9  -3   2   59.59    6.70
  -9  -3   2   68.19    5.50
  -8  -3   2    0.40    1.80
  -8  -3   2    5.10    2.00
  -7  -3   2  769.72   31.40
  -7  -3   2  755.62   29.40
  -6  -3   2    4.40    2.00
  -6  -3   2    2.80    1.80
  -5  -3   2 2619.64   93.89
  -5  -3   2 2749.72   92.19
  -4  -3   2  487.35   18.90
   3   3  -2   66.99    4.10
  -3  -3   2   64.79    4.00
  -2  -3   2   38.00    2.70
   1   3  -2    2.80    0.60
   1   3  -2    7.30    1.40
  -1  -3   2    3.60    0.90
  -1  -3   2    3.00    1.00
   0   3  -2  105.39    5.60
   0   3  -2  112.49    5.00
   0  -3   2  113.19    5.70
   0  -3   2  112.39    5.40
   0  -3   2  112.99    4.70
  -1   3  -2  425.86   16.60
  -1   3  -2  439.86   16.80
  -1   3  -2  417.86   16.10
   1  -3   2  464.85   15.80
   1  -3   2  426.86   16.10
   1  -3   2  402.66   16.10
  -2   3  -2  685.73   25.90
  -2   3  -2  703.13   25.80
   2  -3   2  696.43   25.50
   2  -3   2  699.93   25.30
   2  -3   2  755.02   25.60
  -3   3  -2 2060.89   68.69
  -3   3  -2 1934.01   69.29
   3  -3   2 1952.60   68.69
   3  -3   2 2041.70   68.49
   3  -3   2 2017.20   68.39
  -4   3  -2  976.30   35.10
   4  -3   2  976.80   34.90
   4  -3   2  988.70   35.50
  -5   3  -2  353.26   14.90
   5  -3   2  366.06   14.60
   5  -3   2  377.86   15.50
   6  -3   2 9999.00  326.77
   6  -3   2 9650.54  327.27
  -7   3  -2    0.70    1.30
   7  -3   2   -0.30    1.10
   7  -3   2    3.90    1.10
   7  -3   2    0.60    1.20
   8  -3   2  157.18    7.90
   8  -3   2  171.98    9.50
   8  -3   2  159.98    8.50
  -9   3  -2   95.89    7.00
   9  -3   2   88.59    6.80
   9  -3   2   88.49    5.40
 -10   3  -2  172.38   10.70
  10  -3   2  168.18   10.10
 -10  -2   2  171.18   13.50
 -10  -2   2  181.68    9.70
  -9  -2   2   28.30    3.50
  -9  -2   2   28.40    7.20
  -8  -2   2  786.82   29.70
  -8  -2   2  754.22   29.00
  -8  -2   2  776.22   31.80
   7   2  -2 4889.81  163.68
  -7  -2   2 4901.41  166.08
  -7  -2   2 4893.41  165.28
  -7  -2   2 4948.41  168.18
   6   2  -2 1064.39   38.10
  -6  -2   2 1110.29   39.20
  -6  -2   2 1170.58   40.50
  -6  -2   2 1101.59   41.80
   5   2  -2    5.60    0.90
  -5  -2   2    3.70    1.50
  -5  -2   2    6.80    1.20
  -5  -2   2    5.80    1.70
   4   2  -2   77.79    4.40
   4   2  -2   83.19    3.40
  -4  -2   2   77.19    4.70
  -4  -2   2   78.29    5.40
  -4  -2   2   80.19    3.70
   3   2  -2  676.13   23.80
   3   2  -2  644.44   22.30
  -3  -2   2  660.93   23.90
   2   2  -2  728.83   24.10
   2   2  -2  717.93   25.40
  -2  -2   2  702.93   25.40
   1   2  -2  763.02   27.70
   1   2  -2  888.01   26.70
  -1  -2   2  718.53   27.50
   0   2  -2 1608.74   52.89
   0   2  -2 1588.54   53.09
   0  -2   2 1494.65   52.79
   0  -2   2 1539.85   53.39
  -2   2  -2  132.49    5.90
  -2   2  -2  126.89    6.10
   2  -2   2  131.19    5.80
   2  -2   2  136.19    5.80
   2  -2   2  137.09    5.90
  -3   2  -2 1340.47   45.80
  -3   2  -2 1336.77   46.50
   3  -2   2 1289.97   45.40
   3  -2   2 1358.16   45.80
   3  -2   2 1304.87   45.90
  -4   2  -2 5419.86  182.88
   4  -2   2 5440.36  182.18
   4  -2   2 5449.35  181.38
  -6   2  -2  806.92   29.70
   6  -2   2  765.42   29.60
   6  -2   2  814.52   28.00
  -7   2  -2   93.09    6.20
   7  -2   2   99.19    6.30
   7  -2   2   95.09    4.80
  -8   2  -2  242.98   12.10
   8  -2   2  241.08   11.80
   8  -2   2  241.58    9.70
  -9   2  -2   47.90    5.00
   9  -2   2   44.40    3.30
   9  -2   2   49.99    4.70
 -10   2  -2    1.90    1.80
  10  -2   2    4.20    1.90
 -11   2  -2    5.70    2.90
 -10  -1   2 1517.25   57.59
   9   1  -2  731.33   26.70
  -9  -1   2  712.13   28.00
  -9  -1   2  714.33   30.10
   8   1  -2 1199.08   42.60
  -8  -1   2 1215.28   45.90
  -8  -1   2 1206.78   43.90
   7   1  -2    1.10    0.90
  -7  -1   2   -0.20    1.00
  -7  -1   2   -1.10    1.40
   6   1  -2  384.76   14.50
  -6  -1   2  381.96   15.80
  -6  -1   2  340.07   15.30
  -6  -1   2  376.06   16.60
   5   1  -2    1.90    0.70
  -5  -1   2   -0.80    0.90
  -5  -1   2    0.40    1.10
  -5  -1   2    0.00    0.80
   4   1  -2    0.10    0.40
   4   1  -2    0.30    0.50
  -4  -1   2    0.10    0.80
  -4  -1   2    0.80    0.50
  -4  -1   2    1.00    0.90
   3   1  -2   57.79    3.20
   3   1  -2   54.29    3.00
  -3  -1   2   52.69    3.00
  -3  -1   2   56.19    3.90
  -3  -1   2   60.59    3.60
   2   1  -2    3.80    0.80
   2   1  -2    3.50    0.60
  -2  -1   2    3.70    0.80
  -2  -1   2    3.70    0.60
   1   1  -2   33.00    1.80
   1   1  -2   35.80    2.00
   0   1  -2  283.37    9.90
   0  -1   2  259.27   10.20
  -2   1  -2  164.98    6.80
   2  -1   2  164.38    6.20
   2  -1   2  164.48    6.60
  -4   1  -2 5127.39  172.08
  -5   1  -2    7.60    1.60
  -5   1  -2    8.00    1.50
   5  -1   2    8.20    1.10
  -6   1  -2 1167.48   41.70
   6  -1   2 1121.79   39.50
   6  -1   2 1187.28   41.40
  -7   1  -2   48.10    4.40
   7  -1   2   50.39    2.80
   7  -1   2   55.69    4.20
  -8   1  -2  429.96   18.70
   8  -1   2  449.86   18.10
   8  -1   2  424.66   15.50
  -9   1  -2   13.00    3.00
   9  -1   2   12.40    2.50
   9  -1   2    9.30    1.30
 -10   1  -2  310.77   16.50
 -11   1  -2   26.80    4.50
  10   0  -2 1057.99   39.20
 -10   0   2 1088.69   42.50
   9   0  -2  368.16   15.70
  -9   0   2  375.76   18.00
   8   0  -2   78.39    5.40
  -8   0   2  100.89   10.70
   7   0  -2  360.06   15.00
  -7   0   2  375.06   15.30
  -7   0   2  348.67   16.30
   6   0  -2  113.99    6.00
  -6   0   2  104.49    6.80
  -6   0   2   97.49    6.50
  -6   0   2  106.29    6.00
   5   0  -2   17.30    2.10
   5   0  -2   19.50    2.00
  -5   0   2   18.50    2.50
  -5   0   2   19.10    2.30
  -5   0   2   21.30    2.50
   4   0  -2    0.10    0.50
   4   0  -2    1.70    0.80
  -4   0   2    2.20    0.90
  -4   0   2    3.90    1.20
  -4   0   2    1.10    0.80
   3   0  -2   64.59    3.80
   3   0  -2   80.29    3.90
  -3   0   2   65.49    3.80
  -3   0   2   62.79    4.00
  -3   0   2   65.89    3.90
   2   0  -2 3348.36  110.79
  -2   0   2 3260.87  110.79
   1   0  -2 1694.73   57.69
  -1   0   2 1723.63   57.59
   0   0  -2  302.57   11.70
   0   0   2  361.16   11.80
   0   0   2  332.37   11.80
  -2   0  -2  714.73   25.50
   2   0   2  769.82   24.70
   2   0   2  743.13   25.60
  -3   0  -2   46.30    2.70
  -3   0  -2   45.90    2.70
   3   0   2   43.00    2.50
   3   0   2   43.80    2.70
  -4   0  -2 3121.09  105.69
   4   0   2 3145.99  105.99
  -5   0  -2  298.37   11.90
  -5   0  -2  255.27   11.90
   5   0   2  277.57    9.70
   5   0   2  279.97   11.20
   5   0   2  267.37   12.00
  -6   0  -2  226.78   10.90
  -6   0  -2  281.57   14.10
   6   0   2  226.18   10.20
   6   0   2  243.28    9.00
  -7   0  -2   33.90    3.60
   7   0   2   33.20    1.90
   7   0   2   37.10    3.10
  -8   0  -2  149.88    8.70
   8   0   2  147.69    7.70
   8   0   2  143.59    5.90
  -9   0  -2  943.61   37.20
   9   0   2  981.30   33.00
 -11   0  -2   19.90    4.00
  10  -1  -2  169.08    9.20
 -10   1   2  149.29   10.40
   9  -1  -2    1.20    1.50
  -9   1   2   -1.20    1.40
   8  -1  -2   31.60    3.50
  -8   1   2   24.00    3.90
   7  -1  -2   41.30    3.90
  -7   1   2   44.40    4.20
   6  -1  -2   59.59    4.50
  -6   1   2   58.19    4.70
   5  -1  -2  927.21   32.70
   5  -1  -2  932.61   33.50
  -5   1   2  889.31   32.80
  -5   1   2  899.61   34.20
   4  -1  -2 2740.03   95.79
   4  -1  -2 2833.32   96.79
   4  -1  -2 2842.62   96.59
  -4   1   2 2790.52   96.99
  -4   1   2 2957.30   95.99
  -4   1   2 2827.62   96.19
   3  -1  -2  188.68    8.30
   3  -1  -2  183.08    7.90
   3  -1  -2  177.58    8.30
  -3   1   2  190.68    8.70
  -3   1   2  187.88    8.10
  -3   1   2  191.78    8.00
   2  -1  -2   46.70    2.70
   2  -1  -2   43.90    2.60
   2  -1  -2   38.30    2.80
  -2   1   2   42.00    2.60
  -2   1   2   44.40    3.00
  -2   1   2   42.50    2.50
  -3  -1  -2   58.59    3.00
  -3  -1  -2   60.99    2.30
   3   1   2   61.59    3.50
  -4  -1  -2  154.98    7.20
  -4  -1  -2  148.89    5.70
  -4  -1  -2  153.68    6.70
   4   1   2  173.48    5.80
   4   1   2  145.29    7.30
  -5  -1  -2  472.95   16.20
  -5  -1  -2  443.56   17.60
  -5  -1  -2  475.45   18.30
   5   1   2  460.45   18.70
   5   1   2  472.25   16.20
  -6  -1  -2 2569.84   87.79
  -6  -1  -2 2793.32   90.59
  -6  -1  -2 2499.95   89.79
   6   1   2 2637.44   87.69
  -7  -1  -2 1734.83   61.79
   7   1   2 1746.53   58.79
  -8  -1  -2  147.09    8.80
   8   1   2  148.79    6.20
  -9  -1  -2    0.10    1.30
   9   1   2    1.90    1.10
 -11  -1  -2    3.90    3.00
  10  -2  -2   35.00    4.50
 -10   2   2   33.90    5.30
   9  -2  -2  139.49    8.70
  -9   2   2  132.39    8.90
   8  -2  -2  140.29    8.30
  -8   2   2  118.09    9.30
   7  -2  -2  170.58    9.40
  -7   2   2  161.08    9.10
   6  -2  -2 1691.03   59.79
  -6   2   2 1664.83   59.19
   5  -2  -2  941.01   37.10
   5  -2  -2  910.21   33.40
   4  -2  -2 1607.44   55.69
   4  -2  -2 1550.54   54.99
   4  -2  -2 1545.95   54.49
  -4   2   2 1560.24   56.09
  -4   2   2 1617.44   54.59
   3  -2  -2   35.90    3.10
   3  -2  -2   37.40    2.70
   3  -2  -2   35.80    2.60
  -3   2   2   33.20    2.50
  -3   2   2   40.00    3.30
   2  -2  -2 3512.25  117.39
  -2   2   2 3427.66  117.49
   1  -2  -2   12.00    1.50
   1  -2  -2   11.50    0.90
  -1   2   2   11.70    0.90
  -1   2   2   10.70    1.40
  -3  -2  -2  677.53   24.40
  -4  -2  -2  283.47   10.50
  -4  -2  -2  290.47   10.90
  -4  -2  -2  283.57   12.00
   4   2   2  304.97   10.90
  -5  -2  -2 3440.66  114.79
  -5  -2  -2 3180.08  116.69
  -5  -2  -2 3514.85  115.69
   5   2   2 3612.24  114.99
  -6  -2  -2  164.28    8.50
  -6  -2  -2  149.88    7.40
  -6  -2  -2  150.68    6.50
   6   2   2  158.58    6.60
  -7  -2  -2  542.25   21.80
  -7  -2  -2  520.05   19.00
  -7  -2  -2  501.85   20.60
   7   2   2  543.75   19.20
  -8  -2  -2  282.27   10.90
  -8  -2  -2  284.97   13.90
   8   2   2  274.07   11.10
  -9  -2  -2   91.49    7.10
   9   2   2   98.19    5.00
 -10  -2  -2   -2.80    1.70
 -11  -2  -2    4.10    2.60
  10  -3  -2    7.40    2.90
 -10   3   2    8.40    3.50
   9  -3  -2  488.85   21.20
  -9   3   2  459.95   20.90
   8  -3  -2  532.05   22.80
  -8   3   2  516.85   22.60
   7  -3  -2  450.15   19.50
  -7   3   2  434.86   18.60
   6  -3  -2 1017.90   38.20
  -6   3   2  993.60   36.80
   5  -3  -2    4.40    1.70
  -5   3   2    4.10    1.30
   4  -3  -2  556.94   21.10
   4  -3  -2  532.75   20.80
   4  -3  -2  559.54   22.20
  -4   3   2  561.94   20.60
   3  -3  -2  693.93   25.50
   3  -3  -2  683.03   25.20
   3  -3  -2  722.43   26.80
  -3   3   2  695.73   27.00
  -3   3   2  697.93   24.80
   2  -3  -2   39.30    3.30
   2  -3  -2   40.90    2.50
  -2   3   2   41.20    2.40
  -2   3   2   38.20    3.30
   1  -3  -2  178.18    8.60
   1  -3  -2  186.38    7.20
  -1   3   2  194.78    8.90
  -1   3   2  202.38    7.40
   0  -3  -2  741.73   27.20
   0  -3  -2  783.22   26.30
   0   3   2  713.33   27.10
   0   3   2  780.22   26.40
  -1  -3  -2  209.98    8.60
   1   3   2  199.28    8.40
  -2  -3  -2    9.10    1.10
  -2  -3  -2    7.10    1.20
  -3  -3  -2  293.17   11.00
  -3  -3  -2  275.07   11.60
  -4  -3  -2 3386.86  108.79
  -4  -3  -2 3015.70  106.59
   4   3   2 3185.88  107.49
  -5  -3  -2 1531.35   53.29
  -5  -3  -2 1567.44   51.29
  -5  -3  -2 1454.05   50.99
   5   3   2 1447.26   51.59
  -6  -3  -2  125.09    6.00
  -6  -3  -2  135.89    7.80
  -6  -3  -2  137.49    6.40
   6   3   2  127.09    6.30
  -7  -3  -2   84.79    4.70
  -7  -3  -2   89.59    5.30
  -7  -3  -2   86.29    6.30
   7   3   2   83.39    4.80
  -8  -3  -2   78.99    6.30
  -8  -3  -2   80.79    5.10
  -8  -3  -2   69.39    4.30
   8   3   2   72.39    4.60
  -9  -3  -2   17.60    2.00
  -9  -3  -2   12.80    3.00
 -10  -3  -2  111.39    8.60
 -11  -3  -2   56.99    6.40
  -9   4   2  240.88   16.10
   8  -4  -2   70.19    6.50
  -8   4   2   78.89    6.10
   7  -4  -2   33.90    4.30
  -7   4   2   26.80    3.50
   6  -4  -2    5.00    2.00
  -6   4   2    1.20    1.20
   5  -4  -2    8.30    2.40
  -5   4   2    8.80    1.80
   4  -4  -2  175.28    8.30
   4  -4  -2  169.38    9.50
  -4   4   2  173.78    7.90
   3  -4  -2 3605.24  121.29
   3  -4  -2 3634.34  123.39
  -3   4   2 3568.54  121.09
   2  -4  -2  177.28    9.10
   2  -4  -2  183.18    7.50
  -2   4   2  173.88    9.20
  -2   4   2  186.28    7.70
   1  -4  -2  231.38    9.70
   1  -4  -2  280.67   11.80
  -1   4   2  268.77   10.40
  -1   4   2  267.77   11.80
   0  -4  -2   64.99    3.40
   0  -4  -2   69.99    4.40
   0   4   2   69.69    4.40
   0   4   2   67.39    3.80
  -1  -4  -2   92.49    4.60
  -1  -4  -2   85.19    4.80
   1   4   2   85.19    4.70
  -2  -4  -2    3.30    0.90
  -2  -4  -2    3.10    1.00
  -3  -4  -2  461.95   16.70
  -3  -4  -2  438.56   17.10
  -4  -4  -2  515.45   18.70
  -4  -4  -2  508.75   18.90
  -4  -4  -2  512.75   20.40
  -5  -4  -2    1.50    1.20
  -5  -4  -2    2.00    0.80
  -5  -4  -2    3.10    0.70
   5   4   2    1.80    1.00
  -6  -4  -2 1014.60   34.60
  -6  -4  -2  983.50   34.20
  -6  -4  -2  980.10   37.00
   6   4   2  937.21   35.50
  -7  -4  -2  199.68    8.90
  -7  -4  -2  203.48   11.10
  -7  -4  -2  211.28    9.10
   7   4   2  193.98    9.40
  -8  -4  -2   71.29    6.40
  -8  -4  -2   75.29    4.70
  -8  -4  -2   77.89    4.90
   8   4   2   73.89    5.10
  -9  -4  -2    5.80    1.70
  -9  -4  -2   11.40    3.00
 -10  -4  -2  440.66   19.80
 -10  -4  -2  529.25   23.20
   9  -5  -2   55.99    6.30
  -9   5   2   55.39    5.50
   8  -5  -2   -0.90    1.60
  -8   5   2   -1.80    1.20
   7  -5  -2   11.20    3.00
  -7   5   2   10.30    2.50
   6  -5  -2   16.50    3.40
  -6   5   2    8.40    2.10
   5  -5  -2  739.33   29.70
  -5   5   2  729.13   27.50
   4  -5  -2   63.49    5.40
  -4   5   2   60.19    4.40
   3  -5  -2  573.54   21.90
   3  -5  -2  587.24   24.00
  -3   5   2  611.54   22.20
   2  -5  -2  470.95   19.60
   2  -5  -2  462.45   17.50
  -2   5   2  481.75   18.00
   1  -5  -2   13.70    1.40
   1  -5  -2   10.90    2.20
  -1   5   2   10.40    1.80
  -1   5   2    9.00    1.90
   0  -5  -2   50.49    3.90
   0  -5  -2   52.49    3.10
   0   5   2   52.99    4.00
  -1  -5  -2 1145.99   40.50
  -1  -5  -2 1105.89   41.00
  -1  -5  -2 1128.89   40.00
   1   5   2 1164.88   40.50
  -2  -5  -2  140.09    7.10
  -2  -5  -2  137.19    6.70
  -2  -5  -2  149.49    7.40
   2   5   2  134.19    6.50
  -3  -5  -2 1382.66   50.29
  -3  -5  -2 1487.05   49.60
  -4  -5  -2  613.04   22.90
  -4  -5  -2  617.24   22.20
  -5  -5  -2  152.28    7.10
  -5  -5  -2  159.78    8.80
  -5  -5  -2  134.59    6.20
  -5  -5  -2  138.59    5.80
  -6  -5  -2  315.57   12.10
  -6  -5  -2  323.67   12.40
  -6  -5  -2  343.27   13.40
  -6  -5  -2  324.77   15.40
  -7  -5  -2  116.09    6.40
  -7  -5  -2  126.99    5.60
  -7  -5  -2  123.49    5.60
  -7  -5  -2  114.59    8.20
  -8  -5  -2  916.31   32.60
  -8  -5  -2  918.01   32.70
  -8  -5  -2  968.10   34.30
  -8  -5  -2  934.51   37.20
  -9  -5  -2   18.80    3.00
  -9  -5  -2   22.40    4.40
 -10  -5  -2    3.70    1.90
 -10  -5  -2    0.20    2.50
   9  -6  -2   -0.30    2.30
  -9   6   2    6.70    2.80
   8  -6  -2   76.79    7.30
  -8   6   2   78.69    6.50
   7  -6  -2  153.48   10.40
  -7   6   2  169.48    9.50
   6  -6  -2  953.00   37.90
  -6   6   2  946.01   35.60
   5  -6  -2  651.23   26.70
  -5   6   2  602.74   24.30
   4  -6  -2  424.46   19.10
  -4   6   2  410.56   17.10
   3  -6  -2  387.36   17.60
   2  -6  -2   65.79    5.30
   2  -6  -2   60.99    3.80
  -2   6   2   61.29    4.50
   1  -6  -2  380.06   14.60
   1  -6  -2  388.76   16.60
  -1   6   2  374.06   15.80
   0  -6  -2    2.50    0.90
   0  -6  -2    7.20    1.70
   0  -6  -2    1.10    1.20
   0   6   2    2.90    1.10
  -1  -6  -2  430.46   16.80
  -1  -6  -2  419.06   17.10
  -1  -6  -2  433.56   18.00
   1   6   2  417.06   17.20
  -2  -6  -2    1.80    0.90
  -2  -6  -2   -0.30    0.80
  -2  -6  -2    1.10    1.00
   2   6   2    1.70    0.90
  -3  -6  -2  328.67   13.00
  -3  -6  -2  325.37   14.10
  -4  -6  -2   64.39    4.50
  -4  -6  -2   57.19    3.40
  -5  -6  -2   69.79    4.60
  -5  -6  -2   64.89    4.30
  -5  -6  -2   66.19    3.00
  -6  -6  -2 1289.57   45.60
  -6  -6  -2 1275.87   48.30
  -7  -6  -2  970.00   38.10
  -7  -6  -2  952.00   35.10
  -8  -6  -2   52.19    5.90
  -8  -6  -2   57.39    4.70
  -9  -6  -2   11.40    2.80
  -9  -6  -2   18.20    4.20
 -10  -6  -2    5.50    2.50
   8  -7  -2  207.78   13.90
  -8   7   2  200.98   11.70
   7  -7  -2  131.59    9.80
  -7   7   2  121.09    8.20
   6  -7  -2    0.10    1.60
  -6   7   2    0.00    1.40
   5  -7  -2    0.20    1.60
  -5   7   2   -0.60    1.00
   4  -7  -2   29.50    4.60
  -4   7   2   29.70    3.50
   3  -7  -2   11.60    2.90
  -3   7   2   14.10    2.80
   2  -7  -2  145.69    8.90
  -2   7   2  151.28    8.50
   1  -7  -2  368.56   16.20
   1  -7  -2  350.36   16.60
  -1   7   2  337.57   19.50
   0  -7  -2  334.27   16.30
   0  -7  -2  328.67   15.60
  -1  -7  -2  764.92   28.70
  -1  -7  -2  756.32   29.90
   1   7   2  753.72   29.00
  -2  -7  -2 1609.34   59.99
  -2  -7  -2 1735.93   58.79
   2   7   2 1694.23   58.69
  -3  -7  -2 1620.54   55.09
  -3  -7  -2 1559.74   56.79
  -4  -7  -2   97.09    6.20
  -4  -7  -2   95.79    4.70
  -5  -7  -2  178.38    9.10
  -6  -7  -2  277.77   12.70
  -6  -7  -2  296.37   15.20
  -7  -7  -2  110.09    8.60
  -7  -7  -2  112.39    6.90
  -8  -7  -2  152.18    8.70
  -8  -7  -2  162.18   11.00
  -9  -7  -2   32.60    4.50
  -9  -7  -2   46.50    6.60
   7  -8  -2    2.60    2.70
  -7   8   2    3.60    2.60
   6  -8  -2   20.60    4.30
   6  -8  -2   16.40    3.80
  -6   8   2   17.50    3.50
   5  -8  -2  116.09    9.00
   5  -8  -2  122.59    9.00
  -5   8   2  115.89    8.10
   4  -8  -2    3.20    2.20
   4  -8  -2    1.50    1.70
  -4   8   2    0.90    1.70
   3  -8  -2  693.83   29.80
   3  -8  -2  698.23   29.20
  -3   8   2  727.13   28.70
   2  -8  -2  601.24   25.90
   2  -8  -2  599.64   25.00
  -2   8   2  578.64   24.60
   1  -8  -2 1170.78   44.80
   1  -8  -2 1159.98   43.60
   0  -8  -2  250.97   12.30
   0  -8  -2  248.58   13.30
  -1  -8  -2   18.10    3.40
  -2  -8  -2   24.70    2.80
  -2  -8  -2   20.00    3.40
   2   8   2   27.80    2.90
  -3  -8  -2   31.40    2.90
  -3  -8  -2   36.20    4.00
  -4  -8  -2    2.70    1.50
  -4  -8  -2    1.00    0.70
  -5  -8  -2    1.70    1.30
  -6  -8  -2   11.40    3.20
  -6  -8  -2    9.90    2.40
  -7  -8  -2   53.99    6.10
  -7  -8  -2   48.20    6.70
  -8  -8  -2    4.50    2.50
  -8  -8  -2   -0.70    1.70
   6  -9  -2   62.99    7.30
  -6   9   2   60.89    6.40
   5  -9  -2  321.17   17.50
   5  -9  -2  313.47   16.90
  -5   9   2  316.87   16.30
   4  -9  -2 1165.08   46.90
   4  -9  -2 1186.28   46.20
  -4   9   2 1198.58   45.70
   3  -9  -2   52.39    6.40
   3  -9  -2   71.59    6.40
  -3   9   2   60.89    6.20
   2  -9  -2  150.08   10.50
   2  -9  -2  153.78    9.80
   1  -9  -2   74.09    8.20
   1  -9  -2   71.89    6.10
   0  -9  -2   89.79    6.60
   0  -9  -2   91.39    9.40
  -1  -9  -2   10.20    2.90
  -1  -9  -2    9.60    2.30
  -2  -9  -2   12.20    3.50
  -2  -9  -2   10.90    3.10
  -3  -9  -2  136.99    6.90
  -4  -9  -2    0.60    1.30
  -4  -9  -2    2.30    0.80
  -5  -9  -2   67.89    5.60
  -6  -9  -2   -0.50    1.30
  -6  -9  -2   -0.30    1.60
  -7  -9  -2  778.72   31.40
  -7  -9  -2  831.62   34.80
  -8  -9  -2   44.40    6.80
  -8  -9  -2   57.69    6.50
   5 -10  -2  512.35   27.40
   5 -10  -2  520.95   24.70
  -5  10   2  451.05   25.50
   4 -10  -2 1019.00   40.40
   4 -10  -2  988.90   41.20
  -4  10   2  976.10   40.20
   3 -10  -2    7.70    2.70
   2 -10  -2  362.06   17.40
   2 -10  -2  341.37   18.40
   1 -10  -2  460.35   20.60
   1 -10  -2  460.45   22.20
   0 -10  -2   -0.90    1.50
   0 -10  -2    1.10    1.40
  -1 -10  -2  132.29    9.40
  -1 -10  -2  136.19    8.10
  -2 -10  -2   11.10    3.00
  -2 -10  -2   10.50    2.30
  -3 -10  -2   59.29    5.90
  -3 -10  -2   54.69    4.00
  -4 -10  -2   -1.10    1.70
  -6 -10  -2  300.57   16.90
  -6 -10  -2  283.67   14.30
   3 -11  -2    2.80    3.30
   3 -11  -2    1.90    2.40
   2 -11  -2   96.69    8.40
   2 -11  -2  106.49    9.20
   1 -11  -2   23.70    4.90
   1 -11  -2   26.80    4.40
   0 -11  -2   34.10    5.40
   0 -11  -2   36.00    6.80
  -1 -11  -2   54.69    6.30
  -1 -11  -2   51.29    5.00
  -2 -11  -2    1.50    1.60
  -2 -11  -2    1.50    2.00
  -3 -11  -2   17.50    3.90
  -4 -11  -2  141.59    9.70
  -5 -11  -2  169.28   11.10
  -1 -12  -2  149.69   11.00
  -3 -10   3   22.20    4.40
  -1 -10   3   -2.40    1.50
   0 -10   3   25.70    4.20
   1 -10   3   25.40    4.40
   2 -10   3  107.59    6.90
   2 -10   3  102.89    8.10
   3 -10   3  154.68   10.30
   3 -10   3  157.98    9.20
   4 -10   3   20.30    3.90
   4 -10   3   22.00    4.30
  -5  -9   3    9.80    4.20
  -4  -9   3  343.27   16.90
  -3  -9   3   19.20    3.70
  -1  -9   3   17.10    3.30
   0  -9   3    2.70    1.90
   1  -9   3    7.10    1.80
   1  -9   3    7.90    2.60
   2  -9   3   57.39    5.00
   2  -9   3   65.19    6.10
   3  -9   3  365.96   17.00
   3  -9   3  325.17   15.50
  -4   9  -3    1.60    2.40
   4  -9   3   -0.50    1.50
   4  -9   3    0.90    1.70
  -5   9  -3    1.40    2.40
   5  -9   3    1.50    1.90
   5  -9   3    5.40    2.20
  -6   9  -3   67.69    8.00
   6  -9   3   65.79    7.70
   6  -9   3   80.99    7.10
  -6  -8   3    8.50    3.00
  -5  -8   3  120.49    9.50
  -4  -8   3  234.08   12.50
  -3  -8   3   31.40    4.00
  -2  -8   3   94.99    6.80
   1   8  -3   46.30    4.20
  -1  -8   3   51.69    4.90
   0  -8   3    2.60    1.60
   1  -8   3  199.08   14.70
   1  -8   3  197.88    9.30
   2  -8   3    8.20    2.80
   2  -8   3    4.90    1.60
  -3   8  -3   32.30    5.50
   3  -8   3   41.50    7.10
   3  -8   3   40.70    4.00
  -4   8  -3  613.24   27.50
   4  -8   3  606.94   24.80
   4  -8   3  593.04   27.00
  -5   8  -3  373.36   19.50
   5  -8   3  377.76   17.60
   5  -8   3  383.96   17.60
  -6   8  -3   11.40    3.60
   6  -8   3   10.90    2.80
   6  -8   3   11.90    3.10
  -7   8  -3   49.40    8.10
   7  -8   3   38.70    8.00
   7  -8   3   55.69    5.40
  -7  -7   3  357.16   18.00
  -6  -7   3  101.89    7.90
  -5  -7   3   43.20    5.00
  -4  -7   3  171.18    9.80
  -3  -7   3   16.20    2.80
  -2  -7   3  215.28   10.90
   1   7  -3   28.40    2.90
  -1  -7   3   26.20    3.40
   0   7  -3    5.50    1.60
   0  -7   3    5.20    1.20
   0  -7   3    2.50    1.40
   1  -7   3   53.99    3.90
   1  -7   3   61.89    5.00
  -2   7  -3   31.20    4.90
   2  -7   3   25.80    3.40
   2  -7   3   26.50    2.90
  -3   7  -3  162.88   10.60
   3  -7   3  165.08    8.80
   3  -7   3  165.68    9.40
  -4   7  -3   39.50    5.00
   4  -7   3   46.70    4.50
   4  -7   3   41.40    4.30
  -5   7  -3   50.19    5.80
   5  -7   3   55.09    5.10
   5  -7   3   60.19    5.30
  -6   7  -3  456.15   21.80
   6  -7   3  463.55   20.80
   6  -7   3  493.15   20.50
  -7   7  -3   63.89    6.80
   7  -7   3   78.99    5.90
   7  -7   3   80.39    6.90
  -8   7  -3   22.10    5.20
   8  -7   3   22.70    4.70
   8  -7   3   23.40    3.60
  -8  -6   3    3.60    2.80
  -8  -6   3   -0.60    2.60
  -7  -6   3  907.91   37.10
  -7  -6   3  979.20   40.00
  -6  -6   3   81.19    6.60
  -5  -6   3    0.00    1.40
  -4  -6   3  117.49    7.40
  -3  -6   3  131.19    7.70
  -2  -6   3   10.40    2.30
   1   6  -3   12.40    1.90
  -1  -6   3   12.90    2.30
   0   6  -3  133.59    7.20
   0  -6   3  135.19    7.60
   0  -6   3  138.49    6.20
  -1   6  -3  187.58    9.70
   1  -6   3  209.08    8.80
   1  -6   3  175.28    9.50
  -2   6  -3   -1.10    1.10
   2  -6   3   -0.40    0.80
   2  -6   3    0.90    1.00
  -3   6  -3  219.98   11.90
   3  -6   3  217.78   10.80
   3  -6   3  213.08   10.30
  -4   6  -3   82.79    6.70
   4  -6   3   81.39    5.80
   4  -6   3   79.89    5.80
  -5   6  -3   54.29    5.40
   5  -6   3   59.99    5.00
   5  -6   3   60.69    5.10
  -6   6  -3    3.50    2.00
   6  -6   3    2.00    1.60
   6  -6   3    2.90    1.50
  -7   6  -3  158.78   10.10
   7  -6   3  161.58    9.80
   7  -6   3  149.49    8.70
  -8   6  -3  233.48   13.60
   8  -6   3  244.78   11.80
   8  -6   3  253.37   13.50
  -9   6  -3  187.38   12.50
   9  -6   3  190.58   11.70
   9  -6   3  177.68   10.00
  -9  -5   3  389.46   20.80
  -9  -5   3  378.76   18.50
  -8  -5   3    3.10    2.70
  -8  -5   3    4.00    2.70
  -7  -5   3  193.08   11.20
  -7  -5   3  187.08   12.40
  -6  -5   3  340.97   16.20
  -6  -5   3  358.86   18.20
  -5  -5   3  552.44   22.60
  -4  -5   3   61.19    4.80
  -3  -5   3 1193.18   43.10
  -2  -5   3  248.48   11.20
   1   5  -3 2736.63   89.09
  -1  -5   3 2531.05   90.09
   0   5  -3  486.65   18.90
   0  -5   3  514.75   18.00
   0  -5   3  483.65   19.40
  -1   5  -3   31.60    3.00
  -1   5  -3   26.40    3.40
   1  -5   3   30.50    2.50
   1  -5   3   26.80    2.80
  -2   5  -3   90.49    6.40
   2  -5   3   82.69    5.40
   2  -5   3   88.89    5.10
  -3   5  -3   16.70    3.10
   3  -5   3    8.40    1.90
   3  -5   3    5.20    1.50
  -4   5  -3  934.91   36.10
   4  -5   3  979.20   35.30
   4  -5   3  965.60   35.50
  -5   5  -3    2.70    1.30
   5  -5   3    2.80    1.30
   5  -5   3    2.50    1.30
  -6   5  -3   48.50    4.90
   6  -5   3   51.09    4.20
   6  -5   3   65.39    5.30
  -7   5  -3  418.56   18.60
   7  -5   3  398.36   17.00
   7  -5   3  417.56   18.60
  -8   5  -3   40.10    5.10
   8  -5   3   50.49    4.30
   8  -5   3   49.99    5.30
  -9   5  -3  174.98   11.20
   9  -5   3  182.38   11.10
   9  -5   3  176.28    8.90
 -10   5  -3 1220.28   47.80
  10  -5   3 1233.18   47.30
  -9  -4   3  200.48   11.70
  -9  -4   3  220.28   15.10
  -8  -4   3   40.00    4.80
  -8  -4   3   29.10    5.70
  -7  -4   3    6.40    2.30
  -7  -4   3    5.00    2.60
  -6  -4   3  519.35   21.80
  -6  -4   3  517.95   23.40
  -5  -4   3  756.32   29.10
  -4  -4   3 1037.90   38.00
  -3  -4   3 3586.44  121.69
  -2  -4   3  722.13   26.70
   1   4  -3   97.79    4.60
   0   4  -3  482.05   19.00
   0   4  -3  461.35   17.60
   0  -4   3  480.65   18.20
  -1   4  -3    4.10    1.40
  -1   4  -3    5.70    1.20
  -1   4  -3    4.60    1.50
   1  -4   3    4.10    1.00
   1  -4   3    4.30    1.20
   1  -4   3    6.60    1.40
  -2   4  -3  155.48    8.00
  -2   4  -3  165.78    8.60
   2  -4   3  164.68    7.80
   2  -4   3  163.98    7.50
  -3   4  -3   47.60    4.00
   3  -4   3   55.29    3.80
   3  -4   3   52.79    3.80
  -4   4  -3   47.80    4.10
   4  -4   3   57.89    3.90
   4  -4   3   41.50    3.60
  -5   4  -3  284.37   12.90
   5  -4   3  278.77   12.00
   5  -4   3  276.47   12.70
  -6   4  -3  134.49    8.00
   6  -4   3  144.69    7.30
   6  -4   3  134.39    8.00
  -7   4  -3  152.58    8.70
   7  -4   3  142.29    8.60
   7  -4   3  145.39    7.40
   7  -4   3  141.49    7.10
  -8   4  -3 2705.53   96.69
   8  -4   3 2824.32   96.99
   8  -4   3 2744.03   94.19
   8  -4   3 2784.12   94.39
   9  -4   3 1366.96   47.70
   9  -4   3 1368.96   52.99
  10  -4   3  135.99    9.20
  -9  -3   3  152.78    9.20
  -9  -3   3  144.69   10.80
  -8  -3   3  476.65   22.50
  -8  -3   3  483.75   20.80
  -7  -3   3    4.50    2.10
  -7  -3   3    3.40    2.00
  -6  -3   3 1943.91   69.69
  -6  -3   3 2002.50   71.59
  -5  -3   3 3696.93  127.79
  -5  -3   3 3805.92  129.79
  -4  -3   3 2495.45   85.79
  -3  -3   3   20.10    2.40
   2   3  -3  214.38    7.60
   2   3  -3  199.68    9.20
   2   3  -3  204.38    7.40
  -2  -3   3  221.08    9.30
   1   3  -3  943.21   33.70
  -1  -3   3  947.61   33.30
  -1  -3   3  928.71   34.30
   0   3  -3   36.50    2.90
   0   3  -3   38.20    2.40
   0  -3   3   40.20    2.80
   0  -3   3   39.10    3.10
  -1   3  -3    5.00    1.20
  -1   3  -3    4.90    1.10
  -1   3  -3    4.20    1.20
   1  -3   3    4.70    0.90
   1  -3   3    5.60    1.10
  -2   3  -3   60.99    3.90
  -2   3  -3   56.49    3.70
   2  -3   3   56.99    3.50
   2  -3   3   56.89    3.40
  -3   3  -3  266.77   11.20
  -3   3  -3  253.97   11.40
   3  -3   3  257.47   10.70
   3  -3   3  258.97   10.60
   3  -3   3  255.07   10.80
  -4   3  -3 1231.68   45.50
   4  -3   3 1255.17   43.30
  -5   3  -3 1059.09   37.80
   5  -3   3 1062.09   37.90
   5  -3   3 1006.40   36.70
   6  -3   3   36.90    2.80
  -7   3  -3 3470.45  121.09
   7  -3   3 3555.54  118.89
   7  -3   3 3643.54  119.19
   7  -3   3 3470.35  121.19
  -8   3  -3 1113.79   42.50
   8  -3   3 1109.29   39.60
   8  -3   3 1167.88   44.60
   8  -3   3 1156.08   39.80
  -9   3  -3  109.79    7.80
   9  -3   3  110.69    7.40
   9  -3   3  107.69    5.20
 -10   3  -3    0.10    2.20
  10  -3   3   -0.40    1.70
 -10  -2   3   62.19    7.30
 -10  -2   3   77.19    6.00
  -9  -2   3   74.89    7.10
  -9  -2   3   87.29    7.70
  -8  -2   3  900.91   34.00
  -8  -2   3  868.71   35.80
   7   2  -3   34.40    2.30
  -7  -2   3   22.20    3.50
  -7  -2   3   33.50    2.90
  -7  -2   3   19.40    3.60
   6   2  -3 3996.00  137.09
  -6  -2   3 4203.68  141.59
  -6  -2   3 4080.79  137.99
  -6  -2   3 4157.08  139.89
   5   2  -3   89.19    4.00
  -5  -2   3   93.79    6.60
  -5  -2   3   87.59    4.40
  -5  -2   3   81.09    5.70
  -4  -2   3  477.15   18.90
   3   2  -3   32.30    2.60
   3   2  -3   36.50    2.00
  -3  -2   3   37.10    3.00
   2   2  -3  189.58    7.40
   2   2  -3  202.88    8.50
  -2  -2   3  194.28    8.50
   1   2  -3  235.88    9.20
  -1  -2   3  211.38    9.00
   0   2  -3 2733.93   87.99
   0  -2   3 2477.05   88.19
  -1   2  -3 1259.37   42.20
  -1   2  -3 1270.57   42.50
  -1   2  -3 1116.59   42.80
   1  -2   3 1243.58   42.10
   1  -2   3 1258.87   42.50
  -2   2  -3 1135.79   39.30
  -2   2  -3 1090.39   39.40
  -2   2  -3 1202.08   39.60
   2  -2   3 1091.29   38.90
   2  -2   3 1131.59   38.80
   2  -2   3 1139.99   39.10
  -3   2  -3   50.39    3.30
  -3   2  -3   51.49    3.50
   3  -2   3   51.39    2.90
   3  -2   3   53.19    3.30
   3  -2   3   50.49    3.20
  -4   2  -3  117.89    6.60
  -4   2  -3  122.49    6.20
   4  -2   3  125.49    5.50
   4  -2   3  127.39    6.30
   4  -2   3  122.69    6.20
  -5   2  -3 2241.18   76.39
   5  -2   3 2221.08   76.49
   5  -2   3 2206.58   74.99
  -6   2  -3 1387.86   48.80
   6  -2   3 1346.77   48.70
   6  -2   3 1384.06   46.70
   6  -2   3 1364.66   46.90
  -7   2  -3  157.58    8.50
   7  -2   3  148.29    6.50
   7  -2   3  155.28    8.30
  -8   2  -3    8.10    2.20
   8  -2   3    8.40    1.20
   8  -2   3    6.90    2.00
   8  -2   3    8.00    1.10
  -9   2  -3    0.10    1.60
   9  -2   3   -0.60    1.20
 -10   2  -3   62.59    6.10
 -11   2  -3   99.39    8.30
 -10  -1   3   -2.60    2.20
   9   1  -3  599.84   23.00
  -9  -1   3  638.94   33.20
  -9  -1   3  609.64   24.90
   8   1  -3 2987.00  104.09
  -8  -1   3 3158.48  108.09
  -8  -1   3 3061.59  105.99
   7   1  -3   58.39    3.90
  -7  -1   3   49.50    5.10
  -7  -1   3   57.29    4.80
   6   1  -3  302.47   12.00
  -6  -1   3  288.57   13.10
  -6  -1   3  290.27   12.70
  -6  -1   3  281.37   14.00
   5   1  -3   43.60    3.10
  -5  -1   3   55.09    4.60
  -5  -1   3   45.70    3.40
   4   1  -3   18.90    1.90
   4   1  -3   20.70    1.90
  -4  -1   3   14.40    2.50
  -4  -1   3   19.00    2.60
  -4  -1   3   17.50    1.90
   3   1  -3  182.98    7.90
   3   1  -3  216.28   10.40
  -3  -1   3  185.58    7.90
  -3  -1   3  184.58    8.60
   2   1  -3  289.67   11.70
  -2  -1   3  324.37   12.30
   1   1  -3 3042.90  101.79
  -1   1  -3 1113.59   40.40
  -1   1  -3 1224.48   40.50
  -1   1  -3 1179.48   41.00
   1  -1   3 1230.98   40.40
   1  -1   3 1210.18   40.70
  -2   1  -3 1575.54   53.89
  -2   1  -3 1590.14   53.89
  -2   1  -3 1630.14   53.69
   2  -1   3 1542.45   53.29
   2  -1   3 1594.04   53.79
  -3   1  -3  228.58    9.60
  -3   1  -3  239.28    9.40
   3  -1   3  235.48    8.50
   3  -1   3  233.28    9.40
  -5   1  -3  573.54   21.50
  -5   1  -3  596.14   23.30
   5  -1   3  554.04   19.60
   5  -1   3  566.14   19.60
   5  -1   3  563.04   21.30
  -6   1  -3  975.90   35.40
   6  -1   3  979.30   35.00
   6  -1   3  945.01   32.90
   6  -1   3  979.00   32.80
  -7   1  -3   35.70    3.60
   7  -1   3   38.40    1.80
   7  -1   3   39.40    3.40
  -8   1  -3    5.90    2.00
   8  -1   3    8.80    1.90
  -9   1  -3   55.59    5.30
 -10   1  -3  213.88   13.80
 -11   1  -3  609.64   26.50
  10   0  -3  139.19    8.00
   9   0  -3  108.69    6.60
  -9   0   3   94.29    7.90
   8   0  -3    7.30    2.00
  -8   0   3    3.50    2.10
  -8   0   3    3.00    1.90
   7   0  -3  566.64   23.70
  -7   0   3  655.53   24.70
  -7   0   3  651.03   25.70
   6   0  -3  722.63   26.80
  -6   0   3  729.33   28.10
  -6   0   3  732.23   27.20
  -6   0   3  672.13   27.60
   5   0  -3  337.87   13.70
  -5   0   3  336.37   15.50
  -5   0   3  322.27   13.80
  -5   0   3  327.17   14.50
   4   0  -3  482.35   18.50
   4   0  -3  497.05   18.90
  -4   0   3  492.15   19.40
  -4   0   3  510.05   19.10
  -4   0   3  474.65   19.10
   3   0  -3    9.50    1.40
  -1   0  -3 1391.36   46.10
   1   0   3 1349.56   46.20
  -3   0  -3  231.48    9.20
  -3   0  -3  231.78    9.10
   3   0   3  233.38    9.30
  -4   0  -3  985.30   32.90
  -4   0  -3  921.61   32.80
   4   0   3  876.51   32.90
  -5   0  -3  794.62   29.30
  -5   0  -3  787.62   29.10
   5   0   3  789.62   29.50
   5   0   3  825.92   28.60
  -6   0  -3  378.16   15.10
   6   0   3  338.17   14.30
  -7   0  -3   10.90    2.20
  -8   0  -3  498.15   20.90
  -9   0  -3  766.92   30.60
 -10   0  -3   42.60    5.40
  10  -1  -3  634.44   26.10
 -10   1   3  681.63   33.30
   9  -1  -3    5.90    2.00
  -9   1   3    1.50    2.10
   8  -1  -3   13.60    2.70
  -8   1   3   20.30    3.60
   7  -1  -3   92.39    6.20
  -7   1   3   92.39    6.60
   6  -1  -3    9.60    2.00
  -6   1   3   11.00    2.30
  -6   1   3   11.60    2.40
   5  -1  -3 3671.73  124.39
  -5   1   3 3741.23  124.09
  -5   1   3 3605.34  124.19
  -5   1   3 3594.04  125.09
   4  -1  -3 2046.20   67.59
   4  -1  -3 1923.51   68.09
  -4   1   3 1968.80   68.89
  -4   1   3 1888.31   67.49
  -4   1   3 1979.60   67.79
   3  -1  -3 1185.98   42.60
   3  -1  -3 1265.57   42.20
  -3   1   3 1211.38   42.00
  -3   1   3 1162.18   42.70
  -3   1   3 1181.68   42.00
   2  -1  -3 2123.49   72.99
   2  -1  -3 2056.59   72.29
  -2   1   3 2158.38   72.09
  -2   1   3 2187.88   72.99
   1  -1  -3  328.07   12.10
   1  -1  -3  324.07   12.60
  -1   1   3  310.57   11.50
  -1   1   3  307.97   12.40
   0  -1  -3 1399.16   48.00
   0  -1  -3 1429.76   47.50
   0   1   3 1371.16   47.50
  -2  -1  -3 1065.99   35.50
  -2  -1  -3 1110.49   35.90
   2   1   3  996.20   35.90
  -3  -1  -3    0.40    0.30
  -3  -1  -3    0.50    0.40
   3   1   3    0.80    0.40
  -4  -1  -3 1068.89   37.10
  -4  -1  -3 1078.19   37.40
   4   1   3 1056.99   37.70
  -5  -1  -3  189.28    8.50
   5   1   3  176.78    8.80
  -6  -1  -3  367.16   15.30
  -6  -1  -3  363.76   15.00
  -7  -1  -3  789.12   30.10
  -8  -1  -3  906.51   34.70
  -9  -1  -3  108.39    7.60
 -10  -1  -3   25.40    4.10
  10  -2  -3    2.20    2.50
 -10   2   3    1.00    3.60
   9  -2  -3  115.29    8.00
  -9   2   3  122.79    8.50
   8  -2  -3  112.19    7.60
  -8   2   3  111.19    7.60
   7  -2  -3  663.63   26.70
  -7   2   3  672.73   26.50
   6  -2  -3  601.74   24.60
  -6   2   3  629.04   24.20
   5  -2  -3 1529.45   54.39
  -5   2   3 1502.15   53.29
   4  -2  -3  288.77   12.20
   4  -2  -3  286.77   13.00
   4  -2  -3  291.57   12.50
  -4   2   3  275.57   13.20
  -4   2   3  299.87   12.00
   3  -2  -3  105.79    5.40
   3  -2  -3   96.19    5.90
  -3   2   3  103.79    5.10
  -3   2   3  100.49    6.20
   2  -2  -3  239.08   11.10
   2  -2  -3  256.87    9.90
  -2   2   3  250.47    9.70
  -2   2   3  271.57   11.40
   0  -2  -3   23.40    1.80
   0  -2  -3   26.90    2.30
   0   2   3   25.20    2.10
  -3  -2  -3  213.78    7.70
  -3  -2  -3  186.88    8.20
   3   2   3  205.78    8.60
  -4  -2  -3  204.18    9.00
  -4  -2  -3  202.78    8.30
  -4  -2  -3  220.28    7.50
   4   2   3  206.78    9.30
  -5  -2  -3  462.25   15.70
  -5  -2  -3  464.65   17.80
  -5  -2  -3  432.56   16.80
   5   2   3  440.66   18.20
  -6  -2  -3  149.19    8.00
  -6  -2  -3  146.69    5.80
  -6  -2  -3  149.59    7.20
  -7  -2  -3  269.67   12.70
  -8  -2  -3    7.20    2.30
  -9  -2  -3    1.00    1.70
 -10  -2  -3   12.20    3.30
 -11  -2  -3    8.20    4.90
   9  -3  -3  149.09    9.60
  -9   3   3  133.49    9.40
   8  -3  -3   91.99    8.80
  -8   3   3   98.29    7.00
   7  -3  -3  691.63   28.00
  -7   3   3  676.93   26.90
   6  -3  -3   77.59    6.20
  -6   3   3   75.79    5.30
   5  -3  -3  123.19    7.70
  -5   3   3  118.89    6.50
   4  -3  -3   20.40    3.40
   4  -3  -3   19.80    3.80
   4  -3  -3   19.50    2.20
  -4   3   3   22.10    2.30
   3  -3  -3  105.49    5.80
   3  -3  -3  106.59    5.50
   3  -3  -3  127.09    7.10
  -3   3   3  112.49    6.90
  -3   3   3  113.99    5.30
   2  -3  -3  138.29    6.60
  -2   3   3  138.69    7.60
  -2   3   3  137.29    5.70
   0  -3  -3  466.55   15.50
   0  -3  -3  468.15   17.70
   0   3   3  436.56   15.70
   0   3   3  436.26   17.40
  -1  -3  -3  398.16   15.90
   1   3   3  425.86   15.70
  -2  -3  -3 1753.42   60.09
  -3  -3  -3  202.38    8.60
  -3  -3  -3  199.78    8.20
  -4  -3  -3  327.37   13.60
  -4  -3  -3  348.97   12.50
  -5  -3  -3  106.39    5.00
  -5  -3  -3  106.09    4.60
  -5  -3  -3  101.19    6.00
  -6  -3  -3 1011.80   40.50
  -6  -3  -3 1225.08   39.80
  -6  -3  -3 1248.38   42.60
  -7  -3  -3    6.50    1.30
  -7  -3  -3    5.90    1.50
  -7  -3  -3    7.30    2.00
  -8  -3  -3  628.44   26.30
  -8  -3  -3  663.03   22.90
  -9  -3  -3  146.39    9.40
 -10  -3  -3   78.79   10.00
 -11  -3  -3    2.30    2.70
   9  -4  -3   79.29    7.10
  -9   4   3   80.69    8.00
   8  -4  -3    7.00    2.80
  -8   4   3    6.60    2.00
   7  -4  -3    2.90    2.00
  -7   4   3    1.50    1.40
   6  -4  -3  114.09    8.00
  -6   4   3  114.89    6.70
   5  -4  -3    8.20    2.50
  -5   4   3    7.70    1.60
   4  -4  -3  558.34   23.10
   4  -4  -3  550.54   21.20
  -4   4   3  548.05   20.60
   3  -4  -3  146.29   10.10
   3  -4  -3  159.38    7.30
  -3   4   3  164.68    7.00
   2  -4  -3 3847.31  131.29
   2  -4  -3 3817.92  128.69
  -2   4   3 3955.40  128.69
  -2   4   3 3762.02  131.39
   1  -4  -3 2916.41  103.69
   1  -4  -3 3125.09  106.49
  -1   4   3 3279.57  104.09
   0  -4  -3 1832.92   60.69
   0  -4  -3 1800.72   62.99
   0   4   3 1785.72   62.89
  -1  -4  -3  135.59    7.10
  -1  -4  -3  155.48    6.30
   1   4   3  141.49    7.00
  -2  -4  -3   74.89    4.40
  -2  -4  -3   72.79    4.40
  -3  -4  -3  918.01   34.10
  -3  -4  -3 1011.50   34.40
  -4  -4  -3    1.10    0.70
  -4  -4  -3    0.10    0.50
  -4  -4  -3    1.20    1.00
  -5  -4  -3   72.19    5.60
  -5  -4  -3   79.59    4.20
  -5  -4  -3   88.79    4.10
  -6  -4  -3    3.50    1.60
  -6  -4  -3    0.10    0.60
  -6  -4  -3   -0.50    0.50
  -7  -4  -3  374.76   14.60
  -7  -4  -3  358.26   16.50
  -7  -4  -3  358.86   14.00
  -8  -4  -3  527.55   22.90
  -8  -4  -3  544.45   20.80
  -8  -4  -3  527.85   19.80
  -9  -4  -3  202.68    8.60
  -9  -4  -3  195.28   11.60
 -10  -4  -3  634.64   27.60
 -11  -4  -3  203.58   12.90
   9  -5  -3   -1.00    2.60
  -9   5   3   -3.30    1.40
   8  -5  -3  318.37   16.60
  -8   5   3  297.97   14.50
   7  -5  -3   73.09    6.70
  -7   5   3   74.29    5.50
   6  -5  -3    0.70    1.50
  -6   5   3    1.00    1.20
   5  -5  -3   20.00    3.70
  -5   5   3   21.00    2.60
   4  -5  -3 2216.48   79.29
  -4   5   3 2238.28   76.39
   3  -5  -3  588.44   24.50
   3  -5  -3  568.74   22.00
  -3   5   3  629.74   22.10
   2  -5  -3   12.00    2.60
  -2   5   3    8.90    1.60
   1  -5  -3  120.79    7.30
   1  -5  -3  128.39    5.40
  -1   5   3  121.69    6.00
  -1   5   3  119.29    7.30
   0  -5  -3   21.90    2.60
   0  -5  -3   21.50    1.70
   0   5   3   23.10    2.80
  -1  -5  -3  187.28    8.40
  -1  -5  -3  220.28    9.80
   1   5   3  199.18    9.40
  -2  -5  -3   57.79    4.30
  -2  -5  -3   58.19    4.10
  -2  -5  -3   59.19    3.80
  -3  -5  -3  781.62   29.10
  -3  -5  -3  796.22   28.80
  -4  -5  -3   83.49    5.00
  -4  -5  -3   87.69    5.00
  -4  -5  -3   99.79    5.90
  -5  -5  -3  851.41   28.70
  -5  -5  -3  785.32   29.70
  -5  -5  -3  853.91   29.80
  -5  -5  -3  810.92   31.40
  -6  -5  -3  529.55   22.60
  -6  -5  -3  554.04   20.70
  -6  -5  -3  555.04   19.90
  -6  -5  -3  564.04   20.50
  -7  -5  -3  533.45   20.10
  -7  -5  -3  523.75   19.70
  -7  -5  -3  525.55   20.10
  -7  -5  -3  550.14   22.90
  -8  -5  -3  268.97   11.30
  -8  -5  -3  261.17   11.40
  -9  -5  -3  256.27   13.90
  -9  -5  -3  231.38   11.10
 -10  -5  -3   15.30    3.60
   8  -6  -3   11.20    3.30
  -8   6   3   17.00    3.20
   7  -6  -3   -0.80    1.60
  -7   6   3    4.60    2.30
   6  -6  -3  497.35   23.00
  -6   6   3  509.45   20.60
   5  -6  -3   50.59    5.40
  -5   6   3   38.20    3.60
   4  -6  -3 1619.94   59.69
  -4   6   3 1619.74   56.79
   3  -6  -3   13.80    3.10
  -3   6   3   17.80    2.40
   2  -6  -3  208.08   11.20
   2  -6  -3  202.28    8.90
  -2   6   3  222.18    9.80
   1  -6  -3   60.39    5.00
   1  -6  -3   56.49    3.30
  -1   6   3   59.79    4.20
   0  -6  -3   14.50    2.60
   0   6   3   11.40    2.20
  -1  -6  -3  881.91   32.00
  -1  -6  -3  954.50   34.20
  -1  -6  -3  907.71   33.50
   1   6   3  852.31   33.20
  -2  -6  -3  301.57   13.40
  -2  -6  -3  309.37   13.50
  -2  -6  -3  320.47   14.50
   2   6   3  316.67   13.20
  -3  -6  -3  193.18   10.50
  -3  -6  -3  211.98    9.50
  -4  -6  -3  627.54   23.70
  -4  -6  -3  603.34   23.00
  -5  -6  -3  441.36   16.90
  -5  -6  -3  443.26   19.00
  -5  -6  -3  426.36   17.30
  -6  -6  -3   39.70    3.00
  -6  -6  -3   42.40    4.50
  -6  -6  -3   39.60    2.50
  -6  -6  -3   48.10    3.50
  -7  -6  -3   49.40    3.00
  -7  -6  -3   54.39    5.40
  -7  -6  -3   54.09    4.00
  -7  -6  -3   50.79    3.30
  -8  -6  -3    1.10    1.20
  -8  -6  -3    1.70    0.90
  -8  -6  -3    2.00    2.00
  -9  -6  -3   -0.30    3.20
  -9  -6  -3    0.30    1.50
   8  -7  -3  622.14   28.50
  -8   7   3  625.24   26.30
   7  -7  -3  174.98   11.70
  -7   7   3  179.88   10.30
   6  -7  -3  212.98   13.00
  -6   7   3  211.38   11.10
   5  -7  -3    9.80    2.80
  -5   7   3    9.00    2.30
   4  -7  -3  178.28   10.90
  -4   7   3  170.98    9.10
   3  -7  -3   33.90    4.30
  -3   7   3   30.20    3.50
   2  -7  -3  840.82   32.40
  -2   7   3  775.62   30.40
   1  -7  -3  816.72   30.80
   1  -7  -3  901.61   33.90
  -1   7   3  881.81   32.50
   0  -7  -3 2954.30   99.09
   0  -7  -3 2955.40  101.49
   0  -7  -3 2863.31  102.09
  -1  -7  -3 1062.69   38.80
  -1  -7  -3 1027.30   39.50
  -1  -7  -3 1038.20   37.20
  -2  -7  -3  424.76   18.20
  -2  -7  -3  415.96   17.30
   2   7   3  403.86   16.90
  -3  -7  -3  623.24   24.10
  -3  -7  -3  638.24   25.10
  -4  -7  -3  200.68   10.10
  -4  -7  -3  198.78    9.20
  -5  -7  -3   27.00    4.10
  -5  -7  -3   28.60    2.50
  -5  -7  -3   26.10    3.10
  -6  -7  -3   13.70    1.70
  -6  -7  -3   14.60    1.70
  -6  -7  -3   17.50    2.70
  -6  -7  -3   12.40    2.90
  -7  -7  -3   28.80    3.20
  -7  -7  -3   32.70    5.70
  -8  -7  -3   99.69    6.60
  -8  -7  -3  124.49    8.90
  -9  -7  -3    0.30    1.80
  -9  -7  -3    0.30    2.10
   7  -8  -3    1.90    2.50
  -7   8   3    1.00    2.20
   6  -8  -3    3.30    1.90
  -6   8   3    1.70    1.70
   5  -8  -3    4.30    2.30
  -5   8   3    3.00    1.90
   4  -8  -3   52.29    5.60
  -4   8   3   47.90    4.80
   3  -8  -3  113.19    8.40
  -3   8   3  107.79    7.40
   2  -8  -3 2066.29   77.89
  -2   8   3 2290.37   77.19
   1  -8  -3 1625.14   59.29
   1  -8  -3 1611.54   60.09
   0  -8  -3 1655.93   60.19
   0  -8  -3 1600.84   58.99
  -1  -8  -3   45.10    4.90
  -1  -8  -3   43.50    4.30
  -2  -8  -3  385.76   16.80
  -2  -8  -3  402.46   18.10
  -3  -8  -3  144.59    8.60
  -3  -8  -3  129.99    7.30
  -4  -8  -3  116.39    6.30
  -4  -8  -3  124.49    7.70
  -5  -8  -3  113.99    7.10
  -5  -8  -3  112.39    5.40
  -6  -8  -3    3.90    1.70
  -6  -8  -3    2.80    2.10
  -7  -8  -3   95.89    7.90
  -7  -8  -3   96.59    6.40
  -8  -8  -3   24.30    4.50
  -8  -8  -3   27.60    4.90
  -9  -8  -3  338.77   15.70
  -9  -8  -3  354.16   19.30
   6  -9  -3   -3.20    2.40
   6  -9  -3    0.50    2.30
  -6   9   3   -1.40    2.00
   5  -9  -3   43.90    5.70
   5  -9  -3   23.70    5.00
  -5   9   3   38.80    4.90
   4  -9  -3  378.36   19.00
   4  -9  -3  391.96   19.80
  -4   9   3  355.76   17.60
   3  -9  -3 2723.63   95.99
   3  -9  -3 2662.33   94.89
  -3   9   3 2567.74   93.49
   2  -9  -3 2185.28   79.59
   2  -9  -3 2232.68   80.89
   1  -9  -3   12.90    4.00
   1  -9  -3   19.40    3.90
   0  -9  -3  640.34   25.80
   0  -9  -3  597.04   27.40
  -1  -9  -3  323.57   16.70
  -1  -9  -3  348.37   15.70
  -2  -9  -3    1.00    1.30
  -2  -9  -3    0.90    1.10
  -3  -9  -3  539.35   23.60
  -3  -9  -3  562.24   21.80
  -4  -9  -3   11.60    3.70
  -4  -9  -3   11.70    2.10
  -5  -9  -3  105.39    7.10
  -5  -9  -3   92.49    4.30
  -6  -9  -3    8.80    2.80
  -6  -9  -3    6.20    2.20
  -7  -9  -3  147.79    8.70
  -8  -9  -3  564.24   22.60
  -8  -9  -3  494.05   25.40
   5 -10  -3 1185.88   47.40
   5 -10  -3 1138.39   48.70
  -5  10   3 1211.38   46.50
   4 -10  -3  126.69   10.60
   4 -10  -3  130.19    9.90
  -4  10   3  118.39    9.20
   3 -10  -3  441.36   27.90
   3 -10  -3  449.36   21.50
   2 -10  -3  161.48   11.60
   2 -10  -3  167.58   10.80
   1 -10  -3  317.67   20.50
   1 -10  -3  294.47   16.60
   0 -10  -3   24.20    4.00
   0 -10  -3   25.50    4.80
  -1 -10  -3   15.60    3.00
  -1 -10  -3   11.70    2.90
  -2 -10  -3    5.20    2.40
  -2 -10  -3   -1.40    1.30
  -3 -10  -3   15.70    3.30
  -3 -10  -3   12.20    2.30
  -4 -10  -3  157.58    9.80
  -4 -10  -3  154.08    7.30
  -5 -10  -3    6.80    2.30
  -6 -10  -3  121.79   10.90
  -7 -10  -3    2.10    2.10
  -7 -10  -3    1.40    2.60
   3 -11  -3  265.47   17.90
   3 -11  -3  276.27   15.40
   2 -11  -3   -1.80    2.60
   2 -11  -3    1.20    2.30
   1 -11  -3    0.10    2.00
   1 -11  -3    1.10    2.10
   0 -11  -3  163.78   10.20
   0 -11  -3  165.68   11.60
  -1 -11  -3  274.87   14.00
  -1 -11  -3  294.47   16.10
  -2 -11  -3  532.45   21.70
  -2 -11  -3  516.65   24.20
  -3 -11  -3    3.80    2.50
  -3 -11  -3   -0.60    1.40
  -4 -11  -3   14.80    3.40
  -5 -11  -3   89.69    7.30
   0 -12  -3   77.89    8.00
   0 -12  -3   70.19    6.50
  -1 -12  -3  256.97   13.00
  -1 -12  -3  246.28   15.20
  -2 -12  -3  251.07   15.00
  -2 -10   4   10.40    3.20
  -1 -10   4    7.10    2.60
   0 -10   4   59.49    7.50
   1 -10   4    4.70    3.20
   2 -10   4  184.38   14.50
  -4  -9   4    0.80    2.00
  -3  -9   4  120.19    8.80
  -2  -9   4  551.04   23.90
  -1  -9   4  192.58   11.10
   1  -9   4   41.40    5.00
   2  -9   4   35.10    4.40
   3  -9   4   15.60    2.90
   3  -9   4   12.90    3.10
  -4   9  -4   67.19    7.80
   4  -9   4   69.59    7.80
   4  -9   4   76.99    6.10
   5  -9   4   30.60    4.20
   5  -9   4   25.20    4.90
  -6  -8   4  165.18   11.10
  -5  -8   4  161.58   10.70
  -4  -8   4   14.50    3.40
  -3  -8   4  282.67   14.40
  -2  -8   4   44.00    4.70
   1   8  -4    2.20    2.10
  -1  -8   4    2.60    1.80
   0  -8   4  349.77   16.20
   1  -8   4    7.60    2.20
   2  -8   4   24.90    3.50
   2  -8   4   21.50    2.80
  -3   8  -4    7.90    3.10
   3  -8   4   13.30    2.60
   3  -8   4    8.30    2.40
  -4   8  -4  136.49   10.40
   4  -8   4  133.99    8.60
   4  -8   4  134.89    8.20
  -5   8  -4   38.30    9.30
   5  -8   4   39.00    4.50
   5  -8   4   41.70    4.60
  -6   8  -4   12.40    3.70
   6  -8   4   17.30    3.60
   6  -8   4   13.90    3.00
  -7   8  -4    5.00    3.20
   7  -8   4    3.50    2.30
   7  -8   4    3.30    2.30
  -7  -7   4   30.20    8.30
  -7  -7   4   15.20    4.60
  -6  -7   4  286.67   15.30
  -5  -7   4  733.63   30.20
  -4  -7   4    2.00    1.50
  -3  -7   4   56.59    5.20
   1   7  -4  109.99    6.00
  -1  -7   4  105.79    7.00
   0   7  -4   35.40    3.50
   0  -7   4   31.10    3.70
   1  -7   4  264.37   12.70
  -2   7  -4  198.78   12.60
   2  -7   4  216.98   10.10
   2  -7   4  235.28   11.30
  -3   7  -4  446.06   21.20
   3  -7   4  431.46   18.70
   3  -7   4  440.96   18.10
  -4   7  -4    5.90    2.30
   4  -7   4    4.00    1.70
   4  -7   4    1.10    1.50
  -5   7  -4   44.70    5.60
   5  -7   4   46.70    4.70
   5  -7   4   48.60    4.60
  -6   7  -4    2.30    2.00
   6  -7   4    4.60    2.20
  -7   7  -4   16.30    4.10
   7  -7   4   14.80    3.00
   7  -7   4   19.40    3.70
  -8   7  -4   73.39    7.50
   8  -7   4   73.99    5.90
   8  -7   4   73.09    6.60
  -7  -6   4    2.20    2.80
  -7  -6   4    6.80    3.10
  -6  -6   4   49.90    5.90
  -5  -6   4  101.29    7.50
  -4  -6   4  131.19    9.30
  -3  -6   4  269.77   13.00
  -2  -6   4  526.65   21.50
   1   6  -4 1186.78   42.70
  -1  -6   4 1252.47   44.40
   0   6  -4   58.49    4.60
   0  -6   4   57.49    4.60
   1  -6   4 1607.74   56.99
  -2   6  -4  314.57   15.80
   2  -6   4  314.97   14.00
   2  -6   4  315.37   13.20
  -3   6  -4   35.10    4.50
   3  -6   4   27.20    3.30
   3  -6   4   31.10    3.20
  -4   6  -4   11.50    3.10
   4  -6   4   11.10    2.30
   4  -6   4    8.30    2.10
  -5   6  -4   96.39    7.40
   5  -6   4   90.69    6.30
   5  -6   4   89.19    6.00
  -6   6  -4  238.38   13.20
   6  -6   4  245.68   11.70
   6  -6   4  248.38   12.50
  -7   6  -4   13.00    3.30
   7  -6   4    9.70    2.10
   7  -6   4   11.70    2.90
  -8   6  -4   43.90    5.30
   8  -6   4   48.40    5.20
   8  -6   4   37.00    4.00
  -9   6  -4   77.59    7.60
   9  -6   4   78.39    7.00
  -8  -5   4  214.88   16.70
  -8  -5   4  232.88   13.80
  -7  -5   4  448.96   22.10
  -7  -5   4  414.46   20.10
  -6  -5   4   15.60    3.50
  -6  -5   4   11.70    3.50
  -5  -5   4  364.36   16.80
  -4  -5   4  498.35   20.90
  -3  -5   4   14.40    2.70
  -2  -5   4 1614.74   57.19
   1   5  -4 3634.34  121.09
  -1  -5   4 3573.74  122.59
   0   5  -4 2084.79   72.19
   0  -5   4 2118.69   72.79
  -1   5  -4    1.30    1.10
   1  -5   4    2.30    1.10
  -2   5  -4   17.60    3.30
   2  -5   4   17.20    3.50
   2  -5   4   14.80    2.40
  -3   5  -4  487.25   20.90
   3  -5   4  492.85   19.20
   3  -5   4  472.65   19.00
  -4   5  -4    3.00    1.60
   4  -5   4    1.40    1.00
   4  -5   4    1.80    1.20
  -5   5  -4    4.60    1.90
   5  -5   4    9.30    1.90
   5  -5   4    5.70    1.70
  -6   5  -4    2.30    1.60
   6  -5   4    2.20    1.60
   6  -5   4    4.10    1.40
  -7   5  -4   52.29    5.60
   7  -5   4   59.49    4.50
   7  -5   4   61.59    5.40
  -8   5  -4  264.77   13.90
   8  -5   4  248.58   13.10
   8  -5   4  247.88   11.10
  -9   5  -4  224.88   12.80
   9  -5   4  202.48   12.00
  -9  -4   4   -0.10    2.40
  -8  -4   4   38.60    5.20
  -8  -4   4   33.70    5.40
  -7  -4   4    4.40    2.90
  -7  -4   4    7.40    2.80
  -6  -4   4  463.85   20.30
  -6  -4   4  445.86   21.50
  -5  -4   4   56.29    5.20
  -4  -4   4 1674.03   59.59
  -3  -4   4  894.71   33.30
   2   4  -4 8571.94  283.17
   2   4  -4 8521.65  283.07
   1   4  -4  286.77   11.10
  -1  -4   4  290.67   12.30
   0   4  -4  558.74   19.40
   0  -4   4  476.95   20.90
  -1   4  -4    6.20    1.40
  -1   4  -4    3.90    1.60
   1  -4   4    6.40    1.40
  -2   4  -4  107.19    6.40
  -2   4  -4  108.89    6.80
  -2   4  -4  115.39    6.20
   2  -4   4  104.59    5.70
   2  -4   4   95.19    5.30
  -3   4  -4   -0.30    0.80
   3  -4   4    1.30    0.90
   3  -4   4   -0.30    0.70
  -4   4  -4 1025.20   39.40
   4  -4   4 1091.29   38.20
   4  -4   4 1101.89   38.80
  -5   4  -4  221.68   11.00
   5  -4   4  221.68   10.60
   5  -4   4  211.98    9.60
  -6   4  -4   47.60    4.60
   6  -4   4   45.80    4.20
   6  -4   4   48.40    3.60
  -7   4  -4   86.89    6.50
   7  -4   4   83.39    5.00
   7  -4   4   87.89    6.30
   7  -4   4   89.69    5.00
  -8   4  -4  231.68   12.30
   8  -4   4  209.68    9.40
   8  -4   4  235.98   12.00
  -9   4  -4  439.16   20.20
   9  -4   4  436.86   16.00
   9  -4   4  412.76   21.60
 -10   4  -4  959.80   38.70
  -9  -3   4    6.10    3.90
  -9  -3   4   15.30    3.30
  -8  -3   4   -0.40    1.70
  -7  -3   4  459.15   21.30
  -7  -3   4  429.46   19.60
  -6  -3   4  399.96   19.00
  -6  -3   4  391.16   17.70
  -5  -3   4 2435.16   84.29
  -5  -3   4 2381.66   85.69
  -4  -3   4 6323.87  212.98
  -3  -3   4  448.66   18.10
   2   3  -4  354.06   11.80
   2   3  -4  336.17   12.20
  -2  -3   4  302.47   14.70
   1   3  -4  133.69    6.80
   1   3  -4  133.49    5.50
  -1  -3   4  137.89    6.70
  -1  -3   4  133.09    7.30
   0   3  -4  303.07   12.00
   0   3  -4  313.07   13.10
   0  -3   4  324.37   12.80
   0  -3   4  336.67   13.50
  -1   3  -4  590.44   23.30
  -1   3  -4  639.04   24.80
  -1   3  -4  665.33   24.40
   1  -3   4  662.93   23.50
   1  -3   4  669.53   24.00
  -2   3  -4  259.47   14.10
  -2   3  -4  290.97   12.40
  -2   3  -4  264.47   11.70
   2  -3   4  285.27   11.50
   2  -3   4  281.67   11.10
  -3   3  -4  219.08   10.10
   3  -3   4  211.48    9.40
   3  -3   4  226.68    9.20
  -4   3  -4 1480.75   52.19
   4  -3   4 1465.05   50.89
   4  -3   4 1494.45   51.79
  -5   3  -4  790.02   29.50
   5  -3   4  795.02   27.90
   5  -3   4  765.92   29.20
  -6   3  -4  293.07   13.30
   6  -3   4  295.27   13.20
   6  -3   4  291.87   11.60
  -7   3  -4  347.07   15.50
   7  -3   4  341.87   13.10
   7  -3   4  334.07   15.10
   7  -3   4  343.97   13.10
  -8   3  -4    1.70    1.60
   8  -3   4    0.90    1.50
   8  -3   4    0.10    0.70
   8  -3   4   -2.20    0.90
  -9   3  -4  122.69    8.20
   9  -3   4  114.29    7.70
 -10   3  -4    4.70    2.20
  -9  -2   4   15.40    3.80
  -9  -2   4   14.70    3.20
  -8  -2   4   25.10    5.70
  -8  -2   4   32.20    5.10
   7   2  -4  673.33   24.40
  -7  -2   4  726.73   28.00
  -7  -2   4  679.33   29.10
   6   2  -4 1669.73   56.99
  -6  -2   4 1655.93   61.39
  -6  -2   4 1710.33   60.19
   5   2  -4    2.70    0.80
  -5  -2   4    0.80    1.20
  -5  -2   4    0.50    1.60
   4   2  -4   50.29    2.90
  -4  -2   4   46.00    4.30
   3   2  -4  270.57   10.40
  -3  -2   4  263.37   12.60
   2   2  -4  434.86   15.50
   2   2  -4  372.56   14.50
  -2  -2   4  380.66   15.60
   1   2  -4  136.09    6.30
  -1  -2   4  141.09    7.10
  -1  -2   4  130.59    6.50
   0   2  -4  575.24   21.00
   0   2  -4  579.24   20.20
   0  -2   4  568.54   21.00
   0  -2   4  583.64   21.60
  -1   2  -4   59.29    3.20
  -1   2  -4   55.29    3.40
  -1   2  -4   59.09    3.90
   1  -2   4   58.79    3.50
   1  -2   4   56.59    3.30
  -2   2  -4 1560.44   54.09
  -2   2  -4 1514.75   53.49
  -2   2  -4 1563.64   53.59
   2  -2   4 1589.84   53.49
   2  -2   4 1562.54   52.99
  -3   2  -4 1450.75   52.79
  -3   2  -4 1576.24   52.49
  -3   2  -4 1499.65   52.79
   3  -2   4 1541.35   51.69
   3  -2   4 1540.65   52.49
  -4   2  -4   60.39    4.00
   4  -2   4   60.69    3.10
   4  -2   4   61.29    3.90
  -5   2  -4  166.48    8.20
   5  -2   4  166.28    6.80
   5  -2   4  172.78    8.20
   6  -2   4   35.80    3.50
   6  -2   4   36.50    2.30
   6  -2   4   34.60    2.10
   7  -2   4    2.00    0.70
   7  -2   4    1.40    0.90
   7  -2   4    1.60    1.20
  -8   2  -4  142.39    8.40
   8  -2   4  145.59    8.20
  -9   2  -4    2.60    1.70
 -10   2  -4   66.49    6.20
 -11   2  -4    0.30    2.10
   9   1  -4   -0.30    1.40
  -9  -1   4   -1.20    1.80
  -9  -1   4    3.50    1.80
   8   1  -4   30.30    3.10
  -8  -1   4   30.90    5.10
  -8  -1   4   37.00    4.20
   7   1  -4  111.89    6.00
  -7  -1   4  105.19    7.90
  -7  -1   4  104.69    7.20
  -7  -1   4  121.49    6.60
   6   1  -4 1090.59   38.50
  -6  -1   4 1051.99   40.10
  -6  -1   4 1119.99   41.40
   5   1  -4  717.73   25.30
  -5  -1   4  687.33   25.50
  -5  -1   4  678.33   27.20
  -5  -1   4  666.13   26.50
   4   1  -4   11.50    1.70
  -4  -1   4    8.80    2.00
  -4  -1   4   12.10    2.30
  -4  -1   4   12.70    1.70
   3   1  -4  424.46   16.10
   3   1  -4  406.16   16.20
  -3  -1   4  432.76   17.00
   2   1  -4  675.93   24.60
   2   1  -4  701.13   24.50
  -2  -1   4  663.13   25.00
  -2   1  -4   79.29    3.90
  -2   1  -4   67.29    3.50
  -2   1  -4   74.29    4.00
   2  -1   4   77.59    3.80
   2  -1   4   72.39    3.40
  -3   1  -4   82.89    3.90
  -3   1  -4   81.29    4.40
  -3   1  -4   79.79    4.30
   3  -1   4   83.29    3.60
  -4   1  -4 1337.47   48.10
  -4   1  -4 1390.86   47.70
   4  -1   4 1409.66   46.10
   4  -1   4 1358.96   47.90
  -5   1  -4   45.30    4.00
   5  -1   4   50.69    2.10
  -6   1  -4  806.82   29.90
  -7   1  -4   15.70    2.50
  -8   1  -4   85.09    6.20
  -9   1  -4   54.89    5.10
 -10   1  -4   23.30    5.00
 -11   1  -4   32.60    5.10
   9   0  -4    1.80    1.60
  -9   0   4   -4.40    1.90
   8   0  -4  215.78   10.50
  -8   0   4  222.88   12.40
  -8   0   4  217.08   11.50
   7   0  -4   33.40    3.50
  -7   0   4   32.20    3.90
  -7   0   4   39.90    4.40
   6   0  -4  344.37   14.30
  -6   0   4  315.87   14.60
  -6   0   4  331.27   15.30
   5   0  -4  147.29    7.30
  -5   0   4  142.19    7.60
  -5   0   4  128.19    7.70
  -5   0   4  122.19    7.30
   4   0  -4  524.35   20.30
  -4   0   4  538.75   20.60
  -4   0   4  525.95   20.80
  -4   0   4  516.55   20.50
   3   0  -4 3541.25  119.39
   3   0  -4 3565.84  119.09
  -3   0   4 3627.64  119.69
  -3   0   4 3216.68  119.29
  -3   0   4 3693.43  119.39
   1   0  -4 2145.39   73.79
   1   0  -4 2189.58   73.49
   0   0  -4  321.47   12.20
   0   0   4  334.27   12.50
   0   0   4  323.77   12.20
  -1   0  -4   44.70    2.50
  -1   0  -4   44.40    2.60
   1   0   4   49.20    2.40
   1   0   4   48.90    2.70
  -2   0  -4  938.51   31.00
  -2   0  -4  896.01   31.00
   2   0   4  865.31   30.90
  -3   0  -4    0.80    0.40
  -3   0  -4    1.70    0.70
  -3   0  -4    1.10    0.30
   3   0   4    1.10    0.60
  -4   0  -4  109.59    5.50
   4   0   4  120.69    5.80
  -5   0  -4   52.09    3.70
  -5   0  -4   63.99    4.00
   5   0   4   50.39    3.80
  -6   0  -4   60.29    4.40
  -7   0  -4   56.49    4.50
  -8   0  -4    8.00    2.20
  -9   0  -4   16.10    3.20
 -10   0  -4  304.97   15.50
 -11   0  -4   46.50    9.60
   9  -1  -4   -0.70    1.70
  -9   1   4   -1.10    2.40
   8  -1  -4   73.59    5.70
  -8   1   4   78.09    6.40
   7  -1  -4    6.30    2.00
  -7   1   4    6.00    2.00
  -7   1   4    5.70    1.90
   6  -1  -4   10.60    2.30
  -6   1   4   14.40    2.80
  -6   1   4    9.80    2.20
   5  -1  -4  196.68   10.00
  -5   1   4  194.38    9.70
  -5   1   4  200.08    9.80
   4  -1  -4  216.48   10.60
  -4   1   4  214.88   10.30
  -4   1   4  239.28   10.40
  -4   1   4  238.08   11.00
   3  -1  -4 6526.05  217.18
  -3   1   4 6412.56  217.08
   2  -1  -4  202.08    8.90
   2  -1  -4  204.38    9.40
  -2   1   4  198.68    9.20
  -2   1   4  211.08    9.00
  -2   1   4  208.58    8.60
   1  -1  -4 2998.70   98.69
   1  -1  -4 2865.21   99.19
  -1   1   4 2908.01   98.89
   0  -1  -4  362.26   14.40
   0  -1  -4  358.66   13.80
   0   1   4  391.96   13.10
   0   1   4  369.46   13.80
  -1  -1  -4 1195.78   41.10
  -1  -1  -4 1203.18   40.50
   1   1   4 1206.98   41.10
   1   1   4 1209.48   40.30
  -2  -1  -4    3.20    0.60
  -2  -1  -4    0.90    0.40
   2   1   4    1.40    0.40
   2   1   4    1.30    0.40
  -4  -1  -4    1.90    0.70
   4   1   4    0.90    0.50
  -5  -1  -4  522.25   19.70
  -5  -1  -4  527.15   19.90
   5   1   4  521.85   20.30
  -6  -1  -4   15.30    2.50
  -7  -1  -4  179.78    9.20
  -8  -1  -4   14.30    2.90
  -9  -1  -4   18.80    3.30
 -10  -1  -4  409.76   19.00
 -11  -1  -4   22.20    4.40
   9  -2  -4   -0.70    1.70
  -9   2   4    3.40    3.50
   8  -2  -4   21.00    3.70
  -8   2   4   17.90    3.30
   7  -2  -4   47.40    4.70
  -7   2   4   50.49    4.70
   6  -2  -4  640.94   26.00
  -6   2   4  648.84   25.30
   5  -2  -4  213.38   11.20
  -5   2   4  234.08   10.50
   4  -2  -4  627.84   25.40
  -4   2   4  635.24   24.00
  -4   2   4  674.43   25.80
   3  -2  -4  399.16   16.70
   3  -2  -4  375.86   15.60
  -3   2   4  401.86   15.90
  -3   2   4  400.06   15.10
  -3   2   4  389.86   16.60
   2  -2  -4    9.70    1.70
   2  -2  -4    6.10    1.60
  -2   2   4    8.00    1.60
  -2   2   4   10.30    1.20
  -2   2   4    8.30    1.60
   1  -2  -4    0.50    0.60
   1  -2  -4    0.40    0.60
   0  -2  -4  304.37   12.60
   0  -2  -4  303.97   11.70
   0   2   4  303.67   12.30
  -1  -2  -4    2.20    0.70
  -1  -2  -4    2.60    0.30
  -1  -2  -4    1.20    0.50
  -3  -2  -4  536.35   18.70
  -3  -2  -4  489.75   18.00
   3   2   4  534.35   19.00
  -4  -2  -4 1543.25   51.19
  -4  -2  -4 1486.85   52.59
   4   2   4 1558.14   53.09
  -5  -2  -4  456.15   18.20
   5   2   4  494.25   19.00
  -6  -2  -4  419.66   17.20
  -6  -2  -4  430.36   16.80
  -7  -2  -4  635.24   24.90
  -8  -2  -4  173.28    9.70
  -9  -2  -4   19.30    3.50
 -10  -2  -4   80.39    6.80
 -11  -2  -4  460.75   23.20
   9  -3  -4  122.89    8.80
  -9   3   4  116.89    9.30
   8  -3  -4   49.70    5.20
  -8   3   4   44.30    4.70
   7  -3  -4    1.70    1.60
  -7   3   4    1.90    1.50
   6  -3  -4  120.89    8.00
  -6   3   4  123.89    7.10
   5  -3  -4  113.29    7.70
  -5   3   4  126.99    6.70
   4  -3  -4   28.70    3.50
   4  -3  -4   33.60    3.10
  -4   3   4   38.90    3.00
   3  -3  -4   44.10    3.10
   3  -3  -4   42.50    3.80
   3  -3  -4   38.40    4.00
  -3   3   4   43.20    2.80
   2  -3  -4 1232.88   42.90
   2  -3  -4 1254.77   45.30
   2  -3  -4 1180.28   43.80
  -2   3   4 1324.47   42.60
   1  -3  -4   25.20    2.20
   1  -3  -4   23.60    1.50
   1  -3  -4   22.40    2.70
  -1   3   4   18.90    2.40
  -1   3   4   24.60    1.40
  -2  -3  -4 1110.89   37.30
  -2  -3  -4  987.60   36.20
  -3  -3  -4 1440.06   49.30
  -4  -3  -4    5.40    1.30
  -4  -3  -4    7.90    1.00
  -5  -3  -4   30.70    1.80
  -5  -3  -4   29.00    2.30
  -5  -3  -4   32.00    2.90
  -6  -3  -4  317.47   13.70
  -6  -3  -4  313.37   12.80
  -6  -3  -4  316.37   11.40
  -7  -3  -4  152.98    8.60
  -8  -3  -4  689.13   27.50
  -9  -3  -4  106.59    7.70
 -10  -3  -4  130.89    9.50
   9  -4  -4    4.00    2.70
  -9   4   4   -0.10    1.90
   8  -4  -4   96.69    7.90
  -8   4   4  115.99    7.50
  -7   4   4   21.90    3.40
   6  -4  -4    7.90    2.50
  -6   4   4   10.40    2.20
   5  -4  -4  112.69    7.90
  -5   4   4  113.49    6.20
   4  -4  -4   13.20    3.00
   4  -4  -4   12.10    2.00
  -4   4   4   10.40    1.70
   3  -4  -4  271.67   13.50
   3  -4  -4  281.87   11.50
  -3   4   4  282.37   11.00
   2  -4  -4 4463.55  148.59
   2  -4  -4 4369.56  151.58
  -2   4   4 4507.65  148.29
   1  -4  -4    1.10    0.90
  -1   4   4    1.20    0.50
  -1   4   4    1.80    0.90
   0  -4  -4 4195.38  142.49
  -1  -4  -4   55.29    4.20
  -1  -4  -4   57.89    2.80
   1   4   4   59.09    4.00
  -2  -4  -4 1643.24   57.39
  -3  -4  -4  909.61   32.10
  -3  -4  -4  918.51   32.50
  -3  -4  -4  854.61   31.60
  -4  -4  -4  309.57   13.50
  -4  -4  -4  360.46   13.30
  -5  -4  -4   35.30    2.50
  -5  -4  -4   42.10    3.50
  -6  -4  -4   59.89    4.70
  -6  -4  -4   59.49    3.20
  -6  -4  -4   53.49    4.20
  -7  -4  -4   40.00    2.70
  -7  -4  -4   37.60    3.20
  -7  -4  -4   40.70    4.20
  -8  -4  -4   86.99    6.50
  -8  -4  -4   84.89    4.30
  -9  -4  -4  120.69    4.90
  -9  -4  -4  105.19    7.90
 -10  -4  -4   31.50    5.00
 -11  -4  -4   91.19    8.10
   9  -5  -4   -0.90    4.20
  -9   5   4   -3.70    1.70
   8  -5  -4   91.39    8.50
  -8   5   4   88.69    6.70
   7  -5  -4   -0.80    1.50
  -7   5   4    3.50    1.50
   6  -5  -4  175.38   11.00
  -6   5   4  168.68    8.80
   5  -5  -4  455.45   20.90
  -5   5   4  463.45   18.20
   4  -5  -4 1563.64   59.29
  -4   5   4 1663.93   55.99
   3  -5  -4  569.74   24.10
  -3   5   4  573.94   21.00
   2  -5  -4 1984.80   71.69
   2  -5  -4 1975.20   68.29
  -2   5   4 2077.19   68.49
   1  -5  -4  357.36   13.00
   1  -5  -4  356.16   16.00
  -1   5   4  348.57   13.50
   0  -5  -4 1351.76   48.90
   0  -5  -4 1310.27   45.60
   0   5   4 1387.06   48.80
  -1  -5  -4    9.70    1.10
  -1  -5  -4   11.90    2.40
   1   5   4    8.20    1.70
  -2  -5  -4 1263.77   43.40
  -2  -5  -4 1231.48   44.80
  -3  -5  -4 2022.20   68.39
  -3  -5  -4 1910.71   68.09
  -4  -5  -4 2676.53   91.39
  -4  -5  -4 2589.84   91.69
  -4  -5  -4 2771.72   91.79
  -5  -5  -4  640.74   23.40
  -5  -5  -4  602.84   23.90
  -5  -5  -4  668.63   25.40
  -6  -5  -4    6.60    1.20
  -6  -5  -4    4.10    1.30
  -6  -5  -4    7.80    1.90
  -6  -5  -4    4.80    1.40
  -7  -5  -4    3.70    1.10
  -7  -5  -4    0.20    1.10
  -7  -5  -4    0.20    0.70
  -8  -5  -4   34.30    3.00
  -8  -5  -4   40.70    3.20
  -8  -5  -4   31.80    4.20
  -9  -5  -4   -0.80    1.00
  -9  -5  -4    0.10    1.40
 -10  -5  -4    1.60    1.90
   8  -6  -4   26.00    5.00
  -8   6   4   29.30    4.30
   7  -6  -4    6.10    2.70
  -7   6   4    2.10    3.00
   6  -6  -4  232.18   13.60
  -6   6   4  225.18   11.00
   5  -6  -4  239.88   13.50
  -5   6   4  234.88   10.90
   4  -6  -4   15.00    3.30
  -4   6   4   18.10    2.40
   3  -6  -4  130.69    8.70
   3  -6  -4  118.49    6.30
  -3   6   4  131.59    6.60
   2  -6  -4    0.70    1.00
   2  -6  -4   -0.30    0.60
  -2   6   4    2.30    1.00
   1  -6  -4    6.50    1.10
   1  -6  -4    7.10    2.20
  -1   6   4    5.50    1.40
   0  -6  -4  350.76   16.90
   0  -6  -4  328.97   12.60
  -1  -6  -4  209.98    8.80
  -1  -6  -4  212.18   10.70
   1   6   4  215.58   10.50
  -2  -6  -4 4486.25  155.18
  -2  -6  -4 4753.32  153.88
  -2  -6  -4 4486.45  157.48
  -3  -6  -4  421.16   17.60
  -3  -6  -4  429.16   19.20
  -4  -6  -4 2381.46   80.49
  -4  -6  -4 2205.98   78.99
  -4  -6  -4 2277.07   79.49
  -5  -6  -4    9.20    2.20
  -5  -6  -4   14.50    3.40
  -5  -6  -4   10.80    2.10
  -6  -6  -4  223.38   10.30
  -6  -6  -4  232.28   11.80
  -6  -6  -4  224.78   10.50
  -6  -6  -4  237.58    9.30
  -7  -6  -4   12.90    1.80
  -7  -6  -4   12.60    2.30
  -7  -6  -4   11.90    2.80
  -8  -6  -4   32.60    4.40
  -8  -6  -4   22.50    2.90
  -8  -6  -4   23.80    2.80
  -9  -6  -4   35.70    3.60
  -9  -6  -4   38.50    3.50
  -9  -6  -4   39.10    5.70
 -10  -6  -4   11.20    3.50
   8  -7  -4   58.39    7.40
  -8   7   4   74.29    6.20
   7  -7  -4   56.59    6.70
  -7   7   4   67.59    5.70
   6  -7  -4   12.50    3.40
  -6   7   4   11.60    2.80
   5  -7  -4   39.80    5.30
  -5   7   4   48.50    4.30
   4  -7  -4   87.19    7.40
  -4   7   4   90.59    5.90
   3  -7  -4    5.50    2.30
  -3   7   4    6.30    1.90
   2  -7  -4   36.40    4.50
   2  -7  -4   39.30    3.00
  -2   7   4   36.90    3.50
   1  -7  -4    0.80    1.40
   1  -7  -4    5.00    1.10
  -1   7   4    2.10    1.10
   0  -7  -4  526.25   22.40
   0  -7  -4  533.55   21.70
  -1  -7  -4 5026.60  167.08
  -1  -7  -4 4815.32  169.68
  -1  -7  -4 5084.89  169.48
  -2  -7  -4 5098.49  174.58
  -2  -7  -4 4906.51  172.48
  -2  -7  -4 5312.57  174.18
   2   7   4 5207.48  173.98
  -3  -7  -4  247.48   11.90
  -3  -7  -4  254.67   12.30
  -4  -7  -4  609.84   23.90
  -4  -7  -4  616.84   24.30
  -5  -7  -4  463.55   18.40
  -5  -7  -4  464.35   18.70
  -5  -7  -4  445.46   19.70
  -6  -7  -4   24.00    2.70
  -6  -7  -4   18.20    1.80
  -6  -7  -4   18.60    3.50
  -6  -7  -4   23.70    2.80
  -7  -7  -4  223.78   10.10
  -7  -7  -4  252.97   12.70
  -7  -7  -4  188.28    8.60
  -7  -7  -4  212.98    9.50
  -8  -7  -4    3.40    1.30
  -8  -7  -4    3.00    2.20
  -8  -7  -4    6.70    1.90
  -9  -7  -4   -0.50    1.60
  -9  -7  -4   -3.40    1.70
 -10  -7  -4   16.10    4.20
   7  -8  -4    4.40    2.70
  -7   8   4    3.70    2.40
   6  -8  -4   37.40    6.10
  -6   8   4   31.80    4.40
   5  -8  -4   15.00    3.90
  -5   8   4   10.10    2.70
   4  -8  -4   13.90    3.50
  -4   8   4   13.80    3.00
   3  -8  -4   30.50    5.00
  -3   8   4   32.80    4.00
   2  -8  -4  283.27   15.00
  -2   8   4  279.77   13.10
   1  -8  -4 4077.09  141.09
   0  -8  -4 1369.16   52.99
   0  -8  -4 1461.65   52.69
  -1  -8  -4 1087.79   42.90
  -1  -8  -4 1152.08   42.40
  -2  -8  -4 1474.95   53.19
  -2  -8  -4 1452.05   54.09
  -3  -8  -4  332.97   16.20
  -3  -8  -4  368.16   15.70
  -4  -8  -4   -0.80    1.10
  -4  -8  -4    0.90    1.10
  -5  -8  -4  223.18   10.50
  -5  -8  -4  238.48   11.50
  -5  -8  -4  224.38   12.10
  -6  -8  -4   61.49    3.30
  -6  -8  -4   60.09    4.00
  -6  -8  -4   63.69    6.10
  -6  -8  -4   60.09    4.70
  -7  -8  -4  191.58   11.90
  -7  -8  -4  222.58   10.50
  -8  -8  -4  299.17   13.40
  -8  -8  -4  290.57   15.90
  -9  -8  -4    2.90    2.80
  -9  -8  -4    2.40    2.00
   6  -9  -4   25.20    5.00
  -6   9   4   22.30    4.20
   5  -9  -4   16.80    4.00
  -5   9   4   21.50    4.30
   4  -9  -4    2.40    2.40
  -4   9   4    4.20    2.10
   3  -9  -4 1527.85   56.79
  -3   9   4 1438.46   54.29
   2  -9  -4  381.96   19.50
   1  -9  -4  912.81   36.70
   1  -9  -4  913.81   37.70
   0  -9  -4   51.99    5.40
   0  -9  -4   53.09    6.10
  -1  -9  -4 1252.37   47.60
  -1  -9  -4 1296.57   49.00
  -2  -9  -4   18.40    3.20
  -2  -9  -4   19.10    3.90
  -3  -9  -4  405.36   19.10
  -3  -9  -4  431.46   18.10
  -4  -9  -4   11.00    2.30
  -5  -9  -4  598.24   25.00
  -5  -9  -4  591.24   22.50
  -6  -9  -4  462.75   20.80
  -6  -9  -4  399.06   16.50
  -6  -9  -4  445.96   19.20
  -7  -9  -4    7.30    2.70
  -7  -9  -4   -1.20    1.30
  -8  -9  -4    6.20    2.70
  -8  -9  -4    5.20    1.90
   5 -10  -4  222.48   14.20
   5 -10  -4  220.78   22.00
  -5  10   4  228.08   13.30
   4 -10  -4  485.35   23.70
   4 -10  -4  493.15   24.60
   3 -10  -4   73.99    7.90
   2 -10  -4   16.70    4.20
   2 -10  -4   14.70    3.40
   1 -10  -4   28.40    4.90
   1 -10  -4   27.30    5.20
   0 -10  -4    9.80    2.90
   0 -10  -4    8.30    2.50
  -1 -10  -4   51.59    6.10
  -1 -10  -4   54.79    5.50
  -2 -10  -4   82.89    7.40
  -2 -10  -4   86.89    6.60
  -3 -10  -4  544.35   22.20
  -3 -10  -4  529.75   23.80
  -4 -10  -4  186.78   11.60
  -4 -10  -4  241.78   13.30
  -5 -10  -4    0.00    1.40
  -5 -10  -4    2.00    1.80
  -6 -10  -4   42.90    4.70
  -6 -10  -4   58.89    6.30
  -7 -10  -4    2.50    2.20
  -7 -10  -4    1.60    3.00
   3 -11  -4  120.39   10.40
   3 -11  -4  117.69    9.80
   2 -11  -4   59.09    7.00
   2 -11  -4   42.60    5.50
   1 -11  -4   10.40    4.00
   1 -11  -4   15.60    3.60
   0 -11  -4   -0.70    2.10
   0 -11  -4    2.70    2.00
  -1 -11  -4   75.59    7.60
  -1 -11  -4   77.09    6.60
  -2 -11  -4  178.48   10.40
  -2 -11  -4  186.58   12.10
  -3 -11  -4  227.58   11.50
  -3 -11  -4  234.48   13.70
  -4 -11  -4   28.30    4.70
  -5 -11  -4  325.97   16.20
   0 -12  -4  293.57   16.90
   0 -12  -4  246.48   18.30
  -1 -12  -4   25.70    4.40
  -1 -12  -4   21.50    4.80
  -2 -12  -4    8.90    3.10
  -2 -12  -4   22.50    5.50
   0 -10   5    8.80    2.80
   1 -10   5  117.39    8.90
   2 -10   5    3.60    2.60
  -3  -9   5    4.50    2.50
  -2  -9   5  315.37   18.40
  -1  -9   5  180.48   11.10
   0  -9   5   87.19    7.10
   1  -9   5   48.30    5.30
   2  -9   5   29.50    4.20
   3  -9   5    4.70    2.20
   4  -9   5   33.10    4.60
  -5   9  -5   19.20    4.80
   5  -9   5   14.60    3.20
  -5  -8   5   40.70    5.70
  -4  -8   5   81.89    7.50
  -3  -8   5  330.37   16.50
  -2  -8   5  163.58   13.10
  -1  -8   5    2.90    1.90
   0  -8   5   89.39    6.80
   1  -8   5  155.08    9.30
   2  -8   5   20.20    3.60
   3  -8   5   84.89    6.40
   4  -8   5   67.19    5.70
  -5   8  -5  454.55   23.40
   5  -8   5  468.45   20.20
   5  -8   5  469.45   20.30
  -6   8  -5   18.00    5.00
   6  -8   5   23.00    3.50
   6  -8   5   20.60    3.80
  -7   8  -5   54.79    6.90
   7  -8   5   35.00    4.70
  -6  -7   5   -6.20    2.90
  -5  -7   5  163.68   10.80
  -4  -7   5  316.57   16.10
  -3  -7   5  445.86   20.00
  -2  -7   5  180.78   10.30
   1   7  -5   31.70    2.90
  -1  -7   5   25.10    3.60
   0   7  -5  628.54   25.90
   0  -7   5  640.14   29.50
   1  -7   5  236.08   11.80
   2  -7   5  487.05   20.30
  -3   7  -5 1313.07   51.09
   3  -7   5 1296.57   47.50
  -4   7  -5 1094.49   45.90
   4  -7   5 1178.08   42.90
   4  -7   5 1205.48   42.80
  -5   7  -5    0.20    1.90
   5  -7   5    4.50    1.90
   5  -7   5    5.50    1.90
  -6   7  -5    7.00    3.30
   6  -7   5    6.50    2.40
   6  -7   5    6.60    1.80
  -7   7  -5   55.29    6.80
   7  -7   5   56.49    5.60
   7  -7   5   50.19    4.70
  -8   7  -5   35.30    5.70
   8  -7   5   28.30    4.80
   8  -7   5   37.30    4.20
  -7  -6   5   60.89    7.20
  -7  -6   5   61.59    7.80
  -6  -6   5   85.69    7.70
  -5  -6   5  143.79    9.70
  -4  -6   5   36.60    4.60
  -3  -6   5   76.59    6.80
  -2  -6   5  370.26   16.60
   1   6  -5    7.30    1.50
  -1  -6   5    5.80    1.80
   0   6  -5 1562.74   54.09
   0  -6   5 1498.75   54.69
   1  -6   5  921.51   34.30
  -2   6  -5 4108.99  142.49
   2  -6   5 4084.19  139.29
  -3   6  -5   22.40    4.00
   3  -6   5   25.30    3.00
  -4   6  -5   16.40    3.70
   4  -6   5   21.80    2.80
   4  -6   5   20.80    2.80
  -5   6  -5    3.90    1.90
   5  -6   5   -0.10    1.10
   5  -6   5    1.10    1.30
  -6   6  -5   20.00    4.00
   6  -6   5   23.50    3.10
   6  -6   5   21.50    3.60
  -7   6  -5    1.40    2.20
   7  -6   5   -0.30    1.40
   7  -6   5   -0.70    1.60
  -8   6  -5   32.70    5.40
   8  -6   5   31.30    4.80
   8  -6   5   35.80    3.60
  -9   6  -5   -1.90    2.40
  -7  -5   5    0.10    2.50
  -7  -5   5    4.20    3.20
  -6  -5   5   32.10    5.10
  -6  -5   5   26.70    5.00
  -5  -5   5   42.50    5.00
  -4  -5   5   13.90    3.00
  -3  -5   5 1130.29   42.10
   2   5  -5 1176.88   41.10
   2   5  -5 1272.57   41.20
  -2  -5   5 1180.78   44.10
   1   5  -5 1104.59   39.60
  -1  -5   5 1167.18   41.50
   0   5  -5 6343.07  209.98
   0  -5   5 6198.78  210.78
  -1   5  -5  120.69    6.70
   1  -5   5  121.19    6.80
  -2   5  -5   36.60    4.20
   2  -5   5   38.60    3.50
  -3   5  -5  275.87   13.90
   3  -5   5  266.87   11.80
  -4   5  -5   42.40    4.70
   4  -5   5   49.99    3.80
   4  -5   5   43.30    3.90
  -5   5  -5   79.79    6.50
   5  -5   5   84.99    5.30
   5  -5   5   92.39    6.00
  -6   5  -5   70.69    7.50
   6  -5   5   73.09    4.80
   6  -5   5   69.99    6.40
  -7   5  -5   16.00    3.40
   7  -5   5   16.60    2.40
   7  -5   5   21.70    3.60
   8  -5   5   93.69    5.40
  -9   5  -5   65.89    6.90
  -8  -4   5    8.10    3.30
  -7  -4   5   53.69    6.20
  -7  -4   5   60.19   10.80
  -6  -4   5  401.66   20.20
  -6  -4   5  411.36   19.20
  -5  -4   5   30.40    4.40
  -4  -4   5   78.09    6.10
  -3  -4   5 2121.49   74.49
   2   4  -5 3119.29  104.79
  -2  -4   5 3157.78  107.69
   1   4  -5  794.02   27.50
  -1  -4   5  765.12   29.10
   0   4  -5  499.55   18.90
   0  -4   5  514.45   19.80
  -1   4  -5    2.20    1.00
   1  -4   5    3.00    1.10
  -2   4  -5    5.10    2.00
  -3   4  -5   11.60    2.60
   3  -4   5    7.20    1.50
  -4   4  -5  188.98   10.20
   4  -4   5  177.88    8.50
   4  -4   5  207.28    9.30
  -5   4  -5   97.59    6.60
   5  -4   5   84.19    4.80
   5  -4   5   79.89    5.40
  -6   4  -5  427.56   19.00
   6  -4   5  445.36   18.50
   6  -4   5  436.46   16.70
  -7   4  -5  165.78   10.00
   7  -4   5  171.68   10.10
   7  -4   5  182.18    7.90
  -8   4  -5    2.10    1.70
   8  -4   5    2.50    1.10
   8  -4   5    3.80    1.90
  -9   4  -5   22.50    4.30
 -10   4  -5  168.58   11.20
  -8  -3   5   11.10    3.10
  -8  -3   5    9.80    3.30
  -7  -3   5  184.98   11.90
  -7  -3   5  182.68   11.00
  -6  -3   5  333.97   16.00
  -6  -3   5  318.77   17.40
  -5  -3   5   69.89    6.50
  -5  -3   5   65.69    5.80
  -4  -3   5  438.86   18.80
   3   3  -5 1243.58   42.30
   3   3  -5 1222.98   41.90
  -3  -3   5 1257.27   45.10
   2   3  -5  509.55   19.10
   2   3  -5  539.85   18.40
  -2  -3   5  527.35   20.70
   1   3  -5 1082.79   38.00
  -1  -3   5 1137.69   39.80
   0   3  -5   31.20    2.30
   0  -3   5   33.40    2.90
  -1   3  -5   52.59    3.80
  -1   3  -5   49.20    4.20
  -1   3  -5   50.69    3.30
   1  -3   5   56.19    3.60
  -2   3  -5   31.20    3.30
  -2   3  -5   35.90    3.00
  -2   3  -5   35.60    2.90
   2  -3   5   35.20    2.70
  -3   3  -5   85.79    6.00
   3  -3   5   87.99    4.60
  -4   3  -5 1718.03   59.89
   4  -3   5 1672.83   57.89
  -5   3  -5  627.84   24.50
   5  -3   5  650.33   22.60
   5  -3   5  601.14   23.80
  -6   3  -5   97.19    6.50
   6  -3   5   98.19    4.70
   6  -3   5   99.79    6.20
  -7   3  -5  143.99    8.50
   7  -3   5  141.49    6.10
   7  -3   5  146.99    6.40
   7  -3   5  138.89    8.10
  -8   3  -5  166.58    9.70
   8  -3   5  163.28    6.80
   8  -3   5  169.08    6.50
  -9   3  -5  113.89    8.10
 -10   3  -5   39.00    5.10
  -9  -2   5   15.50    3.10
  -9  -2   5    7.80    3.40
  -8  -2   5  181.98   10.70
  -8  -2   5  178.18   14.50
   7   2  -5  143.89    6.20
  -7  -2   5  155.38   10.20
  -7  -2   5  133.59   12.50
   6   2  -5  161.58    6.90
  -6  -2   5  165.28    9.70
  -6  -2   5  157.08   10.10
   5   2  -5  230.58    9.40
  -5  -2   5  241.68   12.10
  -5  -2   5  231.98   12.50
   4   2  -5  780.02   28.00
  -4  -2   5  799.82   30.40
   3   2  -5  296.97   11.60
  -3  -2   5  279.97   13.00
   2   2  -5   30.70    2.50
  -2  -2   5   29.50    3.10
   1   2  -5  678.13   24.80
  -1  -2   5  692.23   25.20
  -1  -2   5  661.43   25.70
   0   2  -5    9.00    1.50
   0   2  -5   14.60    1.30
   0  -2   5   10.70    1.90
   0  -2   5   11.50    1.80
  -1   2  -5 4065.39  126.39
   1  -2   5 3435.66  127.49
  -2   2  -5 4176.38  139.39
  -2   2  -5 4081.59  141.99
   2  -2   5 4143.69  139.29
   2  -2   5 4201.78  138.99
  -3   2  -5 2269.07   76.89
  -3   2  -5 2243.58   77.49
  -3   2  -5 2204.98   77.29
   3  -2   5 2276.07   76.99
   3  -2   5 2292.97   76.19
   4  -2   5  295.97   11.20
  -5   2  -5  307.27   13.20
   5  -2   5  304.87   11.30
  -6   2  -5  331.87   14.60
   6  -2   5  344.27   12.20
  -7   2  -5   18.50    3.10
  -8   2  -5  240.58   13.10
  -9   2  -5   29.70    4.00
 -10   2  -5  160.28   10.00
 -11   2  -5  191.78   11.80
  -9  -1   5  146.79    9.30
  -9  -1   5  131.19   10.00
   8   1  -5   52.59    4.20
  -8  -1   5   64.59    5.70
  -8  -1   5   64.79    6.40
   7   1  -5   33.20    3.20
  -7  -1   5   33.70    4.50
  -7  -1   5   33.40    4.10
   6   1  -5   25.40    2.70
  -6  -1   5   27.90    3.80
  -6  -1   5   22.60    2.70
  -6  -1   5   27.10    3.70
   5   1  -5  411.26   16.30
  -5  -1   5  415.86   17.80
  -5  -1   5  416.86   18.30
  -5  -1   5  400.96   16.40
   4   1  -5   11.20    1.80
  -4  -1   5   10.90    2.40
  -4  -1   5    8.90    2.10
   3   1  -5  112.39    5.90
  -3  -1   5  106.89    6.50
   2   1  -5  229.08   10.30
   2   1  -5  245.28   10.40
  -2  -1   5  247.78   10.90
   1   1  -5  644.64   23.50
   1   1  -5  649.54   23.40
  -1  -1   5  627.34   23.90
  -1  -1   5  640.44   23.80
   0   1  -5 1274.17   45.20
   0  -1   5 1318.17   45.70
   0  -1   5 1341.27   45.70
  -2   1  -5   95.69    4.60
  -2   1  -5   87.29    4.20
  -2   1  -5   89.69    4.80
   2  -1   5   83.79    4.40
   2  -1   5   92.19    4.40
  -3   1  -5  613.34   22.30
  -3   1  -5  617.44   21.60
  -3   1  -5  608.34   22.30
   3  -1   5  606.94   21.30
   3  -1   5  585.94   22.00
  -4   1  -5  103.39    5.80
  -4   1  -5   99.09    5.40
   4  -1   5  102.29    4.30
   4  -1   5   96.19    5.30
  -5   1  -5  125.99    6.50
   5  -1   5  123.89    4.80
  -6   1  -5  406.96   16.60
  -7   1  -5   39.10    3.80
  -8   1  -5   47.70    4.50
  -9   1  -5   15.10    3.10
 -10   1  -5    3.10    2.20
 -11   1  -5   -3.80    2.10
   9   0  -5   13.80    3.00
  -9   0   5   11.30    3.40
   8   0  -5   40.80    4.10
  -8   0   5   42.40    4.70
  -8   0   5   35.90    4.90
   7   0  -5   53.89    4.50
  -7   0   5   45.50    5.00
  -7   0   5   54.29    5.10
   6   0  -5    2.20    2.20
  -6   0   5    3.10    1.80
  -6   0   5    3.90    1.80
   5   0  -5   10.60    2.10
  -5   0   5    8.60    2.20
  -5   0   5   17.80    2.30
  -5   0   5   13.50    2.70
   4   0  -5   78.19    5.10
  -4   0   5   78.79    5.50
  -4   0   5   71.49    5.70
  -4   0   5   76.19    6.20
  -3   0   5   11.60    1.90
  -3   0   5   19.10    3.40
  -3   0   5   12.20    2.20
   2   0  -5 2314.67   76.59
   2   0  -5 2209.58   76.99
  -2   0   5 2190.08   76.89
   1   0  -5 5145.58  172.68
   0   0  -5   87.49    4.50
   0   0   5   91.29    4.80
   0   0   5   81.69    4.30
  -1   0  -5 1460.25   50.09
  -1   0  -5 1461.75   49.80
   1   0   5 1475.45   49.50
   1   0   5 1439.46   50.09
  -2   0  -5  204.38    8.60
  -2   0  -5  220.58    8.30
   2   0   5  219.98    8.60
   2   0   5  218.88    8.40
  -3   0  -5  131.69    5.90
  -3   0  -5  134.09    5.80
  -3   0  -5  123.49    5.00
   3   0   5  128.09    5.30
   3   0   5  120.29    5.70
  -4   0  -5  137.79    6.70
  -4   0  -5  160.68    6.80
  -4   0  -5  134.69    5.40
   4   0   5  142.49    5.30
  -5   0  -5  656.83   24.20
  -6   0  -5  234.28   10.60
  -7   0  -5   90.09    5.90
  -8   0  -5   24.50    3.30
  -9   0  -5   20.60    3.50
 -10   0  -5   17.80    3.80
 -11   0  -5   31.50    7.80
   9  -1  -5   17.60    5.10
  -9   1   5   16.60    3.50
   8  -1  -5  314.37   14.90
  -8   1   5  328.97   15.80
   7  -1  -5   56.29    5.10
  -7   1   5   61.59    5.40
  -7   1   5   62.49    5.50
   6  -1  -5  551.84   22.90
  -6   1   5  578.84   23.30
  -6   1   5  566.74   23.10
   5  -1  -5  249.08   13.30
  -5   1   5  239.68   11.70
  -5   1   5  249.48   11.70
   4  -1  -5  144.99    8.10
  -4   1   5  139.29    7.40
  -4   1   5  142.19    7.80
  -4   1   5  140.39    7.90
   3  -1  -5   60.99    4.70
  -3   1   5   60.89    4.60
  -3   1   5   67.79    4.20
  -3   1   5   58.39    4.40
   2  -1  -5   44.90    3.40
   2  -1  -5   43.00    3.70
  -2   1   5   47.40    3.20
  -2   1   5   46.00    3.50
   1  -1  -5 2163.08   72.39
   1  -1  -5 2021.10   71.49
   0  -1  -5 1790.82   66.19
   0  -1  -5 1734.43   66.79
   0   1   5 2246.68   66.69
   0   1   5 2015.00   67.09
  -1  -1  -5  130.49    5.80
  -1  -1  -5  136.39    5.50
   1   1   5  130.89    5.10
   1   1   5  115.59    5.60
  -2  -1  -5 2931.11   97.99
   2   1   5 2925.31   98.09
  -3  -1  -5  104.49    4.10
  -3  -1  -5   97.09    4.50
   3   1   5   95.89    4.20
   3   1   5  101.79    4.70
  -5  -1  -5 3901.11  129.39
  -5  -1  -5 3704.93  129.39
   5   1   5 3909.01  129.89
  -6  -1  -5   42.80    3.50
  -7  -1  -5   14.20    2.50
  -8  -1  -5   76.29    5.70
  -9  -1  -5   35.80    4.20
 -10  -1  -5   66.69    6.10
 -11  -1  -5  135.19    9.50
   9  -2  -5   59.99    5.40
  -9   2   5   44.40    5.50
   8  -2  -5    8.90    2.70
  -8   2   5    6.50    2.40
   7  -2  -5  142.79    8.80
  -7   2   5  138.79    8.40
   6  -2  -5  436.86   19.50
  -6   2   5  452.65   18.70
   5  -2  -5  294.87   14.70
  -5   2   5  321.37   13.80
  -5   2   5  337.27   14.60
   4  -2  -5 2561.74   90.19
  -4   2   5 2576.34   87.29
  -4   2   5 2429.96   86.19
   3  -2  -5  151.08    8.50
  -3   2   5  148.29    7.00
  -3   2   5  175.88    9.40
  -3   2   5  139.39    8.20
   2  -2  -5  434.96   16.80
   2  -2  -5  441.36   17.80
  -2   2   5  395.26   16.60
  -2   2   5  418.26   17.30
  -2   2   5  414.86   15.50
   1  -2  -5  265.37   12.20
   1  -2  -5  299.87   11.80
  -1   2   5  255.07   11.00
  -1   2   5  282.67   11.50
  -1   2   5  258.87   11.80
   0   2   5 2585.04   85.89
   0   2   5 2501.15   83.99
   0   2   5 2507.75   84.09
  -3  -2  -5  686.83   24.40
  -3  -2  -5  681.83   24.60
   3   2   5  746.63   25.00
  -4  -2  -5 2688.53   92.39
  -4  -2  -5 2731.13   91.19
   4   2   5 2794.22   92.89
  -5  -2  -5   52.29    3.40
  -5  -2  -5   51.49    3.60
   5   2   5   52.59    3.90
  -6  -2  -5  688.03   25.90
  -7  -2  -5  850.51   31.90
  -8  -2  -5    1.00    1.40
  -9  -2  -5    0.60    1.60
 -10  -2  -5   35.00    4.70
 -11  -2  -5    0.40    2.20
  -9   3   5   63.29    6.00
   8  -3  -5   17.80    3.70
  -8   3   5   16.90    3.40
   7  -3  -5   -0.70    1.40
  -7   3   5   -0.30    1.20
   6  -3  -5    0.10    1.50
  -6   3   5    1.40    1.20
   5  -3  -5   12.70    3.00
  -5   3   5   11.40    2.10
   4  -3  -5   10.90    2.70
  -4   3   5   16.50    2.50
   3  -3  -5 1338.27   50.89
  -3   3   5 1412.96   47.50
   2  -3  -5   10.60    2.30
   2  -3  -5    9.80    1.80
  -2   3   5   11.30    2.20
  -2   3   5   12.70    1.30
   1  -3  -5  735.03   29.10
   1  -3  -5  766.12   27.80
  -1   3   5  770.52   28.90
  -1   3   5  774.72   25.90
   0  -3  -5 2636.14   82.69
   0  -3  -5 2316.97   83.79
   0   3   5 2321.17   83.29
  -1  -3  -5 2202.58   72.59
  -1  -3  -5 1980.00   70.99
  -2  -3  -5 4373.36  146.29
  -3  -3  -5 3068.69  102.79
  -4  -3  -5 1057.39   36.80
  -4  -3  -5 1041.40   36.30
  -5  -3  -5    0.60    0.80
  -5  -3  -5    1.70    0.50
  -6  -3  -5  200.18    9.50
  -6  -3  -5  193.78    9.40
  -7  -3  -5   94.89    6.10
  -8  -3  -5 1203.78   44.50
  -9  -3  -5    1.10    1.70
 -10  -3  -5   42.60    5.10
 -11  -3  -5  184.48   12.90
   9  -4  -5    1.30    2.80
  -9   4   5   -0.70    2.20
   8  -4  -5    2.10    2.10
  -8   4   5   -1.20    1.50
   7  -4  -5    7.20    2.60
  -7   4   5    5.70    2.00
   6  -4  -5   18.30    3.60
  -6   4   5   22.80    3.00
   5  -4  -5   18.70    3.70
  -5   4   5   20.70    2.60
   4  -4  -5  357.96   15.30
   4  -4  -5  374.36   17.60
  -4   4   5  379.56   14.60
   3  -4  -5  342.37   16.30
   3  -4  -5  338.47   13.80
  -3   4   5  353.06   13.20
   2  -4  -5  859.21   31.10
   2  -4  -5  913.51   34.60
  -2   4   5  904.81   30.70
   1  -4  -5 1300.67   46.30
   1  -4  -5 1408.96   49.99
   1  -4  -5 1281.47   48.10
  -1   4   5 1406.26   49.70
  -1   4   5 1443.06   46.20
   0  -4  -5  455.65   17.70
   0  -4  -5  445.26   18.90
   0   4   5  465.85   18.80
  -1  -4  -5   10.80    0.60
  -1  -4  -5   11.00    2.20
  -1  -4  -5    7.40    0.70
  -2  -4  -5  944.21   34.10
  -2  -4  -5  903.51   32.70
  -3  -4  -5   29.30    2.20
  -3  -4  -5   26.60    2.80
  -4  -4  -5  200.78    9.00
  -4  -4  -5  223.88    9.30
  -5  -4  -5 1108.19   39.40
  -5  -4  -5 1092.69   38.10
  -6  -4  -5 1430.86   53.39
  -6  -4  -5 1541.95   51.19
  -6  -4  -5 1554.94   52.39
  -7  -4  -5  280.57   10.60
  -7  -4  -5  295.97   13.40
  -8  -4  -5 1012.50   38.40
  -9  -4  -5   -1.10    1.50
 -10  -4  -5   10.40    4.10
 -11  -4  -5    3.20    3.00
   8  -5  -5  308.87   16.50
  -8   5   5  289.57   14.20
   7  -5  -5   66.89    6.80
  -7   5   5   65.79    5.20
   6  -5  -5   12.60    3.50
  -6   5   5   11.60    2.30
   5  -5  -5   81.19    7.10
  -5   5   5   90.89    5.40
   4  -5  -5   33.80    4.40
   4  -5  -5   25.10    3.70
  -4   5   5   34.60    2.90
   3  -5  -5   90.89    5.10
   3  -5  -5   95.79    7.20
  -3   5   5   91.39    4.80
   2  -5  -5   57.89    3.40
   2  -5  -5   61.09    5.50
  -2   5   5   56.59    3.30
   1  -5  -5   63.99    5.40
   1  -5  -5   65.19    3.30
  -1   5   5   68.39    3.50
   0  -5  -5    1.70    1.30
  -1  -5  -5   26.80    3.20
  -1  -5  -5   20.90    1.60
   1   5   5   25.20    2.80
  -2  -5  -5  204.98   10.30
  -2  -5  -5  211.08    8.50
  -3  -5  -5  613.74   23.70
  -3  -5  -5  593.54   22.10
  -4  -5  -5 1413.76   51.09
  -4  -5  -5 1473.25   51.39
  -4  -5  -5 1513.45   52.29
  -5  -5  -5 3417.56  116.29
  -5  -5  -5 3482.45  115.19
  -5  -5  -5 3321.57  115.99
  -6  -5  -5 4279.57  150.68
  -6  -5  -5 4511.25  150.58
  -6  -5  -5 4705.83  152.88
  -7  -5  -5    1.20    0.80
  -7  -5  -5   -2.00    0.80
  -8  -5  -5  791.82   31.60
  -8  -5  -5  811.22   28.30
  -9  -5  -5    2.70    1.90
  -9  -5  -5    1.80    0.90
 -10  -5  -5   -0.20    1.90
 -11  -5  -5    4.90    3.10
  -8   6   5  876.01   34.00
   7  -6  -5   63.39    7.00
  -7   6   5   67.39    7.80
   6  -6  -5    2.20    2.30
  -6   6   5    2.50    1.60
   5  -6  -5   -0.60    1.50
  -5   6   5    0.00    1.10
   4  -6  -5    5.30    2.20
  -4   6   5    5.50    1.90
   3  -6  -5   25.00    2.50
   3  -6  -5   17.50    3.50
  -3   6   5   24.80    2.50
   2  -6  -5  224.08    9.60
   2  -6  -5  238.78   12.90
  -2   6   5  243.28   10.00
   1  -6  -5   46.20    4.80
   1  -6  -5   46.30    2.80
  -1   6   5   49.40    3.20
   0  -6  -5  133.69    8.80
   0  -6  -5  160.38    6.20
  -1  -6  -5  464.45   21.40
  -1  -6  -5  432.06   16.00
  -2  -6  -5  357.96   14.10
  -2  -6  -5  373.36   16.30
  -4  -6  -5 2676.43   90.99
  -4  -6  -5 2663.03   90.19
  -4  -6  -5 2539.45   90.39
  -5  -6  -5  162.18    8.70
  -5  -6  -5  172.98    8.40
  -5  -6  -5  168.18    9.00
  -6  -6  -5 1080.29   39.50
  -6  -6  -5 1032.70   39.80
  -6  -6  -5 1108.19   38.30
  -7  -6  -5    8.80    2.40
  -7  -6  -5    8.90    2.20
  -7  -6  -5   12.80    1.70
  -7  -6  -5   11.10    1.80
  -8  -6  -5   13.50    2.00
  -8  -6  -5   14.00    2.70
  -8  -6  -5   10.90    2.90
  -9  -6  -5   71.89    5.70
  -9  -6  -5   59.59    4.30
  -9  -6  -5   72.79    6.40
 -10  -6  -5   -1.50    1.90
   7  -7  -5    2.60    2.80
  -7   7   5    5.70    1.90
  -6   7   5   50.19    4.60
   5  -7  -5  195.28   12.30
  -5   7   5  175.48    9.30
   4  -7  -5  126.49   11.80
  -4   7   5  149.79    7.80
   3  -7  -5  424.96   20.80
  -3   7   5  456.25   17.90
   2  -7  -5    3.60    2.00
   2  -7  -5    1.50    0.90
  -2   7   5    7.10    1.60
   1  -7  -5    2.90    0.90
   1  -7  -5    2.30    1.70
   0  -7  -5  198.48    8.10
   0  -7  -5  195.58   11.20
  -1  -7  -5 5695.53  192.48
  -1  -7  -5 5850.51  196.38
  -2  -7  -5  509.65   21.30
  -2  -7  -5  484.25   18.90
  -2  -7  -5  508.65   21.40
  -3  -7  -5 2061.89   78.19
  -3  -7  -5 2430.06   80.39
  -3  -7  -5 2339.47   80.19
  -4  -7  -5  214.28   10.80
  -4  -7  -5  203.48   10.50
  -5  -7  -5 1425.16   50.29
  -5  -7  -5 1408.16   50.79
  -5  -7  -5 1369.76   50.49
  -6  -7  -5   -0.60    1.10
  -6  -7  -5    1.20    0.90
  -6  -7  -5   -0.20    1.10
  -7  -7  -5  292.47   12.90
  -7  -7  -5  279.37   14.10
  -7  -7  -5  269.37   11.30
  -7  -7  -5  286.57   12.10
  -8  -7  -5   -1.00    1.20
  -8  -7  -5   -0.30    1.10
  -8  -7  -5    4.60    2.10
  -9  -7  -5   48.80    4.00
  -9  -7  -5   41.00    7.80
   7  -8  -5   30.30    6.10
  -7   8   5   21.60    4.20
   6  -8  -5   -0.10    2.20
  -6   8   5    2.00    2.20
   5  -8  -5   75.39   11.80
  -5   8   5   59.09    5.10
   4  -8  -5   41.60    5.70
  -4   8   5   39.40    4.30
   3  -8  -5  259.37   14.70
  -3   8   5  236.48   11.70
   2  -8  -5  362.46   18.50
  -2   8   5  383.26   16.10
   1  -8  -5  834.62   34.00
   1  -8  -5  830.32   29.80
   0  -8  -5 1093.19   39.00
   0  -8  -5 1150.48   43.40
  -1  -8  -5  904.41   35.80
  -1  -8  -5  925.01   36.30
  -1  -8  -5  901.81   32.30
  -2  -8  -5   30.80    3.90
  -2  -8  -5   25.20    2.50
  -2  -8  -5   29.50    4.20
  -3  -8  -5  102.19    7.20
  -3  -8  -5   95.19    6.80
  -4  -8  -5   75.89    5.90
  -5  -8  -5  304.37   13.80
  -5  -8  -5  314.47   13.70
  -5  -8  -5  253.97   13.60
  -6  -8  -5   97.69    6.30
  -6  -8  -5   86.29    6.00
  -6  -8  -5  104.79    7.20
  -7  -8  -5  973.70   43.80
  -7  -8  -5  893.31   33.20
  -7  -8  -5  851.61   32.80
  -8  -8  -5   49.90    5.70
  -8  -8  -5   52.19    4.40
  -9  -8  -5   49.40    4.50
  -9  -8  -5   62.09    6.40
   6  -9  -5  209.38   14.10
  -6   9   5  224.18   12.30
   5  -9  -5   -1.30    2.30
  -5   9   5    2.40    2.10
   4  -9  -5   41.40    9.60
  -4   9   5   44.30    5.10
   3  -9  -5   94.59    8.30
  -3   9   5   97.59    6.90
   2  -9  -5  155.08   10.70
   1  -9  -5  101.79    8.20
   0  -9  -5  214.48   12.50
  -1  -9  -5   81.69    7.20
  -1  -9  -5   80.09    6.80
  -2  -9  -5  138.09    9.10
  -2  -9  -5  149.19    9.90
  -3  -9  -5    1.00    1.60
  -3  -9  -5    0.70    1.50
  -4  -9  -5  285.97   13.70
  -4  -9  -5  286.07   14.30
  -5  -9  -5   17.90    3.40
  -5  -9  -5   14.70    3.00
  -6  -9  -5   -0.70    1.10
  -6  -9  -5    1.50    1.60
  -6  -9  -5    0.60    1.30
  -7  -9  -5  320.87   17.10
  -7  -9  -5  382.36   17.80
  -8  -9  -5   29.40    4.90
  -8  -9  -5   31.80    3.90
   5 -10  -5   19.80    4.50
  -5  10   5   24.70    4.40
   4 -10  -5   18.20    4.60
  -4  10   5   12.10    3.60
   3 -10  -5    3.20    2.40
   3 -10  -5    2.40    2.20
   2 -10  -5    8.40    3.20
   1 -10  -5   51.99    6.50
   1 -10  -5   48.30    5.80
   0 -10  -5  135.79   12.40
   0 -10  -5  119.69    9.60
  -1 -10  -5  131.99    9.20
  -1 -10  -5  131.29    9.80
  -2 -10  -5   17.70    3.80
  -2 -10  -5   22.60    4.00
  -3 -10  -5   33.50    4.80
  -3 -10  -5   26.50    4.10
  -4 -10  -5  677.33   27.10
  -4 -10  -5  682.33   28.60
  -5 -10  -5  378.56   17.10
  -5 -10  -5  356.26   15.40
  -5 -10  -5  320.97   18.90
  -6 -10  -5   52.89    5.10
  -6 -10  -5   43.10    5.40
  -7 -10  -5  417.16   25.50
  -7 -10  -5  403.66   18.00
   3 -11  -5    5.40    4.10
   3 -11  -5   12.40    3.90
   2 -11  -5    8.40    6.40
   2 -11  -5   13.00    3.80
   1 -11  -5  108.89    9.60
   1 -11  -5  103.39    8.90
   0 -11  -5  102.59    8.20
   0 -11  -5   99.49    8.90
  -1 -11  -5    1.70    1.90
  -1 -11  -5    1.70    2.20
  -2 -11  -5  285.57   16.80
  -2 -11  -5  339.77   16.10
  -3 -11  -5    6.90    2.60
  -3 -11  -5    7.30    2.60
  -4 -11  -5  144.59   10.00
  -4 -11  -5  149.69    8.70
  -5 -11  -5    1.80    2.20
  -5 -11  -5    0.20    1.90
  -6 -11  -5   17.50    3.70
  -6 -11  -5   18.70    3.60
   0 -12  -5   53.69    6.50
   0 -12  -5   56.69    7.40
  -1 -12  -5   60.69    7.30
  -1 -12  -5   59.19    6.30
  -2 -12  -5  164.08   10.40
  -2 -12  -5  177.18   12.40
  -3 -12  -5    8.90    3.30
  -3 -12  -5    7.30    3.10
  -2  -9   6    9.20    2.80
  -1  -9   6    4.00    2.40
   0  -9   6  301.87   18.60
   1  -9   6   39.60    4.90
   2  -9   6  272.57   14.30
   3  -9   6  234.88   12.80
   4  -9   6  168.58   10.30
  -4  -8   6   15.20    3.90
  -3  -8   6  387.26   20.10
  -2  -8   6   17.20    3.70
  -1  -8   6  644.24   27.10
   0  -8   6    0.10    1.90
   1  -8   6   52.89    5.20
   2  -8   6  253.97   13.00
   3  -8   6  246.08   12.60
  -4   8  -6 1035.40   44.10
   4  -8   6 1056.69   39.70
  -5   8  -6  225.58   14.80
   5  -8   6  207.98   11.30
  -6   8  -6  793.72   36.20
   6  -8   6  824.62   31.60
  -4  -7   6    1.60    2.00
  -2  -7   6   58.89    5.70
  -1  -7   6   54.39    5.30
   0  -7   6   18.60    3.30
   1  -7   6  139.99    8.50
   2  -7   6  389.26   17.80
  -3   7  -6    3.40    2.20
   3  -7   6    5.90    3.10
  -4   7  -6 2475.95   88.09
   4  -7   6 2305.37   83.79
  -5   7  -6   70.29    9.60
   5  -7   6   57.09    5.00
  -6   7  -6    8.60    3.50
   6  -7   6    9.20    2.30
  -7   7  -6   11.20    5.50
   7  -7   6    7.30    2.30
  -6  -6   6   -2.30    2.50
  -6  -6   6   -1.60    2.30
  -5  -6   6   98.09    8.20
  -4  -6   6    7.40    2.60
  -3  -6   6    5.70    2.10
  -2  -6   6  202.18   11.10
   1   6  -6  622.34   23.30
  -1  -6   6  629.24   25.50
   0   6  -6    4.30    1.70
   0  -6   6    4.00    1.80
   1  -6   6 1546.65   55.39
   2  -6   6 2621.84   90.79
  -3   6  -6  133.19   10.00
   3  -6   6  165.18    8.50
  -4   6  -6   59.59    6.10
   4  -6   6   54.99    4.60
  -5   6  -6   46.50    5.60
   5  -6   6   39.80    3.70
  -6   6  -6   37.70    5.70
   6  -6   6   34.90    3.50
  -7   6  -6    4.00    2.40
   7  -6   6    7.10    1.90
   8  -6   6   -0.50    1.50
  -7  -5   6    4.90    3.30
  -7  -5   6    4.90    3.30
  -6  -5   6  217.48   13.70
  -6  -5   6  174.08   12.40
  -5  -5   6    1.60    2.30
  -4  -5   6   27.50    4.30
  -3  -5   6   86.89    6.90
   2   5  -6  616.94   21.60
  -2  -5   6  598.34   24.80
   1   5  -6   61.29    3.90
  -1  -5   6   67.19    5.30
   0   5  -6  919.91   32.70
   0  -5   6  878.61   33.60
   1  -5   6  319.07   14.00
  -2   5  -6  541.95   23.50
   2  -5   6  515.85   20.80
  -3   5  -6   91.69    7.20
   3  -5   6   85.49    5.50
  -4   5  -6  150.38    9.70
   4  -5   6  148.69    7.70
  -5   5  -6    5.40    2.10
   5  -5   6    5.50    1.50
  -6   5  -6   66.59    6.20
   6  -5   6   72.09    4.60
  -7   5  -6    7.10    2.60
   7  -5   6    4.30    1.50
  -8   5  -6  358.66   18.60
   8  -5   6  393.96   15.60
  -9   5  -6   55.39    6.70
  -7  -4   6  103.09    9.10
  -7  -4   6   86.59    7.90
  -6  -4   6  338.37   18.30
  -6  -4   6  347.57   17.40
  -5  -4   6   26.90    4.40
  -4  -4   6  147.29    9.30
  -3  -4   6  235.48   12.00
   2   4  -6  105.19    4.70
   2   4  -6  100.59    5.10
  -2  -4   6  101.59    6.70
   1   4  -6 2023.50   69.89
  -1  -4   6 2089.09   72.09
   0   4  -6  521.75   19.40
   0  -4   6  482.95   19.90
  -1   4  -6 1023.40   36.90
   1  -4   6 1028.10   37.20
  -2   4  -6   -1.50    1.20
   2  -4   6    0.30    0.80
  -3   4  -6  554.04   23.80
   3  -4   6  588.04   21.70
  -4   4  -6   40.40    4.30
   4  -4   6   40.50    3.90
  -5   4  -6  358.46   16.40
   5  -4   6  345.07   13.90
  -6   4  -6  506.35   22.00
   6  -4   6  515.75   19.20
  -7   4  -6  385.66   18.20
   7  -4   6  395.26   15.00
  -8   4  -6    8.90    2.70
   8  -4   6    8.70    1.40
  -9   4  -6   28.80    4.80
 -10   4  -6   96.39    8.20
  -8  -3   6  164.28   10.80
  -7  -3   6    1.70    2.10
  -6  -3   6  756.52   30.90
  -6  -3   6  742.13   31.90
  -5  -3   6  167.88   10.70
  -5  -3   6  162.88   10.10
   4   3  -6   24.20    1.80
  -4  -3   6   23.50    3.80
   3   3  -6   53.79    3.30
   3   3  -6   51.09    2.60
  -3  -3   6   54.49    5.00
   2   3  -6  530.55   21.50
   2   3  -6  646.84   22.80
  -2  -3   6  680.23   24.70
   1   3  -6  983.60   34.00
  -1  -3   6  976.00   36.00
   0   3  -6  172.98    7.60
   0  -3   6  181.38    8.80
  -1   3  -6   32.10    2.60
   1  -3   6   36.30    3.70
  -2   3  -6   85.79    5.70
  -2   3  -6   88.79    6.20
   2  -3   6   84.79    4.90
  -3   3  -6 1435.66   50.39
  -3   3  -6 1373.56   49.20
   3  -3   6 1360.46   48.20
  -4   3  -6    1.20    1.10
   4  -3   6    0.10    0.60
  -5   3  -6  413.26   18.00
   5  -3   6  429.26   15.90
  -6   3  -6   11.80    2.60
   6  -3   6   15.10    1.70
  -7   3  -6  115.19    7.60
   7  -3   6  115.99    5.10
  -8   3  -6   43.90    4.80
  -9   3  -6   30.90    6.90
 -10   3  -6  145.19   11.20
  -8  -2   6  502.95   23.80
   7   2  -6  349.37   12.40
  -7  -2   6  306.57   16.00
  -7  -2   6  316.47   16.80
   6   2  -6  840.22   29.60
  -6  -2   6  840.12   41.40
   5   2  -6    0.40    0.80
  -5  -2   6    1.90    1.70
  -5  -2   6    1.10    1.50
   4   2  -6  267.37   11.00
  -4  -2   6  257.97   13.00
   3   2  -6  592.24   22.20
  -3  -2   6  597.54   24.00
   2   2  -6    1.60    0.90
  -2  -2   6    2.50    1.40
   1   2  -6  771.42   26.80
  -1  -2   6  683.73   27.20
   0  -2   6  670.43   25.20
   0  -2   6  662.53   24.90
  -1   2  -6  493.95   18.10
  -1   2  -6  405.26   16.30
   1  -2   6  394.66   16.40
   1  -2   6  406.56   16.40
  -2   2  -6  203.38   10.20
  -2   2  -6  220.78    9.40
  -2   2  -6  221.78    9.50
   2  -2   6  221.68    9.30
   2  -2   6  213.58    9.40
  -3   2  -6 4176.68  139.59
  -3   2  -6 4072.29  138.49
   3  -2   6 4102.09  137.99
  -4   2  -6   67.99    4.30
  -4   2  -6   69.29    4.80
   4  -2   6   69.59    3.70
  -5   2  -6    6.30    1.80
   5  -2   6    6.90    1.10
  -6   2  -6  445.46   18.50
   6  -2   6  443.96   15.90
  -7   2  -6  221.98   11.20
  -8   2  -6  127.29    8.40
  -9   2  -6   39.70    4.50
 -10   2  -6   65.99    6.20
 -11   2  -6  219.38   12.90
   8   1  -6  172.18    8.50
  -8  -1   6  186.18   10.90
  -8  -1   6  166.18   11.20
   7   1  -6   81.29    5.20
  -7  -1   6   76.39    6.90
  -7  -1   6   81.09    6.50
   6   1  -6   -2.10    0.90
  -6  -1   6   -0.10    1.60
  -6  -1   6    0.50    1.40
   5   1  -6  219.78   10.20
  -5  -1   6  226.28   11.70
  -5  -1   6  219.78   11.80
   4   1  -6   28.60    3.00
  -4  -1   6   25.70    3.50
  -4  -1   6   21.00    3.50
   3   1  -6   14.60    2.30
  -3  -1   6   15.00    2.90
   2   1  -6  126.69    6.50
  -2  -1   6  103.29    6.60
   1   1  -6   25.60    2.60
  -1  -1   6   32.00    2.90
  -1  -1   6   25.00    3.00
   0   1  -6 1588.44   56.79
   0  -1   6 1662.13   57.29
   0  -1   6 1714.43   57.59
  -1   1  -6 3548.04  114.09
  -1   1  -6 3454.25  114.99
   1  -1   6 3361.76  114.39
   1  -1   6 3186.38  113.89
  -2   1  -6   16.80    2.10
  -2   1  -6   23.90    2.00
  -2   1  -6   17.90    1.70
   2  -1   6   17.50    1.80
   2  -1   6   20.70    2.10
  -3   1  -6    1.90    0.70
  -3   1  -6    2.40    0.90
   3  -1   6    0.80    0.70
   3  -1   6    0.80    0.60
  -4   1  -6   63.49    4.30
  -4   1  -6   70.89    3.80
   4  -1   6   68.69    3.60
   4  -1   6   74.09    5.00
  -5   1  -6   20.30    2.40
   5  -1   6   21.40    1.60
  -6   1  -6  312.27   13.60
  -7   1  -6  511.15   20.70
  -8   1  -6  753.42   29.40
  -9   1  -6  312.67   15.00
 -10   1  -6    1.50    1.70
 -11   1  -6    9.20    3.30
   8   0  -6    4.10    2.00
  -8   0   6    9.10    2.70
  -8   0   6    7.40    3.00
   7   0  -6  302.07   13.60
  -7   0   6  311.97   15.00
  -7   0   6  282.87   14.80
   6   0  -6   52.09    4.50
  -6   0   6   52.09    5.00
  -6   0   6   53.89    5.10
   5   0  -6   84.09    5.80
  -5   0   6   80.19    6.10
  -5   0   6   88.39    6.30
   4   0  -6  462.55   18.90
  -4   0   6  470.35   19.20
  -4   0   6  467.55   18.60
  -4   0   6  437.86   19.10
   3   0  -6  151.38    8.30
  -3   0   6  171.88    8.60
  -3   0   6  168.88    8.90
   2   0  -6  674.33   25.00
  -2   0   6  618.74   25.10
   1   0  -6  287.67   11.90
   1   0  -6  276.27   12.30
  -1   0   6  298.07   12.40
  -1   0   6  279.37   11.80
   0   0  -6 2017.30   67.89
   0   0  -6 1887.71   66.99
   0   0   6 1907.71   67.49
   0   0   6 2030.50   66.89
  -1   0  -6 2184.58   74.19
  -1   0  -6 2212.28   74.59
   1   0   6 2171.68   74.59
   1   0   6 2183.88   73.89
  -2   0  -6  122.19    5.70
  -2   0  -6  116.99    5.20
   2   0   6  109.69    5.10
   2   0   6  112.09    5.50
  -3   0  -6   63.09    3.70
  -3   0  -6   67.59    3.20
   3   0   6   68.79    3.70
   3   0   6   65.09    3.50
  -4   0  -6 1385.56   47.00
  -4   0  -6 1428.56   48.30
   4   0   6 1344.87   48.30
   4   0   6 1398.66   47.00
  -5   0  -6  684.63   25.30
  -6   0  -6 2246.98   77.49
  -7   0  -6  596.34   23.30
  -8   0  -6   86.29    6.10
  -9   0  -6   27.70    3.70
 -10   0  -6    6.40    2.50
   9  -1  -6   -4.50    2.00
  -9   1   6   -1.40    2.20
   8  -1  -6  119.99    7.90
  -8   1   6  118.39    8.40
   7  -1  -6  387.16   17.40
  -7   1   6  403.46   18.80
  -7   1   6  377.46   18.90
   6  -1  -6  216.68   11.20
  -6   1   6  204.48   11.30
  -6   1   6  217.28   11.20
   5  -1  -6   74.49    5.80
  -5   1   6   79.59    6.00
  -5   1   6   78.69    5.70
   4  -1  -6  112.19    7.30
  -4   1   6  125.19    7.40
   3  -1  -6  109.59    6.80
  -3   1   6  104.39    6.50
  -3   1   6  110.29    6.10
  -3   1   6  108.99    6.50
   2  -1  -6 1010.90   36.50
  -2   1   6 1028.90   35.00
  -2   1   6  899.61   35.90
   1  -1  -6   10.50    2.10
   1  -1  -6   13.30    1.90
   0  -1  -6 1906.01   66.79
   0  -1  -6 1979.90   66.09
   0   1   6 1823.02   65.79
   0   1   6 1965.00   64.89
  -1  -1  -6 2928.61  105.59
   1   1   6 3346.87  105.99
  -2  -1  -6  126.59    5.50
  -2  -1  -6  111.99    5.10
   2   1   6  118.69    5.50
   2   1   6  114.59    5.00
  -3  -1  -6 1608.34   53.59
  -3  -1  -6 1538.65   53.89
   3   1   6 1632.24   53.69
   3   1   6 1558.64   53.99
  -4  -1  -6 1644.14   53.79
  -4  -1  -6 1605.24   52.49
   4   1   6 1450.55   53.89
  -5  -1  -6  660.83   24.00
   5   1   6  641.24   24.40
  -6  -1  -6 1601.24   55.99
  -7  -1  -6  132.99    7.40
  -8  -1  -6  505.75   20.90
  -9  -1  -6   23.60    3.80
 -10  -1  -6   11.50    2.90
 -11  -1  -6   -1.10    1.60
   9  -2  -6  494.95   21.90
  -9   2   6  483.95   22.00
   8  -2  -6   28.00    4.40
  -8   2   6   25.00    4.20
   7  -2  -6  139.29    9.00
  -7   2   6  140.09    8.60
   6  -2  -6   32.40    4.10
  -6   2   6   35.40    3.80
   5  -2  -6    4.00    1.90
  -5   2   6    4.30    1.50
  -5   2   6    5.60    2.00
   4  -2  -6  914.91   35.90
  -4   2   6  946.21   35.30
  -4   2   6  944.01   34.00
   3  -2  -6   78.49    6.10
  -3   2   6   78.19    5.40
  -3   2   6   75.09    4.50
   2  -2  -6 1033.10   38.60
  -2   2   6 1016.90   38.10
  -2   2   6 1049.79   36.10
   1  -2  -6  184.48    9.80
   1  -2  -6  204.18    9.20
  -1   2   6  188.28    9.00
  -1   2   6  190.98    9.40
  -1   2   6  204.98    7.80
   0  -2  -6  756.12   32.20
   0  -2  -6  850.91   30.40
   0   2   6  735.23   28.90
   0   2   6  863.21   27.30
  -1  -2  -6  171.38    8.50
  -1  -2  -6  180.58    7.70
   1   2   6  159.88    7.50
   1   2   6  170.38    6.10
  -2  -2  -6  613.84   22.10
  -3  -2  -6 2955.40   95.89
   3   2   6 2755.32   95.89
  -4  -2  -6 2645.34   84.79
  -4  -2  -6 2664.03   84.19
   4   2   6 2216.98   84.99
  -5  -2  -6   16.80    2.00
   5   2   6   19.70    2.20
  -6  -2  -6  571.44   21.80
  -7  -2  -6  127.99    7.20
  -8  -2  -6   74.39    5.60
  -9  -2  -6  189.88   10.50
 -10  -2  -6  262.37   13.60
 -11  -2  -6  142.79    9.70
   8  -3  -6  379.46   18.50
  -8   3   6  382.56   17.50
  -7   3   6   15.90    3.00
   6  -3  -6   67.79    6.30
  -6   3   6   75.09    5.40
   5  -3  -6   63.39    5.90
  -5   3   6   62.69    4.60
   4  -3  -6  170.58   10.20
  -4   3   6  173.58    8.10
   3  -3  -6  375.86   17.00
  -3   3   6  352.16   13.90
  -2   3   6  587.54   20.80
   1  -3  -6  191.28    9.50
   1  -3  -6  175.58    9.60
  -1   3   6  162.18    8.90
  -1   3   6  172.38    6.50
   0  -3  -6 1525.55   57.19
   0  -3  -6 1789.92   59.29
  -1  -3  -6 3446.86  117.49
  -1  -3  -6 3424.86  115.79
  -2  -3  -6  278.47   11.50
  -2  -3  -6  295.97   12.90
  -2  -3  -6  295.67   10.10
  -3  -3  -6  303.17   10.90
  -3  -3  -6  282.17   11.30
  -4  -3  -6   47.90    2.80
  -4  -3  -6   48.50    3.00
   4   3   6   49.10    3.40
  -5  -3  -6  250.77    9.30
  -5  -3  -6  263.47   10.60
  -5  -3  -6  241.38    9.30
   5   3   6  237.38   11.00
  -6  -3  -6  414.46   16.70
  -7  -3  -6  181.18    9.30
  -8  -3  -6  310.87   14.30
  -9  -3  -6  223.78   12.00
 -10  -3  -6 1804.02   65.59
 -11  -3  -6  107.89    8.40
   8  -4  -6   -3.40    3.60
  -8   4   6   -4.00    1.70
   7  -4  -6    4.60    2.00
  -7   4   6    1.30    1.60
   6  -4  -6  494.75   22.50
  -6   4   6  481.25   19.70
   5  -4  -6  185.98   11.40
  -5   4   6  185.78    8.90
   4  -4  -6  103.59    7.90
  -4   4   6  113.79    5.80
   3  -4  -6  580.44   25.40
  -3   4   6  620.34   21.70
   2  -4  -6  248.48   12.80
  -2   4   6  239.68    9.20
   1  -4  -6   13.00    2.80
  -1   4   6   18.60    1.20
   0  -4  -6   14.80    2.70
   0  -4  -6   25.80    2.50
  -1  -4  -6   58.29    3.90
  -1  -4  -6   59.19    4.70
  -2  -4  -6  259.97   12.30
  -2  -4  -6  262.37    9.30
  -2  -4  -6  273.07   11.10
  -3  -4  -6  333.37   12.40
  -3  -4  -6  344.27   14.80
  -4  -4  -6   23.40    2.10
  -5  -4  -6 1292.97   45.90
  -5  -4  -6 1323.57   45.20
  -6  -4  -6  321.77   11.90
  -6  -4  -6  326.27   13.80
  -7  -4  -6 7921.71  265.67
  -8  -4  -6 1066.59   39.90
  -9  -4  -6   13.90    3.00
 -10  -4  -6  376.06   17.90
 -11  -4  -6   10.80    5.40
   8  -5  -6   -2.30    2.10
  -8   5   6    0.50    2.00
   7  -5  -6    6.50    2.80
  -7   5   6   16.10    3.00
   6  -5  -6 2751.02   98.69
  -6   5   6 2752.92   94.59
   5  -5  -6  194.48   12.10
  -5   5   6  196.18    9.10
   4  -5  -6    4.90    1.20
   4  -5  -6    4.40    2.20
  -4   5   6    4.60    1.30
   3  -5  -6   65.49    4.10
   3  -5  -6   60.79    5.90
  -3   5   6   57.29    3.50
   2  -5  -6  306.97   12.10
   2  -5  -6  305.47   15.50
  -2   5   6  325.67   11.80
   1  -5  -6  109.29    5.70
   1  -5  -6  118.89    8.00
  -1   5   6  124.89    5.20
   0  -5  -6   60.59    5.30
  -2  -5  -6    3.50    0.90
  -2  -5  -6    2.70    1.50
  -3  -5  -6   40.20    2.60
  -3  -5  -6   35.20    3.70
  -4  -5  -6   12.10    1.90
  -4  -5  -6    9.90    2.00
  -4  -5  -6   10.00    2.20
  -5  -5  -6 5822.02  204.88
  -5  -5  -6 6235.98  206.78
  -5  -5  -6 6324.77  205.48
  -6  -5  -6    0.50    0.70
  -6  -5  -6   -1.20    0.80
  -7  -5  -6 1301.77   48.90
  -7  -5  -6 1404.26   46.30
  -8  -5  -6   14.30    2.90
  -8  -5  -6   11.40    1.40
  -9  -5  -6   64.89    5.70
 -10  -5  -6  128.19   11.50
   7  -6  -6    3.00    2.50
  -7   6   6   -1.20    2.00
   6  -6  -6   95.59    8.50
  -6   6   6   97.09    6.20
   5  -6  -6  297.07   16.20
  -5   6   6  284.67   12.50
   4  -6  -6  415.16   20.10
  -4   6   6  402.86   16.00
   3  -6  -6   67.19    6.30
   3  -6  -6   48.40    5.10
  -3   6   6   63.59    3.90
   2  -6  -6   96.99    4.80
   2  -6  -6   92.59    7.50
  -2   6   6   99.59    5.00
   1  -6  -6   45.50    2.60
   1  -6  -6   44.90    5.00
   0  -6  -6  271.87   10.60
   0  -6  -6  241.38   13.20
  -1  -6  -6  321.97   15.30
  -1  -6  -6  311.77   11.30
  -2  -6  -6  176.58    7.60
  -2  -6  -6  187.18   10.30
  -2  -6  -6  183.78    7.40
  -3  -6  -6 2162.28   73.59
  -3  -6  -6 2148.49   73.39
  -4  -6  -6 1160.48   48.70
  -4  -6  -6 1475.75   47.10
  -4  -6  -6 1360.16   48.00
  -5  -6  -6 3538.65  122.69
  -5  -6  -6 3550.44  129.49
  -5  -6  -6 3748.82  122.89
  -6  -6  -6   24.90    3.30
  -6  -6  -6   31.60    3.50
  -6  -6  -6   21.80    2.40
  -7  -6  -6  626.64   22.50
  -7  -6  -6  603.04   24.70
  -7  -6  -6  615.04   24.80
  -8  -6  -6   38.20    4.30
  -8  -6  -6   38.90    2.90
  -8  -6  -6   35.10    4.00
  -9  -6  -6  220.18    9.20
  -9  -6  -6  214.98   11.50
  -9  -6  -6  249.68   12.90
 -10  -6  -6   93.59    7.60
 -10  -6  -6   69.59    6.10
   7  -7  -6    3.40    2.70
  -7   7   6    5.50    2.50
   6  -7  -6  791.32   34.50
  -6   7   6  790.02   30.20
   5  -7  -6   18.70    4.50
  -5   7   6   27.80    3.20
   4  -7  -6  340.67   18.50
  -4   7   6  371.76   15.00
   3  -7  -6  252.17   11.00
   3  -7  -6  252.87   14.50
  -3   7   6  254.87   11.10
   2  -7  -6  121.19    9.10
   2  -7  -6  127.99    6.10
  -2   7   6  132.49    6.60
   1  -7  -6    6.50    1.10
   1  -7  -6    7.00    2.20
   0  -7  -6  260.27   13.60
   0  -7  -6  233.68    9.30
  -1  -7  -6  338.27   12.60
  -1  -7  -6  347.37   16.60
  -2  -7  -6  266.67   13.60
  -2  -7  -6  262.27   10.50
  -3  -7  -6  748.93   27.60
  -3  -7  -6  776.02   29.80
  -3  -7  -6  741.83   30.00
  -3  -7  -6  744.93   27.60
  -4  -7  -6  163.68    8.20
  -4  -7  -6  165.18    9.50
  -4  -7  -6  158.48    9.00
  -5  -7  -6    1.70    1.20
  -5  -7  -6   -0.30    1.00
  -6  -7  -6   50.89    4.60
  -6  -7  -6   45.40    3.90
  -6  -7  -6   53.09    4.80
  -7  -7  -6   14.50    2.70
  -7  -7  -6   12.70    2.10
  -7  -7  -6   17.80    3.30
  -8  -7  -6  222.18    9.70
  -8  -7  -6  221.78   11.30
  -8  -7  -6  217.98   12.10
  -9  -7  -6  180.58   10.40
  -9  -7  -6  157.78   10.10
  -9  -7  -6  139.09    8.70
 -10  -7  -6   -3.50    1.90
  -6   8   6   19.30    3.60
   5  -8  -6   31.90    5.80
  -5   8   6   32.20    3.90
   4  -8  -6  194.18   12.80
  -4   8   6  187.78    9.80
   3  -8  -6   32.40    5.20
  -3   8   6   27.10    3.60
   2  -8  -6   38.80    5.20
   2  -8  -6   39.80    3.10
  -2   8   6   31.50    3.40
   1  -8  -6   75.79    6.80
   1  -8  -6   72.49    4.10
   0  -8  -6   64.89    6.10
   0  -8  -6   56.19    3.20
  -1  -8  -6   28.30    4.60
  -1  -8  -6   32.00    2.20
  -2  -8  -6  105.99    7.80
  -2  -8  -6  102.79    7.70
  -3  -8  -6   79.29    6.50
  -3  -8  -6   78.39    4.80
  -3  -8  -6   91.59    6.90
  -4  -8  -6  482.35   21.50
  -4  -8  -6  522.65   20.40
  -4  -8  -6  492.25   21.30
  -5  -8  -6   66.39    5.60
  -5  -8  -6   54.39    4.90
  -5  -8  -6   59.59    4.90
  -6  -8  -6   10.00    2.30
  -6  -8  -6    9.10    2.10
  -6  -8  -6    8.50    2.30
  -7  -8  -6    9.10    2.70
  -7  -8  -6    7.30    2.30
  -7  -8  -6    8.50    2.00
  -8  -8  -6  364.16   15.30
  -8  -8  -6  380.06   17.90
  -9  -8  -6  495.15   24.90
  -9  -8  -6  627.64   25.40
  -5   9   6   64.79    6.00
   4  -9  -6   78.49    8.10
  -4   9   6   76.69    6.10
   3  -9  -6  185.38   12.60
  -3   9   6  196.68   10.20
   2  -9  -6  433.96   21.50
   1  -9  -6    9.00    1.60
   1  -9  -6   10.00    5.30
   0  -9  -6   42.20    2.90
   0  -9  -6   34.00    5.40
  -1  -9  -6    2.20    2.00
  -1  -9  -6    5.50    1.10
  -1  -9  -6    3.50    2.10
  -2  -9  -6   39.50    5.10
  -2  -9  -6   33.60    4.60
  -3  -9  -6   67.59    6.30
  -3  -9  -6   70.89    6.30
  -4  -9  -6  100.09    7.40
  -4  -9  -6  103.99    7.50
  -4  -9  -6  100.89    6.70
  -5  -9  -6   46.80    4.80
  -5  -9  -6   57.39    5.10
  -5  -9  -6   49.80    5.00
  -6  -9  -6  946.81   35.70
  -6  -9  -6  855.31   34.40
  -6  -9  -6  928.01   34.80
  -7  -9  -6    1.20    1.30
  -8  -9  -6   -3.70    1.40
  -8  -9  -6    0.00    2.10
   4 -10  -6  278.17   17.50
  -4  10   6  272.07   14.10
   3 -10  -6   45.50    7.10
   2 -10  -6    6.70    3.10
   1 -10  -6   69.59    7.30
   0 -10  -6    2.50    2.00
   0 -10  -6    0.70    2.10
  -1 -10  -6    1.70    1.80
  -1 -10  -6   14.90    3.70
  -2 -10  -6  139.69   10.00
  -2 -10  -6  122.99    9.00
  -3 -10  -6   98.99    8.10
  -3 -10  -6   99.89    7.70
  -4 -10  -6   -0.80    1.30
  -4 -10  -6   -1.40    1.50
  -4 -10  -6    2.30    1.80
  -5 -10  -6   22.60    3.70
  -5 -10  -6   22.80    3.90
  -5 -10  -6   30.10    4.20
  -6 -10  -6  238.58   13.00
  -6 -10  -6  233.38   12.40
  -6 -10  -6  247.38   11.80
  -7 -10  -6   58.99    6.10
  -7 -10  -6   45.20    4.70
   3 -11  -6    1.30    2.60
   3 -11  -6   -1.50    2.50
   2 -11  -6   70.09    7.70
   2 -11  -6   71.29    8.60
   1 -11  -6   81.09    8.10
   1 -11  -6   78.39    8.40
   0 -11  -6    4.80    3.00
   0 -11  -6    8.70    3.40
  -1 -11  -6  170.48   11.40
  -1 -11  -6  163.98   11.90
  -2 -11  -6   16.10    4.00
  -2 -11  -6   17.10    3.80
  -3 -11  -6    3.30    2.20
  -3 -11  -6   -0.40    2.10
  -4 -11  -6  183.68   10.40
  -4 -11  -6  152.68   10.00
  -4 -11  -6  184.88   11.50
  -5 -11  -6   64.89    6.30
  -5 -11  -6   60.49    6.20
  -6 -11  -6   13.30    3.00
  -6 -11  -6   13.60    3.30
   0 -12  -6   88.49    8.40
   0 -12  -6   81.39    8.70
  -1 -12  -6   -1.60    3.40
  -1 -12  -6    5.70    3.10
  -2 -12  -6   29.20    4.90
  -2 -12  -6   26.50    5.60
  -3 -12  -6  116.99    8.10
  -3 -12  -6  108.29    9.40
   0  -9   7    6.70    2.80
   1  -9   7   86.59    7.40
   2  -9   7  126.49    9.00
  -3  -8   7   82.79    7.90
  -2  -8   7    9.40    3.60
  -1  -8   7  297.87   15.60
   0  -8   7   -2.10    1.50
   1  -8   7   49.70    5.40
   2  -8   7   41.70    5.20
   4  -8   7    9.20    3.50
  -5   8  -7  136.69   11.50
   5  -8   7  122.69   11.40
  -4  -7   7    9.20    3.60
  -3  -7   7    1.00    2.10
  -2  -7   7    4.60    2.40
  -1  -7   7    8.50    2.60
   0  -7   7   37.60    4.50
   1  -7   7  119.89    8.00
   2  -7   7   16.40    3.20
   3  -7   7  897.21   34.40
   4  -7   7  253.77   12.50
  -5   7  -7   38.50    6.40
   5  -7   7   42.50    4.40
  -6   7  -7  206.48   14.00
   6  -7   7  208.08   10.60
  -7   7  -7   23.10    5.10
   7  -7   7   24.20    3.40
  -5  -6   7   18.20    4.60
  -4  -6   7  148.39   10.50
  -3  -6   7    8.20    2.70
  -2  -6   7   14.20    3.20
   1   6  -7  403.46   15.70
  -1  -6   7  372.56   17.70
   0  -6   7  429.66   18.90
   1  -6   7  110.79    7.30
   2  -6   7    0.40    1.50
  -3   6  -7  961.90   39.50
   3  -6   7  957.40   35.90
  -4   6  -7  891.51   37.30
   4  -6   7  896.11   33.60
  -5   6  -7   10.60    3.60
   5  -6   7   11.40    2.40
   6  -6   7   35.70    3.70
  -7   6  -7   62.99    6.90
   7  -6   7   69.49    5.00
  -8   6  -7   17.10    4.30
  -6  -5   7   19.00    4.70
  -6  -5   7   13.20    3.90
  -5  -5   7  269.77   15.40
  -4  -5   7  215.68   12.70
  -3  -5   7   28.10    4.50
   2   5  -7  435.76   16.30
   2   5  -7  444.46   16.10
  -2  -5   7  432.46   20.00
   1   5  -7  319.87   12.90
  -1  -5   7  307.67   14.80
   0   5  -7   45.30    3.70
   0  -5   7   41.00    4.20
   1  -5   7  465.75   19.40
   2  -5   7  649.54   25.30
  -3   5  -7    3.30    1.90
   3  -5   7    0.90    1.20
   4  -5   7    0.50    1.10
  -5   5  -7   62.29    6.30
   5  -5   7   65.59    4.60
  -6   5  -7   18.90    3.90
   6  -5   7   22.60    2.80
  -7   5  -7  279.27   15.20
   7  -5   7  265.07   11.60
  -8   5  -7    2.90    2.30
   8  -5   7    3.60    1.70
  -9   5  -7  150.38   11.00
  -7  -4   7  196.18   13.90
  -6  -4   7  394.56   20.40
  -6  -4   7  380.86   19.40
  -5  -4   7   54.49    6.10
  -4  -4   7  944.81   37.50
  -3  -4   7  508.35   22.20
   2   4  -7  870.11   31.40
   2   4  -7  906.11   30.70
  -2  -4   7  848.02   33.70
   1   4  -7   21.20    2.10
  -1  -4   7   18.40    3.20
   0   4  -7    2.70    1.10
   0  -4   7    1.40    1.60
   1  -4   7  936.51   34.70
  -2   4  -7   12.40    3.00
   2  -4   7   17.20    2.50
  -3   4  -7  517.25   22.30
   3  -4   7  500.05   19.80
  -4   4  -7  470.25   21.20
   4  -4   7  488.65   18.80
  -5   4  -7    3.80    1.80
   5  -4   7    2.40    1.20
  -6   4  -7   82.29    9.60
   6  -4   7   70.29    4.60
  -7   4  -7  729.33   31.10
   7  -4   7  794.12   27.50
  -8   4  -7   -3.50    1.40
   8  -4   7   -0.20    1.00
  -9   4  -7   26.70    4.80
  -7  -3   7  295.97   16.30
  -7  -3   7  328.97   17.70
  -6  -3   7   69.59    7.20
  -6  -3   7   82.49    7.40
  -5  -3   7  188.28   11.40
  -5  -3   7  186.48   11.90
   4   3  -7  618.54   22.10
   4   3  -7  631.84   21.50
  -4  -3   7  610.54   26.10
   3   3  -7   72.89    3.70
   3   3  -7   75.59    4.50
  -3  -3   7   89.59    6.70
   2   3  -7  284.87   12.10
   2   3  -7  276.57   10.90
  -2  -3   7  294.37   13.80
   1   3  -7  350.36   14.50
   1   3  -7  414.46   15.90
  -1  -3   7  403.26   16.90
   0   3  -7  292.77   12.30
   0  -3   7  328.27   13.90
  -1   3  -7    2.60    1.00
   1  -3   7    1.60    1.30
  -2   3  -7   13.60    2.80
   2  -3   7   16.10    2.30
  -3   3  -7  220.38   11.40
   3  -3   7  210.98    9.90
  -4   3  -7  148.09    8.00
  -4   3  -7  145.09    8.90
   4  -3   7  167.38    7.50
  -5   3  -7 2906.21  101.59
   5  -3   7 2945.51   98.99
  -6   3  -7   99.79    7.00
   6  -3   7  104.39    5.20
  -7   3  -7   -0.30    1.50
   7  -3   7    1.40    0.90
  -8   3  -7    7.30    2.30
  -9   3  -7   63.09    6.10
 -10   3  -7   63.39    6.60
  -8  -2   7   47.40    5.60
  -6  -2   7    3.50    2.20
  -6  -2   7    2.20    2.10
   5   2  -7    0.80    1.10
  -5  -2   7    3.40    2.10
  -5  -2   7    0.40    2.50
   4   2  -7  348.77   14.20
  -4  -2   7  345.37   16.50
   3   2  -7  440.26   17.30
  -3  -2   7  422.46   18.90
   2   2  -7  314.67   13.40
  -2  -2   7  314.47   14.50
   1   2  -7   15.00    2.40
  -1  -2   7   15.90    2.80
   0  -2   7    6.00    1.80
  -1   2  -7  280.37   11.40
  -2   2  -7  313.27   12.80
   2  -2   7  299.17   12.70
  -3   2  -7   92.59    6.10
  -3   2  -7   91.99    5.30
   3  -2   7  102.39    5.30
  -4   2  -7   77.89    4.90
  -4   2  -7   91.09    5.80
   4  -2   7   80.19    4.50
  -5   2  -7  202.38   10.10
   5  -2   7  194.48    8.30
  -6   2  -7  163.78    8.90
   6  -2   7  156.68    6.70
  -7   2  -7  106.99    7.10
  -8   2  -7  141.99    8.80
  -9   2  -7   69.09    6.10
 -10   2  -7  274.47   14.70
  -8  -1   7    0.60    2.20
  -8  -1   7    5.20    2.40
  -7  -1   7    2.80    2.10
  -7  -1   7   -0.80    1.60
   6   1  -7    6.70    2.00
  -6  -1   7    2.50    2.20
   5   1  -7   33.20    3.50
  -5  -1   7   29.30    4.10
  -5  -1   7   32.90    4.20
   4   1  -7   31.60    3.30
  -4  -1   7   19.40    3.60
  -4  -1   7   26.60    4.00
   3   1  -7 1088.99   40.00
  -3  -1   7 1106.89   41.00
   2   1  -7   63.79    4.70
  -2  -1   7   69.89    5.40
   1   1  -7  241.88   11.30
  -1  -1   7  257.77   11.90
  -1  -1   7  250.37   11.40
   0  -1   7 1704.83   61.39
   0  -1   7 1846.42   66.89
  -1   1  -7   17.10    1.90
   1  -1   7   13.40    1.70
   1  -1   7   13.70    2.30
  -2   1  -7  686.73   26.50
  -2   1  -7  714.73   25.40
   2  -1   7  741.43   26.00
   2  -1   7  673.93   25.40
  -3   1  -7  587.14   21.10
  -3   1  -7  523.75   19.70
   3  -1   7  520.05   19.90
   3  -1   7  521.05   20.00
  -4   1  -7   98.89    7.80
  -4   1  -7   92.49    4.80
   4  -1   7   91.59    4.80
  -5   1  -7   24.60    2.80
   5  -1   7   26.40    2.10
  -6   1  -7  290.87   13.00
  -7   1  -7  209.58   10.50
  -8   1  -7  281.57   13.50
  -9   1  -7   11.60    2.80
 -10   1  -7  564.84   24.30
 -11   1  -7   13.60    3.60
   8   0  -7  134.49    8.30
  -8   0   7  139.99    9.90
  -8   0   7  143.49    9.60
   7   0  -7   -1.70    1.60
  -7   0   7    1.70    2.00
  -7   0   7    0.10    1.60
   6   0  -7   87.99    6.30
  -6   0   7   92.79    7.10
  -6   0   7   96.69    7.20
   5   0  -7  871.51   33.80
  -5   0   7  876.01   34.40
  -5   0   7  927.51   34.80
   4   0  -7   72.09    5.60
  -4   0   7   68.99    5.70
  -4   0   7   79.29    5.70
   3   0  -7   17.00    2.80
  -3   0   7    8.10    2.20
   2   0  -7  214.48   10.50
  -2   0   7  203.98   10.40
   1   0  -7   19.50    2.60
  -1   0   7   25.10    3.10
  -1   0   7   21.50    2.20
   0   0  -7  102.39    6.10
   0   0   7  101.19    5.90
   0   0   7   91.69    5.00
  -1   0  -7  405.66   15.30
   1   0   7  398.56   14.90
   1   0   7  388.86   15.80
  -2   0  -7   30.00    2.70
  -2   0  -7   28.00    2.20
   2   0   7   34.00    2.80
   2   0   7   28.70    2.20
  -3   0  -7  723.23   27.00
  -3   0  -7  851.81   28.20
   3   0   7  785.72   27.70
   3   0   7  738.03   27.50
  -4   0  -7    6.70    1.00
  -4   0  -7    8.40    1.60
   4   0   7    8.10    1.50
   4   0   7    7.00    1.20
  -5   0  -7  499.05   19.40
   5   0   7  505.95   17.70
  -6   0  -7  440.76   17.70
  -7   0  -7 1295.77   46.70
  -8   0  -7 1093.19   40.50
  -9   0  -7   -1.60    1.10
 -11   0  -7    8.30    3.70
   8  -1  -7   -2.40    1.90
   7  -1  -7   42.20    4.70
  -7   1   7   44.10    5.10
  -7   1   7   41.90    4.90
   6  -1  -7  533.65   22.90
  -6   1   7  540.85   29.10
  -6   1   7  558.54   22.90
   5  -1  -7  271.57   13.60
  -5   1   7  270.87   13.10
  -5   1   7  289.97   13.90
   4  -1  -7  538.85   21.70
  -4   1   7  502.15   21.20
  -4   1   7  479.05   20.30
   3  -1  -7    8.40    2.30
  -3   1   7    7.20    2.00
  -3   1   7    7.20    1.80
   2  -1  -7  200.38   10.60
  -2   1   7  211.68    9.50
   1  -1  -7   67.69    5.10
  -1   1   7   47.90    5.00
  -1   1   7   66.39    3.90
   0  -1  -7 1334.97   47.80
   0  -1  -7 1270.77   46.50
   0   1   7 1393.36   47.00
   0   1   7 1301.07   45.40
  -1  -1  -7  350.26   14.80
   1   1   7  409.46   15.10
   1   1   7  365.36   13.60
  -2  -1  -7  419.66   15.70
  -2  -1  -7  435.86   15.80
   2   1   7  406.16   15.10
   2   1   7  411.16   15.90
  -3  -1  -7  194.98    8.10
  -3  -1  -7  190.78    7.80
   3   1   7  191.88    8.00
   3   1   7  188.58    7.90
  -4  -1  -7  903.31   31.30
  -4  -1  -7  923.51   32.40
   4   1   7  924.51   33.60
   4   1   7  912.51   31.60
  -5  -1  -7 1966.50   68.69
   5   1   7 2041.30   69.49
  -6  -1  -7  189.08    9.00
  -7  -1  -7   19.70    2.60
  -8  -1  -7   11.50    2.40
  -9  -1  -7   -0.90    1.40
 -10  -1  -7  124.49    8.40
 -11  -1  -7   -0.90    2.20
   8  -2  -7  537.45   23.20
  -8   2   7  517.45   22.80
   7  -2  -7  339.37   16.50
  -7   2   7  330.57   16.20
   6  -2  -7   49.80    5.40
  -6   2   7   42.80    4.40
   5  -2  -7   36.20    4.30
  -5   2   7   34.90    4.20
  -5   2   7   36.40    3.70
   4  -2  -7  168.38   10.00
  -4   2   7  165.88    9.60
  -4   2   7  178.38    9.70
   3  -2  -7   93.99    6.90
  -3   2   7  106.69    6.70
  -3   2   7   91.99    5.40
  -2   2   7  905.51   31.00
  -2   2   7  835.22   32.50
   1  -2  -7  324.37   14.90
  -1   2   7  322.17   12.20
  -1   2   7  321.17   14.30
   0  -2  -7  128.89    7.70
   0  -2  -7  125.29    6.80
   0   2   7  142.09    7.10
  -1  -2  -7  224.38   10.70
  -1  -2  -7  219.18    9.60
   1   2   7  216.48    7.80
   1   2   7  207.28    9.50
  -2  -2  -7   30.50    2.60
  -2  -2  -7   32.10    2.10
   2   2   7   36.00    2.70
   2   2   7   34.00    1.90
  -3  -2  -7  482.45   17.80
  -3  -2  -7  489.65   17.40
   3   2   7  481.75   17.50
  -4  -2  -7   79.49    3.90
  -4  -2  -7   89.69    4.40
   4   2   7   82.49    4.60
  -5  -2  -7    8.50    1.60
  -5  -2  -7    8.30    0.80
   5   2   7   11.90    1.90
  -6  -2  -7  761.32   28.10
  -7  -2  -7    5.10    1.60
  -8  -2  -7    0.40    1.00
  -9  -2  -7  229.28   11.90
 -10  -2  -7   57.09    5.50
 -11  -2  -7 1908.31   69.59
   8  -3  -7   69.69    7.20
  -8   3   7   72.09    6.20
   7  -3  -7   -3.30    1.80
  -7   3   7   -3.20    1.60
   6  -3  -7   85.99    7.40
  -6   3   7  102.69    6.50
   5  -3  -7   17.40    3.40
  -5   3   7   15.90    2.50
   4  -3  -7  148.19    9.60
  -4   3   7  142.49    7.20
   3  -3  -7  257.77   13.70
  -3   3   7  263.57   10.70
   2  -3  -7 2320.77   81.59
  -2   3   7 2271.77   77.29
   1  -3  -7  542.95   22.70
  -1   3   7  537.65   18.70
   0  -3  -7  868.21   33.40
  -1  -3  -7 1781.32   59.79
  -1  -3  -7 1659.93   61.19
  -2  -3  -7 2666.13   89.99
  -2  -3  -7 2629.54   88.09
  -2  -3  -7 2652.03   91.79
  -3  -3  -7    7.10    0.90
  -3  -3  -7    6.40    1.20
   3   3   7    7.60    1.10
  -4  -3  -7    3.00    0.90
  -4  -3  -7    2.90    0.90
   4   3   7    2.40    0.90
  -5  -3  -7  147.59    6.80
  -5  -3  -7  147.19    5.90
   5   3   7  130.29    7.10
  -6  -3  -7  222.78   10.00
  -7  -3  -7    7.50    2.10
  -8  -3  -7   15.00    2.90
  -9  -3  -7 4040.40  140.89
 -10  -3  -7  102.19    7.60
 -11  -3  -7  258.57   13.90
   8  -4  -7    1.30    2.60
  -8   4   7   -2.00    1.80
   7  -4  -7  225.68   13.00
  -7   4   7  192.48   10.80
   6  -4  -7  138.49   10.10
  -6   4   7  149.88    8.00
   5  -4  -7  191.08   11.80
  -5   4   7  185.18    9.00
   4  -4  -7 7560.54  256.67
  -4   4   7 7545.15  251.97
   3  -4  -7  336.87   16.90
  -3   4   7  344.07   13.10
   2  -4  -7  100.09    7.60
  -2   4   7  100.09    4.40
   1  -4  -7  185.88   10.80
   0  -4  -7  435.76   19.30
  -1  -4  -7  203.38    9.40
  -1  -4  -7  205.68   12.60
  -2  -4  -7  214.68    8.90
  -2  -4  -7  164.58   10.10
  -3  -4  -7   56.99    5.60
  -3  -4  -7   59.09    2.80
  -3  -4  -7   52.79    3.50
  -4  -4  -7   10.60    1.40
  -4  -4  -7   10.00    1.30
  -5  -4  -7   96.39    5.10
  -5  -4  -7  102.19    5.40
  -5  -4  -7  106.39    4.90
  -6  -4  -7    2.00    0.70
  -6  -4  -7    4.30    0.80
  -6  -4  -7    2.70    1.30
  -7  -4  -7 1804.22   63.29
  -8  -4  -7  191.88   10.10
  -9  -4  -7 2933.51  102.09
 -10  -4  -7    3.50    2.20
 -11  -4  -7  332.57   17.30
   7  -5  -7  444.76   21.90
  -7   5   7  436.86   21.70
   6  -5  -7 1336.17   52.49
  -6   5   7 1358.56   48.20
   5  -5  -7 1306.97   52.59
  -5   5   7 1370.86   47.30
   4  -5  -7  777.52   31.90
  -4   5   7  720.73   26.90
   3  -5  -7   88.29    7.40
  -3   5   7   84.39    4.40
   2  -5  -7  872.71   35.00
  -2   5   7  854.11   29.70
   1  -5  -7   19.90    3.70
   0  -5  -7    0.90    1.40
  -1  -5  -7  116.69    7.90
  -2  -5  -7  280.17   13.80
  -3  -5  -7   35.30    3.00
  -3  -5  -7   37.70    2.20
  -3  -5  -7   41.50    4.20
  -4  -5  -7   52.79    3.70
  -4  -5  -7   59.29    3.50
  -4  -5  -7   69.89    5.40
  -5  -5  -7 1056.39   39.30
  -5  -5  -7 1050.89   37.40
  -5  -5  -7 1023.60   36.90
  -6  -5  -7 1252.87   46.80
  -6  -5  -7 1272.67   45.80
  -6  -5  -7 1444.46   46.00
  -7  -5  -7 1027.70   37.50
  -7  -5  -7 1133.99   39.90
  -7  -5  -7 1107.89   37.30
  -8  -5  -7    2.10    1.50
  -9  -5  -7  201.98   11.10
 -10  -5  -7   31.60    5.60
 -11  -5  -7  113.89    9.90
   7  -6  -7 2159.28   80.49
  -7   6   7 2161.28   75.79
  -6   6   7  503.85   20.10
   5  -6  -7   68.19    7.10
  -5   6   7   66.59    4.60
   4  -6  -7  410.76   23.10
  -4   6   7  418.46   16.20
   3  -6  -7    4.70    2.30
  -3   6   7    5.60    1.30
   2  -6  -7  601.34   26.20
  -2   6   7  579.74   21.10
   1  -6  -7   54.69    5.60
   0  -6  -7  363.86   17.60
  -1  -6  -7   54.99    5.50
  -2  -6  -7    6.80    2.20
  -2  -6  -7   10.10    0.90
  -2  -6  -7    7.60    0.70
  -3  -6  -7   35.80    2.40
  -3  -6  -7   37.30    4.20
  -3  -6  -7   37.80    2.60
  -4  -6  -7   59.39    3.70
  -4  -6  -7   55.89    5.20
  -5  -6  -7    1.40    1.40
  -5  -6  -7    2.80    1.30
  -5  -6  -7    3.80    1.20
  -6  -6  -7  119.79    6.20
  -6  -6  -7  109.09    6.50
  -6  -6  -7  105.69    7.50
  -7  -6  -7  144.29    9.00
  -7  -6  -7  149.39    6.80
  -7  -6  -7  148.69    8.40
  -8  -6  -7   49.40    5.10
  -8  -6  -7   55.59    3.20
  -8  -6  -7   50.09    4.80
  -9  -6  -7   36.70    4.60
  -9  -6  -7   42.50    4.90
 -10  -6  -7   22.60    4.20
 -10  -6  -7   16.90    3.50
   6  -7  -7   25.80    5.50
  -6   7   7   29.50    3.70
   5  -7  -7    0.90    2.40
  -5   7   7    2.40    1.70
   4  -7  -7   16.00    3.80
  -4   7   7   19.00    2.80
   3  -7  -7  221.38   14.10
  -3   7   7  213.98    9.60
   2  -7  -7   11.20    3.50
   2  -7  -7    6.30    1.00
  -2   7   7    8.80    1.50
   1  -7  -7   99.69    8.10
   1  -7  -7   96.79    4.40
   0  -7  -7   33.20    1.80
   0  -7  -7   31.40    5.00
  -1  -7  -7  230.78    8.90
  -1  -7  -7  241.38   13.20
  -2  -7  -7  149.29    9.70
  -2  -7  -7  151.58    6.10
  -2  -7  -7  155.88    6.50
  -3  -7  -7    2.10    0.90
  -3  -7  -7    3.10    1.60
  -3  -7  -7    5.50    1.10
  -4  -7  -7   16.00    3.00
  -4  -7  -7   20.50    2.30
  -4  -7  -7   16.30    3.40
  -5  -7  -7   12.00    2.60
  -5  -7  -7    9.50    2.60
  -5  -7  -7   12.60    2.50
  -6  -7  -7    6.70    1.70
  -6  -7  -7    3.40    1.50
  -7  -7  -7    5.30    1.90
  -7  -7  -7    7.90    2.00
  -7  -7  -7    4.80    1.40
  -8  -7  -7   23.60    3.90
  -8  -7  -7   18.20    3.40
  -9  -7  -7   15.00    3.30
  -9  -7  -7    9.70    2.70
 -10  -7  -7  413.16   19.60
   6  -8  -7   58.59    7.30
  -6   8   7   57.59    5.30
   5  -8  -7   21.40    5.00
  -5   8   7   22.30    3.40
   4  -8  -7    2.20    2.50
  -4   8   7    1.60    1.60
   3  -8  -7 1494.45   56.89
  -3   8   7 1415.16   51.09
   2  -8  -7   51.69    3.20
   2  -8  -7   53.79    6.10
   1  -8  -7  139.19    9.90
   1  -8  -7  129.49    5.90
   0  -8  -7 1138.29   45.20
   0  -8  -7 1152.18   39.20
  -1  -8  -7  489.75   22.40
  -1  -8  -7  476.25   17.10
  -2  -8  -7  176.98    7.20
  -2  -8  -7  170.78   10.80
  -3  -8  -7  265.57   11.90
  -3  -8  -7  317.17   15.00
  -3  -8  -7  295.97   15.10
  -3  -8  -7  282.07   11.60
  -4  -8  -7   52.09    4.00
  -4  -8  -7   48.50    5.30
  -4  -8  -7   56.49    5.20
  -4  -8  -7   60.29    4.20
  -5  -8  -7   75.99    6.40
  -5  -8  -7   72.89    5.70
  -5  -8  -7   74.29    5.30
  -6  -8  -7  177.48   10.60
  -6  -8  -7  183.28    9.80
  -6  -8  -7  195.08    9.80
  -7  -8  -7  107.79    7.70
  -7  -8  -7  101.69    6.30
  -7  -8  -7  103.49    7.20
  -8  -8  -7   24.00    4.00
  -8  -8  -7   21.30    3.70
  -8  -8  -7   31.30    3.10
  -5   9   7  851.21   33.60
   4  -9  -7  296.27   17.50
  -4   9   7  289.87   13.50
   2  -9  -7    0.70    1.60
   1  -9  -7   16.00    3.80
   0  -9  -7   38.30    2.60
   0  -9  -7   27.10    5.80
  -1  -9  -7   22.50    4.50
  -1  -9  -7   21.20    1.90
  -2  -9  -7  243.98   14.50
  -2  -9  -7  254.77   14.20
  -3  -9  -7   67.49    6.30
  -3  -9  -7   63.39    3.90
  -3  -9  -7   51.59    4.30
  -3  -9  -7   64.29    6.30
  -4  -9  -7   88.39    5.70
  -4  -9  -7   74.69    6.60
  -4  -9  -7   77.09    6.90
  -5  -9  -7  149.79    9.70
  -5  -9  -7  167.48    9.70
  -5  -9  -7  141.69    8.40
  -6  -9  -7   24.80    3.50
  -6  -9  -7   26.20    4.30
  -6  -9  -7   27.50    3.70
  -7  -9  -7    4.40    2.10
  -7  -9  -7    8.10    3.90
  -7  -9  -7   13.70    2.60
  -8  -9  -7  496.55   21.60
  -8  -9  -7  463.95   19.20
   4 -10  -7    5.90    3.60
   3 -10  -7   73.39    8.10
   2 -10  -7    6.60    3.30
   1 -10  -7   66.79    7.10
   0 -10  -7   90.69    8.30
  -1 -10  -7   16.40    4.10
  -1 -10  -7   17.50    4.00
  -2 -10  -7    1.40    2.10
  -2 -10  -7    7.70    3.10
  -3 -10  -7   23.20    3.10
  -3 -10  -7   25.20    4.50
  -3 -10  -7   24.40    4.60
  -4 -10  -7    0.20    1.70
  -4 -10  -7    0.10    1.80
  -4 -10  -7    3.10    1.70
  -5 -10  -7   78.59    6.70
  -5 -10  -7   59.79    6.10
  -5 -10  -7   78.69    5.90
  -6 -10  -7    1.40    1.80
  -6 -10  -7    3.10    2.10
  -6 -10  -7    3.00    2.10
  -7 -10  -7  171.28   10.20
  -7 -10  -7  161.48    9.40
   2 -11  -7  159.18   17.10
   2 -11  -7  169.98   13.00
   1 -11  -7  173.88   12.50
   0 -11  -7  229.18   15.00
  -1 -11  -7   95.49    8.30
  -1 -11  -7   83.69    8.50
  -2 -11  -7  120.79    9.90
  -2 -11  -7  113.09    9.30
  -3 -11  -7   79.99    6.10
  -3 -11  -7   78.59    7.30
  -3 -11  -7   85.39    8.00
  -4 -11  -7   19.90    3.40
  -4 -11  -7   23.90    4.60
  -4 -11  -7   25.70    4.20
  -5 -11  -7   19.10    3.90
  -5 -11  -7   15.70    3.50
  -5 -11  -7   29.50    3.80
  -6 -11  -7   50.19    5.40
  -6 -11  -7   43.40    5.40
  -1 -12  -7   35.10    5.40
  -1 -12  -7   36.50    6.40
  -2 -12  -7   26.70    5.40
  -1  -8   8   21.50    4.60
   0  -8   8   21.10    4.80
   1  -8   8    4.30    2.30
   2  -8   8   56.39    6.10
   3  -8   8  161.58   10.10
   4  -8   8   77.89    6.70
  -3  -7   8    4.90    3.40
  -2  -7   8  190.58   12.10
  -1  -7   8  298.97   15.70
   0  -7   8  107.09    8.20
   1  -7   8  161.98   10.10
   2  -7   8  329.77   15.90
   3  -7   8  591.54   24.60
  -4   7  -8   35.10    6.30
   4  -7   8   34.90    4.30
  -5   7  -8  838.92   37.90
   5  -7   8  871.01   33.10
  -6   7  -8  234.38   15.60
   6  -7   8  244.18   12.10
  -3  -6   8  417.66   20.40
   1   6  -8  218.88   10.00
  -1  -6   8  212.48   12.10
   0  -6   8  192.38   11.10
   1  -6   8  110.29    7.70
   2  -6   8   35.40    4.10
   3  -6   8   -0.70    2.50
  -4   6  -8   40.50    6.40
   4  -6   8   45.40    4.40
   5  -6   8   15.60    2.80
  -6   6  -8   74.69    7.60
   6  -6   8   74.69    5.60
   7  -6   8    7.60    2.20
  -5  -5   8   -0.10    2.30
  -4  -5   8  348.87   18.20
  -3  -5   8  309.87   16.20
   2   5  -8  347.07   14.50
   2   5  -8  339.77   13.50
  -2  -5   8  338.87   16.80
   1   5  -8  300.57   12.90
   1   5  -8  291.87   12.40
  -1  -5   8  297.77   14.80
   0  -5   8  490.05   22.50
   1  -5   8   47.40    4.70
   2  -5   8   11.20    2.50
   3  -5   8   38.00    4.00
  -4   5  -8    7.60    2.40
   4  -5   8    7.80    2.10
  -5   5  -8  169.18   11.40
   5  -5   8  176.68    8.90
  -6   5  -8    7.80    3.00
   6  -5   8   13.60    2.30
  -7   5  -8   23.80    4.70
   7  -5   8   23.20    3.00
  -8   5  -8   33.80    6.40
  -6  -4   8    2.10    2.80
  -6  -4   8    6.10    5.10
  -5  -4   8  268.27   15.30
  -4  -4   8  129.19    9.60
   3   4  -8  265.47   10.20
   3   4  -8  279.77   10.70
  -3  -4   8  273.67   14.60
   2   4  -8   24.70    2.30
   2   4  -8   25.10    2.80
  -2  -4   8   21.60    4.70
   1   4  -8   14.20    2.40
   1   4  -8   14.50    2.10
  -1  -4   8   11.50    2.80
   0  -4   8   59.89    5.20
   1  -4   8  494.95   20.50
   2  -4   8   19.90    3.10
  -3   4  -8   57.09    5.90
   3  -4   8   66.09    4.80
  -4   4  -8  126.39    8.60
   4  -4   8  105.79    6.40
  -5   4  -8   14.10    3.10
   5  -4   8   13.10    2.20
  -6   4  -8   79.99    6.90
   6  -4   8   87.09    5.20
  -7   4  -8  187.88   11.50
   7  -4   8  190.38    8.60
  -8   4  -8   15.80    3.70
   8  -4   8   17.70    2.40
  -9   4  -8   11.80    5.20
  -7  -3   8  271.87   18.30
  -7  -3   8  281.17   15.70
  -6  -3   8  251.07   14.90
  -6  -3   8  242.68   14.40
  -5  -3   8  205.98   12.60
  -5  -3   8  210.78   13.10
   4   3  -8   15.60    2.00
   4   3  -8   16.40    1.70
  -4  -3   8   17.90    3.90
   3   3  -8   59.49    3.30
   3   3  -8   51.19    3.90
   2   3  -8   84.49    5.20
   2   3  -8   75.99    5.20
  -2  -3   8   73.99    6.40
   1   3  -8   24.50    2.20
   1   3  -8   24.60    3.00
  -1  -3   8   21.10    3.40
   0  -3   8  792.42   30.60
   1  -3   8  571.24   22.70
  -2   3  -8  107.99    7.60
   2  -3   8  114.49    6.70
  -3   3  -8   17.40    3.30
   3  -3   8   15.50    2.40
  -4   3  -8   83.89    6.50
   4  -3   8   84.69    5.20
  -5   3  -8   61.19    5.50
   5  -3   8   70.49    4.50
  -6   3  -8   18.50    3.40
   6  -3   8   21.30    2.40
  -7   3  -8  213.08   12.10
   7  -3   8  221.48    9.10
  -8   3  -8    1.70    2.00
  -9   3  -8   -0.60    2.00
 -10   3  -8   74.89    7.50
  -7  -2   8   63.79    6.60
  -7  -2   8   48.20    6.30
   6   2  -8   14.80    2.80
  -6  -2   8   11.40    5.80
  -6  -2   8   10.40    3.00
   5   2  -8    5.30    1.70
  -5  -2   8    5.30    2.40
  -5  -2   8    6.50    2.50
   4   2  -8  432.66   17.30
  -4  -2   8  414.76   19.60
   3   2  -8   13.50    2.40
  -3  -2   8    7.40    2.70
   2   2  -8  261.07   12.10
  -2  -2   8  261.57   13.20
   1   2  -8  884.71   33.30
  -1  -2   8  894.01   34.10
   0  -2   8    7.00    2.30
   1  -2   8  343.87   14.90
  -2   2  -8  817.02   31.10
   2  -2   8  782.52   29.70
  -3   2  -8  214.78   11.00
   3  -2   8  215.88    9.90
  -4   2  -8  325.17   15.20
  -4   2  -8  351.56   14.20
   4  -2   8  338.97   13.80
  -5   2  -8  181.78    9.50
  -5   2  -8  150.68    9.40
   5  -2   8  165.68    7.60
  -6   2  -8   24.20    3.60
   6  -2   8   16.60    2.10
  -7   2  -8   73.29    5.90
  -8   2  -8   10.20    2.50
  -9   2  -8  233.98   16.50
 -10   2  -8  375.26   18.90
  -7  -1   8    4.20    2.40
  -7  -1   8    2.70    3.60
   6   1  -8   78.49    6.00
  -6  -1   8   81.59    7.10
  -6  -1   8   77.99    7.00
   5   1  -8   -0.10    1.30
  -5  -1   8   -0.60    1.50
  -5  -1   8   -0.80    1.40
   4   1  -8    6.90    2.00
  -4  -1   8    5.80    2.30
  -4  -1   8    9.60    2.70
   3   1  -8  135.49    7.70
  -3  -1   8  118.59    8.10
   2   1  -8  102.79    6.60
  -2  -1   8   92.19    6.70
   1   1  -8  453.05   18.80
  -1  -1   8  440.46   18.90
   0   1  -8   25.00    3.10
   0  -1   8   24.00    4.20
   0  -1   8   30.80    3.70
   1  -1   8   40.80    3.80
   1  -1   8   41.50    3.10
  -2   1  -8  635.04   24.20
   2  -1   8  639.54   23.60
   2  -1   8  576.34   22.70
  -3   1  -8  151.48    7.30
  -3   1  -8  163.68    8.80
   3  -1   8  164.28    7.80
  -4   1  -8  232.78   11.10
  -4   1  -8  241.28   10.20
   4  -1   8  250.77   10.30
  -5   1  -8  335.27   14.60
  -5   1  -8  340.17   13.20
   5  -1   8  326.37   12.90
  -6   1  -8  298.77   13.80
   6  -1   8  314.37   11.30
  -7   1  -8   -0.90    1.10
  -8   1  -8  180.88   10.50
  -9   1  -8  675.63   27.70
 -10   1  -8  150.98    9.80
   7   0  -8   27.00    3.90
  -7   0   8   23.40    4.20
  -7   0   8   24.10    4.10
   6   0  -8  118.39    7.80
  -6   0   8  134.99    9.00
  -6   0   8  122.39   11.50
   5   0  -8    0.40    1.50
  -5   0   8    5.10    2.10
  -5   0   8    2.70    2.00
   4   0  -8 2429.96   83.29
  -4   0   8 2451.45   83.29
  -4   0   8 2212.08   83.39
   3   0  -8  350.46   20.40
  -3   0   8  382.16   16.80
  -3   0   8  358.56   16.00
   2   0  -8  187.78   10.10
  -2   0   8  179.98    9.90
   1   0  -8    2.70    1.50
  -1   0   8    5.10    1.40
  -1   0   8    2.40    1.50
   0   0  -8    2.80    1.30
   0   0   8    2.70    1.00
   0   0   8    1.10    1.20
   1   0   8  198.68    8.70
   1   0   8  216.28    9.90
  -2   0  -8  287.47   11.70
  -2   0  -8  278.97   12.40
   2   0   8  308.87   12.50
   2   0   8  292.17   11.70
  -3   0  -8  761.82   28.00
  -3   0  -8  756.42   26.80
   3   0   8  752.22   27.40
   3   0   8  750.92   27.20
  -4   0  -8    4.30    0.80
  -4   0  -8    6.50    1.50
   4   0   8    3.00    1.10
   4   0   8    3.10    1.00
  -5   0  -8    9.80    1.30
  -5   0  -8    6.80    1.60
   5   0   8    8.30    1.20
  -6   0  -8   40.30    3.70
  -7   0  -8  101.99    6.40
  -8   0  -8   54.09    4.80
  -9   0  -8    6.00    2.10
 -10   0  -8  152.78    9.60
 -11   0  -8    1.90    2.30
   8  -1  -8   23.60    4.40
  -8   1   8   15.20    3.70
   7  -1  -8    2.60    2.10
  -7   1   8    0.00    1.90
  -7   1   8    0.90    2.00
   6  -1  -8 1037.30   39.20
  -6   1   8 1020.60   39.90
  -6   1   8  986.40   38.60
   5  -1  -8   12.10    3.00
  -5   1   8   18.30    5.30
  -5   1   8   11.90    2.60
   4  -1  -8   46.70    5.00
  -4   1   8   50.69    4.40
  -4   1   8   46.70    4.80
   3  -1  -8  136.59    8.50
  -3   1   8  136.39    8.20
  -3   1   8  123.09    7.20
   2  -1  -8   15.00    3.00
  -2   1   8   16.40    2.80
  -2   1   8   14.20    2.30
   1  -1  -8  119.19    7.90
  -1   1   8  113.79    5.90
  -1   1   8  106.59    6.80
   0  -1  -8  124.39    7.40
   0   1   8  105.29    5.30
   0   1   8  109.09    6.50
  -1  -1  -8  231.38   10.20
  -1  -1  -8  235.88   11.50
   1   1   8  229.98    9.10
  -2  -1  -8  413.86   16.00
  -2  -1  -8  425.06   16.10
   2   1   8  438.66   16.40
   2   1   8  388.06   15.10
  -3  -1  -8   71.99    4.00
  -3  -1  -8   74.09    4.30
   3   1   8   82.29    4.10
   3   1   8   70.59    4.30
  -4  -1  -8  544.65   20.10
  -4  -1  -8  542.75   19.10
   4   1   8  527.45   20.10
   4   1   8  530.85   19.50
  -5  -1  -8  142.89    5.70
  -5  -1  -8  140.79    7.00
  -6  -1  -8  143.29    7.40
  -7  -1  -8    0.30    1.10
  -8  -1  -8   43.30    4.10
  -9  -1  -8   17.50    3.40
 -10  -1  -8  109.49    8.10
   8  -2  -8   17.30    4.40
  -8   2   8   24.00    4.10
   7  -2  -8  188.68   11.40
  -7   2   8  192.48   10.80
   6  -2  -8  143.79    9.50
  -6   2   8  115.99    8.80
  -6   2   8  136.79    8.20
   5  -2  -8  646.24   27.60
  -5   2   8  673.33   25.80
  -5   2   8  644.94   31.60
   4  -2  -8   33.60    4.50
  -4   2   8   28.40    3.90
  -4   2   8   32.60    3.30
   3  -2  -8  131.99    9.00
  -3   2   8  147.39    7.30
  -3   2   8  145.49    8.70
   2  -2  -8  548.15   22.70
  -2   2   8  475.05   21.00
  -2   2   8  535.55   19.60
   1  -2  -8    9.40    2.50
  -1   2   8    7.90    1.40
  -1   2   8    7.00    1.30
  -1   2   8    6.60    1.80
  -1  -2  -8  300.17   13.00
  -1  -2  -8  296.77   16.00
   1   2   8  314.37   11.10
   1   2   8  321.07   13.20
  -2  -2  -8  143.19    7.20
  -2  -2  -8  156.98    6.50
   2   2   8  141.89    7.20
   2   2   8  150.98    6.00
  -3  -2  -8  501.25   19.20
  -3  -2  -8  542.95   19.80
   3   2   8  558.74   19.30
  -4  -2  -8  889.71   31.00
  -4  -2  -8  895.31   31.30
   4   2   8  878.01   31.60
  -5  -2  -8    1.30    0.50
  -5  -2  -8    1.60    0.90
   5   2   8    1.00    0.80
  -6  -2  -8  229.78   10.20
  -7  -2  -8   28.70    3.00
  -8  -2  -8  112.19    6.90
  -9  -2  -8    5.90    2.30
 -10  -2  -8    5.40    2.30
 -11  -2  -8 1008.90   39.50
   7  -3  -8   32.50    5.30
  -7   3   8   22.20    3.60
   6  -3  -8    0.00    2.60
  -6   3   8    1.80    1.50
   5  -3  -8  372.16   18.70
  -5   3   8  397.66   16.30
   4  -3  -8  101.19    7.90
  -4   3   8  100.59    5.80
   3  -3  -8 1407.56   53.29
  -3   3   8 1427.46   49.20
   2  -3  -8 6253.77  213.78
  -2   3   8 6243.08  212.08
  -2   3   8 6337.87  209.08
   1  -3  -8 2180.18   77.79
  -1   3   8 2242.28   76.19
  -1   3   8 2328.97   73.19
  -1   3   8 1949.41   73.69
   0  -3  -8  326.17   15.60
  -1  -3  -8   17.70    3.20
  -2  -3  -8   44.40    3.40
  -2  -3  -8   37.00    4.00
   2   3   8   43.60    2.00
  -3  -3  -8  249.38    9.30
  -3  -3  -8  244.78   10.50
   3   3   8  249.08    9.60
  -4  -3  -8   46.50    2.80
  -4  -3  -8   51.39    3.30
   4   3   8   50.29    3.30
  -5  -3  -8    2.70    0.90
  -5  -3  -8    3.00    1.00
   5   3   8    3.90    1.10
  -6  -3  -8  398.56   15.80
  -7  -3  -8   12.60    2.40
  -8  -3  -8    2.80    1.50
  -9  -3  -8  426.86   20.20
 -10  -3  -8  818.92   32.40
 -11  -3  -8  777.82   31.70
  -7   4   8   -1.00    1.60
   6  -4  -8  154.78   11.00
  -6   4   8  170.28    8.70
   5  -4  -8  218.48   14.90
  -5   4   8  194.58    9.50
   4  -4  -8  392.36   19.30
  -4   4   8  383.36   15.20
   3  -4  -8 4738.63  162.28
  -3   4   8 4635.14  156.58
   2  -4  -8 3606.54  125.09
  -2   4   8 3549.04  119.19
   1  -4  -8   -1.40    1.10
   0  -4  -8 2323.97   82.79
  -2  -4  -8  670.33   24.90
  -2  -4  -8  586.64   25.50
  -3  -4  -8  107.29    5.10
  -3  -4  -8  116.29    7.50
  -4  -4  -8   49.50    3.40
  -4  -4  -8   54.39    2.90
  -4  -4  -8   52.79    4.90
  -5  -4  -8   11.80    1.70
  -5  -4  -8   14.40    1.70
  -6  -4  -8  450.85   16.70
  -6  -4  -8  475.85   16.90
  -7  -4  -8    7.80    1.80
  -8  -4  -8  363.86   15.90
  -9  -4  -8   42.40    4.60
 -10  -4  -8    3.90    2.20
 -11  -4  -8   58.79    6.20
   7  -5  -8   50.99    6.50
  -7   5   8   45.40    5.10
   6  -5  -8    3.90    2.50
  -6   5   8    3.90    1.80
   5  -5  -8 3062.79  106.09
  -5   5   8 2834.92  100.09
   4  -5  -8  163.38   11.00
  -4   5   8  149.88    7.10
   3  -5  -8  218.18   12.90
  -3   5   8  202.38    8.30
   2  -5  -8   38.60    4.90
  -2   5   8   34.20    2.30
   1  -5  -8   69.59    6.50
   0  -5  -8  623.44   26.60
  -1  -5  -8   14.70    3.20
  -2  -5  -8 1556.24   57.29
  -3  -5  -8  726.93   28.60
  -3  -5  -8  676.93   23.60
  -4  -5  -8   -1.00    0.60
  -4  -5  -8    0.70    0.50
  -4  -5  -8    0.20    1.30
  -5  -5  -8  190.38    8.90
  -5  -5  -8  190.08    8.20
  -5  -5  -8  178.08   10.30
  -6  -5  -8   40.70    2.70
  -6  -5  -8   39.10    4.00
  -6  -5  -8   39.10    3.00
  -7  -5  -8   64.89    3.30
  -7  -5  -8   58.29    3.10
  -7  -5  -8   54.89    4.50
  -8  -5  -8  473.75   19.70
  -9  -5  -8   21.60    3.60
 -10  -5  -8    0.30    1.70
   7  -6  -8   90.39    8.90
  -7   6   8   89.89    6.50
   6  -6  -8   65.19    7.30
  -6   6   8   58.79    4.70
   5  -6  -8   78.99    7.80
  -5   6   8   64.79    4.60
   4  -6  -8  297.37   16.60
  -4   6   8  285.97   11.70
   3  -6  -8   95.49    8.20
  -3   6   8  100.89    4.90
   2  -6  -8   49.30    5.80
   1  -6  -8   25.10    4.50
   0  -6  -8    7.70    2.50
  -1  -6  -8 1131.09   43.90
  -2  -6  -8   78.79    6.60
  -3  -6  -8   38.50    2.10
  -3  -6  -8   40.00    2.10
  -3  -6  -8   42.10    4.70
  -4  -6  -8  228.98   12.00
  -4  -6  -8  198.28    8.40
  -5  -6  -8  199.38    9.90
  -5  -6  -8  202.38   11.40
  -5  -6  -8  201.08    8.80
  -6  -6  -8   86.89    5.30
  -6  -6  -8   89.19    6.90
  -6  -6  -8   96.09    5.50
  -6  -6  -8   83.29    4.90
  -7  -6  -8  132.29    8.70
  -7  -6  -8  137.29    7.50
  -7  -6  -8  124.89    6.20
  -8  -6  -8    5.70    1.00
  -8  -6  -8    3.50    1.70
  -8  -6  -8    1.50    1.80
  -9  -6  -8  188.28   11.40
  -9  -6  -8  199.78   10.80
 -10  -6  -8    0.60    2.10
  -6   7   8   45.30    4.60
   5  -7  -8   -2.60    2.20
  -5   7   8   -0.50    1.40
   4  -7  -8    5.70    3.00
  -4   7   8    2.40    1.40
   3  -7  -8   14.30    3.70
  -3   7   8   20.50    2.20
   2  -7  -8    8.70    4.00
   1  -7  -8 2415.66   87.89
   0  -7  -8   19.30    4.00
  -1  -7  -8  205.28   12.40
  -2  -7  -8  247.98   13.70
  -3  -7  -8  242.08   13.40
  -3  -7  -8  226.08    9.10
  -3  -7  -8  267.17    9.30
  -4  -7  -8   62.79    5.90
  -4  -7  -8   50.79    3.50
  -4  -7  -8   60.99    3.50
  -5  -7  -8   39.30    4.90
  -5  -7  -8   38.30    4.00
  -5  -7  -8   29.70    2.90
  -6  -7  -8   20.80    2.80
  -6  -7  -8   16.40    2.60
  -6  -7  -8   19.60    3.70
  -7  -7  -8  171.18    8.30
  -7  -7  -8  174.18   10.70
  -7  -7  -8  183.08    9.30
  -8  -7  -8    3.20    1.20
  -8  -7  -8    2.10    1.70
  -8  -7  -8    2.60    1.90
  -9  -7  -8   73.79    6.30
  -9  -7  -8   79.59    6.90
 -10  -7  -8    0.50    2.30
 -10  -7  -8    5.60    2.30
  -5   8   8   90.29    6.70
   4  -8  -8  213.58   14.20
  -4   8   8  209.68    9.90
   3  -8  -8   27.20    5.30
  -3   8   8   26.30    2.90
   2  -8  -8  229.98   14.40
   1  -8  -8   17.60    4.10
   0  -8  -8   25.60    4.70
  -1  -8  -8   40.50    5.30
  -2  -8  -8   39.50    5.10
  -3  -8  -8  341.97   12.80
  -3  -8  -8  340.67   17.40
  -3  -8  -8  335.37   12.60
  -4  -8  -8  109.19    7.60
  -4  -8  -8   97.79    5.30
  -4  -8  -8   93.99    7.70
  -4  -8  -8   98.89    5.40
  -5  -8  -8   10.20    2.40
  -5  -8  -8    8.50    2.30
  -5  -8  -8   14.80    3.30
  -6  -8  -8   21.00    4.10
  -6  -8  -8   20.50    3.10
  -6  -8  -8   20.90    3.00
  -7  -8  -8   74.39    5.20
  -7  -8  -8   72.49    5.50
  -7  -8  -8   67.39    6.40
  -8  -8  -8   15.70    3.80
  -8  -8  -8   14.10    2.20
  -8  -8  -8   16.70    3.30
  -9  -8  -8   52.59    5.60
  -9  -8  -8   56.99    5.50
   3  -9  -8  116.79   10.20
   2  -9  -8  130.49   10.40
   1  -9  -8  476.65   23.60
   0  -9  -8  120.39    9.70
  -2  -9  -8  154.88    6.50
  -2  -9  -8  145.79    6.00
  -2  -9  -8  147.59   10.60
  -3  -9  -8   12.60    1.80
  -3  -9  -8   13.10    3.50
  -3  -9  -8   12.70    1.70
  -3  -9  -8    9.80    3.30
  -4  -9  -8  577.64   24.80
  -4  -9  -8  544.95   21.40
  -4  -9  -8  570.94   25.40
  -5  -9  -8    1.50    1.80
  -5  -9  -8    2.30    1.30
  -5  -9  -8    3.60    2.20
  -6  -9  -8   83.79    7.30
  -6  -9  -8   93.89    6.20
  -6  -9  -8   86.19    6.50
  -7  -9  -8   12.00    2.50
  -7  -9  -8   18.20    3.40
  -7  -9  -8   13.10    2.80
  -8  -9  -8   -1.60    1.70
  -8  -9  -8    1.30    1.40
  -8  -9  -8    4.10    2.40
   3 -10  -8   61.39    7.60
   2 -10  -8   21.10    5.10
   1 -10  -8   35.90    7.00
   0 -10  -8  277.87   16.40
  -1 -10  -8  549.15   25.90
  -2 -10  -8  656.83   29.30
  -2 -10  -8  648.54   29.20
  -2 -10  -8  648.44   23.80
  -3 -10  -8  328.47   13.10
  -3 -10  -8  302.47   20.90
  -3 -10  -8  309.17   16.90
  -4 -10  -8   65.19    6.50
  -4 -10  -8   57.39    4.30
  -4 -10  -8   51.99    6.00
  -5 -10  -8   15.60    3.90
  -5 -10  -8    7.30    2.50
  -5 -10  -8   10.90    2.20
  -6 -10  -8   99.89    7.40
  -6 -10  -8   89.19    6.50
  -6 -10  -8  100.59    7.90
  -7 -10  -8   17.50    3.20
  -7 -10  -8   12.70    3.00
   2 -11  -8   10.80    3.80
   1 -11  -8   43.00    7.00
   0 -11  -8  787.12   34.90
  -1 -11  -8   22.90    5.20
  -2 -11  -8    7.10    3.10
  -2 -11  -8    7.30    3.10
  -3 -11  -8    5.60    2.90
  -3 -11  -8    4.80    2.70
  -4 -11  -8   23.40    4.50
  -4 -11  -8   26.00    4.80
  -4 -11  -8   30.00    5.10
  -5 -11  -8   22.90    4.40
  -5 -11  -8   12.00    2.90
  -5 -11  -8   10.00    3.10
  -2  -7   9   24.20    5.20
  -1  -7   9    9.10    3.00
   0  -7   9   85.59    7.80
   1  -7   9  167.28   10.80
   2  -7   9  220.48   12.50
   3  -7   9   57.29    7.60
   4  -7   9    0.40    2.00
  -5   7  -9  174.68   13.50
   5  -7   9  177.48   10.30
  -3  -6   9   22.50    4.80
  -2  -6   9   93.19    8.40
   1   6  -9  152.98    8.30
  -1  -6   9  163.28   10.70
   0  -6   9  347.27   18.10
   1  -6   9  576.14   24.70
   2  -6   9  229.68   12.40
   3  -6   9   31.00    4.40
  -4   6  -9    7.00    3.50
   4  -6   9    5.70    2.10
  -5   6  -9   -0.70    2.10
   5  -6   9    0.90    1.70
  -6   6  -9   20.40    5.30
   6  -6   9   22.60    5.50
  -7   6  -9   24.30    5.00
   7  -6   9   26.60    3.80
  -3  -5   9  339.27   17.90
   2   5  -9  176.18    8.40
  -2  -5   9  195.88   15.90
   1   5  -9  224.68   10.90
  -1  -5   9  224.48   12.80
   0  -5   9   -1.60    1.70
   1  -5   9  118.89    8.00
   2  -5   9   45.50    5.30
   3  -5   9  159.78    9.20
  -4   5  -9   42.50    5.60
   4  -5   9   30.90    3.90
  -5   5  -9   30.90    5.50
   5  -5   9   34.80    4.10
  -6   5  -9   46.70    6.30
   6  -5   9   52.09    4.70
  -7   5  -9    3.60    2.60
   7  -5   9   -2.00    1.70
  -8   5  -9    5.50    3.10
  -5  -4   9  223.98   14.50
  -4  -4   9   40.90    6.20
   3   4  -9   58.39    4.00
  -3  -4   9   65.19    6.90
   2   4  -9   13.20    2.40
  -2  -4   9   13.50    3.60
   1   4  -9   12.00    2.40
  -1  -4   9   18.70    3.90
   0  -4   9   11.70    2.90
   1  -4   9   24.30    3.80
   2  -4   9   12.20    2.70
  -3   4  -9  507.05   22.70
   3  -4   9  469.85   20.00
  -4   4  -9   28.20    5.50
   4  -4   9   23.50    3.20
  -5   4  -9   23.80    4.40
   5  -4   9   22.40    3.20
  -6   4  -9   41.40    5.10
   6  -4   9   43.60    3.90
  -7   4  -9    5.40    2.90
   7  -4   9    3.10    1.70
  -8   4  -9  112.39    9.10
  -9   4  -9   -2.50    2.00
  -6  -3   9   -0.30    2.80
  -6  -3   9    1.70    2.70
  -5  -3   9  225.48   15.90
  -5  -3   9  217.78   13.50
   4   3  -9   75.69    4.60
  -4  -3   9   76.99    7.40
   3   3  -9    9.70    2.10
  -3  -3   9    6.40    2.80
   2   3  -9   60.49    4.00
   2   3  -9   74.29    5.40
  -2  -3   9   76.29    6.70
   1   3  -9   33.50    3.80
  -1  -3   9   25.70    4.20
   0  -3   9  138.09    8.70
   1  -3   9  310.37   14.50
   2  -3   9    8.10    2.10
  -3   3  -9  119.59    8.30
   3  -3   9  112.89    6.90
  -4   3  -9   52.39    5.30
   4  -3   9   45.10    4.10
  -5   3  -9    8.00    2.40
   5  -3   9    8.80    2.00
  -6   3  -9    0.40    1.40
   6  -3   9   -1.90    1.00
  -7   3  -9   84.39    7.00
   7  -3   9   77.79    4.70
  -9   3  -9  249.28   14.30
  -6  -2   9   32.10    5.50
  -6  -2   9   24.70    4.60
   5   2  -9    8.00    2.20
  -5  -2   9    4.20    4.10
  -5  -2   9    9.10    3.00
   4   2  -9   20.50    3.10
  -4  -2   9   24.80    4.30
   3   2  -9   76.79    5.70
  -3  -2   9   74.09    6.70
   2   2  -9  219.78   11.20
  -2  -2   9  221.58   12.20
   1   2  -9  136.09    9.50
  -1  -2   9  143.99    8.90
   0   2  -9 2823.02   97.99
   0  -2   9 2825.52   98.29
   1  -2   9  314.57   14.40
   2  -2   9    5.60    1.90
  -3   2  -9   11.80    2.60
   3  -2   9   14.80    2.60
  -4   2  -9  474.95   20.50
  -5   2  -9  412.06   17.30
  -5   2  -9  447.56   19.10
   5  -2   9  425.56   16.90
  -6   2  -9  616.14   24.70
   6  -2   9  564.24   21.60
  -7   2  -9   41.00    4.70
   7  -2   9   34.70    2.40
  -8   2  -9   46.60    5.20
  -9   2  -9    1.40    2.10
 -10   2  -9    0.20    2.10
  -7  -1   9   28.90    4.70
  -7  -1   9   18.70    4.40
   6   1  -9   13.00    2.70
  -6  -1   9   15.10    3.40
  -6  -1   9   15.70    3.80
   5   1  -9  201.98   10.50
  -5  -1   9  201.98   12.30
  -5  -1   9  221.68   12.60
   4   1  -9    6.10    2.40
  -4  -1   9    4.40    2.10
  -4  -1   9    4.00    2.10
   3   1  -9    7.00    2.20
  -3  -1   9    7.70    2.60
   2   1  -9 2298.57   80.39
  -2  -1   9 2223.98   80.09
   1   1  -9    3.20    1.80
  -1  -1   9    2.20    1.60
   0   1  -9  227.48   11.40
   0  -1   9  211.98   11.20
   1  -1   9  911.21   34.20
   2  -1   9  289.67   13.00
  -3   1  -9   40.30    4.00
   3  -1   9   43.60    3.90
  -4   1  -9   24.10    2.40
  -4   1  -9   24.00    3.10
   4  -1   9   22.00    2.70
  -5   1  -9  501.65   19.30
  -5   1  -9  508.45   20.80
   5  -1   9  512.25   19.10
  -6   1  -9  379.16   16.50
   6  -1   9  363.06   13.80
  -7   1  -9   96.79    6.80
  -8   1  -9    2.70    1.80
  -9   1  -9    5.50    2.20
 -10   1  -9    5.10    2.40
   7   0  -9   -0.70    2.40
  -7   0   9   -0.30    2.00
   6   0  -9   11.30    3.10
  -6   0   9   17.90    3.80
  -6   0   9    9.40    3.00
   5   0  -9    1.20    1.60
  -5   0   9    0.20    1.80
  -5   0   9    3.50    2.00
   4   0  -9   49.00    4.90
  -4   0   9   44.60    5.00
  -4   0   9   42.00    4.60
   3   0  -9  200.48   11.20
  -3   0   9  198.18   11.20
  -3   0   9  206.48   10.80
   2   0  -9  469.65   20.40
  -2   0   9  463.05   20.20
   1   0  -9  944.71   36.80
  -1   0   9  973.20   36.40
   0   0  -9   64.39    5.20
   0   0   9   42.10    4.30
   0   0   9   51.89    3.60
   1   0   9   93.79    5.10
   1   0   9  101.19    6.40
   2   0   9   25.10    2.30
  -3   0  -9   22.50    2.80
   3   0   9   21.30    2.80
   3   0   9   21.40    2.20
  -4   0  -9 2744.63   95.39
   4   0   9 2690.83   92.19
  -5   0  -9   14.00    1.60
  -5   0  -9   14.80    2.50
   5   0   9   17.60    1.90
  -6   0  -9  792.92   30.00
  -7   0  -9  139.49    8.10
  -8   0  -9   28.40    3.90
  -9   0  -9    9.60    2.70
 -10   0  -9    4.10    2.30
   7  -1  -9   17.90    6.30
  -7   1   9   13.90    3.10
  -7   1   9   16.90    3.80
   6  -1  -9   66.99    6.20
  -6   1   9   61.79    6.90
  -6   1   9   78.69   10.00
   5  -1  -9   14.00    3.10
  -5   1   9   14.80    3.10
  -5   1   9   14.30    3.30
   4  -1  -9  197.68   11.20
  -4   1   9  170.98   11.10
  -4   1   9  202.78   10.20
   3  -1  -9  237.08   12.50
  -3   1   9  221.38   10.80
  -3   1   9  217.98   11.90
   2  -1  -9  115.29    8.00
  -2   1   9  108.49    7.40
  -2   1   9  118.19    6.70
  -2   1   9  111.99    6.60
   1  -1  -9  492.95   21.70
  -1   1   9  511.55   20.90
   0  -1  -9   54.49    5.20
   0   1   9   70.79    5.20
   0   1   9   56.09    3.50
  -1  -1  -9  247.58   12.50
   1   1   9  269.57   11.70
   1   1   9  234.78    9.80
  -3  -1  -9 1341.97   48.40
  -3  -1  -9 1384.36   47.90
   3   1   9 1448.85   48.50
   3   1   9 1349.66   47.70
  -4  -1  -9  412.16   15.50
  -4  -1  -9  468.55   16.70
   4   1   9  391.16   16.00
   4   1   9  394.36   15.90
  -5  -1  -9   52.29    4.10
  -5  -1  -9   52.99    3.00
  -6  -1  -9  281.87   12.40
  -7  -1  -9   48.40    4.20
  -8  -1  -9   23.00    3.10
  -9  -1  -9   13.20    2.80
 -10  -1  -9  141.69   12.50
 -11  -1  -9   48.30    5.80
   7  -2  -9   18.80    4.20
  -7   2   9   19.80    3.50
   6  -2  -9   10.10    4.40
  -6   2   9    8.90    2.50
   5  -2  -9   46.00    5.30
  -5   2   9   52.39    5.50
  -5   2   9   46.70    4.40
   4  -2  -9    2.60    1.70
  -4   2   9    2.40    1.50
  -4   2   9    0.10    1.60
   3  -2  -9   65.29    6.20
  -3   2   9   66.19    5.80
  -3   2   9   65.49    4.50
   2  -2  -9  435.06   19.90
  -2   2   9  437.86   17.10
  -2   2   9  424.56   16.70
  -2   2   9  421.96   18.70
   1  -2  -9  186.58   10.60
  -1   2   9  146.79    8.90
  -1   2   9  173.78    7.50
  -1   2   9  165.58    7.50
   0  -2  -9 1699.03   59.09
   0   2   9 1611.34   54.39
   0   2   9 1511.55   56.89
  -1  -2  -9 5544.45  195.78
   1   2   9 6158.78  191.48
   1   2   9 5580.84  193.98
  -2  -2  -9 2454.35   86.29
   2   2   9 2469.85   84.29
   2   2   9 2437.86   82.29
  -3  -2  -9   76.09    4.30
  -3  -2  -9   80.49    4.60
   3   2   9   81.59    4.90
   3   2   9   76.59    4.00
  -4  -2  -9  741.13   27.70
  -4  -2  -9  776.52   27.50
   4   2   9  802.22   27.90
  -5  -2  -9  130.49    5.60
  -5  -2  -9  131.79    6.50
   5   2   9  136.49    6.90
  -6  -2  -9    3.40    1.10
  -7  -2  -9    3.00    1.40
  -8  -2  -9   57.89    4.80
  -9  -2  -9   13.70    2.90
 -10  -2  -9  174.08   10.10
 -11  -2  -9   -0.20    3.40
   7  -3  -9    0.50    3.00
  -7   3   9    1.30    2.20
   6  -3  -9    3.40    2.40
  -6   3   9    1.90    1.60
   5  -3  -9   54.89    5.90
  -5   3   9   48.50    4.20
   4  -3  -9  242.68   13.90
  -4   3   9  237.88   10.70
   3  -3  -9    1.30    1.60
  -3   3   9    0.20    0.80
  -3   3   9    1.10    1.60
   2  -3  -9    1.80    1.90
  -2   3   9    4.30    1.10
  -2   3   9    4.80    1.80
   1  -3  -9 8913.71  305.37
  -1   3   9 9393.86  300.07
  -1   3   9 9318.47  299.87
  -1   3   9 8549.14  303.27
   0  -3  -9  951.50   39.80
   0   3   9 1116.49   38.70
  -1  -3  -9  210.88   11.70
  -2  -3  -9 1330.17   49.20
   2   3   9 1316.57   44.40
  -3  -3  -9  596.14   22.40
  -3  -3  -9  592.04   21.10
  -3  -3  -9  593.14   24.70
   3   3   9  595.64   21.00
  -4  -3  -9  626.84   23.30
  -4  -3  -9  632.84   22.70
   4   3   9  644.14   23.10
  -5  -3  -9  379.26   14.50
  -5  -3  -9  397.46   14.90
   5   3   9  387.46   15.60
  -6  -3  -9  820.82   29.80
  -7  -3  -9  253.17   11.40
  -8  -3  -9  157.08    8.50
  -9  -3  -9   54.09    4.90
 -10  -3  -9   24.70    4.00
 -11  -3  -9   69.49    6.70
   7  -4  -9   25.70    4.90
  -7   4   9   25.40    3.70
   6  -4  -9   -0.70    2.10
  -6   4   9    2.30    1.70
   5  -4  -9  117.99    9.40
  -5   4   9  114.99    6.50
   4  -4  -9  200.48   12.70
  -4   4   9  210.08    9.20
   3  -4  -9 1015.20   41.20
  -3   4   9 1026.40   35.60
   2  -4  -9  255.57   14.30
  -2   4   9  250.17    9.40
   1  -4  -9   16.10    3.70
   0  -4  -9  708.83   29.70
  -1  -4  -9   44.40    4.90
  -2  -4  -9  322.07   15.70
  -3  -4  -9   51.69    2.40
  -3  -4  -9   49.00    5.00
  -4  -4  -9  379.56   17.80
  -4  -4  -9  393.96   14.20
  -4  -4  -9  387.56   15.40
  -5  -4  -9 1005.70   36.20
  -5  -4  -9 1049.89   35.90
  -6  -4  -9   42.20    3.40
  -6  -4  -9   36.80    2.60
  -6  -4  -9   38.40    2.80
  -7  -4  -9   32.50    3.30
  -8  -4  -9   27.10    3.40
  -9  -4  -9   34.40    5.30
 -10  -4  -9  124.79    8.30
 -11  -4  -9    4.30    2.70
   6  -5  -9   75.29    8.00
  -6   5   9   72.29    5.30
   5  -5  -9   20.00    4.40
  -5   5   9   24.20    3.00
   4  -5  -9   55.59    6.50
  -4   5   9   66.09    3.90
   3  -5  -9 1093.29   43.60
  -3   5   9 1055.89   36.80
   2  -5  -9   37.00    5.10
   1  -5  -9   92.29    7.80
   0  -5  -9  148.59   10.00
  -1  -5  -9   14.90    3.40
  -2  -5  -9  531.15   23.50
  -3  -5  -9  653.03   27.40
  -4  -5  -9  357.66   13.10
  -4  -5  -9  377.96   17.60
  -5  -5  -9    0.20    1.10
  -5  -5  -9    1.40    0.90
  -5  -5  -9   -0.60    0.60
  -6  -5  -9  226.68   12.50
  -6  -5  -9  225.78    9.70
  -6  -5  -9  207.38    9.20
  -6  -5  -9  228.38    9.70
  -7  -5  -9  213.78    8.70
  -7  -5  -9  233.28   10.40
  -7  -5  -9  222.48    8.60
  -8  -5  -9   33.80    3.60
  -9  -5  -9    1.90    1.70
 -10  -5  -9   22.40    3.80
   6  -6  -9   21.40    4.70
  -6   6   9   16.40    2.90
   5  -6  -9  120.19   10.30
  -5   6   9  119.99    6.30
   4  -6  -9  145.59   10.90
  -4   6   9  125.79    6.20
   3  -6  -9   85.69    8.10
  -3   6   9   71.79    3.70
   2  -6  -9  141.49   10.50
   1  -6  -9  138.99   10.10
   0  -6  -9   67.59    6.60
  -1  -6  -9  908.71   37.00
  -2  -6  -9  312.67   16.20
  -3  -6  -9   80.39    6.80
  -4  -6  -9  163.98    6.30
  -4  -6  -9  157.28   10.10
  -5  -6  -9  446.26   16.80
  -5  -6  -9  460.75   20.90
  -6  -6  -9    7.30    1.30
  -6  -6  -9    4.60    1.40
  -6  -6  -9    1.70    1.80
  -6  -6  -9    6.00    1.60
  -7  -6  -9   20.70    2.70
  -7  -6  -9   14.80    3.60
  -7  -6  -9   21.10    2.20
  -8  -6  -9   81.79    3.70
  -8  -6  -9   87.59    6.00
  -8  -6  -9   76.39    7.00
  -9  -6  -9    3.80    1.90
  -9  -6  -9    1.70    2.10
 -10  -6  -9    3.50    2.30
   5  -7  -9   36.70    6.30
   4  -7  -9   69.39   12.80
  -4   7   9   84.49    4.80
   3  -7  -9    2.30    1.90
   2  -7  -9  192.68   12.90
   0  -7  -9  671.63   29.70
  -1  -7  -9  145.99   10.30
  -2  -7  -9   17.50    3.80
  -3  -7  -9  302.37   16.10
  -4  -7  -9    9.30    1.10
  -4  -7  -9    9.80    1.40
  -4  -7  -9    6.20    2.40
  -5  -7  -9   28.10    4.90
  -5  -7  -9   25.10    3.30
  -5  -7  -9   22.70    2.30
  -6  -7  -9  139.29   10.00
  -6  -7  -9  159.08    7.80
  -6  -7  -9  157.58    8.40
  -7  -7  -9    0.60    1.20
  -7  -7  -9    2.10    1.90
  -7  -7  -9    3.30    1.20
  -8  -7  -9   48.00    5.40
  -8  -7  -9   37.40    2.90
  -8  -7  -9   42.30    4.30
  -9  -7  -9    2.50    2.30
  -9  -7  -9   -0.50    1.60
   5  -8  -9   52.49    7.00
   4  -8  -9   67.49    8.10
   3  -8  -9    3.10    2.50
   2  -8  -9  336.37   18.90
   1  -8  -9   -1.00    1.80
   0  -8  -9  193.98   12.80
  -1  -8  -9   25.70    4.90
  -2  -8  -9  130.29    9.80
  -3  -8  -9  282.67   15.70
  -4  -8  -9  208.68    8.30
  -4  -8  -9  207.78    8.40
  -4  -8  -9  219.08   13.00
  -5  -8  -9  354.16   16.80
  -5  -8  -9  374.66   18.60
  -5  -8  -9  362.96   14.20
  -6  -8  -9  625.14   26.80
  -6  -8  -9  562.34   23.90
  -6  -8  -9  607.04   22.70
  -7  -8  -9  213.88   10.20
  -7  -8  -9  206.18   10.10
  -7  -8  -9  193.68   12.20
  -8  -8  -9   31.60    4.00
  -8  -8  -9   26.70    4.90
  -8  -8  -9   37.40    3.20
  -9  -8  -9   12.50    3.00
  -9  -8  -9   16.80    3.10
   4  -9  -9    1.50    2.80
   3  -9  -9   30.20    5.80
   2  -9  -9  118.59   10.40
   1  -9  -9  495.95   24.80
   0  -9  -9   30.90    5.50
  -1  -9  -9    2.20    2.20
  -2  -9  -9    2.60    2.50
  -3  -9  -9  189.28   17.50
  -4  -9  -9  802.32   35.60
  -4  -9  -9  921.31   42.70
  -4  -9  -9  862.41   30.10
  -5  -9  -9   30.60    4.40
  -5  -9  -9   35.40    3.10
  -5  -9  -9   28.30    5.20
  -6  -9  -9   32.30    3.50
  -6  -9  -9   36.20    5.00
  -6  -9  -9   39.40    4.50
  -7  -9  -9   22.90    4.30
  -7  -9  -9   25.20    3.50
  -7  -9  -9   16.30    2.80
  -8  -9  -9   53.99    5.10
  -8  -9  -9   54.79    4.30
   3 -10  -9    3.20    3.50
   1 -10  -9  259.27   16.40
   0 -10  -9   -1.20    3.60
  -1 -10  -9   36.40    6.40
  -2 -10  -9  769.92   33.90
  -3 -10  -9 1115.19   44.20
  -3 -10  -9 1037.20   43.20
  -4 -10  -9    7.20    3.00
  -4 -10  -9    4.20    2.00
  -4 -10  -9    3.70    2.40
  -5 -10  -9  257.77   14.60
  -5 -10  -9  236.98   10.50
  -5 -10  -9  227.58   13.30
  -6 -10  -9  178.28   11.80
  -6 -10  -9  182.88   10.60
  -6 -10  -9  168.38    8.90
  -7 -10  -9    7.70    3.00
  -7 -10  -9    2.60    1.90
   1 -11  -9  434.76   23.30
   0 -11  -9   -3.00    2.50
  -1 -11  -9  340.97   22.50
  -1 -11  -9  337.37   19.30
  -2 -11  -9    0.30    3.10
  -2 -11  -9    4.20    3.00
  -3 -11  -9  120.19   10.10
  -3 -11  -9  123.89   10.00
  -4 -11  -9    9.20    3.40
  -4 -11  -9   14.00    3.60
  -5 -11  -9   82.69    7.80
  -5 -11  -9   71.49    7.00
   1  -7  10  215.28   13.00
   2  -7  10   36.10    5.90
   3  -7  10  161.88   10.60
  -2  -6  10   94.49    9.00
  -1  -6  10   85.79   12.00
   0   6 -10   50.29    5.70
   0  -6  10   54.39    6.50
   1  -6  10   72.59    6.80
   3  -6  10   -1.70    1.90
   4  -6  10  137.49    9.00
   5  -6  10   22.80    3.90
  -6   6 -10   16.00    4.60
   6  -6  10   10.70    3.00
  -3  -5  10    1.40    3.00
  -2  -5  10    2.30    2.70
   1   5 -10  398.16   19.90
  -1  -5  10  325.97   17.70
   0   5 -10    3.30    2.20
   0  -5  10    1.30    2.30
   1  -5  10    5.20    2.50
   2  -5  10   20.30    3.90
   3  -5  10   63.59    5.80
  -4   5 -10    3.40    2.40
  -5   5 -10  807.02   34.70
   5  -5  10  758.32   30.20
  -6   5 -10  167.08   12.10
   6  -5  10  171.58    9.40
  -7   5 -10    5.80    3.00
  -4  -4  10   -4.90    2.30
  -3  -4  10  593.24   27.00
   2   4 -10   12.00    2.80
   1   4 -10   16.20    3.00
  -1  -4  10    7.10    3.00
   0   4 -10   89.09    6.60
   0  -4  10   82.49    7.10
   1  -4  10  144.29    9.30
   2  -4  10    7.10    2.40
   3  -4  10  190.18   10.40
  -4   4 -10  507.15   24.20
   4  -4  10  536.65   21.70
  -5   4 -10  208.88   13.00
   5  -4  10  203.18   10.40
  -6   4 -10   14.60    3.80
   6  -4  10   13.20    2.90
  -7   4 -10   26.50    5.20
   7  -4  10   15.00    2.70
  -5  -3  10    7.50    3.60
  -5  -3  10    2.70    2.90
  -4  -3  10   65.59    7.00
   3   3 -10   15.20    3.00
  -2  -3  10   42.90    5.60
   1   3 -10  636.94   25.80
  -1  -3  10  637.24   27.10
   0   3 -10   31.30    4.10
   0  -3  10   21.40    4.00
   1  -3  10   -0.80    1.40
   2  -3  10 1947.31   69.29
   3  -3  10   35.90    4.00
  -4   3 -10   54.69    5.90
   4  -3  10   61.79    5.00
   5  -3  10  188.48    9.60
  -6   3 -10   11.90    3.00
   6  -3  10    9.10    2.30
  -7   3 -10  150.68   10.40
   7  -3  10  154.78    7.60
  -8   3 -10   42.90    5.50
  -9   3 -10  163.68   11.60
  -5  -2  10  165.58   11.50
  -5  -2  10  174.68   11.80
  -4  -2  10   40.80    5.50
  -4  -2  10   42.70    6.50
   3   2 -10   13.10    2.80
  -3  -2  10   11.30    3.30
   2   2 -10    0.90    1.70
  -2  -2  10    3.40    2.40
   1   2 -10    0.70    1.60
  -1  -2  10   -0.60    1.60
   0   2 -10   84.99    6.60
   0  -2  10   90.69    7.00
   1  -2  10   56.09    5.40
   2  -2  10  151.88    8.80
  -3   2 -10  692.93   28.80
   3  -2  10  719.63   27.50
  -4   2 -10   24.80    4.00
   4  -2  10   25.90    3.40
  -5   2 -10  125.69    8.40
   5  -2  10  116.89    6.90
  -6   2 -10  193.88   11.60
   6  -2  10  225.18    9.70
  -7   2 -10    6.60    2.20
   7  -2  10    2.90    1.10
  -8   2 -10  406.66   19.30
  -9   2 -10   20.70    4.00
  -6  -1  10    8.30    2.70
  -6  -1  10   -3.60    1.90
   5   1 -10   40.50    4.90
  -5  -1  10   45.70    5.70
  -5  -1  10   41.10    5.40
   4   1 -10   63.09    5.80
  -4  -1  10   66.59    6.20
  -4  -1  10   66.49    6.50
   3   1 -10   46.00    5.00
  -3  -1  10   47.10    5.40
   2   1 -10   26.90    4.20
   1   1 -10  457.95   20.40
  -1  -1  10  466.55   20.50
   0   1 -10  540.55   22.70
   0  -1  10  517.75   22.30
   1  -1  10  170.28    9.60
   2  -1  10  498.15   20.60
  -3   1 -10  119.39    7.80
   3  -1  10  121.29    7.20
  -4   1 -10  111.69    7.50
   4  -1  10  125.19    8.00
  -5   1 -10    1.20    1.40
   5  -1  10   -0.60    1.20
  -6   1 -10 3104.89  103.29
  -6   1 -10 2990.80  100.59
   6  -1  10 2806.92   99.89
  -7   1 -10   27.90    3.80
  -8   1 -10  739.73   30.00
 -10   1 -10  254.67   19.00
   6   0 -10  254.57   13.50
  -6   0  10  256.27   14.10
  -6   0  10  287.87   17.90
   5   0 -10   35.70    4.50
  -5   0  10   24.60    4.90
  -5   0  10   27.20    4.60
   4   0 -10   33.40    4.80
  -4   0  10   38.80    4.60
  -4   0  10   33.60    4.50
   3   0 -10   -0.50    1.70
  -3   0  10   -1.40    1.40
  -3   0  10   -1.30    1.30
   2   0 -10    6.50    2.30
  -2   0  10    2.70    1.80
   1   0 -10    2.30    1.70
  -1   0  10    6.80    2.40
   0   0 -10   49.00    4.90
   0   0  10   48.90    4.80
  -1   0 -10  490.85   21.50
   1   0  10  503.55   20.70
   2   0  10   98.99    6.40
   3   0  10   10.30    2.10
  -4   0 -10 2993.80  109.59
  -4   0 -10 3224.98  108.09
   4   0  10 3370.06  108.79
  -5   0 -10 4077.39  140.69
   5   0  10 4190.98  138.99
  -6   0 -10  159.48    8.70
  -6   0 -10  149.39    6.90
   6   0  10  158.48    6.70
  -7   0 -10   99.59    6.80
  -8   0 -10  156.68    9.30
  -9   0 -10   82.29    6.60
 -10   0 -10    3.50    2.10
   6  -1 -10   -1.80    2.30
  -6   1  10    0.50    1.80
  -6   1  10   -4.20    1.60
   5  -1 -10   21.90    4.00
  -5   1  10   21.60    3.60
   4  -1 -10    9.90    2.90
  -4   1  10   12.50    2.90
  -4   1  10    7.80    2.30
   3  -1 -10   78.79    6.80
  -3   1  10   87.59    6.00
  -3   1  10   80.29    6.70
   2  -1 -10   46.90    5.20
  -2   1  10   49.50    5.00
  -2   1  10   37.70    4.50
   1  -1 -10   98.69    7.50
  -1   1  10   95.29    5.50
  -1   1  10   98.69    6.90
   0  -1 -10  840.42   33.50
   0   1  10  833.42   32.10
  -1  -1 -10   44.30    4.80
   1   1  10   44.10    2.90
   2   1  10  164.18    8.60
   2   1  10  162.48    7.30
  -3  -1 -10 6823.02  232.18
   3   1  10 6826.22  231.08
   3   1  10 7138.09  232.68
  -4  -1 -10 1427.26   51.59
  -4  -1 -10 1329.67   52.49
   4   1  10 1721.83   52.69
   4   1  10 1517.15   53.09
  -5  -1 -10   27.30    2.20
  -5  -1 -10   34.10    3.30
   5   1  10   30.70    2.70
  -6  -1 -10  334.47   14.70
  -6  -1 -10  349.17   12.70
  -7  -1 -10    9.10    2.20
  -8  -1 -10   40.40    4.20
  -9  -1 -10   29.70    4.40
 -10  -1 -10   58.99    5.60
   6  -2 -10  131.59    9.50
  -6   2  10  139.79    8.90
   5  -2 -10    4.20    2.50
  -5   2  10    4.50    3.70
  -5   2  10    1.20    1.70
   4  -2 -10   67.69    6.60
  -4   2  10   72.59    5.30
  -4   2  10   73.69    6.50
   3  -2 -10   30.20    4.90
  -3   2  10   35.00    4.40
   2  -2 -10    9.40    2.60
  -2   2  10   11.90    2.10
  -2   2  10    7.80    2.40
  -2   2  10    9.40    1.80
   1  -2 -10  138.89    9.60
  -1   2  10  157.58    9.00
  -1   2  10  141.89    6.70
  -1   2  10  139.79    6.90
   0  -2 -10  555.24   24.60
   0   2  10  546.75   20.20
   0   2  10  600.94   23.30
  -1  -2 -10 4105.29  143.69
   1   2  10 4262.67  141.79
   1   2  10 4114.29  138.69
  -2  -2 -10    0.90    1.50
   2   2  10    2.20    1.40
  -3  -2 -10  204.98    8.70
   3   2  10  191.08    8.00
   3   2  10  171.48    8.90
  -4  -2 -10   -0.70    0.70
  -4  -2 -10   -0.10    0.70
  -5  -2 -10   51.09    3.00
  -5  -2 -10   54.39    3.80
  -6  -2 -10    8.60    1.80
  -6  -2 -10   15.30    1.30
  -7  -2 -10   91.49    5.80
  -8  -2 -10  211.28   10.60
  -9  -2 -10  207.98   10.90
 -10  -2 -10    4.90    3.90
   6  -3 -10  110.79    9.00
  -6   3  10  110.29    7.30
   5  -3 -10  103.49    8.70
  -5   3  10   99.69    6.40
   4  -3 -10  607.44   27.70
  -4   3  10  594.74   22.90
   3  -3 -10    0.30    1.50
  -3   3  10   -1.50    0.80
  -3   3  10    2.10    1.90
   2  -3 -10  130.49    9.40
  -2   3  10  133.29    6.50
  -2   3  10  136.49    8.70
  -2   3  10  129.79    6.10
   1  -3 -10   41.70    4.90
  -1   3  10   37.80    2.40
  -1   3  10   38.80    2.30
  -1   3  10   29.30    3.80
   0  -3 -10  343.37   17.10
   0   3  10  330.67   15.30
  -1  -3 -10 2516.65   89.79
  -2  -3 -10  589.84   25.20
   2   3  10  583.44   20.10
  -3  -3 -10    1.30    1.50
  -3  -3 -10    2.50    0.90
   3   3  10    2.60    0.80
  -4  -3 -10  560.74   19.60
  -4  -3 -10  526.45   20.10
   4   3  10  506.65   19.60
  -5  -3 -10    0.80    0.80
  -5  -3 -10    0.40    0.70
   5   3  10    0.10    0.80
  -6  -3 -10  360.46   13.60
  -6  -3 -10  396.26   15.20
  -7  -3 -10  297.77   12.90
  -8  -3 -10    5.40    1.80
  -9  -3 -10    1.40    1.50
 -10  -3 -10   20.60    3.70
   6  -4 -10  271.57   16.10
  -6   4  10  276.37   12.60
   5  -4 -10  258.67   15.40
  -5   4  10  257.37   11.40
   4  -4 -10    4.40    2.60
  -4   4  10    3.80    1.40
   3  -4 -10   30.20    5.20
  -3   4  10   36.20    2.60
   2  -4 -10    3.70    2.50
  -2   4  10    6.90    0.90
  -2   4  10    7.60    1.20
   1  -4 -10  912.11   37.40
   0  -4 -10   54.49    5.80
  -1  -4 -10   24.60    4.60
  -2  -4 -10  407.46   19.30
  -3  -4 -10  674.73   28.40
  -4  -4 -10  304.57   11.10
  -4  -4 -10  273.27   14.80
  -5  -4 -10  862.21   30.90
  -5  -4 -10  851.71   30.20
  -6  -4 -10   39.80    3.10
  -6  -4 -10   36.30    2.70
  -7  -4 -10   56.99    4.20
  -8  -4 -10  419.36   17.40
  -9  -4 -10  385.36   17.30
 -10  -4 -10    0.90    1.60
   6  -5 -10   15.30    4.40
   5  -5 -10    4.50    4.40
  -5   5  10    0.90    1.40
   4  -5 -10  245.58   15.00
  -4   5  10  233.78    9.70
   3  -5 -10    2.30    2.10
  -3   5  10    3.40    0.90
   2  -5 -10   63.49    6.90
   1  -5 -10  454.65   22.20
   0  -5 -10  224.68   13.50
  -1  -5 -10   -0.50    1.20
  -2  -5 -10  101.49    8.00
  -3  -5 -10  248.08   13.80
  -4  -5 -10 1974.80   72.09
  -5  -5 -10   -0.40    1.10
  -5  -5 -10    2.80    0.90
  -5  -5 -10    2.10    1.70
  -6  -5 -10   39.20    4.90
  -6  -5 -10   33.40    2.80
  -7  -5 -10   55.69    4.10
  -7  -5 -10   49.99    3.10
  -7  -5 -10   56.49    3.20
  -8  -5 -10    7.60    2.00
  -9  -5 -10   -0.10    1.40
 -10  -5 -10  159.78    9.50
   5  -6 -10   29.90    5.90
   4  -6 -10    1.70    3.40
  -4   6  10    1.30    1.10
   3  -6 -10   33.20    5.70
   2  -6 -10   20.80    4.70
   1  -6 -10    4.30    3.00
   0  -6 -10  507.65   24.20
  -1  -6 -10  209.78   13.00
  -2  -6 -10  235.18   13.80
  -3  -6 -10  563.84   25.40
  -4  -6 -10  120.99    9.00
  -5  -6 -10   38.40    2.50
  -5  -6 -10   45.80    5.50
  -6  -6 -10    9.00    3.00
  -6  -6 -10    7.50    1.60
  -6  -6 -10    9.20    2.10
  -7  -6 -10    2.40    1.20
  -7  -6 -10    1.10    1.00
  -7  -6 -10    2.10    1.50
  -8  -6 -10    3.10    2.20
  -8  -6 -10    5.50    1.80
  -9  -6 -10   -1.20    1.30
  -9  -6 -10    2.20    2.20
 -10  -6 -10   98.69    8.30
 -10  -6 -10  119.29    9.70
   5  -7 -10  190.78   14.10
   4  -7 -10   53.39    7.20
   3  -7 -10   30.50    7.30
   2  -7 -10   18.80    4.60
   1  -7 -10   13.60    3.60
   0  -7 -10    8.50    3.10
  -1  -7 -10    2.20    1.80
  -2  -7 -10  506.25   24.00
  -3  -7 -10   39.00    5.40
  -4  -7 -10  220.18   13.40
  -5  -7 -10  262.47   14.70
  -5  -7 -10  242.88    9.50
  -6  -7 -10    1.50    1.40
  -6  -7 -10    3.20    2.30
  -6  -7 -10    4.20    1.30
  -7  -7 -10  149.49   15.20
  -7  -7 -10  139.09    7.40
  -7  -7 -10  144.69    7.40
  -8  -7 -10  677.03   25.60
  -8  -7 -10  724.53   27.30
  -8  -7 -10  742.83   31.10
  -9  -7 -10    5.00    2.40
  -9  -7 -10   -2.00    1.60
   4  -8 -10   90.69    9.40
   3  -8 -10    3.30    2.80
   2  -8 -10   19.50    7.20
   1  -8 -10   -0.70    2.10
   0  -8 -10  177.28   12.50
  -1  -8 -10   38.10    6.40
  -2  -8 -10    2.70    2.00
  -4  -8 -10   -1.70    1.50
  -5  -8 -10   81.79    4.00
  -5  -8 -10   78.69    8.80
  -6  -8 -10  625.94   25.40
  -6  -8 -10  609.64   23.00
  -6  -8 -10  658.33   35.60
  -7  -8 -10  731.83   27.10
  -7  -8 -10  730.73   27.80
  -7  -8 -10  711.63   31.50
  -8  -8 -10    4.40    2.40
  -8  -8 -10    6.20    2.10
  -8  -8 -10    6.90    3.30
  -9  -8 -10   70.69    5.70
  -9  -8 -10   62.69    6.90
   3  -9 -10   15.30    4.70
   2  -9 -10    0.60    2.30
   1  -9 -10   70.19    8.20
   0  -9 -10    1.60    2.80
  -1  -9 -10  616.94   29.00
  -2  -9 -10  223.08   14.40
  -3  -9 -10  743.03   33.00
  -4  -9 -10   30.70    5.50
  -4  -9 -10   30.40    5.00
  -5  -9 -10 1152.98   40.90
  -5  -9 -10 1235.38   48.00
  -6  -9 -10   -3.20    1.90
  -6  -9 -10    1.70    1.70
  -7  -9 -10  307.07   13.40
  -7  -9 -10  309.17   17.20
  -7  -9 -10  319.67   14.50
  -8  -9 -10    2.70    2.00
  -8  -9 -10   15.30    3.70
   2 -10 -10    6.70    3.90
   1 -10 -10   11.30    4.70
   0 -10 -10   29.10    6.20
  -1 -10 -10  403.76   22.00
  -2 -10 -10   44.30    7.00
  -3 -10 -10  183.38   12.80
  -3 -10 -10  181.58   12.30
  -4 -10 -10   15.20    4.20
  -4 -10 -10   19.10    4.30
  -5 -10 -10    8.90    2.90
  -5 -10 -10   10.60    3.50
  -6 -10 -10    9.10    3.20
  -6 -10 -10    6.20    2.30
   0 -11 -10   30.90    6.40
  -1 -11 -10  219.38   15.70
  -2 -11 -10   79.09    8.50
  -2 -11 -10   61.49   12.30
  -3 -11 -10   42.30    7.20
  -3 -11 -10   36.30    6.10
  -4 -11 -10    8.70    4.10
  -4 -11 -10   12.00    4.00
   0  -6  11   65.79    7.70
   1  -6  11  268.77   20.90
   2  -6  11    4.60    3.00
   3  -6  11    2.20    2.50
   4  -6  11  177.28   11.00
  -2  -5  11    3.20    2.70
  -1  -5  11  121.59   12.90
   0   5 -11    1.70    2.10
   1  -5  11   57.09    6.40
   2  -5  11   10.20    3.40
   3  -5  11  281.67   14.60
   4  -5  11    0.80    1.90
  -5   5 -11    4.20    2.80
   5  -5  11   -4.00    1.80
  -6   5 -11  222.48   15.60
  -3  -4  11    5.90    3.50
  -2  -4  11   19.00    4.70
   1   4 -11  186.18   10.50
  -1  -4  11  183.88   12.20
   0   4 -11    0.50    2.00
   0  -4  11    4.50    2.90
   1  -4  11   86.39    7.40
   2  -4  11   35.60    5.10
   3  -4  11    8.00    2.60
   4  -4  11  469.75   20.40
  -5   4 -11   53.49    6.70
   5  -4  11   56.99    5.40
  -6   4 -11    0.40    2.10
   6  -4  11   -4.00    1.70
  -7   4 -11  127.29   10.30
   7  -4  11  101.69    7.80
  -4  -3  11   35.80    6.00
  -3  -3  11   11.00    3.40
   2   3 -11   38.30    4.60
  -2  -3  11   32.10    5.50
   1   3 -11   55.89    5.40
  -1  -3  11   47.90    5.90
   0   3 -11   26.00    4.30
   0  -3  11   28.80    4.80
   1  -3  11   33.90    5.00
   2  -3  11   10.10    2.80
   3  -3  11  437.66   19.30
  -4   3 -11  345.07   17.80
   4  -3  11  351.56   15.90
  -5   3 -11  215.18   12.90
   5  -3  11  212.98   10.90
  -6   3 -11    1.20    2.00
   6  -3  11   -0.40    1.80
  -7   3 -11  201.28   14.70
  -8   3 -11    6.40    3.00
  -5  -2  11  304.77   16.80
   4   2 -11   33.60    5.80
  -4  -2  11   44.20    5.80
  -4  -2  11   34.40    5.90
   3   2 -11   56.49    5.40
  -3  -2  11   53.79    6.40
   2   2 -11   71.89    6.30
  -2  -2  11   65.89    6.80
   1   2 -11   49.60    5.30
  -1  -2  11   46.00    5.50
   0   2 -11   82.99    6.90
   0  -2  11   79.99    7.00
   1  -2  11  154.98    9.70
   2  -2  11  123.29    8.20
   3  -2  11   16.50    3.20
  -4   2 -11    1.80    1.80
   4  -2  11    3.20    1.80
  -5   2 -11  226.58   12.90
   5  -2  11  227.68   11.00
  -6   2 -11    2.50    1.90
   6  -2  11    7.70    2.50
  -7   2 -11    5.10    2.50
   7  -2  11    8.60    1.70
  -8   2 -11 1238.78   48.90
  -9   2 -11  785.72   35.30
  -5  -1  11  642.64   28.30
  -5  -1  11  605.54   27.30
   4   1 -11  913.11   35.70
  -4  -1  11  896.71   37.40
  -4  -1  11  921.11   36.80
   3   1 -11   15.50    3.50
  -3  -1  11   11.50    3.20
   2   1 -11   26.50    4.40
  -2  -1  11   33.50    4.80
   1   1 -11  230.78   13.00
  -1  -1  11  251.07   13.40
   0   1 -11   68.49    6.10
   0  -1  11   64.49    5.90
  -1   1 -11  278.07   14.60
   1  -1  11  289.07   14.10
   2  -1  11  156.08    9.10
   3  -1  11  148.99    8.50
  -4   1 -11  882.31   34.70
   4  -1  11  896.01   33.30
  -5   1 -11  186.58   10.80
   5  -1  11  194.38    9.30
  -6   1 -11    1.40    1.50
  -6   1 -11    3.70    2.10
  -7   1 -11 3023.00  105.89
  -8   1 -11  175.48   10.70
  -9   1 -11   25.80    4.30
   5   0 -11   80.69    7.00
  -5   0  11   92.09   11.70
  -5   0  11   73.09    6.90
   4   0 -11   39.50    5.20
  -4   0  11   41.10    4.80
  -4   0  11   36.80    5.30
   3   0 -11    4.20    2.30
  -3   0  11    3.30    1.80
   2   0 -11  108.59    8.20
  -2   0  11   92.19    7.60
   1   0 -11   22.50    3.70
  -1   0  11   13.40    3.20
   0   0 -11  110.79    8.30
   0   0  11  119.89    7.90
  -1   0 -11  101.59    7.70
   1   0  11  106.29    7.20
   2   0  11   71.89    5.60
   3   0  11   32.80    3.60
  -4   0 -11  704.13   27.30
   4   0  11  668.13   25.90
  -5   0 -11 3050.39  109.99
  -5   0 -11 3386.46  111.69
   5   0  11 3247.48  109.49
  -6   0 -11  543.55   21.00
  -6   0 -11  597.64   23.50
   6   0  11  560.54   20.80
  -7   0 -11  659.53   26.70
  -8   0 -11   99.99    7.30
  -9   0 -11   39.50    4.80
 -10   0 -11   12.70    3.30
   5  -1 -11   -2.00    3.70
  -5   1  11    4.10    2.20
   4  -1 -11  181.08   11.40
  -4   1  11  168.78    9.70
  -4   1  11  176.08   12.60
   3  -1 -11   59.89    6.00
  -3   1  11   63.89    5.20
  -3   1  11   43.90    5.20
   2  -1 -11  172.48   11.00
  -2   1  11  167.58   10.40
  -2   1  11  169.88    9.10
   1  -1 -11   86.59    7.30
  -1   1  11   86.19    6.80
   0  -1 -11  288.67   15.20
   0   1  11  283.97   14.00
   0   1  11  289.57   11.80
  -1  -1 -11   17.10    3.40
   1   1  11   18.00    3.10
   1   1  11   18.40    2.00
  -2  -1 -11    6.10    2.20
   2   1  11    7.90    1.50
   2   1  11    8.00    2.00
   3   1  11 1282.47   46.30
   3   1  11 1296.47   45.10
  -4  -1 -11  513.15   23.50
   4   1  11  490.65   21.00
  -5  -1 -11 1282.07   45.10
  -5  -1 -11 1181.98   43.20
   5   1  11 1262.57   43.80
  -6  -1 -11  398.86   15.20
  -6  -1 -11  410.96   17.30
  -7  -1 -11   68.69    5.40
  -8  -1 -11    5.70    3.40
  -9  -1 -11   94.19    7.00
 -10  -1 -11   -1.90    1.50
   5  -2 -11   99.89    8.40
  -5   2  11  114.79    8.90
  -5   2  11   94.09    6.80
  -4   2  11   10.00    2.40
   3  -2 -11  105.99    8.60
  -3   2  11  112.29    8.30
  -3   2  11   91.49    6.00
   2  -2 -11  381.56   19.50
  -2   2  11  404.86   16.90
  -2   2  11  391.76   18.50
  -2   2  11  393.06   15.90
   1  -2 -11  230.48   13.50
  -1   2  11  236.08    9.70
  -1   2  11  229.08   10.00
  -1   2  11  213.48   12.10
   0  -2 -11   23.40    4.30
   0   2  11   19.90    1.80
   0   2  11   31.60    3.80
  -1  -2 -11    4.90    2.10
  -2  -2 -11  130.19    9.10
   2   2  11  138.29    7.90
   2   2  11  141.09    6.10
   3   2  11 1612.64   57.59
   3   2  11 1760.42   59.59
  -4  -2 -11  276.87   11.80
   4   2  11  263.17   11.20
  -5  -2 -11    9.10    2.60
  -5  -2 -11    5.40    1.10
  -6  -2 -11   39.00    2.50
  -6  -2 -11   35.20    3.40
  -7  -2 -11    0.20    1.00
  -8  -2 -11  464.15   19.50
  -9  -2 -11  322.37   15.10
 -10  -2 -11   58.89    5.60
   5  -3 -11  118.99    9.70
  -5   3  11  113.09    6.90
   4  -3 -11   30.20    5.40
  -4   3  11   20.10    3.00
  -3   3  11  310.87   16.60
  -3   3  11  342.87   13.40
   2  -3 -11    5.70    2.80
  -2   3  11   13.70    1.70
  -2   3  11   10.70    1.70
  -2   3  11   15.10    3.40
   1  -3 -11   -0.70    1.40
  -1   3  11    0.90    0.70
  -1   3  11   -1.10    0.60
  -1   3  11    0.00    1.50
   0  -3 -11  334.27   17.00
   0   3  11  302.37   14.90
  -1  -3 -11   59.09    6.00
   1   3  11   46.80    4.50
  -2  -3 -11  170.58   10.90
   2   3  11  170.18    6.40
  -3  -3 -11   68.69    6.40
   3   3  11   73.59    3.70
  -4  -3 -11  443.16   17.10
   4   3  11  455.75   17.00
  -5  -3 -11   37.10    3.10
  -5  -3 -11   31.60    2.70
   5   3  11   41.10    3.20
  -6  -3 -11  109.19    5.10
  -6  -3 -11  123.09    6.40
  -7  -3 -11  313.37   13.50
  -8  -3 -11  613.34   24.10
  -9  -3 -11   61.09    5.10
 -10  -3 -11    5.00    3.00
   5  -4 -11  627.74   31.80
  -5   4  11  617.94   23.50
   4  -4 -11  262.07   15.80
  -4   4  11  259.77   10.90
   3  -4 -11    2.40    2.30
  -3   4  11    4.70    1.20
   1  -4 -11   64.19    6.80
   0  -4 -11  203.48   12.80
  -1  -4 -11    2.50    2.00
  -2  -4 -11   50.99    5.80
  -3  -4 -11   50.69    5.60
  -4  -4 -11  286.27   15.20
  -4  -4 -11  279.97   10.80
  -5  -4 -11  111.59    8.70
  -5  -4 -11  125.59    5.80
  -5  -4 -11  114.09    6.40
  -6  -4 -11  490.15   18.60
  -6  -4 -11  488.55   18.10
  -7  -4 -11  287.97   12.40
  -8  -4 -11   20.40    3.00
  -9  -4 -11    1.20    1.60
 -10  -4 -11   16.10    3.20
   5  -5 -11  113.99   10.20
   4  -5 -11    0.80    3.70
   3  -5 -11    0.10    2.20
   2  -5 -11    9.10    3.10
   1  -5 -11  642.24   32.70
   0  -5 -11   37.80    5.20
  -1  -5 -11  351.86   18.50
  -2  -5 -11    2.40    1.90
  -3  -5 -11    1.40    1.80
  -4  -5 -11    2.60    1.90
  -5  -5 -11  305.07   15.90
  -5  -5 -11  279.17   11.00
  -6  -5 -11  610.74   22.70
  -6  -5 -11  640.74   28.40
  -6  -5 -11  618.84   23.20
  -7  -5 -11  200.78    9.20
  -7  -5 -11  205.28    8.50
  -8  -5 -11  294.67   12.90
  -9  -5 -11   66.69    6.30
 -10  -5 -11   21.60    3.70
   5  -6 -11   -5.90    2.30
   4  -6 -11    1.80    2.50
   3  -6 -11   34.90    7.20
   2  -6 -11   98.19    9.10
   1  -6 -11   -1.00    2.10
   0  -6 -11  133.89   10.50
  -1  -6 -11   94.09   10.10
  -2  -6 -11   27.70    5.00
  -3  -6 -11  505.75   24.00
  -4  -6 -11   58.99    6.50
  -5  -6 -11   33.60    5.60
  -5  -6 -11   41.00    2.30
  -6  -6 -11   98.09    5.00
  -6  -6 -11  111.59    9.10
  -7  -6 -11  264.17   11.60
  -7  -6 -11  297.77   16.10
  -7  -6 -11  275.07   11.60
  -8  -6 -11  114.59    9.50
  -8  -6 -11  127.59    6.90
  -9  -6 -11  318.97   18.20
  -9  -6 -11  360.96   16.90
   4  -7 -11  292.17   20.80
   3  -7 -11   87.99    8.90
   2  -7 -11    7.60    5.10
   1  -7 -11    3.90    2.30
   0  -7 -11   14.70    3.80
  -1  -7 -11   27.60    5.30
  -2  -7 -11   -2.40    1.20
  -3  -7 -11   17.10    4.20
  -4  -7 -11  193.78   13.20
  -5  -7 -11   92.09    8.40
  -6  -7 -11   32.50    4.00
  -6  -7 -11   37.80    6.10
  -6  -7 -11   29.90    2.40
  -7  -7 -11  208.28    9.80
  -7  -7 -11  194.88   13.10
  -7  -7 -11  204.28    9.00
  -8  -7 -11  119.99    9.60
  -8  -7 -11  104.79    6.30
  -9  -7 -11  960.30   35.80
   3  -8 -11    9.10    4.20
   2  -8 -11  143.79   11.90
   1  -8 -11   34.60    7.10
   0  -8 -11    2.30    2.30
  -1  -8 -11   49.80    6.60
  -2  -8 -11   78.59    7.80
  -3  -8 -11  112.29    9.70
  -4  -8 -11  238.68   14.90
  -5  -8 -11  598.64   27.90
  -6  -8 -11    1.30    1.70
  -6  -8 -11   -1.20    2.00
  -6  -8 -11   -0.10    0.90
  -7  -8 -11  733.13   31.50
  -7  -8 -11  672.43   25.10
  -7  -8 -11  663.13   26.50
  -8  -8 -11    4.20    1.70
  -8  -8 -11    5.00    3.30
   2  -9 -11  116.59   10.60
   1  -9 -11   12.30    3.90
   0  -9 -11    9.50    3.80
  -2  -9 -11    1.20    2.70
  -3  -9 -11   29.40    5.80
  -4  -9 -11    2.70    2.30
  -5  -9 -11  234.28   13.10
  -5  -9 -11  216.38   14.40
  -6  -9 -11   12.30    3.80
  -7  -9 -11    4.60    3.20
   1 -10 -11  249.78   16.90
  -1 -10 -11   38.70    6.90
  -2 -10 -11    2.70    2.70
  -3 -10 -11    2.80    2.60
  -4 -10 -11   19.10    6.70
  -4 -10 -11   27.10    6.30
  -5 -10 -11  181.48   11.80
  -5 -10 -11  195.48   19.20
  -6 -10 -11   64.59    6.20
  -6 -10 -11   57.29    9.20
  -2 -11 -11  162.48   14.10
  -3 -11 -11   26.80    6.00
  -3 -11 -11   37.80    6.90
   0  -5  12    5.20    3.40
   1  -5  12   17.30    5.00
   2  -5  12   10.00    3.70
   3  -5  12    1.20    2.80
   4  -5  12    6.50    5.30
   5  -5  12   -2.20    2.60
  -2  -4  12   -2.10    2.80
   1   4 -12  128.69    9.00
   0   4 -12   52.89    5.80
   0  -4  12   48.50    6.70
  -1   4 -12  142.79    9.70
   1  -4  12  149.59   10.50
   2  -4  12    6.30    2.90
   3  -4  12    2.60    2.30
   4  -4  12  107.99    8.10
  -5   4 -12   46.30    7.10
   5  -4  12   40.90    5.50
  -6   4 -12  428.36   22.30
   6  -4  12  422.06   18.60
  -3  -3  12  105.69    9.50
   2   3 -12    8.50    3.60
  -2  -3  12   12.40    5.20
   1   3 -12  382.76   18.50
  -1  -3  12  414.06   20.20
   0   3 -12  461.35   21.40
   0  -3  12  492.75   26.70
  -1   3 -12    8.60    2.50
   1  -3  12    8.10    3.00
   2  -3  12   20.50    4.00
   3  -3  12   55.99    5.80
   4  -3  12  138.29    9.00
  -5   3 -12   95.09    8.40
   5  -3  12   88.09    6.70
  -6   3 -12   26.10    7.60
   6  -3  12   18.70    3.40
  -7   3 -12   -0.30    2.10
   3   2 -12  417.46   18.60
  -3  -2  12  366.36   24.00
   2   2 -12 2081.49   72.99
  -2  -2  12 1944.11   74.19
   1   2 -12  342.07   17.00
  -1  -2  12  348.17   19.30
   0   2 -12   73.19    6.90
   0  -2  12   72.99    6.90
  -1   2 -12   24.40    4.50
   1  -2  12   21.30    4.10
   2  -2  12   49.50    8.10
   3  -2  12   94.09    7.20
   4  -2  12    2.10    2.00
  -5   2 -12  105.69    8.40
   5  -2  12  111.99    7.10
  -6   2 -12  310.37   16.40
   6  -2  12  304.57   13.50
  -7   2 -12   95.39    8.20
   7  -2  12   89.09    6.10
  -8   2 -12  168.68   11.50
   4   1 -12 1423.86   53.59
  -4  -1  12 1387.56   54.49
  -4  -1  12 1519.55   56.19
   3   1 -12  113.09    8.30
  -3  -1  12   98.79    8.60
  -3  -1  12  113.49    8.60
   2   1 -12    2.30    2.30
  -2  -1  12   -1.00    1.80
   1   1 -12   37.50    5.10
  -1  -1  12   36.80    5.10
   0   1 -12   18.60    3.90
   0  -1  12   23.70    4.10
  -1   1 -12  272.67   14.70
   1  -1  12  266.17   17.60
   2  -1  12   94.19    7.10
   3  -1  12   97.59    7.00
  -4   1 -12    7.80    2.60
   4  -1  12   12.70    2.80
  -5   1 -12    0.70    1.70
   5  -1  12   -1.80    1.20
  -7   1 -12 1084.99   42.40
   7  -1  12 1082.39   37.70
  -8   1 -12   17.80    4.40
  -9   1 -12  543.75   24.60
   4   0 -12  135.29    9.90
  -4   0  12  143.59   14.60
  -4   0  12  158.08   10.00
   3   0 -12    0.50    2.40
  -3   0  12   -1.80    2.00
  -3   0  12    3.90    2.20
   2   0 -12  122.89    9.20
  -2   0  12  122.09    9.10
   1   0 -12   34.50    5.40
  -1   0  12   20.10    3.80
   0   0 -12   61.79    6.40
   0   0  12   47.90    5.20
  -1   0 -12   78.39    7.20
   1   0  12   79.29    6.40
  -2   0 -12   89.49    7.60
   2   0  12   85.49    6.40
   3   0  12    0.40    1.10
  -4   0 -12   -0.20    1.40
   4   0  12    1.90    1.40
  -5   0 -12    7.80    2.30
   5   0  12   14.30    2.40
  -6   0 -12  447.46   19.60
   6   0  12  424.76   16.90
  -8   0 -12  588.44   25.10
  -9   0 -12    0.70    2.10
   5  -1 -12  180.28   11.40
  -5   1  12  172.28   10.40
   4  -1 -12    4.90    2.90
  -4   1  12    6.70    2.90
  -4   1  12    4.40    2.40
   3  -1 -12   55.49    6.20
  -3   1  12   61.49    5.30
  -3   1  12   63.29    6.40
   2  -1 -12   34.80    5.60
  -2   1  12   38.50    5.00
  -2   1  12   37.30    4.10
   1  -1 -12   11.60    3.80
  -1   1  12   21.30    3.80
   0  -1 -12  192.78   12.20
   0   1  12  188.08   11.20
  -1  -1 -12  932.01   37.90
   1   1  12  945.61   36.00
   1   1  12  916.11   35.60
  -2  -1 -12   13.00    3.30
   2   1  12   10.30    2.50
   3   1  12   61.69    5.10
  -4  -1 -12  146.39    8.20
   4   1  12  134.99    7.70
  -5  -1 -12  642.74   26.00
   5   1  12  670.03   27.10
  -6  -1 -12  111.79    7.30
  -7  -1 -12    6.80    2.10
  -8  -1 -12   14.40    2.90
  -9  -1 -12   58.19    5.60
 -10  -1 -12  253.37   13.70
   5  -2 -12    9.00    3.40
  -5   2  12    4.30    2.60
  -5   2  12    3.40    2.50
   4  -2 -12    0.40    2.60
  -4   2  12    1.80    1.90
  -4   2  12    6.30    2.50
   3  -2 -12  272.77   15.70
  -3   2  12  271.87   12.30
  -3   2  12  260.17   15.20
   2  -2 -12   76.19    8.00
  -2   2  12   83.99    7.10
  -2   2  12   77.69    5.10
   1  -2 -12 1117.39   43.00
  -1   2  12 1028.80   40.70
  -1   2  12 1035.30   37.30
  -1   2  12 1012.60   36.80
   0  -2 -12  164.78   11.50
   0   2  12  176.68   10.30
   0   2  12  173.98    7.40
  -1  -2 -12   -0.20    1.60
   1   2  12    1.40    1.50
   1   2  12   -0.70    0.80
  -2  -2 -12  363.66   18.60
   2   2  12  384.56   16.60
   2   2  12  355.36   13.80
  -3  -2 -12    1.70    1.90
   3   2  12    2.30    1.50
   3   2  12    2.30    1.50
  -4  -2 -12  432.86   17.60
   4   2  12  432.06   16.80
  -5  -2 -12    1.90    1.20
  -6  -2 -12  273.27   11.70
  -6  -2 -12  207.08   10.20
  -7  -2 -12   34.70    3.80
  -8  -2 -12   13.20    2.70
  -9  -2 -12    2.70    1.70
 -10  -2 -12  303.07   15.10
   5  -3 -12  164.98   11.90
   4  -3 -12    7.90    3.20
  -4   3  12    5.00    2.00
   3  -3 -12 1251.67   49.70
  -3   3  12 1216.88   43.20
   2  -3 -12  488.35   24.60
  -2   3  12  566.84   23.80
  -2   3  12  490.45   18.80
   1  -3 -12  110.19   10.60
  -1   3  12   98.49    7.60
  -1   3  12   98.59    4.60
  -1   3  12  115.69    4.90
   0  -3 -12    2.40    1.90
   0   3  12    3.10    1.80
  -1  -3 -12   40.70    5.30
   1   3  12   25.00    3.60
  -2  -3 -12    1.90    2.00
  -3  -3 -12  179.48   11.60
   3   3  12  176.88    7.20
  -4  -3 -12   22.20    4.30
   4   3  12   16.70    2.10
  -5  -3 -12  102.89    5.90
   5   3  12  101.49    5.80
  -6  -3 -12    3.50    1.20
  -7  -3 -12   92.89    5.90
  -8  -3 -12  104.49    6.70
  -9  -3 -12   37.00    4.20
 -10  -3 -12   36.60    4.70
   4  -4 -12    4.70    3.30
   3  -4 -12   23.90    4.80
   2  -4 -12    6.90    3.10
   1  -4 -12    1.70    2.10
   0  -4 -12  101.79   13.40
  -1  -4 -12   33.10    5.50
  -2  -4 -12   34.60    5.40
  -3  -4 -12  138.39   10.10
  -4  -4 -12   32.70    6.50
  -5  -4 -12   20.80    2.20
  -5  -4 -12   11.90    3.30
  -6  -4 -12   26.40    3.20
  -6  -4 -12   39.40    3.10
  -7  -4 -12  191.38    7.90
  -7  -4 -12  196.98    9.30
  -8  -4 -12  208.58   10.20
  -9  -4 -12   29.00    3.50
 -10  -4 -12  113.09   10.00
   4  -5 -12   37.60    6.30
   2  -5 -12  187.88   13.30
   1  -5 -12    2.80    2.60
   0  -5 -12  399.76   21.10
  -1  -5 -12  138.29   10.60
  -2  -5 -12    8.50    3.60
  -3  -5 -12   79.59    8.90
  -4  -5 -12    0.40    1.70
  -5  -5 -12  284.67   10.90
  -5  -5 -12  298.77   16.40
  -6  -5 -12    1.80    1.00
  -6  -5 -12   -2.10    1.30
  -7  -5 -12   30.00    5.30
  -7  -5 -12   31.60    2.90
  -7  -5 -12   33.00    2.90
  -8  -5 -12  232.78   10.70
   4  -6 -12    7.70    4.60
   3  -6 -12    3.00    2.80
   1  -6 -12   33.80    6.00
   0  -6 -12  215.98   14.40
  -1  -6 -12    0.80    1.70
  -2  -6 -12   87.09    8.30
  -3  -6 -12   29.20    5.40
  -4  -6 -12   93.69    8.50
  -5  -6 -12  320.37   17.80
  -6  -6 -12  185.08   12.50
  -6  -6 -12  169.78    7.30
  -7  -6 -12  170.58    8.00
  -7  -6 -12  150.98    7.70
  -7  -6 -12  133.99   10.90
  -8  -6 -12   96.19    5.80
  -8  -6 -12  130.49   14.30
  -9  -6 -12   53.19    6.90
  -9  -6 -12   37.30    4.70
   3  -7 -12  264.97   23.60
   2  -7 -12 1158.98   48.90
   1  -7 -12  145.19   12.40
   0  -7 -12   79.19    8.50
  -1  -7 -12   31.20    5.80
  -2  -7 -12   63.99    7.30
  -3  -7 -12    4.80    3.00
  -4  -7 -12    9.40    3.60
  -5  -7 -12   45.50    6.30
  -6  -7 -12  328.17   18.40
  -7  -7 -12  308.87   12.50
  -7  -7 -12  332.97   14.00
  -7  -7 -12  311.47   18.00
  -8  -7 -12  119.79   11.00
  -8  -7 -12  126.79    6.70
   2  -8 -12    0.00    2.90
   1  -8 -12    1.20    3.40
   0  -8 -12   12.60    3.80
  -2  -8 -12    0.30    2.20
  -3  -8 -12    1.10    2.20
  -4  -8 -12  110.59    9.80
  -5  -8 -12    6.90    3.50
  -6  -8 -12   20.00    3.70
  -6  -8 -12   21.00    4.70
  -7  -8 -12   18.70    6.90
  -7  -8 -12   14.60    2.50
  -8  -8 -12   -1.80    2.50
   1  -9 -12   -3.60    3.10
   0  -9 -12   40.10    7.40
  -1  -9 -12  896.51   39.90
  -2  -9 -12  870.61   38.80
  -3  -9 -12   15.00    4.40
  -4  -9 -12   13.70    4.30
  -5  -9 -12   13.90    4.20
  -5  -9 -12    9.10    3.00
  -6  -9 -12   19.10    5.00
  -6  -9 -12   13.20    3.20
  -7  -9 -12    3.60    3.10
  -7  -9 -12    1.10    1.90
   0 -10 -12  501.15   26.40
  -1 -10 -12  457.85   24.90
  -2 -10 -12  172.88   17.80
  -3 -10 -12   88.59    9.40
  -4 -10 -12   47.30    7.70
  -5 -10 -12   46.20    6.30
  -5 -10 -12   42.50    7.70
  -1   4 -13  172.28   11.60
   2  -4  13  745.13   31.70
   3  -4  13   62.69    7.00
   5  -4  13   18.80    4.40
   1   3 -13   18.60    4.20
  -1  -3  13   17.60    4.30
   0   3 -13 1517.95   63.79
   0  -3  13 1754.02   62.49
  -1   3 -13  333.37   16.90
   1  -3  13  290.37   16.30
   2  -3  13    1.40    2.40
   3  -3  13    4.30    2.60
   4  -3  13    1.00    2.20
   5  -3  13   -0.40    2.40
  -6   3 -13   24.20    4.80
   6  -3  13   24.30    3.90
   2   2 -13 1017.60   41.10
  -2  -2  13 1087.49   43.20
   1   2 -13  119.09    9.10
  -1  -2  13  118.49    9.50
   0   2 -13  236.38   14.30
   0  -2  13  253.87   14.50
  -1   2 -13   -0.50    2.10
   1  -2  13   -2.90    1.80
   2  -2  13   83.49    7.10
   3  -2  13   34.50    4.80
   4  -2  13   61.29    5.80
  -5   2 -13   30.10    5.20
   5  -2  13   28.60    4.10
  -6   2 -13   27.60    4.90
   6  -2  13   32.30    3.80
  -7   2 -13   -2.30    1.90
   3   1 -13  956.50   39.00
  -3  -1  13  979.20   40.30
  -3  -1  13  985.60   39.20
   2   1 -13  236.98   13.30
  -2  -1  13  182.08   12.90
   1   1 -13   89.79    7.60
  -1  -1  13   84.29    7.90
   0   1 -13    2.20    2.70
   0  -1  13    8.60    2.70
  -1   1 -13    2.50    3.10
   1  -1  13    9.30    2.70
  -2   1 -13    3.80    2.50
   2  -1  13    1.60    2.00
   3  -1  13  131.79    8.50
   4  -1  13  227.28   11.70
  -5   1 -13  349.47   23.40
   5  -1  13  363.66   15.70
  -6   1 -13   -0.20    1.70
   6  -1  13    0.10    1.20
  -7   1 -13   85.89    7.70
  -8   1 -13   53.19    6.40
   3   0 -13  172.68   11.70
  -3   0  13  176.68   12.10
  -3   0  13  187.78   11.40
   2   0 -13   78.49    7.80
  -2   0  13   81.49    7.70
  -2   0  13   74.49    6.50
   1   0 -13  125.79   14.90
   0   0 -13  286.27   21.90
   0   0  13  353.06   16.80
   1   0  13  178.48   10.70
  -2   0 -13   95.19    8.40
   2   0  13   93.69    7.10
   3   0  13 1347.77   49.50
   4   0  13   95.79    6.50
  -5   0 -13   18.30    3.60
   5   0  13   16.30    2.70
  -6   0 -13    8.60    2.70
   6   0  13   10.90    2.10
  -7   0 -13   45.10    5.10
  -8   0 -13  371.16   18.10
  -9   0 -13    8.20    2.60
   3  -1 -13   52.79    6.50
  -3   1  13   37.50    4.70
   2  -1 -13    5.50    2.60
  -2   1  13    5.40    2.20
  -2   1  13    7.90    2.90
   1  -1 -13  410.76   20.70
  -1   1  13  405.76   17.20
  -1   1  13  382.16   19.10
   0   1  13    0.00    1.60
  -1  -1 -13  595.64   34.30
   1   1  13  591.74   25.10
  -2  -1 -13   78.29    7.60
   2   1  13   70.69    6.00
  -3  -1 -13    7.00    2.80
   3   1  13   10.10    2.50
   4   1  13   17.90    3.00
  -5  -1 -13    5.00    1.80
   5   1  13    2.40    1.40
  -6  -1 -13    2.20    1.50
  -7  -1 -13   65.09    5.80
  -8  -1 -13   11.60    2.90
  -9  -1 -13   37.00    6.10
   4  -2 -13   -1.20    5.60
  -4   2  13    4.50    2.40
   3  -2 -13   20.30    4.20
  -3   2  13   22.60    3.40
  -3   2  13   20.80    4.10
   2  -2 -13  128.99   10.40
  -2   2  13  122.59    9.30
  -2   2  13  130.89    7.40
   1  -2 -13  775.32   34.10
  -1   2  13  780.32   28.50
  -1   2  13  772.02   32.20
   0  -2 -13   82.79    8.10
   0   2  13   86.99    7.10
   0   2  13   77.79    4.90
  -1  -2 -13   70.49    7.20
   1   2  13   55.09    3.60
   1   2  13   82.69    9.20
  -2  -2 -13    1.00    1.70
   2   2  13    0.20    1.10
   2   2  13    1.70    1.50
  -3  -2 -13  309.47   16.60
   3   2  13  279.97   11.60
   3   2  13  278.97   13.60
  -5  -2 -13   39.30    4.00
  -6  -2 -13   71.89    5.60
  -7  -2 -13   31.60    3.90
  -8  -2 -13   67.29    6.80
  -9  -2 -13  131.99    8.60
   4  -3 -13  269.87   16.50
   3  -3 -13   84.39    8.50
   2  -3 -13    6.50    3.30
  -2   3  13    4.90    1.60
   1  -3 -13    4.70    2.60
  -1   3  13    8.10    2.60
  -1   3  13    5.50    1.20
   0  -3 -13   89.39    8.60
   0   3  13  103.19    7.80
  -1  -3 -13  185.98   12.70
  -2  -3 -13   17.30    4.30
  -3  -3 -13    2.60    2.30
   3   3  13    1.70    1.00
  -4  -3 -13  249.58   14.90
   4   3  13  241.68   10.10
  -5  -3 -13    5.20    1.60
  -6  -3 -13    3.50    1.70
  -7  -3 -13    5.70    1.80
  -8  -3 -13   27.10    3.50
  -9  -3 -13  125.99    8.00
   3  -4 -13    4.80    3.30
   2  -4 -13    3.10    2.70
   1  -4 -13   10.10    3.50
   0  -4 -13   85.09    8.30
  -1  -4 -13   32.50    5.80
  -2  -4 -13 1273.87   50.99
  -3  -4 -13   -1.50    1.60
  -4  -4 -13  127.69   10.10
  -5  -4 -13    7.30    1.50
  -5  -4 -13    6.00    2.80
  -6  -4 -13    2.70    1.40
  -6  -4 -13    6.70    2.90
  -7  -4 -13   -0.70    1.20
  -8  -4 -13    3.60    1.60
  -9  -4 -13    6.90    2.10
   3  -5 -13  142.59   12.00
   2  -5 -13  143.39   11.80
   1  -5 -13   -2.70    1.70
   0  -5 -13  133.59   10.80
  -1  -5 -13  185.98   13.10
  -2  -5 -13 1221.88   49.70
  -3  -5 -13  190.08   13.00
  -4  -5 -13   11.00    3.70
  -5  -5 -13    3.70    2.40
  -6  -5 -13   -2.00    2.00
  -6  -5 -13    2.30    1.20
  -7  -5 -13   14.20    2.10
  -8  -5 -13   31.70    3.20
  -8  -5 -13   32.50    6.10
  -9  -5 -13   93.39    8.50
   3  -6 -13  190.08   14.40
   2  -6 -13  104.69   10.30
   1  -6 -13  422.56   23.00
   0  -6 -13 1407.66   60.39
  -1  -6 -13   -1.70    1.60
  -2  -6 -13  136.59   11.10
  -3  -6 -13   53.09    6.80
  -4  -6 -13    0.60    1.90
  -5  -6 -13  190.68   13.40
  -6  -6 -13   26.10    5.30
  -7  -6 -13  101.79    9.50
  -7  -6 -13   87.79    7.20
  -8  -6 -13   20.90    5.20
  -8  -6 -13   20.70    3.30
   2  -7 -13    0.00    3.50
   1  -7 -13   51.49    8.10
   0  -7 -13   30.10    6.10
  -1  -7 -13  392.46   21.90
  -2  -7 -13    3.60    3.00
  -3  -7 -13   72.89    8.20
  -4  -7 -13   21.90    5.60
  -5  -7 -13  215.28   16.40
  -6  -7 -13  856.61   38.60
  -7  -7 -13  144.89    8.30
  -7  -7 -13  160.58   12.20
  -8  -7 -13   28.60    5.80
   1  -8 -13  167.88   13.50
   0  -8 -13   51.69    8.40
  -1  -8 -13  193.88   14.30
  -2  -8 -13    0.60    2.70
  -3  -8 -13 2096.49   80.09
  -4  -8 -13  522.55   26.60
  -5  -8 -13   86.09    9.30
  -6  -8 -13   32.80    6.10
  -6  -8 -13   41.10    4.90
  -7  -8 -13   36.90    6.90
  -7  -8 -13   32.90    5.90
   0  -9 -13   26.40    6.10
  -1  -9 -13 1459.35   59.89
  -2  -9 -13   65.39   10.30
  -3  -9 -13  920.91   41.10
  -4  -9 -13    8.10    4.10
  -5  -9 -13  481.95   25.30
  -6  -9 -13   76.19    8.90
  -6  -9 -13   91.79    7.50
  -2   3 -14  297.67   23.70
   2  -3  14  294.67   16.20
   3  -3  14   19.50    4.00
   4  -3  14   -0.40    2.80
   0   2 -14  328.47   18.10
   0  -2  14  335.87   22.40
  -1   2 -14   91.19    8.30
   1  -2  14   84.29    8.00
  -2   2 -14   18.70    4.40
   2  -2  14   13.30    3.70
   3  -2  14   22.80    4.20
   4  -2  14  220.38   12.20
   5  -2  14    3.00    2.20
  -6   2 -14   77.19    7.90
   6  -2  14   76.99    6.00
   1   1 -14  123.29   10.30
  -1  -1  14  138.29   10.40
   0   1 -14    1.40    2.30
   0  -1  14    2.00    2.50
  -1   1 -14   -0.40    2.60
   1  -1  14    0.20    2.10
  -2   1 -14  182.08   12.60
   2  -1  14  180.78   11.10
   3  -1  14  382.06   17.90
   4  -1  14    9.10    2.70
   5  -1  14  244.58   12.10
  -6   1 -14    1.10    2.10
   6  -1  14    2.60    2.00
  -7   1 -14    1.40    2.40
   2   0 -14   -0.10    3.10
  -2   0  14    0.70    2.30
   1   0 -14  259.57   15.60
  -1   0  14  264.27   15.10
   0   0 -14   54.99    7.10
   0   0  14   64.59    6.50
  -1   0 -14    4.20    2.90
   1   0  14    9.90    2.90
  -2   0 -14    0.90    2.40
   2   0  14    2.20    1.90
  -3   0 -14  545.05   25.80
   3   0  14  527.35   22.80
   4   0  14   87.99    6.40
   5   0  14    1.80    1.60
  -6   0 -14   73.19    6.80
   6   0  14   81.39    5.60
  -7   0 -14  230.68   13.20
  -8   0 -14    6.90    2.60
   2  -1 -14   -3.80    2.50
  -2   1  14    3.40    2.70
  -2   1  14   -5.30    2.10
   1  -1 -14    9.00    3.60
  -1   1  14    4.80    2.30
  -1   1  14    7.50    2.60
   0  -1 -14  356.06   19.60
  -1  -1 -14  535.45   26.10
   1   1  14  550.14   24.00
  -2  -1 -14  203.38   13.50
   2   1  14  205.58   11.60
  -3  -1 -14   97.99    8.90
   3   1  14   78.59    6.60
   4   1  14    3.50    1.80
   5   1  14  168.28    9.10
  -6  -1 -14    4.60    2.00
  -7  -1 -14   60.29    5.80
  -8  -1 -14   85.49    7.20
   2  -2 -14  167.68   14.30
  -2   2  14  149.99   15.70
   1  -2 -14   -3.10    2.50
  -1   2  14    1.10    1.60
  -1   2  14   -2.10    1.90
   0  -2 -14  100.79    9.20
   0   2  14   89.99    5.60
   0   2  14   99.49    8.10
  -1  -2 -14  121.09   10.10
   1   2  14   97.19    7.80
  -2  -2 -14   60.89    7.30
   2   2  14   67.59    6.10
  -3  -2 -14   17.90    4.40
   3   2  14   27.10    3.70
  -4  -2 -14    4.60    2.40
  -6  -2 -14  356.66   16.20
  -7  -2 -14   42.80    4.60
  -8  -2 -14   10.10    2.70
   2  -3 -14  463.55   24.20
   1  -3 -14   75.99    8.90
   0  -3 -14   -1.70    2.10
  -1  -3 -14   32.10    5.90
  -2  -3 -14   -0.60    2.10
  -3  -3 -14   98.29    9.30
  -4  -3 -14  331.77   18.70
  -5  -3 -14    1.70    2.30
  -6  -3 -14  619.34   24.30
  -7  -3 -14    0.70    1.40
  -8  -3 -14   38.00    4.20
   2  -4 -14  191.18   14.10
   1  -4 -14   89.89    9.20
   0  -4 -14   12.00    4.70
  -1  -4 -14  253.77   16.10
  -2  -4 -14   18.00    4.70
  -3  -4 -14  378.06   20.70
  -4  -4 -14 1427.26   56.79
  -5  -4 -14   -0.90    3.50
  -6  -4 -14  164.78   12.50
  -6  -4 -14  166.18    8.20
  -7  -4 -14   77.89    5.40
  -8  -4 -14    0.90    1.40
   2  -5 -14   26.70    7.00
   1  -5 -14  377.66   21.60
   0  -5 -14  324.47   19.40
  -2  -5 -14   29.50    6.10
  -3  -5 -14   91.59    9.40
  -4  -5 -14    2.00    3.20
  -5  -5 -14  307.77   18.80
  -6  -5 -14   10.30    3.60
  -7  -5 -14   36.90    6.40
  -8  -5 -14   10.40    5.00
   2  -6 -14    9.40    3.90
   1  -6 -14  138.69   13.50
   0  -6 -14  116.39   11.10
  -1  -6 -14  164.78   13.10
  -2  -6 -14  389.86   21.90
  -3  -6 -14   72.99    8.40
  -4  -6 -14  155.08   12.40
  -5  -6 -14  346.97   19.90
  -6  -6 -14   26.90    5.80
  -7  -6 -14 1014.20   43.70
  -8  -6 -14  229.48   15.80
   1  -7 -14  195.48   14.70
  -1  -7 -14   -3.60    2.40
  -2  -7 -14   30.50    5.90
  -3  -7 -14   49.70    7.90
  -4  -7 -14    8.80    3.70
  -5  -7 -14 1296.47   53.49
  -6  -7 -14    1.20    2.90
   0  -8 -14    4.20    3.60
  -1  -8 -14    2.60    3.20
  -4  -8 -14 1104.79   47.70
  -5  -8 -14 1987.40   80.99
  -6  -8 -14   15.10    5.30
  -2  -9 -14 1421.36   58.89
  -3  -9 -14  845.12   39.20
  -4  -9 -14   86.99    9.60
  -1   1 -15   27.80    5.40
  -2   1 -15   27.50    5.50
   2  -1  15   20.50    4.10
  -3   1 -15   40.60    6.90
   4  -1  15   96.09    7.30
   5  -1  15  418.86   18.50
   0   0 -15   10.20    4.20
   0   0  15   13.50    3.80
  -1   0 -15    7.10    3.80
   1   0  15   13.40    3.60
  -2   0 -15  538.15   25.80
   2   0  15  478.55   23.10
  -3   0 -15    5.80    3.50
   3   0  15   14.30    3.00
  -4   0 -15   77.89    8.80
   4   0  15   88.49    6.50
   5   0  15   36.70    4.60
   1  -1 -15   84.29    8.90
  -1   1  15   71.19    7.40
   0  -1 -15   18.60    4.80
   0   1  15   16.90    4.10
  -1  -1 -15    3.50    3.40
   1   1  15    3.00    2.30
  -2  -1 -15  246.58   16.20
   2   1  15  250.17   13.70
  -3  -1 -15  378.46   20.60
   3   1  15  342.97   17.00
  -4  -1 -15   92.89    9.40
   4   1  15   90.89    6.70
  -6  -1 -15  101.49    7.70
  -7  -1 -15   80.49    7.00
   1  -2 -15   51.69    8.10
  -1   2  15   52.79    6.30
   0  -2 -15  331.27   19.30
   0   2  15  310.67   16.90
  -1  -2 -15    0.50    2.80
   1   2  15    0.40    2.00
  -2  -2 -15   12.20    3.80
   2   2  15   10.20    3.00
  -3  -2 -15  130.59   11.30
   3   2  15  164.48    9.80
  -4  -2 -15    0.60    2.50
  -5  -2 -15  335.47   19.40
  -7  -2 -15  332.07   15.90
   1  -3 -15   -0.50    3.10
   0  -3 -15  168.08   12.90
  -1  -3 -15   79.69    8.90
  -2  -3 -15   12.90    4.10
  -3  -3 -15  131.39   11.40
  -4  -3 -15   34.80    6.70
  -5  -3 -15  735.13   33.90
  -6  -3 -15  149.49   12.20
  -7  -3 -15   39.80    5.20
   1  -4 -15   -5.10    4.30
   0  -4 -15   30.20    6.20
  -1  -4 -15   13.80    4.20
  -2  -4 -15   77.39    8.80
  -3  -4 -15  490.55   25.50
  -4  -4 -15   93.19    9.70
  -5  -4 -15  313.37   18.90
  -7  -4 -15   59.89    8.10
   1  -5 -15   21.90    5.70
  -1  -5 -15    1.40    3.20
  -2  -5 -15   12.70    4.40
  -3  -5 -15  515.55   26.70
  -4  -5 -15  116.19   11.00
  -5  -5 -15    7.40    3.40
  -7  -5 -15   63.29    8.30
   0  -6 -15   37.20    7.20
  -1  -6 -15   26.60    9.40
  -2  -6 -15    5.30    4.00
  -3  -6 -15    2.20    2.60
  -4  -6 -15   45.50    7.60
  -5  -6 -15   -4.60    3.60
  -6  -6 -15   20.40    5.00
  -7  -6 -15  659.53   32.20
  -1  -7 -15   57.49    9.20
  -2  -7 -15   89.19   10.10
  -3  -7 -15  141.79   12.70
  -4  -7 -15   -0.50    2.90
  -5  -7 -15  377.26   22.00
  -6  -7 -15 2135.79   82.69
  -3  -8 -15   19.10    5.40
  -4  -8 -15  827.12   38.50
  -2  -1 -16    5.30    6.80
   2   1  16    2.20    2.40
  -3  -1 -16   22.10    8.90
   3   1  16   40.50    5.00
  -4  -1 -16    0.60    3.30
   4   1  16    1.70    2.00
  -5  -1 -16  215.38   15.30
   1   2  16    8.50    4.20
   2   2  16  349.96   17.70
  -4  -2 -16    7.20    4.10
  -5  -2 -16   14.70    4.40
  -1  -3 -16   59.59   10.30
  -4  -3 -16   21.50    5.90
  -5  -3 -16  119.99   11.30
  -1  -4 -16    3.90    4.00
  -2  -4 -16   85.49    9.70
  -3  -4 -16   25.40    6.50
  -4  -4 -16   43.10    7.30
  -5  -4 -16   90.79    9.90
  -6  -4 -16   11.90    4.20
  -2  -5 -16   23.60    5.50
  -3  -5 -16    8.00    4.20
  -4  -5 -16    5.10    3.70
  -5  -5 -16   43.70    7.50
  -3  -6 -16   16.80    5.20
  -4  -6 -16  217.78   15.70
   0   0   0    0.00    0.00

_computing_structure_solution     'SHELXT 2014/5 (Sheldrick, 2014)'
;
_shelx_hkl_checksum              17270
loop_
_space_group_symop_operation_xyz
'x, y, z'
'-x, -y, -z'
loop_
_atom_site_label
_atom_site_type_symbol
_atom_site_fract_x
_atom_site_fract_y
_atom_site_fract_z
_atom_site_U_iso_or_equiv
_atom_site_adp_type
_atom_site_occupancy
_atom_site_site_symmetry_order
_atom_site_calc_flag
_atom_site_refinement_flags_posn
_atom_site_refinement_flags_adp
_atom_site_refinement_flags_occupancy
_atom_site_disorder_assembly
_atom_site_disorder_group
O1 O 0.88192(7) 0.57594(7) 0.18457(5) 0.01466(12) Uani 1 1 d . . . . .
O2 O 1.03616(8) 0.76772(8) 0.01775(6) 0.02191(14) Uani 1 1 d . . . . .
O3 O 0.56603(8) 0.14113(8) 0.52756(6) 0.02027(13) Uani 1 1 d . . . . .
N1 N 0.63450(8) 0.13534(8) 0.28770(6) 0.01425(13) Uani 1 1 d . . . . .
N2 N 0.40998(9) 0.27874(9) 0.10581(7) 0.01856(14) Uani 1 1 d . . . . .
C1 C 0.97272(10) 0.72605(9) 0.13409(8) 0.01590(15) Uani 1 1 d . . . . .
C2 C 0.98188(10) 0.81508(10) 0.22408(8) 0.01716(15) Uani 1 1 d . . . . .
H2 H 1.040133 0.919787 0.192356 0.021 Uiso 1 1 calc R U . . .
C3 C 0.90975(10) 0.75414(10) 0.35329(8) 0.01585(15) Uani 1 1 d . . . . .
C4 C 0.82165(10) 0.59560(9) 0.40186(7) 0.01455(14) Uani 1 1 d . . . . .
C5 C 0.74183(10) 0.51941(10) 0.53535(8) 0.01736(15) Uani 1 1 d . . . . .
H5 H 0.747107 0.574995 0.597226 0.021 Uiso 1 1 calc R U . . .
C6 C 0.65845(11) 0.36991(10) 0.57702(7) 0.01810(15) Uani 1 1 d . . . . .
H6 H 0.607720 0.323679 0.667013 0.022 Uiso 1 1 calc R U . . .
C7 C 0.64512(10) 0.27997(10) 0.48823(7) 0.01538(14) Uani 1 1 d . . . . .
C8 C 0.72537(9) 0.35509(9) 0.35232(7) 0.01341(14) Uani 1 1 d . . . . .
C9 C 0.81070(9) 0.51102(9) 0.31439(7) 0.01304(14) Uani 1 1 d . . . . .
C10 C 0.91985(11) 0.85130(11) 0.44461(9) 0.02124(17) Uani 1 1 d . . . . .
H10A H 0.986843 0.953903 0.395981 0.032 Uiso 1 1 calc R U . . .
H10B H 0.979372 0.781806 0.507193 0.032 Uiso 1 1 calc R U . . .
H10C H 0.799934 0.881758 0.490397 0.032 Uiso 1 1 calc R U . . .
C11 C 0.71426(9) 0.27705(9) 0.25770(7) 0.01350(14) Uani 1 1 d . . . . .
H11 H 0.767070 0.330346 0.169153 0.016 Uiso 1 1 calc R U . . .
C12 C 0.60639(9) 0.05699(9) 0.19467(7) 0.01453(14) Uani 1 1 d . . . . .
H12A H 0.619226 -0.066942 0.225279 0.017 Uiso 1 1 calc R U . . .
H12B H 0.696376 0.095868 0.110484 0.017 Uiso 1 1 calc R U . . .
C13 C 0.42152(10) 0.10359(10) 0.17832(8) 0.01689(15) Uani 1 1 d . . . . .
H13A H 0.392043 0.029427 0.132524 0.020 Uiso 1 1 calc R U . . .
H13B H 0.333940 0.085088 0.264480 0.020 Uiso 1 1 calc R U . . .
C14 C 0.22798(12) 0.34413(13) 0.13599(10) 0.0284(2) Uani 1 1 d . . . . .
H14A H 0.224162 0.461919 0.086079 0.043 Uiso 1 1 calc R U . . .
H14B H 0.184572 0.337133 0.228453 0.043 Uiso 1 1 calc R U . . .
H14C H 0.152994 0.277237 0.113708 0.043 Uiso 1 1 calc R U . . .
C15 C 0.47878(13) 0.29737(11) -0.03290(8) 0.02451(18) Uani 1 1 d . . . . .
H15A H 0.477506 0.416952 -0.079278 0.037 Uiso 1 1 calc R U . . .
H15B H 0.404566 0.235557 -0.059989 0.037 Uiso 1 1 calc R U . . .
H15C H 0.600480 0.252114 -0.052577 0.037 Uiso 1 1 calc R U . . .
H1C H 0.5829(19) 0.0890(18) 0.3740(15) 0.041(4) Uiso 1 1 d . . . . .
loop_
_atom_site_aniso_label
_atom_site_aniso_U_11
_atom_site_aniso_U_22
_atom_site_aniso_U_33
_atom_site_aniso_U_23
_atom_site_aniso_U_13
_atom_site_aniso_U_12
O1 0.0156(2) 0.0156(2) 0.0123(2) -0.00438(19) -0.00131(18) -0.00408(18)
O2 0.0245(3) 0.0224(3) 0.0164(3) -0.0054(2) 0.0007(2) -0.0087(2)
O3 0.0258(3) 0.0179(3) 0.0147(3) -0.0019(2) -0.0024(2) -0.0063(2)
N1 0.0155(3) 0.0147(3) 0.0127(3) -0.0034(2) -0.0039(2) -0.0019(2)
N2 0.0203(3) 0.0182(3) 0.0193(3) -0.0073(2) -0.0082(2) 0.0044(2)
C1 0.0138(3) 0.0155(3) 0.0180(3) -0.0052(3) -0.0026(2) -0.0026(2)
C2 0.0162(3) 0.0161(3) 0.0205(4) -0.0073(3) -0.0042(3) -0.0025(2)
C3 0.0140(3) 0.0171(3) 0.0196(3) -0.0088(3) -0.0059(3) 0.0008(2)
C4 0.0141(3) 0.0161(3) 0.0150(3) -0.0064(3) -0.0046(2) 0.0002(2)
C5 0.0196(3) 0.0203(3) 0.0143(3) -0.0072(3) -0.0057(3) 0.0003(3)
C6 0.0215(3) 0.0209(4) 0.0119(3) -0.0048(3) -0.0040(3) -0.0008(3)
C7 0.0159(3) 0.0163(3) 0.0134(3) -0.0034(3) -0.0038(2) -0.0001(2)
C8 0.0137(3) 0.0145(3) 0.0122(3) -0.0040(2) -0.0033(2) -0.0008(2)
C9 0.0119(3) 0.0150(3) 0.0123(3) -0.0043(2) -0.0031(2) 0.0001(2)
C10 0.0240(4) 0.0216(4) 0.0235(4) -0.0124(3) -0.0082(3) -0.0013(3)
C11 0.0127(3) 0.0147(3) 0.0131(3) -0.0041(2) -0.0032(2) 0.0000(2)
C12 0.0158(3) 0.0141(3) 0.0146(3) -0.0049(2) -0.0043(2) -0.0013(2)
C13 0.0156(3) 0.0178(3) 0.0186(3) -0.0060(3) -0.0053(3) -0.0019(2)
C14 0.0247(4) 0.0355(5) 0.0315(5) -0.0172(4) -0.0142(3) 0.0125(3)
C15 0.0312(4) 0.0229(4) 0.0192(4) -0.0052(3) -0.0091(3) 0.0049(3)
loop_
_atom_type_symbol
_atom_type_description
_atom_type_scat_dispersion_real
_atom_type_scat_dispersion_imag
_atom_type_scat_source
C C 0.0033 0.0016 'International Tables Vol C Tables 4.2.6.8 and 6.1.1.4'
H H 0.0000 0.0000 'International Tables Vol C Tables 4.2.6.8 and 6.1.1.4'
N N 0.0061 0.0033 'International Tables Vol C Tables 4.2.6.8 and 6.1.1.4'
O O 0.0106 0.0060 'International Tables Vol C Tables 4.2.6.8 and 6.1.1.4'
loop_
_geom_angle_atom_site_label_1
_geom_angle_atom_site_label_2
_geom_angle_atom_site_label_3
_geom_angle
_geom_angle_site_symmetry_1
_geom_angle_site_symmetry_3
_geom_angle_publ_flag
C9 O1 C1 122.02(6) . . ?
C11 N1 C12 124.79(6) . . ?
C11 N1 H1C 116.2(9) . . ?
C12 N1 H1C 118.7(9) . . ?
C13 N2 C15 110.98(6) . . ?
C13 N2 C14 111.23(7) . . ?
C15 N2 C14 109.76(7) . . ?
O2 C1 O1 116.09(7) . . ?
O2 C1 C2 126.92(7) . . ?
O1 C1 C2 116.99(7) . . ?
C3 C2 C1 121.93(7) . . ?
C3 C2 H2 119.0 . . ?
C1 C2 H2 119.0 . . ?
C2 C3 C4 119.27(7) . . ?
C2 C3 C10 120.59(7) . . ?
C4 C3 C10 120.14(7) . . ?
C9 C4 C5 117.25(7) . . ?
C9 C4 C3 118.65(7) . . ?
C5 C4 C3 124.10(7) . . ?
C6 C5 C4 122.18(7) . . ?
C6 C5 H5 118.9 . . ?
C4 C5 H5 118.9 . . ?
C5 C6 C7 121.61(7) . . ?
C5 C6 H6 119.2 . . ?
C7 C6 H6 119.2 . . ?
O3 C7 C6 121.35(7) . . ?
O3 C7 C8 121.57(7) . . ?
C6 C7 C8 117.08(7) . . ?
C9 C8 C11 120.27(7) . . ?
C9 C8 C7 118.90(7) . . ?
C11 C8 C7 120.80(7) . . ?
O1 C9 C4 121.09(7) . . ?
O1 C9 C8 115.92(6) . . ?
C4 C9 C8 122.99(7) . . ?
C3 C10 H10A 109.5 . . ?
C3 C10 H10B 109.5 . . ?
H10A C10 H10B 109.5 . . ?
C3 C10 H10C 109.5 . . ?
H10A C10 H10C 109.5 . . ?
H10B C10 H10C 109.5 . . ?
N1 C11 C8 122.52(7) . . ?
N1 C11 H11 118.7 . . ?
C8 C11 H11 118.7 . . ?
N1 C12 C13 109.73(6) . . ?
N1 C12 H12A 109.7 . . ?
C13 C12 H12A 109.7 . . ?
N1 C12 H12B 109.7 . . ?
C13 C12 H12B 109.7 . . ?
H12A C12 H12B 108.2 . . ?
N2 C13 C12 111.43(6) . . ?
N2 C13 H13A 109.3 . . ?
C12 C13 H13A 109.3 . . ?
N2 C13 H13B 109.3 . . ?
C12 C13 H13B 109.3 . . ?
H13A C13 H13B 108.0 . . ?
N2 C14 H14A 109.5 . . ?
N2 C14 H14B 109.5 . . ?
H14A C14 H14B 109.5 . . ?
N2 C14 H14C 109.5 . . ?
H14A C14 H14C 109.5 . . ?
H14B C14 H14C 109.5 . . ?
N2 C15 H15A 109.5 . . ?
N2 C15 H15B 109.5 . . ?
H15A C15 H15B 109.5 . . ?
N2 C15 H15C 109.5 . . ?
H15A C15 H15C 109.5 . . ?
H15B C15 H15C 109.5 . . ?
loop_
_geom_bond_atom_site_label_1
_geom_bond_atom_site_label_2
_geom_bond_distance
_geom_bond_site_symmetry_2
_geom_bond_publ_flag
O1 C9 1.3662(9) . ?
O1 C1 1.3887(9) . ?
O2 C1 1.2133(10) . ?
O3 C7 1.2679(9) . ?
N1 C11 1.3018(9) . ?
N1 C12 1.4572(9) . ?
N1 H1C 0.917(15) . ?
N2 C13 1.4567(10) . ?
N2 C15 1.4594(11) . ?
N2 C14 1.4596(11) . ?
C1 C2 1.4335(11) . ?
C2 C3 1.3575(11) . ?
C2 H2 0.9500 . ?
C3 C4 1.4378(10) . ?
C3 C10 1.4978(11) . ?
C4 C9 1.3870(10) . ?
C4 C5 1.4256(11) . ?
C5 C6 1.3590(11) . ?
C5 H5 0.9500 . ?
C6 C7 1.4381(11) . ?
C6 H6 0.9500 . ?
C7 C8 1.4463(10) . ?
C8 C9 1.4161(10) . ?
C8 C11 1.4211(10) . ?
C10 H10A 0.9800 . ?
C10 H10B 0.9800 . ?
C10 H10C 0.9800 . ?
C11 H11 0.9500 . ?
C12 C13 1.5251(10) . ?
C12 H12A 0.9900 . ?
C12 H12B 0.9900 . ?
C13 H13A 0.9900 . ?
C13 H13B 0.9900 . ?
C14 H14A 0.9800 . ?
C14 H14B 0.9800 . ?
C14 H14C 0.9800 . ?
C15 H15A 0.9800 . ?
C15 H15B 0.9800 . ?
C15 H15C 0.9800 . ?
loop_
_geom_torsion_atom_site_label_1
_geom_torsion_atom_site_label_2
_geom_torsion_atom_site_label_3
_geom_torsion_atom_site_label_4
_geom_torsion
_geom_torsion_site_symmetry_1
_geom_torsion_site_symmetry_2
_geom_torsion_site_symmetry_3
_geom_torsion_site_symmetry_4
_geom_torsion_publ_flag
C9 O1 C1 O2 177.15(7) . . . . ?
C9 O1 C1 C2 -2.81(10) . . . . ?
O2 C1 C2 C3 -178.17(8) . . . . ?
O1 C1 C2 C3 1.79(11) . . . . ?
C1 C2 C3 C4 0.09(12) . . . . ?
C1 C2 C3 C10 -179.30(7) . . . . ?
C2 C3 C4 C9 -1.04(11) . . . . ?
C10 C3 C4 C9 178.35(7) . . . . ?
C2 C3 C4 C5 179.78(7) . . . . ?
C10 C3 C4 C5 -0.83(11) . . . . ?
C9 C4 C5 C6 0.22(12) . . . . ?
C3 C4 C5 C6 179.41(7) . . . . ?
C4 C5 C6 C7 -0.33(12) . . . . ?
C5 C6 C7 O3 -179.47(7) . . . . ?
C5 C6 C7 C8 0.36(11) . . . . ?
O3 C7 C8 C9 179.54(7) . . . . ?
C6 C7 C8 C9 -0.29(10) . . . . ?
O3 C7 C8 C11 1.55(11) . . . . ?
C6 C7 C8 C11 -178.28(6) . . . . ?
C1 O1 C9 C4 1.94(11) . . . . ?
C1 O1 C9 C8 -178.56(6) . . . . ?
C5 C4 C9 O1 179.30(6) . . . . ?
C3 C4 C9 O1 0.06(11) . . . . ?
C5 C4 C9 C8 -0.16(11) . . . . ?
C3 C4 C9 C8 -179.39(6) . . . . ?
C11 C8 C9 O1 -1.28(10) . . . . ?
C7 C8 C9 O1 -179.27(6) . . . . ?
C11 C8 C9 C4 178.21(6) . . . . ?
C7 C8 C9 C4 0.21(11) . . . . ?
C12 N1 C11 C8 174.65(6) . . . . ?
C9 C8 C11 N1 -178.76(6) . . . . ?
C7 C8 C11 N1 -0.80(11) . . . . ?
C11 N1 C12 C13 -96.31(8) . . . . ?
C15 N2 C13 C12 82.04(8) . . . . ?
C14 N2 C13 C12 -155.46(7) . . . . ?
N1 C12 C13 N2 72.67(8) . . . . ?
