#------------------------------------------------------------------------------
#$Date: 2022-07-27 00:55:19 +0300 (Wed, 27 Jul 2022) $
#$Revision: 276944 $
#$URL: file:///home/coder/svn-repositories/cod/cif/7/13/04/7130414.cif $
#------------------------------------------------------------------------------
#
# This file is available in the Crystallography Open Database (COD),
# http://www.crystallography.net/
#
# All data on this site have been placed in the public domain by the
# contributors.
#
data_7130414
loop_
_publ_author_name
'Abeysekera, Amila M.'
'Averkiev, Boris B.'
'Sinha, Abhijeet Shekhar'
'Aaker\"oy, Christer'
_publ_section_title
;
 Evaluating structure-property relationship in a new family of
 mechanically flexible co-crystals
;
_journal_name_full               'Chemical Communications'
_journal_paper_doi               10.1039/D2CC02047E
_journal_year                    2022
_chemical_formula_moiety         'C7 H7 I N2 O, C9 H10 O2'
_chemical_formula_sum            'C16 H17 I N2 O3'
_chemical_formula_weight         412.21
_space_group_crystal_system      triclinic
_space_group_IT_number           2
_space_group_name_Hall           '-P 1'
_space_group_name_H-M_alt        'P -1'
_atom_sites_solution_hydrogens   mixed
_atom_sites_solution_primary     dual
_audit_creation_date             2019-11-15
_audit_creation_method
;
Olex2 1.2
(compiled 2018.05.29 svn.r3508 for OlexSys, GUI svn.r5506)
;
_audit_update_record
;
2022-02-14 deposited with the CCDC.	2022-07-26 downloaded from the CCDC.
;
_cell_angle_alpha                69.3730(10)
_cell_angle_beta                 82.684(2)
_cell_angle_gamma                73.631(2)
_cell_formula_units_Z            2
_cell_length_a                   7.4358(2)
_cell_length_b                   10.5039(2)
_cell_length_c                   11.7955(3)
_cell_measurement_reflns_used    5245
_cell_measurement_temperature    200(2)
_cell_measurement_theta_max      69.47
_cell_measurement_theta_min      4.01
_cell_volume                     826.87(4)
_computing_cell_refinement       'SAINT v8.34A (Bruker, 2013)'
_computing_data_collection       'Bruker MicroStar'
_computing_data_reduction        'SAINT v8.34A (Bruker, 2013)'
_computing_molecular_graphics    'Olex2 (Dolomanov et al., 2009)'
_computing_publication_material  'Olex2 (Dolomanov et al., 2009)'
_computing_structure_refinement  'XL (Sheldrick, 2008)'
_computing_structure_solution    'XT (Sheldrick, 2015)'
_diffrn_ambient_temperature      199.99
_diffrn_measured_fraction_theta_full 'ACTA 50'
_diffrn_measured_fraction_theta_max 0.924
_diffrn_measurement_device_type  'Bruker MicroStar'
_diffrn_measurement_method       '\f and \w scans'
_diffrn_radiation_type           CuK\a
_diffrn_radiation_wavelength     1.54178
_diffrn_reflns_av_R_equivalents  0.0630
_diffrn_reflns_av_unetI/netI     0.0548
_diffrn_reflns_Laue_measured_fraction_full 0.954
_diffrn_reflns_Laue_measured_fraction_max 0.924
_diffrn_reflns_limit_h_max       8
_diffrn_reflns_limit_h_min       -9
_diffrn_reflns_limit_k_max       12
_diffrn_reflns_limit_k_min       -12
_diffrn_reflns_limit_l_max       14
_diffrn_reflns_limit_l_min       -14
_diffrn_reflns_number            11691
_diffrn_reflns_point_group_measured_fraction_full 0.954
_diffrn_reflns_point_group_measured_fraction_max 0.924
_diffrn_reflns_theta_full        'ACTA 50'
_diffrn_reflns_theta_max         70.173
_diffrn_reflns_theta_min         4.006
_diffrn_standards_number         0
_exptl_absorpt_coefficient_mu    15.337
_exptl_absorpt_correction_T_max  0.7533
_exptl_absorpt_correction_T_min  0.5234
_exptl_absorpt_correction_type   multi-scan
_exptl_absorpt_process_details
'SADABS-2014/5 (Bruker,2014/5) was used for absorption correction. wR2(int) was 0.1182 before and 0.0683 after correction. The Ratio of minimum to maximum transmission is 0.6948. The \l/2 correction factor is 0.00150.'
_exptl_crystal_colour            colourless
_exptl_crystal_density_diffrn    1.656
_exptl_crystal_description       Block
_exptl_crystal_F_000             408
_exptl_crystal_size_max          0.11
_exptl_crystal_size_mid          0.08
_exptl_crystal_size_min          0.065
_refine_diff_density_max         1.266
_refine_diff_density_min         -1.016
_refine_diff_density_rms         0.153
_refine_ls_extinction_coef       0.0063(5)
_refine_ls_extinction_expression Fc^*^=kFc[1+0.001xFc^2^\l^3^/sin(2\q)]^-1/4^
_refine_ls_extinction_method     'SHELXL-2014/7 (Sheldrick 2014)'
_refine_ls_goodness_of_fit_ref   1.050
_refine_ls_hydrogen_treatment    mixed
_refine_ls_matrix_type           full
_refine_ls_number_parameters     211
_refine_ls_number_reflns         2904
_refine_ls_number_restraints     2
_refine_ls_restrained_S_all      1.050
_refine_ls_R_factor_all          0.0414
_refine_ls_R_factor_gt           0.0387
_refine_ls_shift/su_max          0.001
_refine_ls_shift/su_mean         0.000
_refine_ls_structure_factor_coef Fsqd
_refine_ls_weighting_details
'w=1/[\s^2^(Fo^2^)+(0.0599P)^2^] where P=(Fo^2^+2Fc^2^)/3'
_refine_ls_weighting_scheme      calc
_refine_ls_wR_factor_gt          0.0894
_refine_ls_wR_factor_ref         0.0911
_reflns_Friedel_coverage         0.000
_reflns_number_gt                2697
_reflns_number_total             2904
_reflns_threshold_expression     'I > 2\s(I)'
_iucr_refine_instructions_details
;

    aa-acetyl-3,5-dimethyl-ba.res created by SHELXL-2014/7

TITL aa-acetyl-3,5-dimethyl-ba_a.res in P-1
CELL 1.54178 7.4358 10.5039 11.7955 69.373 82.684 73.631
ZERR 2 0.0002 0.0002 0.0003 0.001 0.002 0.002
LATT 1
SFAC C H I N O
UNIT 32 34 2 4 6
EQIV $1 1-X,1-Y,1-Z
DFIX 0.88 0.04 N8 H8
DFIX 0.82 0.04 O20 H20
 
L.S. 20
PLAN  20
SIZE 0.065 0.08 0.11
TEMP -73.16
HTAB N8 O19_$1
HTAB O20 N2_$1
BOND $H
list 4
fmap 2
acta
REM <olex2.extras>
REM <HklSrc "%.\\AA-Acetyl-3,5-Dimethyl-BA.hkl">
REM </olex2.extras>
 
WGHT    0.059900
EXTI    0.006319
FVAR       0.50396
C1    1    0.644961    0.226149    0.762756    11.00000    0.01877    0.01813 =
         0.01839   -0.00907   -0.00112   -0.00401
N2    4    0.726326    0.223079    0.654930    11.00000    0.02695    0.01829 =
         0.01896   -0.00714    0.00277   -0.00635
C3    1    0.787824    0.099616    0.635796    11.00000    0.03061    0.02022 =
         0.01992   -0.00953    0.00672   -0.00784
AFIX  43
H3    2    0.845875    0.097886    0.559611    11.00000   -1.20000
AFIX   0
C4    1    0.770089   -0.026042    0.722952    11.00000    0.02440    0.01577 =
         0.02493   -0.01043   -0.00255   -0.00518
C5    1    0.691070   -0.023816    0.835861    11.00000    0.02554    0.01774 =
         0.02333   -0.00598   -0.00025   -0.00814
AFIX  43
H5    2    0.680057   -0.108637    0.897901    11.00000   -1.20000
AFIX   0
C6    1    0.628820    0.103087    0.856739    11.00000    0.02440    0.02207 =
         0.01930   -0.00846    0.00197   -0.00870
AFIX  43
H6    2    0.575962    0.106795    0.933554    11.00000   -1.20000
AFIX   0
I7    3    0.859465   -0.211654    0.680390    11.00000    0.04905    0.01920 =
         0.03726   -0.01693    0.00202   -0.00770
H8    2    0.579354    0.427866    0.705136    11.00000    0.02563
N8    4    0.582207    0.360861    0.769671    11.00000    0.02653    0.01566 =
         0.01991   -0.00665    0.00300   -0.00667
C9    1    0.475904    0.401897    0.861155    11.00000    0.02647    0.02124 =
         0.02240   -0.01159    0.00264   -0.00847
O10   5    0.437367    0.319412    0.957446    11.00000    0.04508    0.02920 =
         0.02574   -0.01365    0.01009   -0.01403
C11   1    0.413920    0.559433    0.831962    11.00000    0.04814    0.02371 =
         0.03060   -0.01600    0.00512   -0.00559
AFIX 137
H11A  2    0.276684    0.589557    0.836569    11.00000   -1.50000
H11B  2    0.458831    0.605550    0.749969    11.00000   -1.50000
H11C  2    0.466000    0.585477    0.890396    11.00000   -1.50000
AFIX   0
 
C12   1    0.202886    0.331940    0.640738    11.00000    0.02165    0.02028 =
         0.02066   -0.00411   -0.00393   -0.00685
C13   1    0.105441    0.364635    0.739572    11.00000    0.02579    0.02131 =
         0.02386   -0.00696   -0.00379   -0.00616
AFIX  43
H13   2    0.066172    0.459814    0.737068    11.00000   -1.20000
AFIX   0
C14   1    0.064946    0.259275    0.842049    11.00000    0.02311    0.03077 =
         0.02088   -0.00677   -0.00214   -0.00751
C15   1    0.123896    0.121489    0.842331    11.00000    0.02518    0.02853 =
         0.02353    0.00361   -0.00253   -0.01187
AFIX  43
H15   2    0.096104    0.048829    0.911856    11.00000   -1.20000
AFIX   0
C16   1    0.222832    0.085339    0.744053    11.00000    0.02291    0.01963 =
         0.03342   -0.00415   -0.00794   -0.00861
C17   1    0.262558    0.192492    0.642945    11.00000    0.02524    0.02133 =
         0.02326   -0.00709   -0.00539   -0.00660
AFIX  43
H17   2    0.330310    0.170995    0.575268    11.00000   -1.20000
AFIX   0
C18   1    0.249557    0.444073    0.530778    11.00000    0.02832    0.01943 =
         0.02219   -0.00803   -0.00055   -0.00552
O19   5    0.337400    0.419784    0.443198    11.00000    0.06318    0.02233 =
         0.02555   -0.00718    0.01491   -0.01109
H20   2    0.218034    0.629227    0.477629    11.00000    0.04974
O20   5    0.188032    0.571472    0.538269    11.00000    0.05651    0.01699 =
         0.02731   -0.00612    0.01485   -0.01064
C21   1   -0.038802    0.295919    0.949239    11.00000    0.03969    0.04352 =
         0.02406   -0.00794    0.00619   -0.01126
AFIX 137
H21A  2    0.047926    0.312044    0.995608    11.00000   -1.50000
H21B  2   -0.091300    0.218180    1.001119    11.00000   -1.50000
H21C  2   -0.140532    0.381374    0.920726    11.00000   -1.50000
AFIX   0
C22   1    0.285719   -0.065483    0.747692    11.00000    0.04002    0.01873 =
         0.05235   -0.00703   -0.00088   -0.01208
AFIX 137
H22A  2    0.175657   -0.100922    0.751618    11.00000   -1.50000
H22B  2    0.360818   -0.122608    0.819355    11.00000   -1.50000
H22C  2    0.361586   -0.071024    0.674471    11.00000   -1.50000
AFIX   0
HKLF 4
 
REM  aa-acetyl-3,5-dimethyl-ba_a.res in P-1
REM R1 =  0.0387 for    2697 Fo > 4sig(Fo)  and  0.0414 for all    2904 data
REM    211 parameters refined using      2 restraints
 
END  
     
WGHT      0.0599      0.0000 

REM Highest difference peak  1.266,  deepest hole -1.016,  1-sigma level  0.153
Q1    1   0.8364 -0.1043  0.7222  11.00000  0.05    1.27
Q2    1   0.8490 -0.3032  0.6215  11.00000  0.05    1.01
Q3    1   0.9451 -0.2884  0.6540  11.00000  0.05    0.93
Q4    1   1.0310 -0.2717  0.7376  11.00000  0.05    0.69
Q5    1   0.6872  0.2266  0.7071  11.00000  0.05    0.52
Q6    1   0.6565 -0.1749  0.6586  11.00000  0.05    0.51
Q7    1   0.6592  0.0447  0.8331  11.00000  0.05    0.51
Q8    1   0.4542  0.4803  0.8382  11.00000  0.05    0.51
Q9    1   0.7266 -0.1953  0.6408  11.00000  0.05    0.50
Q10   1   0.3643  0.5694  0.9031  11.00000  0.05    0.49
Q11   1   0.6007  0.3007  0.7744  11.00000  0.05    0.46
Q12   1   0.4243  0.3481  0.4199  11.00000  0.05    0.45
Q13   1   0.5133  0.4072  0.8040  11.00000  0.05    0.45
Q14   1   0.3238  0.6321  0.8976  11.00000  0.05    0.43
Q15   1   0.1602  0.1255  0.7961  11.00000  0.05    0.39
Q16   1   0.7449 -0.0219  0.7842  11.00000  0.05    0.39
Q17   1   0.0010  0.4630  0.7365  11.00000  0.05    0.39
Q18   1   0.2336  0.0266  0.7757  11.00000  0.05    0.38
Q19   1   0.0779  0.3912  0.7179  11.00000  0.05    0.37
Q20   1   0.3782  0.5944  0.7529  11.00000  0.05    0.37

  REM The information below was added by Olex2.
  REM
  REM R1 = 0.0387 for 2697 Fo > 4sig(Fo) and 0.0414 for all 11691 data
  REM n/a parameters refined using n/a restraints
  REM Highest difference peak 1.27, deepest hole -1.02
  REM Mean Shift 0, Max Shift 0.001.

  REM +++ Tabular Listing of Refinement Information +++
  REM R1_all = 0.0414
  REM R1_gt = 0.0387
  REM wR_ref = 0.0911
  REM GOOF = 1.050
  REM Shift_max = 0.001
  REM Shift_mean = 0
  REM Reflections_all = 11691
  REM Reflections_gt = 2697
  REM Parameters = n/a
  REM Hole = -1.02
  REM Peak = 1.27
  REM Flack = n/a

  
;
_cod_data_source_file            d2cc02047e2.cif
_cod_data_source_block           I-Me_35M-BA
_cod_database_code               7130414
_shelx_shelxl_version_number     2014/7
_shelx_space_group_comment
;
The symmetry employed for this shelxl refinement is uniquely defined
by the following loop, which should always be used as a source of
symmetry information in preference to the above space-group names.
They are only intended as comments.
;
_shelx_estimated_absorpt_t_max   0.436
_shelx_estimated_absorpt_t_min   0.283
_olex2_refinement_description
;
1. Fixed Uiso
 At 1.2 times of:
  All C(H) groups
 At 1.5 times of:
  All C(H,H,H) groups
2. Restrained distances
 N8-H8
 0.88 with sigma of 0.04
 O20-H20
 0.82 with sigma of 0.04
3.a Aromatic/amide H refined with riding coordinates:
 C3(H3), C5(H5), C6(H6), C13(H13), C15(H15), C17(H17)
3.b Idealised Me refined as rotating group:
 C11(H11A,H11B,H11C), C21(H21A,H21B,H21C), C22(H22A,H22B,H22C)
;
_olex2_submission_special_instructions 'No special instructions were received'
loop_
_space_group_symop_operation_xyz
'x, y, z'
'-x, -y, -z'
loop_
_atom_site_label
_atom_site_type_symbol
_atom_site_fract_x
_atom_site_fract_y
_atom_site_fract_z
_atom_site_U_iso_or_equiv
_atom_site_adp_type
_atom_site_occupancy
_atom_site_site_symmetry_order
_atom_site_calc_flag
_atom_site_refinement_flags_posn
_atom_site_refinement_flags_adp
_atom_site_refinement_flags_occupancy
_atom_site_disorder_assembly
_atom_site_disorder_group
C1 C 0.6450(5) 0.2261(4) 0.7628(3) 0.0177(6) Uani 1 1 d . . . . .
N2 N 0.7263(4) 0.2231(3) 0.6549(3) 0.0213(6) Uani 1 1 d . . . . .
C3 C 0.7878(5) 0.0996(4) 0.6358(3) 0.0232(7) Uani 1 1 d . . . . .
H3 H 0.8459 0.0979 0.5596 0.028 Uiso 1 1 calc R . . . .
C4 C 0.7701(5) -0.0260(4) 0.7230(3) 0.0205(7) Uani 1 1 d . . . . .
C5 C 0.6911(5) -0.0238(4) 0.8359(3) 0.0219(7) Uani 1 1 d . . . . .
H5 H 0.6801 -0.1086 0.8979 0.026 Uiso 1 1 calc R . . . .
C6 C 0.6288(5) 0.1031(4) 0.8567(3) 0.0211(7) Uani 1 1 d . . . . .
H6 H 0.5760 0.1068 0.9336 0.025 Uiso 1 1 calc R . . . .
I7 I 0.85946(4) -0.21165(2) 0.68039(2) 0.03361(16) Uani 1 1 d . . . . .
H8 H 0.579(7) 0.428(4) 0.705(3) 0.026(11) Uiso 1 1 d D . . . .
N8 N 0.5822(4) 0.3609(3) 0.7697(3) 0.0206(6) Uani 1 1 d D . . . .
C9 C 0.4759(5) 0.4019(4) 0.8612(3) 0.0220(7) Uani 1 1 d . . . . .
O10 O 0.4374(4) 0.3194(3) 0.9574(2) 0.0322(6) Uani 1 1 d . . . . .
C11 C 0.4139(7) 0.5594(4) 0.8320(4) 0.0336(9) Uani 1 1 d . . . . .
H11A H 0.2767 0.5896 0.8366 0.050 Uiso 1 1 calc GR . . . .
H11B H 0.4588 0.6056 0.7500 0.050 Uiso 1 1 calc GR . . . .
H11C H 0.4660 0.5855 0.8904 0.050 Uiso 1 1 calc GR . . . .
C12 C 0.2029(5) 0.3319(4) 0.6407(3) 0.0210(7) Uani 1 1 d . . . . .
C13 C 0.1054(5) 0.3646(4) 0.7396(3) 0.0235(7) Uani 1 1 d . . . . .
H13 H 0.0662 0.4598 0.7371 0.028 Uiso 1 1 calc R . . . .
C14 C 0.0649(5) 0.2593(4) 0.8420(3) 0.0251(7) Uani 1 1 d . . . . .
C15 C 0.1239(5) 0.1215(4) 0.8423(3) 0.0279(8) Uani 1 1 d . . . . .
H15 H 0.0961 0.0488 0.9119 0.033 Uiso 1 1 calc R . . . .
C16 C 0.2228(5) 0.0853(4) 0.7441(4) 0.0253(7) Uani 1 1 d . . . . .
C17 C 0.2626(5) 0.1925(4) 0.6429(3) 0.0228(7) Uani 1 1 d . . . . .
H17 H 0.3303 0.1710 0.5753 0.027 Uiso 1 1 calc R . . . .
C18 C 0.2496(5) 0.4441(4) 0.5308(3) 0.0232(7) Uani 1 1 d . . . . .
O19 O 0.3374(5) 0.4198(3) 0.4432(3) 0.0387(7) Uani 1 1 d . . . . .
H20 H 0.218(9) 0.629(6) 0.478(4) 0.050(17) Uiso 1 1 d D . . . .
O20 O 0.1880(5) 0.5715(3) 0.5383(3) 0.0352(7) Uani 1 1 d D . . . .
C21 C -0.0388(7) 0.2959(5) 0.9492(4) 0.0372(9) Uani 1 1 d . . . . .
H21A H 0.0479 0.3120 0.9956 0.056 Uiso 1 1 calc GR . . . .
H21B H -0.0913 0.2182 1.0011 0.056 Uiso 1 1 calc GR . . . .
H21C H -0.1405 0.3814 0.9207 0.056 Uiso 1 1 calc GR . . . .
C22 C 0.2857(6) -0.0655(4) 0.7477(5) 0.0374(9) Uani 1 1 d . . . . .
H22A H 0.1757 -0.1009 0.7516 0.056 Uiso 1 1 calc GR . . . .
H22B H 0.3608 -0.1226 0.8194 0.056 Uiso 1 1 calc GR . . . .
H22C H 0.3616 -0.0710 0.6745 0.056 Uiso 1 1 calc GR . . . .
loop_
_atom_site_aniso_label
_atom_site_aniso_U_11
_atom_site_aniso_U_22
_atom_site_aniso_U_33
_atom_site_aniso_U_23
_atom_site_aniso_U_13
_atom_site_aniso_U_12
C1 0.0188(16) 0.0181(16) 0.0184(15) -0.0091(13) -0.0011(12) -0.0040(13)
N2 0.0270(15) 0.0183(14) 0.0190(14) -0.0071(11) 0.0028(12) -0.0063(12)
C3 0.0306(19) 0.0202(17) 0.0199(16) -0.0095(13) 0.0067(14) -0.0078(14)
C4 0.0244(17) 0.0158(15) 0.0249(17) -0.0104(13) -0.0026(13) -0.0052(13)
C5 0.0255(17) 0.0177(16) 0.0233(16) -0.0060(13) -0.0003(14) -0.0081(14)
C6 0.0244(17) 0.0221(17) 0.0193(15) -0.0085(13) 0.0020(13) -0.0087(14)
I7 0.0491(2) 0.01920(18) 0.03726(19) -0.01693(11) 0.00202(11) -0.00770(12)
N8 0.0265(15) 0.0157(14) 0.0199(14) -0.0066(11) 0.0030(12) -0.0067(12)
C9 0.0265(18) 0.0212(17) 0.0224(17) -0.0116(14) 0.0026(14) -0.0085(14)
O10 0.0451(17) 0.0292(14) 0.0257(13) -0.0137(11) 0.0101(12) -0.0140(13)
C11 0.048(2) 0.0237(19) 0.0306(19) -0.0160(16) 0.0051(18) -0.0056(17)
C12 0.0217(17) 0.0203(17) 0.0207(16) -0.0041(13) -0.0039(13) -0.0069(14)
C13 0.0258(18) 0.0213(17) 0.0239(17) -0.0070(14) -0.0038(14) -0.0062(14)
C14 0.0231(17) 0.0308(19) 0.0209(17) -0.0068(14) -0.0021(14) -0.0075(15)
C15 0.0252(18) 0.0285(19) 0.0235(18) 0.0036(14) -0.0025(14) -0.0119(15)
C16 0.0229(17) 0.0196(17) 0.0334(19) -0.0042(14) -0.0079(15) -0.0086(14)
C17 0.0252(17) 0.0213(17) 0.0233(16) -0.0071(13) -0.0054(14) -0.0066(14)
C18 0.0283(18) 0.0194(17) 0.0222(17) -0.0080(14) -0.0005(14) -0.0055(14)
O19 0.063(2) 0.0223(13) 0.0255(14) -0.0072(11) 0.0149(14) -0.0111(14)
O20 0.0565(19) 0.0170(13) 0.0273(14) -0.0061(11) 0.0148(13) -0.0106(13)
C21 0.040(2) 0.044(2) 0.0241(19) -0.0079(17) 0.0062(17) -0.011(2)
C22 0.040(2) 0.0187(18) 0.052(3) -0.0070(17) -0.0009(19) -0.0121(17)
loop_
_atom_type_symbol
_atom_type_description
_atom_type_scat_dispersion_real
_atom_type_scat_dispersion_imag
_atom_type_scat_source
C C 0.0181 0.0091 'International Tables Vol C Tables 4.2.6.8 and 6.1.1.4'
H H 0.0000 0.0000 'International Tables Vol C Tables 4.2.6.8 and 6.1.1.4'
I I -0.3257 6.8362 'International Tables Vol C Tables 4.2.6.8 and 6.1.1.4'
N N 0.0311 0.0180 'International Tables Vol C Tables 4.2.6.8 and 6.1.1.4'
O O 0.0492 0.0322 'International Tables Vol C Tables 4.2.6.8 and 6.1.1.4'
loop_
_geom_angle_atom_site_label_1
_geom_angle_atom_site_label_2
_geom_angle_atom_site_label_3
_geom_angle
_geom_angle_site_symmetry_1
_geom_angle_site_symmetry_3
_geom_angle_publ_flag
N2 C1 C6 121.7(3) . . ?
N2 C1 N8 113.3(3) . . ?
N8 C1 C6 124.9(3) . . ?
C3 N2 C1 119.0(3) . . ?
N2 C3 H3 118.8 . . ?
N2 C3 C4 122.5(3) . . ?
C4 C3 H3 118.8 . . ?
C3 C4 C5 118.6(3) . . ?
C3 C4 I7 119.3(2) . . ?
C5 C4 I7 122.1(3) . . ?
C4 C5 H5 120.4 . . ?
C6 C5 C4 119.2(3) . . ?
C6 C5 H5 120.4 . . ?
C1 C6 H6 120.6 . . ?
C5 C6 C1 118.8(3) . . ?
C5 C6 H6 120.6 . . ?
C1 N8 H8 117(3) . . ?
C9 N8 C1 127.9(3) . . ?
C9 N8 H8 112(3) . . ?
N8 C9 C11 113.5(3) . . ?
O10 C9 N8 123.5(3) . . ?
O10 C9 C11 122.9(3) . . ?
C9 C11 H11A 109.5 . . ?
C9 C11 H11B 109.5 . . ?
C9 C11 H11C 109.5 . . ?
H11A C11 H11B 109.5 . . ?
H11A C11 H11C 109.5 . . ?
H11B C11 H11C 109.5 . . ?
C13 C12 C17 120.6(3) . . ?
C13 C12 C18 121.0(3) . . ?
C17 C12 C18 118.4(3) . . ?
C12 C13 H13 119.7 . . ?
C12 C13 C14 120.5(3) . . ?
C14 C13 H13 119.7 . . ?
C13 C14 C21 120.0(4) . . ?
C15 C14 C13 118.2(3) . . ?
C15 C14 C21 121.8(3) . . ?
C14 C15 H15 118.7 . . ?
C14 C15 C16 122.6(3) . . ?
C16 C15 H15 118.7 . . ?
C15 C16 C22 121.2(4) . . ?
C17 C16 C15 118.2(3) . . ?
C17 C16 C22 120.6(4) . . ?
C12 C17 H17 120.0 . . ?
C16 C17 C12 120.0(3) . . ?
C16 C17 H17 120.0 . . ?
O19 C18 C12 123.1(3) . . ?
O19 C18 O20 123.3(3) . . ?
O20 C18 C12 113.6(3) . . ?
C18 O20 H20 111(5) . . ?
C14 C21 H21A 109.5 . . ?
C14 C21 H21B 109.5 . . ?
C14 C21 H21C 109.5 . . ?
H21A C21 H21B 109.5 . . ?
H21A C21 H21C 109.5 . . ?
H21B C21 H21C 109.5 . . ?
C16 C22 H22A 109.5 . . ?
C16 C22 H22B 109.5 . . ?
C16 C22 H22C 109.5 . . ?
H22A C22 H22B 109.5 . . ?
H22A C22 H22C 109.5 . . ?
H22B C22 H22C 109.5 . . ?
loop_
_geom_bond_atom_site_label_1
_geom_bond_atom_site_label_2
_geom_bond_distance
_geom_bond_site_symmetry_2
_geom_bond_publ_flag
C1 N2 1.344(5) . ?
C1 C6 1.399(5) . ?
C1 N8 1.388(4) . ?
N2 C3 1.337(5) . ?
C3 H3 0.9500 . ?
C3 C4 1.387(5) . ?
C4 C5 1.391(5) . ?
C4 I7 2.090(3) . ?
C5 H5 0.9500 . ?
C5 C6 1.381(5) . ?
C6 H6 0.9500 . ?
N8 H8 0.83(3) . ?
N8 C9 1.376(5) . ?
C9 O10 1.219(5) . ?
C9 C11 1.509(5) . ?
C11 H11A 0.9800 . ?
C11 H11B 0.9800 . ?
C11 H11C 0.9800 . ?
C12 C13 1.389(5) . ?
C12 C17 1.397(5) . ?
C12 C18 1.493(5) . ?
C13 H13 0.9500 . ?
C13 C14 1.389(5) . ?
C14 C15 1.388(6) . ?
C14 C21 1.506(6) . ?
C15 H15 0.9500 . ?
C15 C16 1.402(6) . ?
C16 C17 1.389(5) . ?
C16 C22 1.507(5) . ?
C17 H17 0.9500 . ?
C18 O19 1.216(5) . ?
C18 O20 1.317(5) . ?
O20 H20 0.81(4) . ?
C21 H21A 0.9800 . ?
C21 H21B 0.9800 . ?
C21 H21C 0.9800 . ?
C22 H22A 0.9800 . ?
C22 H22B 0.9800 . ?
C22 H22C 0.9800 . ?
loop_
_geom_hbond_atom_site_label_D
_geom_hbond_atom_site_label_H
_geom_hbond_atom_site_label_A
_geom_hbond_distance_DH
_geom_hbond_distance_HA
_geom_hbond_distance_DA
_geom_hbond_angle_DHA
_geom_hbond_site_symmetry_A
N8 H8 O19 0.83(3) 2.08(4) 2.879(4) 161(5) 2_666
O20 H20 N2 0.81(4) 1.87(4) 2.683(4) 174(7) 2_666
loop_
_refln_index_h
_refln_index_k
_refln_index_l
_refln_F_squared_meas
_refln_F_squared_sigma
-1 0 0 274.87 38.7
1 0 0 261.87 38.4
-2 0 0 809.62 97.19
2 0 0 701.73 92.09
2 0 0 813.12 38.4
3 0 0 766.32 43.8
3 0 0 947.81 103.29
-4 0 0 338.67 64.79
-4 0 0 488.15 23.7
4 0 0 472.45 32.4
4 0 0 420.36 84.69
-5 0 0 5.4 28.7
-5 0 0 10.3 4.2
5 0 0 11.3 7.3
-6 0 0 8.8 4
-6 0 0 -16.2 37.8
-6 0 0 10.4 5.4
6 0 0 11.1 4.3
6 0 0 10 3.7
-7 0 0 102.79 11.6
-7 0 0 74.89 11.1
-8 0 0 31.1 5.9
-8 1 0 14 4.3
-8 1 0 20.3 4.6
7 -1 0 -1.5 2.4
-7 1 0 -2.3 4.4
-7 1 0 3.4 3.9
6 -1 0 198.68 13.4
-6 1 0 234.58 82.99
-6 1 0 184.18 14.5
-6 1 0 167.28 15.7
5 -1 0 369.76 32
-5 1 0 399.36 23.6
-5 1 0 348.17 86.49
4 -1 0 152.08 55.69
4 -1 0 170.98 18.1
-4 1 0 127.19 46.2
-4 1 0 191.78 12.8
3 -1 0 243.18 54.99
3 -1 0 214.68 17.8
-3 1 0 165.68 46.8
2 -1 0 686.03 35.2
2 -1 0 671.33 97.69
1 -1 0 1982.1 136.89
-1 1 0 1831.12 137.59
0 -1 0 33.9 9.7
0 -1 0 27 12.9
0 1 0 26.4 3.2
-1 -1 0 425.46 39.2
1 1 0 523.65 48.1
1 1 0 424.66 19.6
-2 -1 0 4387.46 263.17
2 1 0 4943.41 186.88
-3 -1 0 238.78 44.6
3 1 0 316.57 22.5
3 1 0 372.56 64.59
-4 -1 0 23.7 24.2
-4 -1 0 57.49 6
4 1 0 47.6 35.6
4 1 0 58.09 12.2
4 1 0 56.09 7.5
-5 -1 0 158.28 12.3
-5 -1 0 145.09 54.39
-5 -1 0 129.19 68.09
5 1 0 180.78 21.8
-6 -1 0 376.36 23
-6 -1 0 406.96 21.8
6 1 0 371.46 19.1
6 1 0 335.87 17.2
-7 -1 0 18.1 5.8
-7 -1 0 10.7 4.5
7 1 0 14.1 4.1
-8 -1 0 -3.3 2.8
-8 2 0 0.6 3.5
7 -2 0 126.79 8.9
-7 2 0 79.49 11.4
-7 2 0 117.29 10.9
-7 2 0 110.59 11.9
6 -2 0 136.89 11.2
-6 2 0 93.79 13.2
-6 2 0 140.79 12.5
-6 2 0 182.48 72.49
5 -2 0 1.7 4.3
-5 2 0 0 31.6
-5 2 0 2.4 3.7
4 -2 0 192.08 64.29
4 -2 0 172.88 18.7
-4 2 0 174.28 56.89
-4 2 0 204.88 14.4
3 -2 0 671.03 38.5
3 -2 0 755.82 100.59
-3 2 0 572.74 79.29
2 -2 0 277.67 69.49
2 -2 0 261.67 18.3
-2 2 0 183.48 46.5
1 -2 0 342.77 21
1 -2 0 426.76 65.19
0 -2 0 1175.98 97.99
0 -2 0 1305.47 88.49
1 2 0 1699.03 74.39
1 2 0 1724.83 75.19
1 2 0 1870.11 122.59
-2 -2 0 1122.29 94.19
2 2 0 1074.99 52.99
2 2 0 1333.07 115.29
2 2 0 1139.39 49.5
3 2 0 220.58 18.1
3 2 0 239.88 56.69
-4 -2 0 1051.49 46.3
4 2 0 902.71 131.39
4 2 0 1102.19 48.6
4 2 0 1026.3 57.29
-5 -2 0 208.48 63.59
-5 -2 0 271.47 16.7
5 2 0 276.07 18.1
5 2 0 274.87 27.9
5 2 0 260.47 16.9
-6 -2 0 0.2 3.1
-6 -2 0 8.7 53.39
6 2 0 -2.1 6.5
6 2 0 4 3.9
6 2 0 0.2 3.2
6 2 0 -0.1 2.8
-7 -2 0 86.29 11.4
-7 -2 0 90.49 10.7
7 2 0 88.79 10.4
7 2 0 86.99 8
-8 -2 0 110.99 10.1
8 2 0 129.19 8.7
7 -3 0 40.4 5.5
-7 3 0 31.3 5.4
-7 3 0 21.1 5.4
6 -3 0 3.9 3.6
-6 3 0 3.5 5.1
-6 3 0 3.2 4.5
-6 3 0 2.3 4.4
-5 3 0 374.56 97.49
-5 3 0 281.07 18.9
-5 3 0 258.17 18.5
-5 3 0 279.07 21
-5 3 0 276.77 17.3
-4 3 0 844.72 42
-4 3 0 772.42 110.29
3 -3 0 4 7.3
3 -3 0 6.6 19.4
-3 3 0 3.1 2.7
-3 3 0 5.9 3.3
-3 3 0 0.6 23.5
2 -3 0 142.69 57.59
2 -3 0 125.09 12.9
-2 3 0 85.99 37.7
1 -3 0 1308.07 134.29
1 -3 0 1127.79 54.19
-1 3 0 988.6 91.59
0 -3 0 292.87 17.5
0 -3 0 289.17 54.99
0 -3 0 313.87 48.6
-1 -3 0 12.2 16
1 3 0 15.2 4.7
-2 -3 0 1740.53 106.59
2 3 0 1596.94 72.49
2 3 0 1708.63 75.29
2 3 0 1603.24 145.69
-3 -3 0 1389.06 100.99
3 3 0 1070.09 134.19
3 3 0 1115.39 58.19
4 3 0 6.6 3.3
4 3 0 3.9 19.4
4 3 0 4.3 5.2
-5 -3 0 67.49 8.3
5 3 0 85.09 10.6
5 3 0 76.79 9.6
5 3 0 64.29 15.8
-6 -3 0 208.28 15.3
-6 -3 0 221.38 111.79
6 3 0 215.78 16.9
6 3 0 236.48 16.9
6 3 0 197.98 15.2
-7 -3 0 82.99 11.4
-7 -3 0 80.99 10
7 3 0 66.29 10.1
7 3 0 76.89 7.7
7 3 0 83.59 8.5
7 3 0 76.49 9.9
-8 -3 0 -1.9 3
8 3 0 -0.6 3.3
8 3 0 -0.3 2.5
7 -4 0 43.4 5
6 -4 0 171.38 12.4
-6 4 0 210.18 24.3
-6 4 0 175.08 12.3
-6 4 0 150.98 16.2
-5 4 0 48.3 11
-5 4 0 46.2 7.6
-5 4 0 55.39 8.8
-5 4 0 52.19 51.99
-4 4 0 35.9 8.3
-4 4 0 48.8 7.6
-4 4 0 53.09 7.7
-4 4 0 74.09 48.5
3 -4 0 140.19 13.9
-3 4 0 162.78 61.39
-3 4 0 135.19 11.4
-3 4 0 163.68 13.1
-2 4 0 612.14 29.4
-2 4 0 520.55 80.29
1 -4 0 3.5 16.3
-1 4 0 2.2 2.5
-1 4 0 5.3 23.2
0 -4 0 113.29 46.7
0 -4 0 97.09 34
0 4 0 95.79 31.8
-1 -4 0 1786.82 105.49
-1 -4 0 1501.15 144.79
1 4 0 1439.46 72.59
2 4 0 276.87 19.9
3 4 0 31.4 35.6
3 4 0 31.8 8.5
4 4 0 59.29 13.6
4 4 0 37.6 6.1
4 4 0 39.3 42.9
-5 -4 0 563.34 28.2
5 4 0 523.05 29.6
5 4 0 561.84 43.5
5 4 0 547.75 29.7
-6 -4 0 71.49 9.6
6 4 0 58.09 8.4
6 4 0 63.69 6.7
6 4 0 60.09 10.3
6 4 0 65.89 10.2
-7 -4 0 18.3 5.7
7 4 0 22.8 4.8
7 4 0 25.3 6.3
7 4 0 27.3 7.2
7 4 0 28.6 4.9
-8 -4 0 94.59 8.8
8 4 0 67.39 7
8 4 0 80.89 9.3
8 4 0 83.29 7.4
6 -5 0 22 4.6
-6 5 0 15.1 3.9
-5 5 0 111.29 15.4
-5 5 0 120.79 9
-5 5 0 132.79 13
-4 5 0 255.87 74.69
-4 5 0 281.17 18.1
-4 5 0 248.28 16.7
-4 5 0 235.68 14.4
-4 5 0 209.78 19.1
3 -5 0 178.88 17
-3 5 0 191.18 14.8
-3 5 0 165.18 15
-3 5 0 191.88 14.6
-3 5 0 163.08 60.79
2 -5 0 6.5 4.8
-2 5 0 9.4 26.9
-2 5 0 5.7 4
-2 5 0 4.4 3.6
-1 5 0 222.58 62.19
-1 5 0 260.37 16.2
0 5 0 1054.59 98.49
0 5 0 1019.1 46.7
-1 -5 0 60.69 40.3
1 5 0 89.59 32.7
1 5 0 72.79 7
-2 -5 0 431.66 89.19
3 5 0 573.04 37
4 5 0 355.36 21.1
4 5 0 338.57 20.5
4 5 0 367.36 30.3
-5 -5 0 67.39 8.4
5 5 0 79.99 18.6
5 5 0 64.69 9.4
5 5 0 76.59 10.9
5 5 0 69.99 8.5
-6 -5 0 115.49 11
6 5 0 139.49 13.9
6 5 0 117.39 12.9
6 5 0 140.79 11.9
6 5 0 133.79 8.7
-7 -5 0 157.08 13.4
7 5 0 170.38 11
7 5 0 179.48 14.5
7 5 0 176.58 16.1
-8 -5 0 14.4 4.3
8 5 0 28.9 5
8 5 0 23.6 5.5
8 5 0 26.6 4.5
-6 6 0 63.69 8.2
-5 6 0 142.29 11.4
-4 6 0 27.9 6.7
-4 6 0 28 6.7
3 -6 0 86.09 13.6
-3 6 0 109.59 57.69
-3 6 0 85.59 11.2
-3 6 0 107.79 11.1
-3 6 0 127.79 12.8
-3 6 0 81.19 10
2 -6 0 856.81 49.2
-2 6 0 989.6 46.8
-2 6 0 910.31 44
-2 6 0 1014.6 126.09
-2 6 0 910.61 45.7
-1 6 0 404.56 23.9
-1 6 0 388.36 74.09
0 6 0 251.27 62.79
0 6 0 233.18 15.9
1 6 0 610.64 30.2
1 6 0 549.05 69.29
4 6 0 150.88 12.9
5 6 0 381.76 24.8
5 6 0 391.06 22.4
6 6 0 41.8 5
6 6 0 38.2 9.3
6 6 0 33.4 6.6
7 6 0 2.3 5.5
7 6 0 7.5 4.6
7 6 0 4.6 2.7
-8 -6 0 39.9 5.7
8 6 0 34.7 5.1
8 6 0 44.7 5.5
8 6 0 35.2 6.4
-5 7 0 10 3.4
4 -7 0 98.29 12
-4 7 0 144.09 11.7
-4 7 0 127.99 11.3
3 -7 0 110.59 15.8
-3 7 0 159.88 12.8
-3 7 0 139.69 12.6
-3 7 0 155.98 14.4
-3 7 0 87.69 48.9
-3 7 0 160.88 11.6
-3 7 0 167.58 14.3
-3 7 0 156.88 19.5
2 -7 0 23.6 8.9
-2 7 0 42.4 8.2
-2 7 0 27.1 7.3
-2 7 0 14.3 34.3
-2 7 0 27.6 7.4
-2 7 0 41.1 7.2
-2 7 0 28.1 5.6
-2 7 0 26.7 6.3
-2 7 0 28.7 5.9
1 -7 0 28.8 9.6
-1 7 0 2 26.7
-1 7 0 22.2 6
-1 7 0 33.1 7.1
-1 7 0 36.4 7.4
-1 7 0 28.6 7.5
-1 7 0 31.4 7.5
0 7 0 670.13 88.79
0 7 0 672.13 33.8
0 7 0 659.43 35.8
1 7 0 686.83 35.8
5 7 0 36.7 6.6
5 7 0 31.1 7.5
6 7 0 33.5 4.3
6 7 0 32.1 8.5
6 7 0 24.8 6.3
7 7 0 127.09 15.3
7 7 0 82.49 10
7 7 0 107.49 7.7
8 7 0 56.39 5
8 7 0 35.3 7.9
4 -8 0 36.8 6.7
-4 8 0 42.9 6.2
-4 8 0 55.89 6.7
-3 8 0 11.3 5
-3 8 0 2.7 5
-3 8 0 2.9 4
-3 8 0 2.5 3
-3 8 0 3.4 3.8
2 -8 0 344.67 27.2
-2 8 0 322.87 20.2
-2 8 0 381.36 23.9
-2 8 0 318.87 21.7
-2 8 0 377.56 20.7
-2 8 0 369.96 24.3
-2 8 0 368.36 21.1
-2 8 0 366.36 22.4
1 -8 0 162.98 20.8
-1 8 0 165.38 15.4
-1 8 0 185.18 14.8
-1 8 0 174.78 13.6
-1 8 0 198.48 15.3
-1 8 0 203.78 13.5
-1 8 0 186.98 13.8
-1 8 0 177.68 16.7
0 8 0 140.99 13.6
0 8 0 156.88 13
0 8 0 141.89 11.6
0 8 0 155.08 11.3
0 8 0 158.38 12.1
0 8 0 146.59 14.7
0 8 0 172.08 13.6
1 8 0 84.49 10.3
1 8 0 104.09 10.1
1 8 0 92.79 12.5
1 8 0 83.99 11.3
1 8 0 80.89 9.9
1 8 0 108.59 9.4
2 8 0 1269.37 57.99
6 8 0 139.19 8.5
6 8 0 149.69 17
6 8 0 135.29 12.7
7 8 0 34.2 6.6
7 8 0 38 4.4
3 -9 0 185.88 14.9
-3 9 0 217.18 13.7
-3 9 0 232.98 14.6
-3 9 0 251.37 14.1
-3 9 0 235.68 12.4
-2 9 0 165.88 11.7
-2 9 0 156.28 13.5
-2 9 0 139.49 12.5
-2 9 0 171.18 12
-2 9 0 147.79 12.6
-2 9 0 133.59 11
1 -9 0 0.6 7.5
-1 9 0 0.4 5.8
-1 9 0 1.5 4.5
-1 9 0 4.4 3.6
-1 9 0 1 4
-1 9 0 3.8 3.6
-1 9 0 4.4 4.8
-1 9 0 2.4 3.7
0 9 0 743.73 36.6
0 9 0 650.33 38.9
0 9 0 725.93 36.8
0 9 0 683.73 34.8
0 9 0 707.73 35
0 9 0 746.03 34.4
0 9 0 673.83 37.8
-1 -9 0 268.97 24.6
1 9 0 253.77 16.5
1 9 0 241.48 16.2
1 9 0 272.17 17.5
1 9 0 249.28 19.2
1 9 0 263.77 20.4
1 9 0 265.97 16
1 9 0 265.87 18.1
2 9 0 21.1 5.4
7 9 0 37.6 3.4
-2 10 0 25.5 5.3
-2 10 0 47.7 9.4
-2 10 0 30.6 4.4
-2 10 0 52.19 6.7
-2 10 0 32.6 5
-2 10 0 32.5 4.4
-1 10 0 278.47 17.3
-1 10 0 292.37 16.7
-1 10 0 290.57 16.6
-1 10 0 279.77 17.7
-1 10 0 280.57 18.5
-1 10 0 305.17 16.6
0 10 0 216.98 14.4
0 10 0 208.38 14.8
0 10 0 208.88 16.2
0 10 0 216.68 15.3
0 10 0 220.78 14.5
0 10 0 228.28 13.8
1 10 0 17.8 4.6
1 10 0 18.4 5.1
1 10 0 7 4.2
1 10 0 13.9 8.6
1 10 0 5.4 3.7
2 10 0 171.08 12
2 10 0 163.58 12.9
-1 11 0 78.19 6.2
-1 11 0 91.69 10
-1 11 0 73.69 5.8
0 11 0 50.49 5.8
0 11 0 56.59 6.4
0 11 0 35.5 5
0 11 0 52.59 9.4
0 11 0 57.99 6.9
0 11 0 61.69 7.6
1 11 0 238.28 14.4
1 11 0 248.68 14
1 11 0 246.88 14.9
1 11 0 238.18 13.7
1 11 -1 46.8 5.6
1 11 -1 53.69 6
1 11 -1 50.69 5.9
0 11 -1 171.18 10
0 11 -1 165.48 10.2
0 11 -1 173.28 11.8
1 10 -1 237.38 17.9
1 10 -1 258.47 16.1
1 10 -1 273.77 16.8
1 10 -1 252.17 15.8
1 10 -1 266.97 15.9
0 10 -1 47.4 7.9
0 10 -1 52.69 6.9
0 10 -1 54.29 7
0 10 -1 42.3 6.7
0 10 -1 57.89 7.3
-1 10 -1 94.69 8.1
-1 10 -1 80.89 9
-1 10 -1 96.59 10
-1 10 -1 77.09 9.4
-1 10 -1 87.89 7.7
-1 10 -1 75.19 7.8
-2 10 -1 165.68 9.5
-2 10 -1 152.48 10.3
-2 10 -1 134.69 10.8
-2 10 -1 159.58 9.2
1 9 -1 16.8 4.7
1 9 -1 20.7 6.5
1 9 -1 22.6 5.3
1 9 -1 14.6 7.2
1 9 -1 18.3 5.6
1 9 -1 21.2 6.3
0 9 -1 377.36 25.5
0 9 -1 344.77 20.8
0 9 -1 356.86 19.9
0 9 -1 379.56 22.3
0 9 -1 388.76 22.9
0 9 -1 350.26 20.9
0 9 -1 336.77 23.5
0 -9 1 331.37 28
-1 9 -1 414.56 26.2
-1 9 -1 419.86 25.2
-1 9 -1 456.15 23.3
-1 9 -1 428.26 23.7
-1 9 -1 425.46 25
-1 9 -1 471.15 24.4
-2 9 -1 29.4 5.3
-2 9 -1 22.9 6
-2 9 -1 24.5 5.8
-2 9 -1 26.2 5.5
-2 9 -1 24.9 5.9
-2 9 -1 19.7 4.3
-3 9 -1 77.99 7.2
-3 9 -1 66.39 7
-3 9 -1 67.99 7.2
-3 9 -1 69.49 5.6
7 8 -1 94.79 6.3
7 8 -1 75.29 10.2
6 8 -1 5.8 6.5
6 8 -1 8.2 2.4
2 8 -1 1120.39 63.39
1 8 -1 288.97 21
1 8 -1 289.87 18.6
1 8 -1 270.67 17.2
1 8 -1 275.97 18.1
1 8 -1 293.57 20.4
1 8 -1 256.87 17
0 8 -1 10.9 3.1
0 8 -1 14.3 4.6
0 8 -1 9.9 5.1
0 8 -1 11.4 4.7
0 8 -1 14.7 4.8
0 8 -1 10.7 7
0 8 -1 11.7 4.1
0 8 -1 18.7 6
-1 8 -1 6.2 3.6
-1 8 -1 3.4 4.2
-1 8 -1 3.4 3.6
-1 8 -1 9 4.2
-1 8 -1 9 33.6
-1 8 -1 7.7 5.3
-1 8 -1 11.7 6.3
-1 8 -1 5.3 4.7
1 -8 1 5.8 7.7
-2 8 -1 97.59 10
-2 8 -1 115.29 11.5
-2 8 -1 69.89 10.1
-2 8 -1 77.09 9.4
-2 8 -1 100.09 11.8
-2 8 -1 83.79 10.3
-2 8 -1 77.99 11.1
2 -8 1 49.6 12
-3 8 -1 327.17 20.6
-3 8 -1 357.56 18.7
-3 8 -1 370.16 21.3
-3 8 -1 349.07 20.2
-3 8 -1 327.97 20.4
-4 8 -1 45.1 5.8
-4 8 -1 41.5 5.8
4 -8 1 33.1 5.8
8 7 -1 8.2 2.3
7 7 -1 24.2 5.9
7 7 -1 13.6 6.9
7 7 -1 22 3.9
6 7 -1 129.09 12.5
6 7 -1 163.98 18.3
6 7 -1 137.59 8.6
5 7 -1 114.89 14.3
2 7 -1 141.19 12.6
1 7 -1 13.4 21.7
1 7 -1 29.2 6
1 7 -1 29.5 7.3
1 7 -1 29.2 6.8
0 7 -1 391.66 25
0 7 -1 423.86 23.7
0 7 -1 371.56 85.19
0 7 -1 433.16 26
-1 7 -1 390.36 24.9
-1 7 -1 413.26 23.9
-1 7 -1 367.76 21.7
-1 7 -1 375.16 21.7
-1 7 -1 413.06 23.9
-1 7 -1 408.66 83.49
-1 7 -1 433.86 26.5
-2 7 -1 65.19 8.5
-2 7 -1 68.89 10.3
-2 7 -1 70.79 10.1
-2 7 -1 51.69 42
-2 7 -1 68.09 8.8
-2 7 -1 83.99 9.5
-2 7 -1 85.89 11.5
-2 7 -1 92.69 11.7
2 -7 1 68.59 13.4
-3 7 -1 37.4 7.6
-3 7 -1 33.4 7.1
-3 7 -1 42.3 9
-3 7 -1 52.09 7
-3 7 -1 34.9 7.2
-3 7 -1 37.6 7.9
3 -7 1 36.3 10
-4 7 -1 163.38 12.6
-4 7 -1 143.39 12.1
-5 7 -1 183.68 11.6
8 6 -1 16.1 4.5
8 6 -1 28.2 4
8 6 -1 27.6 4.7
7 6 -1 120.29 8.2
7 6 -1 98.29 12.7
7 6 -1 100.79 11.3
6 6 -1 16.5 3.4
6 6 -1 19.2 6.3
6 6 -1 19.7 7.5
5 6 -1 52.49 9.9
5 6 -1 38.6 6.9
4 6 -1 604.34 45.7
4 6 -1 554.44 31.1
2 6 -1 0.3 3
2 6 -1 2.1 15.7
1 6 -1 566.44 74.59
1 6 -1 719.33 34.3
0 6 -1 920.01 41
0 6 -1 621.94 88.09
-1 6 -1 119.99 53.99
-1 6 -1 158.28 13.1
-1 6 -1 140.29 12.8
-2 6 -1 388.26 24.2
-2 6 -1 395.86 24.5
-2 6 -1 407.06 22.7
-2 6 -1 368.56 23.8
-2 6 -1 386.86 95.99
-2 6 -1 356.76 24.8
-3 6 -1 359.06 22.5
-3 6 -1 400.76 24.8
-3 6 -1 398.66 23.5
-3 6 -1 403.76 102.89
-3 6 -1 392.16 22.6
-3 6 -1 417.26 24.7
3 -6 1 330.27 26.8
-4 6 -1 77.09 10.5
-4 6 -1 65.69 9.2
-5 6 -1 4.1 4
8 5 -1 16.8 3.9
8 5 -1 15.8 3.5
8 5 -1 13.6 4.9
7 5 -1 1.8 3.9
7 5 -1 10.7 5.7
7 5 -1 5.2 2.7
6 5 -1 241.68 13.6
6 5 -1 249.78 19.5
6 5 -1 268.67 17.9
5 5 -1 292.67 32.7
5 5 -1 305.87 18.2
5 5 -1 281.07 20
4 5 -1 47.9 7.9
4 5 -1 47.9 13.9
3 5 -1 45.2 12
3 5 -1 56.29 28.6
2 5 -1 568.54 36.8
2 5 -1 485.85 26
2 5 -1 545.85 60.59
1 5 -1 661.63 34.2
1 5 -1 663.83 74.19
-1 -5 1 858.71 47.4
0 5 -1 4.8 17.5
0 5 -1 4 3
-1 5 -1 904.31 40.5
-1 5 -1 689.03 94.29
-2 5 -1 425.66 23.2
-2 5 -1 242.28 70.59
-3 5 -1 186.28 70.69
-3 5 -1 178.08 14.7
-3 5 -1 162.28 14
-3 5 -1 185.98 10
3 -5 1 156.98 16.8
-4 5 -1 40.2 7.1
-4 5 -1 58.29 46.6
-4 5 -1 46.2 5.6
-4 5 -1 40.4 7.6
-5 5 -1 217.98 15.5
-6 5 -1 87.49 8.9
6 -5 1 77.39 8.4
8 4 -1 70.09 7.2
8 4 -1 45.9 7.1
8 4 -1 74.89 7.3
-8 -4 1 65.39 7.5
7 4 -1 84.09 9.2
7 4 -1 96.99 13.1
7 4 -1 100.79 8.2
7 4 -1 85.59 10.3
-7 -4 1 103.39 9.5
6 4 -1 96.49 11.3
6 4 -1 96.69 12.9
6 4 -1 89.99 7.2
6 4 -1 84.09 12.1
-6 -4 1 92.09 11.1
5 4 -1 60.89 8.2
5 4 -1 54.79 9.1
5 4 -1 50.39 8
5 4 -1 47.6 14.9
-5 -4 1 65.69 8.2
4 4 -1 654.73 32.5
4 4 -1 610.84 78.59
4 4 -1 688.93 44.8
4 4 -1 505.05 116.19
-4 -4 1 802.02 96.69
3 4 -1 854.11 51.79
3 4 -1 961.4 79.69
-3 -4 1 1100.99 100.19
2 4 -1 389.66 27.3
2 4 -1 427.86 48
2 4 -1 350.66 24.8
1 4 -1 110.89 33.1
1 4 -1 94.19 12.4
1 4 -1 89.29 11.6
-1 -4 1 98.69 43.8
0 4 -1 1320.07 106.29
0 4 -1 1234.68 58.79
0 -4 1 1455.95 64.79
-1 4 -1 534.05 27.3
-1 4 -1 510.15 71.79
1 -4 1 636.54 40.4
-2 4 -1 200.48 61.19
-2 4 -1 252.47 15.5
-3 4 -1 714.73 102.49
-3 4 -1 724.43 40.7
-3 4 -1 800.52 37.9
3 -4 1 754.42 40.8
-4 4 -1 509.35 31.9
-4 4 -1 566.44 28.2
-4 4 -1 569.44 29.6
-4 4 -1 620.94 104.39
-5 4 -1 26.3 6.1
-5 4 -1 27.5 6.5
-5 4 -1 31.3 41.7
-5 4 -1 26.1 8.4
-6 4 -1 5.3 3.9
-6 4 -1 5.2 3.4
6 -4 1 2.4 3.4
7 -4 1 70.39 5.8
8 3 -1 60.09 8.1
8 3 -1 54.39 6.2
-8 -3 1 75.89 7.5
-8 -3 1 65.19 8.3
7 3 -1 12.7 5.2
7 3 -1 13 4
7 3 -1 14.3 5.4
7 3 -1 20.2 4.6
-7 -3 1 14.1 4.8
-7 -3 1 11.1 5
6 3 -1 54.49 9.2
6 3 -1 44.5 5.7
6 3 -1 41.9 7.3
-6 -3 1 31.8 6.4
5 3 -1 384.96 34.1
5 3 -1 369.06 21.8
5 3 -1 383.96 22
-5 -3 1 337.67 19.7
-5 -3 1 212.48 70.59
4 3 -1 888.11 41.4
4 3 -1 938.91 53.59
4 3 -1 787.52 132.19
-4 -3 1 895.31 101.59
-4 -3 1 905.31 40
3 3 -1 239.58 36.9
3 3 -1 210.08 18.8
3 3 -1 181.98 59.19
-3 -3 1 253.07 46
2 3 -1 2813.02 116.99
2 3 -1 2767.92 120.19
2 3 -1 2588.24 197.08
1 3 -1 1642.44 80.59
1 3 -1 1683.03 79.09
-1 -3 1 1994.7 140.29
0 3 -1 27.3 6.8
0 -3 1 26.3 19.5
0 -3 1 32.5 21.7
0 -3 1 27.2 6.7
-1 3 -1 57.99 29.1
1 -3 1 64.09 11.2
1 -3 1 79.29 26.9
1 -3 1 62.99 38.7
-2 3 -1 1249.38 54.39
-2 3 -1 1042.6 109.09
2 -3 1 1386.36 64.59
-3 3 -1 933.81 42.8
-3 3 -1 873.71 104.59
3 -3 1 871.81 50.79
-4 3 -1 3.3 4
-4 3 -1 21.4 32.6
-5 3 -1 358.16 22
-5 3 -1 350.06 24.7
-5 3 -1 373.96 22.5
-5 3 -1 485.45 94.29
-6 3 -1 176.38 13.5
-6 3 -1 142.59 12
-6 3 -1 150.88 15.6
6 -3 1 151.88 12.4
-7 3 -1 2.5 2.9
7 -3 1 2 2.8
8 2 -1 7.5 3.1
8 2 -1 2.1 3.6
-8 -2 1 -0.8 2.9
-8 -2 1 0 2.6
7 2 -1 220.68 13.7
7 2 -1 235.18 16.7
-7 -2 1 195.68 16.1
-7 -2 1 237.18 15.5
6 2 -1 253.37 16.7
6 2 -1 239.18 13.9
6 2 -1 220.08 16.9
-6 -2 1 211.58 16.1
5 2 -1 26.6 10.6
5 2 -1 23.6 5.4
5 2 -1 21.4 5.9
-5 -2 1 15 29.4
-5 -2 1 22.9 5.5
4 2 -1 282.27 16.3
4 2 -1 211.98 66.29
4 2 -1 287.47 24.2
-4 -2 1 264.87 14.8
-4 -2 1 216.58 58.09
3 2 -1 993.3 75.69
3 2 -1 997.3 119.09
3 2 -1 983.5 52.39
-3 -2 1 1172.98 94.79
2 2 -1 502.85 69.89
2 2 -1 472.55 27.3
2 2 -1 468.25 24
1 2 -1 187.48 34.7
1 2 -1 172.58 13.6
1 2 -1 187.28 12.4
0 2 -1 642.54 31.3
0 2 -1 554.04 31.7
0 -2 1 634.24 59.19
0 -2 1 635.64 31
1 -2 1 1470.85 137.99
1 -2 1 1368.06 65.89
-2 2 -1 168.98 44.3
2 -2 1 225.38 62.99
2 -2 1 251.77 19.4
-3 2 -1 243.58 62.19
3 -2 1 230.48 56.09
3 -2 1 191.38 19.2
-4 2 -1 336.47 20.5
-4 2 -1 270.77 68.69
4 -2 1 361.66 28.7
-5 2 -1 478.75 91.89
-5 2 -1 471.75 28.3
-5 2 -1 479.35 29.5
-6 2 -1 14.9 39.7
-6 2 -1 3.8 5.1
-6 2 -1 3.7 5.6
-6 2 -1 10.4 4.8
-6 2 -1 6.4 4.6
6 -2 1 5.1 4
-7 2 -1 56.89 7.7
-7 2 -1 66.09 8.6
7 -2 1 75.29 7.1
-8 -1 1 26.7 5.4
7 1 -1 82.59 10.2
7 1 -1 75.59 7.8
-7 -1 1 101.99 11.3
-7 -1 1 113.49 13.2
6 1 -1 107.09 11.9
6 1 -1 127.09 9.1
-6 -1 1 109.39 11.8
-6 -1 1 82.09 55.49
-6 -1 1 107.39 11.2
5 1 -1 395.36 22.6
5 1 -1 423.46 34.2
-5 -1 1 397.46 22.3
-5 -1 1 295.97 78.79
4 1 -1 712.23 43.5
4 1 -1 759.42 35.5
4 1 -1 623.84 105.59
-4 -1 1 764.92 34
3 1 -1 119.49 38.8
3 1 -1 112.99 12.3
-3 -1 1 139.09 40.2
2 1 -1 19.7 16.7
2 1 -1 14.7 3.2
2 1 -1 21 5.3
-2 -1 1 14.3 18.7
1 1 -1 3059.09 120.39
1 1 -1 2816.12 122.09
0 1 -1 112.89 7.5
0 -1 1 93.99 15.4
-1 1 -1 29.7 5
1 -1 1 31.5 7
1 -1 1 37.6 24.8
-2 1 -1 865.81 83.09
2 -1 1 991.7 120.69
2 -1 1 1009.3 49.5
-3 1 -1 542.55 72.09
3 -1 1 609.04 37.9
3 -1 1 703.73 89.49
-4 1 -1 242.98 61.89
-4 1 -1 305.37 18.4
4 -1 1 293.87 72.29
4 -1 1 376.66 28.2
-5 1 -1 71.39 10.3
-5 1 -1 62.99 42.8
5 -1 1 77.89 17.1
-6 1 -1 217.58 18
-6 1 -1 254.77 17.1
-6 1 -1 275.67 84.79
6 -1 1 245.08 15.8
-7 1 -1 113.49 12
-7 1 -1 78.69 11.2
7 -1 1 111.79 8.4
-8 1 -1 8.6 3.8
-8 1 -1 3.2 3.4
-8 0 1 8.1 3.5
7 0 -1 8.8 3.6
-7 0 1 19.5 5.6
-7 0 1 11.6 5.2
6 0 -1 157.08 10.6
6 0 -1 168.88 11.3
-6 0 1 164.08 13
-6 0 1 150.48 13.7
-6 0 1 151.08 70.19
5 0 -1 515.25 38.1
-5 0 1 500.25 91.59
-5 0 1 526.65 28.2
4 0 -1 9.6 6.1
4 0 -1 9.6 21.2
-4 0 1 8.6 3.3
-4 0 1 -0.4 19.1
3 0 -1 641.64 36.5
3 0 -1 708.93 91.29
2 0 -1 2338.07 98.19
2 0 -1 2294.67 96.29
-2 0 1 2234.08 186.48
1 0 -1 120.99 8
0 0 -1 617.34 33.4
0 0 -1 492.25 23.6
0 0 1 502.25 36.6
-1 0 -1 1928.11 75.09
-1 0 -1 1771.12 127.39
1 0 1 1794.42 129.19
-2 0 -1 492.75 58.69
-2 0 -1 420.56 73.09
2 0 1 421.86 25.6
2 0 1 381.46 67.59
-3 0 -1 5.8 19.4
-3 0 -1 19.2 19.8
3 0 1 25.4 7.8
3 0 1 25.7 22.2
-4 0 -1 131.99 57.39
-4 0 -1 147.09 10.6
-4 0 -1 132.29 46.6
4 0 1 135.69 16.6
4 0 1 147.89 11.6
4 0 1 138.49 58.99
-5 0 -1 591.94 31.2
-5 0 -1 509.25 87.89
5 0 1 634.64 44.6
-6 0 -1 20.4 5.2
-6 0 -1 30.9 7.5
6 0 1 22.2 5
6 0 1 19.5 4.4
-7 0 -1 9.7 5.6
-7 0 -1 5 4.1
7 0 1 7.1 2.6
-8 0 -1 77.19 8.8
-8 1 1 42.2 6.4
7 -1 -1 142.09 8.6
-7 1 1 126.39 13.5
-7 1 1 154.88 12.9
6 -1 -1 60.39 7.7
6 -1 -1 84.29 9.1
-6 1 1 83.79 12.1
-6 1 1 64.59 9.2
-6 1 1 51.69 52.19
5 -1 -1 132.59 18.3
-5 1 1 168.68 66.09
-5 1 1 141.19 12.4
4 -1 -1 277.17 22.4
4 -1 -1 209.38 64.49
-4 1 1 269.87 16.1
-4 1 1 207.28 60.69
3 -1 -1 837.32 42.4
-3 1 1 708.73 83.19
2 -1 -1 127.49 10.3
-2 1 1 107.89 42.9
-1 1 1 424.06 62.39
0 -1 -1 38.9 17.2
-1 -1 -1 472.95 49.7
1 1 1 362.36 43.9
-2 -1 -1 11.3 16.5
2 1 1 13.6 16.3
2 1 1 13 5
2 1 1 12.6 17.2
3 1 1 1148.89 117.89
3 1 1 1017.7 54.49
-4 -1 -1 681.13 31.1
-4 -1 -1 564.54 95.79
-4 -1 -1 529.15 73.69
4 1 1 708.23 32.6
4 1 1 574.14 99.69
4 1 1 714.83 43.1
-5 -1 -1 10.2 3.8
-5 -1 -1 6.1 31.4
-5 -1 -1 5 32.7
5 1 1 -0.3 5.5
-6 -1 -1 149.09 11.5
-6 -1 -1 126.49 12.3
6 1 1 139.19 9.3
6 1 1 132.39 9.6
-7 -1 -1 266.77 19.5
-7 -1 -1 281.17 17.8
7 1 1 268.97 15.1
-8 -1 -1 3.1 3.4
-8 2 1 10.3 3.1
7 -2 -1 2.6 2.4
-7 2 1 0.9 4.9
-7 2 1 -4.7 3.4
-7 2 1 -0.3 3.5
6 -2 -1 230.28 14.5
-6 2 1 232.08 16.6
-6 2 1 172.08 69.09
-6 2 1 197.38 18
5 -2 -1 291.17 18.1
-5 2 1 338.77 21.7
-5 2 1 391.76 98.99
4 -2 -1 214.68 124.39
-4 2 1 217.58 15
-4 2 1 211.48 65.39
3 -2 -1 206.48 16.9
3 -2 -1 230.48 58.29
-3 2 1 183.98 51.99
2 -2 -1 1238.38 55.29
-2 2 1 1161.18 100.79
1 -2 -1 1001.4 111.49
1 -2 -1 1373.06 111.39
0 2 1 119.29 24.5
1 2 1 475.75 57.29
-2 -2 -1 243.58 46.3
2 2 1 202.38 15.1
2 2 1 270.27 51.39
3 2 1 692.33 95.59
3 2 1 642.24 37.6
-4 -2 -1 325.67 17.5
4 2 1 332.17 18.6
4 2 1 346.57 27.7
4 2 1 282.37 74.89
-5 -2 -1 503.05 25.5
-5 -2 -1 306.67 94.59
5 2 1 480.65 25.7
5 2 1 522.85 39.7
5 2 1 474.55 26.6
-6 -2 -1 232.28 109.59
-6 -2 -1 223.28 16.5
6 2 1 236.08 15.9
6 2 1 243.38 13.8
6 2 1 263.07 30.6
-7 -2 -1 5.5 4.3
-7 -2 -1 2.3 4
7 2 1 3.3 3.1
-8 -2 -1 106.19 9.8
8 2 1 100.99 7.7
7 -3 -1 123.89 8.2
-7 3 1 121.19 10.1
-7 3 1 100.19 11
6 -3 -1 55.69 7.6
-6 3 1 53.99 10.2
-6 3 1 59.29 9
-6 3 1 46 8.1
-5 3 1 13.9 6.1
-5 3 1 11.2 5.4
-5 3 1 22 38.8
-4 3 1 470.85 86.39
-4 3 1 458.35 26.8
3 -3 -1 1502.55 68.29
3 -3 -1 1450.75 161.08
-3 3 1 1501.15 65.19
-3 3 1 1428.96 138.49
-3 3 1 1551.64 66.39
2 -3 -1 10.1 20.1
-2 3 1 0.3 23.6
1 -3 -1 256.67 56.29
1 -3 -1 211.98 56.09
0 -3 -1 2226.68 154.68
0 -3 -1 1988.3 166.68
-1 -3 -1 1459.15 129.39
-2 -3 -1 3.6 9.9
2 3 1 1.2 2.4
2 3 1 7 17
3 3 1 947.01 49.2
3 3 1 958.5 124.59
4 3 1 353.16 27.9
4 3 1 290.67 80.09
4 3 1 375.46 19.8
-5 -3 -1 154.78 76.89
-5 -3 -1 131.79 10.5
5 3 1 157.18 21.1
5 3 1 118.39 10.9
5 3 1 131.49 11.4
-6 -3 -1 32.5 60.09
-6 -3 -1 16.1 5
6 3 1 13.9 11.2
6 3 1 14.8 5.1
6 3 1 16.1 4.8
6 3 1 13.5 5.1
-7 -3 -1 89.09 11.3
7 3 1 106.99 8.7
7 3 1 120.79 11.3
7 3 1 110.49 11.7
7 3 1 104.99 8.8
-8 -3 -1 63.59 8.1
8 3 1 55.59 6.1
7 -4 -1 6.5 2.4
-7 4 1 3.3 3.2
6 -4 -1 98.09 9.3
-6 4 1 90.19 10.2
-6 4 1 105.29 15.2
-6 4 1 122.09 13.1
-5 4 1 80.79 11
-5 4 1 82.49 13.5
-5 4 1 113.39 54.49
-5 4 1 87.49 11
4 -4 -1 333.57 22.5
-4 4 1 334.97 19.5
-4 4 1 394.36 97.09
-4 4 1 300.67 22.2
-4 4 1 330.37 19.9
3 -4 -1 55.79 9.7
3 -4 -1 60.69 44.3
-3 4 1 64.59 43.7
-3 4 1 57.29 8.7
-3 4 1 69.09 8.6
2 -4 -1 381.86 24.5
2 -4 -1 522.95 94.39
-2 4 1 400.66 22.2
-2 4 1 450.65 74.79
-2 4 1 424.06 24.8
1 -4 -1 3198.98 234.38
1 -4 -1 3183.68 260.77
-1 4 1 2404.06 115.89
-1 4 1 2343.27 171.18
0 -4 -1 548.35 90.99
0 -4 -1 587.14 84.39
-1 -4 -1 488.55 81.99
2 4 1 574.94 30.9
3 4 1 719.73 38.7
3 4 1 613.74 109.19
4 4 1 169.38 18.8
4 4 1 200.08 13.4
-5 -4 -1 624.84 31.2
5 4 1 641.44 46.1
5 4 1 583.34 32.5
5 4 1 643.44 33
-6 -4 -1 597.64 31.9
6 4 1 559.04 31.9
6 4 1 626.34 31.7
6 4 1 622.84 34.2
6 4 1 621.44 33.8
-7 -4 -1 31.8 7.4
7 4 1 28.2 5.4
7 4 1 38 7.4
7 4 1 27.7 4.9
7 4 1 42 8.6
-8 -4 -1 17.4 5
8 4 1 16.9 3.8
8 4 1 11.2 3.4
8 4 1 17.4 4.9
6 -5 -1 56.59 6.5
-6 5 1 51.79 7.1
-6 5 1 57.29 4.5
-5 5 1 80.29 9
-5 5 1 89.39 10.3
-5 5 1 91.89 14.1
-5 5 1 70.19 10.3
4 -5 -1 136.59 13.7
-4 5 1 143.69 10.9
-4 5 1 149.79 12.5
-4 5 1 187.58 73.29
-4 5 1 126.29 12.5
-4 5 1 137.79 11.6
-4 5 1 152.28 18.1
3 -5 -1 328.87 23.5
-3 5 1 325.47 22.3
-3 5 1 354.76 22.6
-3 5 1 335.97 20.8
-3 5 1 299.67 79.89
2 -5 -1 666.53 39.6
-2 5 1 884.11 106.79
-2 5 1 799.92 38.6
-2 5 1 765.62 37.5
1 -5 -1 206.88 63.89
-1 5 1 247.88 62.79
-1 5 1 160.98 12.2
0 -5 -1 2405.66 213.88
0 5 1 2005.6 90.69
0 5 1 2091.89 143.19
-1 -5 -1 1238.08 148.99
-2 -5 -1 385.26 86.59
3 5 1 193.78 17.6
3 5 1 183.08 14.1
4 5 1 690.13 33.7
4 5 1 724.83 33.9
4 5 1 474.25 131.49
4 5 1 638.54 41.9
5 5 1 345.47 19.7
5 5 1 361.76 22.2
5 5 1 288.37 30.1
5 5 1 347.17 21.8
-6 -5 -1 35.2 7.2
6 5 1 26.1 7.6
6 5 1 38.9 8.5
6 5 1 35 6.9
6 5 1 38.2 5.1
-7 -5 -1 211.28 16.3
7 5 1 223.48 13.4
7 5 1 237.08 16.9
7 5 1 247.48 19.1
7 5 1 185.18 17.4
-8 -5 -1 74.69 8.6
8 5 1 83.79 7
8 5 1 69.19 8.9
8 5 1 79.69 7.7
8 5 1 45.5 9.1
6 -6 -1 -1.6 2.4
5 -6 -1 245.88 17.8
-5 6 1 221.58 18
-5 6 1 189.78 13.7
4 -6 -1 344.67 23.6
-4 6 1 337.57 24.4
-4 6 1 378.66 21.8
-4 6 1 425.26 103.89
-4 6 1 301.87 20.2
3 -6 -1 84.19 13.3
-3 6 1 129.29 11.1
-3 6 1 124.59 12.2
-3 6 1 115.99 52.09
-3 6 1 115.79 12.8
-3 6 1 143.39 12.6
2 -6 -1 157.18 16
-2 6 1 171.68 13.9
-2 6 1 159.18 13.5
-2 6 1 214.88 70.69
-2 6 1 156.18 12.6
-2 6 1 157.18 13.5
1 -6 -1 943.11 51.79
-1 6 1 1130.69 117.19
-1 6 1 989.7 48.7
-1 6 1 1088.19 48.7
0 6 1 341.17 19.4
0 6 1 368.46 59.89
0 6 1 311.17 19.6
-1 -6 -1 113.19 58.79
1 6 1 142.69 10.7
1 6 1 122.69 10.2
-2 -6 -1 380.06 94.99
2 6 1 490.15 24.8
-3 -6 -1 925.11 162.78
3 6 1 903.21 43.7
4 6 1 80.29 10.2
4 6 1 80.09 10.1
-5 -6 -1 88.99 71.79
5 6 1 93.99 11.9
5 6 1 114.89 10.1
5 6 1 105.19 11.5
-6 -6 -1 216.58 15.8
6 6 1 216.88 12.4
6 6 1 238.98 16.7
6 6 1 262.07 19.8
6 6 1 196.18 17.4
-7 -6 -1 78.19 10.7
7 6 1 85.49 11.3
7 6 1 71.59 11.4
7 6 1 87.99 12.8
7 6 1 79.59 8.1
-8 -6 -1 25.4 5.2
8 6 1 25 4.2
8 6 1 11.1 3.7
8 6 1 16.6 5.1
5 -7 -1 61.89 8
-5 7 1 47.3 5.8
4 -7 -1 23.2 6.5
-4 7 1 28.3 6.1
-4 7 1 32.8 6.1
3 -7 -1 204.48 19.7
-3 7 1 213.18 13.9
-3 7 1 247.78 18
-3 7 1 245.98 15.9
-3 7 1 210.28 17.8
-3 7 1 230.08 16.7
-3 7 1 177.18 67.19
2 -7 -1 353.66 27.8
-2 7 1 379.36 23.3
-2 7 1 384.46 26.9
-2 7 1 441.56 23.1
-2 7 1 402.26 25.3
-2 7 1 414.66 25
-2 7 1 371.46 21.5
-2 7 1 530.05 93.79
-2 7 1 395.76 24.3
-2 7 1 421.06 23.8
1 -7 -1 172.08 17.9
-1 7 1 206.08 58.59
-1 7 1 208.38 14.9
-1 7 1 178.58 14.1
-1 7 1 193.18 15.6
-1 7 1 172.48 14.7
0 7 1 5.1 3.3
0 7 1 5.9 4.3
0 7 1 6.6 5.2
1 7 1 949.9 45.9
1 7 1 891.91 44.6
2 7 1 984.8 49.4
3 7 1 32.9 7.3
4 7 1 233.68 15.6
4 7 1 245.48 18
5 7 1 324.97 20.2
5 7 1 321.77 22.5
5 7 1 322.07 22.7
-6 -7 -1 75.89 10.1
6 7 1 77.79 12.3
6 7 1 66.09 5.9
6 7 1 89.49 11.2
6 7 1 69.19 11.8
7 7 1 18.9 7.3
7 7 1 29.6 4.7
7 7 1 22.2 6.3
-8 -7 -1 41.9 5.4
8 7 1 37.5 6
8 7 1 53.29 5.5
4 -8 -1 264.67 18
-4 8 1 309.27 17.1
-4 8 1 269.67 16
-3 8 1 333.97 20.8
-3 8 1 347.37 18.6
-3 8 1 351.36 20.3
-3 8 1 339.77 20.1
2 -8 -1 20 8.6
-2 8 1 18.5 5.4
-2 8 1 21.8 5.6
-2 8 1 29 8
-2 8 1 28.2 6.7
-2 8 1 27.3 6.8
-2 8 1 35.6 6.5
-2 8 1 28.6 6.2
1 -8 -1 507.75 35.9
-1 8 1 569.34 30.6
-1 8 1 594.64 31.1
-1 8 1 576.34 28.8
-1 8 1 551.64 29
-1 8 1 537.25 31.3
-1 8 1 581.44 33.2
-1 8 1 549.15 28.8
0 -8 -1 350.96 27.4
0 8 1 344.47 23.6
0 8 1 358.96 21.2
0 8 1 302.97 21.8
0 8 1 338.97 19.9
0 8 1 362.36 19.6
0 8 1 357.86 21.6
-1 -8 -1 135.69 17.9
1 8 1 154.78 14.2
1 8 1 164.38 11.9
1 8 1 155.88 12.4
1 8 1 143.29 12.4
2 8 1 3.8 3.7
5 8 1 116.09 12.7
6 8 1 118.89 12.7
6 8 1 101.29 7.1
6 8 1 111.59 14.4
7 8 1 137.19 8.5
7 8 1 132.99 15
7 8 1 118.69 11.8
8 8 1 19.2 3
3 -9 -1 28.5 6.1
-3 9 1 29.7 5.4
-3 9 1 52.39 7
-3 9 1 34.2 5.6
-3 9 1 38.8 5
-2 9 1 380.76 22.7
-2 9 1 381.96 21.9
-2 9 1 419.26 23.4
-2 9 1 421.96 21.9
-2 9 1 431.06 24.2
-2 9 1 421.66 21.9
-1 9 1 393.86 24
-1 9 1 430.76 22.6
-1 9 1 415.76 22.9
-1 9 1 405.46 22.6
-1 9 1 385.86 23.8
-1 9 1 421.36 27
-1 9 1 397.06 25
0 -9 -1 1 7.3
0 9 1 -0.9 2.8
0 9 1 2.2 4.4
0 9 1 5.3 3.5
0 9 1 2 5.5
0 9 1 1.4 3.3
0 9 1 -0.9 3.5
0 9 1 1.3 3.2
-1 -9 -1 380.56 30.3
1 9 1 417.96 23.4
1 9 1 457.55 23.4
1 9 1 475.65 25.6
1 9 1 408.46 27.1
1 9 1 432.46 23.7
1 9 1 465.45 25
2 9 1 87.59 10.2
2 9 1 104.49 11.2
2 9 1 86.89 10.5
2 9 1 96.79 10.1
7 9 1 47.2 4.2
7 9 1 31.1 7
2 -10 -1 109.99 11
-2 10 1 118.39 10.2
-2 10 1 109.89 9.1
-2 10 1 135.19 8.9
-2 10 1 117.39 9.6
-2 10 1 119.49 9
-2 10 1 118.19 8.2
-1 10 1 14.4 4.2
-1 10 1 18.4 4.9
-1 10 1 11.2 4
-1 10 1 18.1 4.8
-1 10 1 13.4 3.8
-1 10 1 15.1 5.4
0 10 1 336.07 19.1
0 10 1 359.86 19.9
0 10 1 342.77 20.8
0 10 1 330.67 21.5
0 10 1 327.67 19.3
0 10 1 369.66 20.8
1 10 1 507.55 26.9
1 10 1 479.65 26.2
1 10 1 494.05 25.1
1 10 1 494.45 24.9
1 10 1 465.75 25.2
1 10 1 472.15 29.6
2 10 1 23.7 5.6
2 10 1 28.5 5.2
2 10 1 27.6 6
-1 11 1 329.97 15.5
-1 11 1 318.67 17.2
-1 11 1 334.87 16.6
-1 11 1 322.87 16.2
-1 11 1 324.37 16.7
0 11 1 86.79 7.6
0 11 1 95.19 7.6
0 11 1 85.79 7.9
0 11 1 96.49 8.9
0 11 1 80.59 8.5
0 11 1 102.69 8
1 11 1 27.8 5.3
1 11 1 31.4 5.2
1 11 1 23 4.4
1 11 1 27 5
1 11 1 27.6 5.7
2 11 1 317.67 17.9
2 11 1 312.17 17.4
2 11 1 309.37 16.5
1 12 1 364.96 15.7
1 12 1 352.56 17.9
1 11 -2 122.09 9.3
1 10 -2 166.48 11.5
1 10 -2 168.18 11.9
1 10 -2 162.28 12.1
1 10 -2 148.99 13.7
0 10 -2 178.88 13.1
0 10 -2 176.48 12.3
0 10 -2 194.68 12.4
0 10 -2 169.08 14
0 10 -2 193.88 12.5
-1 10 -2 67.29 12.4
-1 10 -2 50.59 5.9
-1 10 -2 60.39 7
-1 10 -2 68.99 7.1
-1 10 -2 55.59 7.2
2 9 -2 301.67 17.7
1 9 -2 276.97 14.7
1 9 -2 275.87 22.1
1 9 -2 287.07 20.7
1 9 -2 283.87 18.8
1 9 -2 272.77 17.5
1 9 -2 267.67 17.2
1 9 -2 265.47 17.1
0 9 -2 -1.9 3.4
0 9 -2 2.6 3.5
0 9 -2 1.8 3.8
0 9 -2 2.3 4.7
0 9 -2 6.3 5.5
-1 9 -2 97.39 10.3
-1 9 -2 92.19 10.7
-1 9 -2 84.49 10.7
-1 9 -2 65.49 9.9
-1 9 -2 76.19 9.1
-1 9 -2 82.09 8.7
-2 9 -2 211.18 14.9
-2 9 -2 210.78 13.2
-2 9 -2 219.48 13.2
-2 9 -2 219.08 13.5
-2 9 -2 204.78 14.7
-2 9 -2 230.18 15.6
-3 9 -2 51.19 7.6
-3 9 -2 55.99 8
7 8 -2 137.69 7.8
6 8 -2 119.29 7.5
2 8 -2 287.67 20.7
2 8 -2 273.97 17.3
2 8 -2 289.17 20.9
1 8 -2 51.89 10.4
1 8 -2 28.1 5.9
1 8 -2 38 6.6
1 8 -2 34.6 4.7
1 8 -2 34.5 8.8
1 8 -2 38.1 6.7
1 8 -2 36.1 7.5
0 8 -2 38.2 6.7
0 8 -2 70.39 9.8
0 8 -2 67.79 11.6
0 8 -2 82.69 12.2
0 8 -2 40.8 6.8
0 8 -2 62.19 6.9
0 8 -2 57.69 41.7
0 8 -2 68.79 9.9
-1 8 -2 217.98 17.8
-1 8 -2 221.48 16.6
-1 8 -2 202.88 15.9
-1 8 -2 214.48 18.7
-1 8 -2 192.88 14.6
-1 8 -2 198.48 14
-1 8 -2 204.78 15.1
-2 8 -2 109.99 10.2
-2 8 -2 107.19 10.7
-2 8 -2 128.69 12
-2 8 -2 108.29 12.7
-2 8 -2 114.59 11.6
-2 8 -2 120.49 12.5
-3 8 -2 63.19 8.3
-3 8 -2 65.99 8.5
-3 8 -2 72.49 8.1
-3 8 -2 75.19 7.3
-3 8 -2 88.29 9.7
-4 8 -2 146.49 9.7
7 7 -2 26.1 4
7 7 -2 20 5.2
6 7 -2 15.1 3.3
6 7 -2 4.1 6.3
5 7 -2 299.87 22.2
2 7 -2 125.09 13
2 7 -2 153.28 13.9
2 7 -2 133.49 48.3
1 7 -2 437.56 26.5
1 7 -2 418.36 23.7
1 7 -2 399.56 25.8
0 7 -2 881.51 42.6
0 7 -2 896.51 45.8
0 7 -2 870.41 41.2
0 7 -2 831.62 44.8
0 7 -2 883.41 42.7
-1 7 -2 55.79 9.8
-1 7 -2 36.8 39.1
-1 7 -2 59.69 8.7
-1 7 -2 57.79 6.8
-1 7 -2 72.69 9.7
-1 7 -2 69.09 8.8
-1 7 -2 62.99 8.4
-1 7 -2 59.59 8.4
-1 7 -2 57.29 10.6
-2 7 -2 445.66 24.2
-2 7 -2 286.67 81.49
-2 7 -2 426.46 26.8
-2 7 -2 447.46 24.5
-2 7 -2 442.16 27.8
-2 7 -2 462.75 26.3
-2 7 -2 437.76 23.5
-2 7 -2 440.16 25.9
2 -7 2 378.46 30
-3 7 -2 43.4 7.7
-3 7 -2 48.9 8.3
-3 7 -2 58.19 7.2
-3 7 -2 54.79 9.6
-3 7 -2 79.99 9.8
-3 7 -2 49.6 8.3
3 -7 2 59.89 13.8
-4 7 -2 24.8 5.4
-4 7 -2 29.4 5.7
-4 7 -2 36.9 6.4
-5 7 -2 30.9 4.6
8 6 -2 5.3 2.4
7 6 -2 33.7 7.8
7 6 -2 38.6 5
7 6 -2 28.6 6.4
6 6 -2 251.57 13.8
6 6 -2 276.37 18.4
6 6 -2 272.37 21.5
5 6 -2 65.99 9.2
5 6 -2 68.49 11.2
4 6 -2 60.69 17
4 6 -2 73.49 10.1
3 6 -2 471.95 39.6
3 6 -2 396.06 63.39
2 6 -2 560.64 28.9
2 6 -2 456.25 67.59
1 6 -2 74.29 35.3
1 6 -2 91.69 11.4
0 6 -2 123.39 51.19
0 6 -2 189.88 14.9
-1 6 -2 831.82 40.5
-1 6 -2 801.82 42.1
-1 6 -2 853.41 42.7
-2 6 -2 167.18 15.2
-2 6 -2 179.38 14.2
-2 6 -2 176.98 15.7
-2 6 -2 169.68 12.8
-2 6 -2 189.48 13.4
-2 6 -2 168.88 68.69
-2 6 -2 197.98 14.9
-3 6 -2 82.69 10.3
-3 6 -2 111.99 13.2
-3 6 -2 126.89 11.3
-3 6 -2 131.19 12.2
-3 6 -2 120.29 14.2
-3 6 -2 129.89 61.99
3 -6 2 91.19 15
-4 6 -2 182.48 14.1
-4 6 -2 182.18 14.1
-4 6 -2 154.68 13.4
-5 6 -2 21 5.4
8 5 -2 20.1 5.1
8 5 -2 33.9 4.7
8 5 -2 25.5 4.2
-8 -5 2 23 3.9
7 5 -2 42 5.8
7 5 -2 24 7.6
7 5 -2 33.8 7.2
6 5 -2 0.4 3.7
6 5 -2 4.3 5.1
6 5 -2 -1 1.9
5 5 -2 251.57 18.7
5 5 -2 226.48 16.2
4 5 -2 168.58 13.9
4 5 -2 166.78 23
4 5 -2 179.48 52.59
-4 -5 2 198.28 67.29
3 5 -2 173.58 13.2
3 5 -2 199.48 23.5
3 5 -2 170.98 45.4
2 5 -2 47.3 13.2
2 5 -2 53.69 7.7
2 5 -2 49.4 11.8
2 5 -2 41.9 24.6
1 5 -2 871.31 91.19
1 5 -2 914.11 43.9
-1 -5 2 987.3 51.99
0 5 -2 581.04 78.79
0 5 -2 722.93 34.4
-1 5 -2 40.5 7.3
-1 5 -2 11 26
-2 5 -2 32.7 32.4
-2 5 -2 49.6 7.8
-2 5 -2 41.4 7.6
-3 5 -2 384.76 97.69
-3 5 -2 411.86 24
-3 5 -2 426.66 25.4
-3 5 -2 404.56 23.5
-3 5 -2 432.26 23.6
-3 5 -2 405.36 24.9
3 -5 2 358.66 27.3
-4 5 -2 233.48 78.49
-4 5 -2 183.88 14.8
-4 5 -2 237.38 16.3
-5 5 -2 18 5.3
-6 5 -2 84.09 8.6
8 4 -2 73.49 7.3
8 4 -2 61.89 7.9
8 4 -2 79.49 6.8
-8 -4 2 77.89 7.3
7 4 -2 4.3 4.7
7 4 -2 8.3 3.2
7 4 -2 14.7 5
7 4 -2 3.3 3.6
-7 -4 2 5 4.9
6 4 -2 281.17 15.7
6 4 -2 322.27 20.2
6 4 -2 302.37 21.5
5 4 -2 230.78 16.9
5 4 -2 213.48 15.3
5 4 -2 240.18 28.8
-5 -4 2 159.28 64.09
4 4 -2 15.2 18.8
4 4 -2 28.4 11.6
4 4 -2 26.8 5.5
-4 -4 2 13.6 24
3 4 -2 1126.99 95.69
3 4 -2 1144.79 65.39
-3 -4 2 1272.07 117.19
2 4 -2 916.01 43.9
2 4 -2 997 52.59
2 4 -2 976.2 56.09
2 4 -2 1042.6 84.69
1 4 -2 138.59 15.7
1 4 -2 102.49 32.7
1 4 -2 160.68 17.5
1 4 -2 118.49 9.7
-1 -4 2 149.49 14.8
0 4 -2 41.5 10.3
0 4 -2 44.6 27.7
0 4 -2 41 6.2
0 -4 2 38.2 9.5
-1 4 -2 726.13 35.4
-1 4 -2 638.54 83.79
1 -4 2 827.62 46.5
-2 4 -2 460.25 78.89
-2 4 -2 614.44 29.6
-3 4 -2 10.7 27.3
-4 4 -2 257.17 16
-4 4 -2 281.67 18.5
-4 4 -2 334.87 88.69
-5 4 -2 189.18 14.8
-5 4 -2 187.08 12.8
-6 4 -2 30.9 6.5
-6 4 -2 24.8 3.7
6 -4 2 26.1 5.4
8 3 -2 4.9 3.9
8 3 -2 8.1 3
-8 -3 2 4.5 2.8
-8 -3 2 4.5 2.9
7 3 -2 131.89 10.1
7 3 -2 148.29 10.7
7 3 -2 129.59 13.3
7 3 -2 145.69 13
-7 -3 2 142.89 11.4
6 3 -2 69.49 9.9
6 3 -2 69.29 10.9
6 3 -2 81.69 7.1
5 3 -2 59.69 16.9
5 3 -2 48 8.3
5 3 -2 47.5 7.3
-5 -3 2 58.79 47.8
4 3 -2 573.94 116.99
4 3 -2 600.34 73.59
4 3 -2 798.92 48
4 3 -2 698.53 34.1
-4 -3 2 732.43 95.49
3 3 -2 819.42 72.79
3 3 -2 749.13 45.9
3 3 -2 677.73 110.79
-3 -3 2 930.61 91.39
2 3 -2 385.26 28
2 3 -2 356.26 65.89
2 3 -2 455.85 46.6
2 3 -2 400.66 25
1 3 -2 1362.16 63.09
1 3 -2 1235.78 65.69
0 3 -2 802.82 44.9
0 3 -2 878.21 76.29
0 -3 2 878.41 45.3
-1 3 -2 404.96 27.5
-1 3 -2 327.17 53.79
1 -3 2 436.86 102.79
1 -3 2 428.76 29.2
-2 3 -2 60.09 6.3
-2 3 -2 36.5 27
2 -3 2 68.59 14
-3 3 -2 345.67 81.49
3 -3 2 336.97 29.2
-4 3 -2 305.97 83.99
-5 3 -2 3.6 4.9
-5 3 -2 4.2 4.4
-5 3 -2 17.5 35.1
-6 3 -2 29.3 6.3
-6 3 -2 32.4 6.4
6 -3 2 37 6.9
-7 3 -2 39 4.8
-7 3 -2 46.7 6
7 -3 2 53.39 5.9
8 2 -2 40.3 6.7
8 2 -2 52.29 5.8
-8 -2 2 51.29 7
-8 -2 2 45 5.7
7 2 -2 2.2 4.4
7 2 -2 -0.6 2.9
-7 -2 2 6.2 4.2
-7 -2 2 -1.4 3.8
6 2 -2 138.49 10
6 2 -2 121.79 9.3
6 2 -2 114.89 13.5
6 2 -2 129.99 12.4
-6 -2 2 125.09 10.8
-6 -2 2 110.19 10.9
-6 -2 2 96.69 63.99
5 2 -2 364.26 21.7
5 2 -2 346.27 32.2
-5 -2 2 246.58 77.79
-5 -2 2 349.47 20
4 2 -2 130.79 59.69
4 2 -2 192.18 13.8
4 2 -2 177.08 19.3
-4 -2 2 180.08 11.3
-4 -2 2 126.39 47
3 2 -2 165.88 31.6
3 2 -2 160.88 16.4
3 2 -2 158.48 51.59
-3 -2 2 188.98 47
2 2 -2 254.27 17.1
2 2 -2 322.57 35.8
2 2 -2 277.47 20.7
1 2 -2 1411.96 68.39
1 2 -2 1450.55 64.69
1 2 -2 1424.86 100.89
0 2 -2 236.08 19.1
0 2 -2 224.38 16.5
0 -2 2 288.67 25.7
0 -2 2 209.68 16.8
-1 2 -2 996.5 79.89
-1 2 -2 941.11 47.5
1 -2 2 958.7 118.09
1 -2 2 962.9 50.39
-2 2 -2 565.64 70.29
2 -2 2 654.83 113.79
2 -2 2 794.02 43.3
-3 2 -2 310.77 59.09
3 -2 2 307.37 26.8
-4 2 -2 45.3 7.7
-4 2 -2 75.79 42.4
4 -2 2 59.79 14.2
-5 2 -2 79.19 10.1
-5 2 -2 85.59 10.9
-5 2 -2 101.19 12.8
-5 2 -2 110.09 56.89
5 -2 2 83.59 17.9
-6 2 -2 249.68 17.3
-6 2 -2 298.67 18.6
-6 2 -2 236.18 19.2
6 -2 2 246.38 16.6
-7 2 -2 13.3 4
-7 2 -2 11 4.5
7 -2 2 7.8 3.5
-8 -1 2 12 4.2
7 1 -2 44 6.2
7 1 -2 42 8
-7 -1 2 38.5 7.2
-7 -1 2 31.9 5.6
-7 -1 2 30.3 7
6 1 -2 303.57 20.2
6 1 -2 311.77 17.2
-6 -1 2 303.57 20
-6 -1 2 289.47 93.39
-6 -1 2 294.67 18.4
5 1 -2 23.6 10.1
5 1 -2 17.9 5.6
-5 -1 2 19.9 5.5
-5 -1 2 11.6 31.1
4 1 -2 474.95 93.79
4 1 -2 579.14 37.4
-4 -1 2 627.94 27.9
-4 -1 2 466.05 75.69
3 1 -2 942.81 78.89
3 1 -2 1090.99 119.99
3 1 -2 1142.79 56.19
-3 -1 2 1222.18 101.99
2 1 -2 793.02 39.4
2 1 -2 870.01 86.99
2 1 -2 844.72 42.5
1 1 -2 289.57 37.1
1 1 -2 277.67 16.5
1 1 -2 257.17 18.2
0 1 -2 4086.79 160.68
0 1 -2 3553.14 163.38
0 -1 2 4051.19 162.18
-1 1 -2 1300.57 56.19
1 -1 2 1305.77 128.09
1 -1 2 1131.49 58.99
-2 1 -2 83.39 30.4
-2 1 -2 80.99 36.5
2 -1 2 101.89 27.4
2 -1 2 77.39 13.1
2 -1 2 73.09 44.4
-3 1 -2 139.09 42.1
3 -1 2 175.38 18.8
3 -1 2 188.28 46.7
-4 1 -2 417.66 69.59
-4 1 -2 379.76 21.7
4 -1 2 387.46 32
-5 1 -2 168.78 14
-5 1 -2 165.08 57.69
5 -1 2 166.68 22.5
-6 1 -2 4.7 4.9
-6 1 -2 7.9 5.1
-6 1 -2 5.4 6.4
6 -1 2 6.9 4.6
-7 1 -2 40.9 8.2
-7 1 -2 36.6 6.9
-7 1 -2 36.9 6.9
7 -1 2 59.99 6.9
-8 1 -2 39.4 5.5
-8 0 2 58.99 7.6
7 0 -2 25.6 4.7
-7 0 2 27.2 6.1
-7 0 2 22.6 6.4
6 0 -2 144.89 10.7
6 0 -2 144.19 8.7
6 0 -2 140.19 13.4
-6 0 2 142.99 12.2
-6 0 2 169.58 77.49
-6 0 2 137.69 13.3
5 0 -2 293.77 27.9
-5 0 2 329.87 19.8
-5 0 2 311.17 88.99
4 0 -2 549.15 100.99
4 0 -2 655.53 40
-4 0 2 734.53 31.9
-4 0 2 539.25 84.19
3 0 -2 7.9 17
3 0 -2 7 4.4
-3 0 2 11.7 20
2 0 -2 414.56 57.49
2 0 -2 336.17 20.4
2 0 -2 337.67 21.1
1 0 -2 1743.63 71.99
1 0 -2 1548.25 70.89
0 0 -2 2402.56 116.19
0 0 -2 3251.37 135.79
-1 0 -2 180.18 10.5
-1 0 -2 136.39 38.4
1 0 2 198.38 26.7
1 0 2 140.19 13
-2 0 -2 1237.88 113.59
-2 0 -2 1433.96 60.89
2 0 2 1409.46 149.69
2 0 2 1538.55 69.39
-3 0 -2 1262.67 99.49
-3 0 -2 1047.3 115.89
3 0 2 1245.68 65.09
3 0 2 1344.47 126.29
-4 0 -2 76.19 36.7
-4 0 -2 78.09 7.7
4 0 2 70.49 9.1
4 0 2 46.7 35.7
4 0 2 71.09 14.8
-5 0 -2 43.1 7.7
-5 0 -2 31.5 52.99
5 0 2 57.79 14.9
-6 0 -2 243.38 15.8
-6 0 -2 220.38 15.4
-6 0 -2 206.38 16.9
6 0 2 231.98 15.1
6 0 2 223.18 13
-7 0 -2 50.59 9.6
-7 0 -2 43.3 7.5
7 0 2 52.39 5.7
-8 0 -2 -0.4 2.8
-8 1 2 -1.2 2.7
-7 1 2 60.29 8.3
-7 1 2 61.79 9.3
6 -1 -2 194.18 12.4
6 -1 -2 173.88 11.8
-6 1 2 168.58 77.09
-6 1 2 165.58 15.2
-6 1 2 162.78 13.6
-5 1 2 76.39 10
-5 1 2 105.69 55.59
4 -1 -2 276.57 22.8
4 -1 -2 224.38 68.79
-4 1 2 230.88 64.29
-4 1 2 321.37 17.6
3 -1 -2 374.86 23.8
3 -1 -2 367.66 71.19
-3 1 2 322.47 59.69
2 -1 -2 1386.76 65.69
2 -1 -2 1616.84 130.59
1 -1 -2 63.09 23.7
0 -1 -2 27.3 17.9
-1 -1 -2 1287.87 100.99
-1 -1 -2 1519.35 60.49
1 1 2 1486.65 99.39
-2 -1 -2 9999 442.16
-2 -1 -2 9089.69 358.36
2 1 2 8587.74 367.46
2 1 2 8380.36 470.25
-3 -1 -2 161.18 51.19
3 1 2 231.38 20.3
3 1 2 250.77 56.39
-4 -1 -2 1523.15 162.58
-4 -1 -2 1848.42 76.19
4 1 2 1893.71 91.29
4 1 2 1643.84 177.58
4 1 2 1887.81 77.69
-5 -1 -2 426.56 24.3
-5 -1 -2 416.16 99.09
5 1 2 514.55 39.9
5 1 2 436.36 25.6
-6 -1 -2 1.9 3.3
6 1 2 0.1 2.8
6 1 2 3.3 3.1
-7 -1 -2 14 5.6
-7 -1 -2 28.9 6.2
7 1 2 27.4 4.5
-8 -1 -2 19.9 5.1
-8 2 2 76.69 6.5
7 -2 -2 87.99 5.7
-7 2 2 59.39 8.6
6 -2 -2 4 3.7
-6 2 2 3.1 4.4
-6 2 2 2.2 3.8
-6 2 2 6.2 42
5 -2 -2 180.78 13.1
-5 2 2 203.98 16.2
-5 2 2 208.58 75.39
-4 2 2 588.04 93.59
-4 2 2 710.23 34.7
3 -2 -2 432.46 83.89
3 -2 -2 438.26 23.8
-3 2 2 377.26 67.49
2 -2 -2 272.47 58.49
2 -2 -2 251.77 15.7
-2 2 2 195.68 48.1
1 -2 -2 1685.33 139.39
0 -2 -2 723.43 86.49
-1 -2 -2 399.26 50.29
-2 -2 -2 1324.27 54.09
-2 -2 -2 1356.36 111.09
2 2 2 1228.08 60.79
2 2 2 1437.86 124.29
-3 -2 -2 843.02 100.89
3 2 2 896.51 48.4
3 2 2 949.21 115.29
-4 -2 -2 1948.91 81.59
-4 -2 -2 1730.03 174.28
4 2 2 1744.53 189.88
4 2 2 2100.39 83.19
4 2 2 2009.6 96.39
-5 -2 -2 55.69 7.9
-5 -2 -2 49.7 51.09
5 2 2 45.2 14
5 2 2 54.39 7.7
5 2 2 46.8 8.1
-6 -2 -2 271.77 18.7
6 2 2 286.77 15.3
6 2 2 283.67 20.2
6 2 2 309.67 33.8
-7 -2 -2 79.19 9.8
-7 -2 -2 61.09 9.7
7 2 2 54.89 6.5
-8 -2 -2 28.4 5.8
7 -3 -2 4.3 2.3
-7 3 2 3 3.7
-7 3 2 2.6 3.5
6 -3 -2 89.99 9.2
-6 3 2 93.59 13.3
-6 3 2 83.19 10.6
-6 3 2 85.19 11.1
5 -3 -2 290.17 18.5
-5 3 2 341.57 94.59
-5 3 2 352.16 21.2
-5 3 2 334.47 23
-4 3 2 -6.5 20.7
-4 3 2 10.4 4.6
3 -3 -2 388.06 86.59
3 -3 -2 456.65 25.3
-3 3 2 397.06 73.69
-3 3 2 426.16 23.3
2 -3 -2 950.5 120.59
-2 3 2 783.72 90.59
1 -3 -2 390.76 73.29
0 -3 -2 9.9 19.7
-1 -3 -2 2186.68 139.09
-1 -3 -2 2472.35 183.88
-2 -3 -2 716.83 78.69
2 3 2 603.34 31.6
2 3 2 602.44 86.29
-3 -3 -2 93.49 41.1
3 3 2 140.29 14.2
3 3 2 144.79 53.59
-4 -3 -2 22 34.6
4 3 2 41.1 11.2
4 3 2 53.59 7.2
4 3 2 42.3 39.7
-5 -3 -2 401.26 121.49
-5 -3 -2 385.96 21.7
5 3 2 399.36 23.1
5 3 2 378.46 22.6
5 3 2 431.96 36
-6 -3 -2 336.67 20.7
-6 -3 -2 251.37 104.09
6 3 2 320.57 19.2
6 3 2 315.07 16.8
6 3 2 334.87 21.3
6 3 2 343.17 35.4
6 3 2 337.47 22.2
-7 -3 -2 0.6 4.2
7 3 2 -2.8 2.5
7 3 2 9.2 6.2
-8 -3 -2 69.29 8.6
8 3 2 47.3 5.7
7 -4 -2 10 2.4
-7 4 2 10.2 3.7
-7 4 2 9.9 2.6
6 -4 -2 358.76 19.5
-6 4 2 358.66 22
-6 4 2 356.36 20.4
-6 4 2 321.17 24.5
-5 4 2 2.7 4.4
-5 4 2 7 33.5
-5 4 2 4.8 4.9
-5 4 2 5.5 5.7
4 -4 -2 201.58 16.4
-4 4 2 184.58 16.3
-4 4 2 216.08 71.39
-4 4 2 188.08 14.3
-4 4 2 201.68 14
3 -4 -2 709.33 38.1
-3 4 2 717.03 37
-3 4 2 755.22 102.39
2 -4 -2 316.47 79.49
2 -4 -2 364.16 21.8
-2 4 2 347.67 19.2
-2 4 2 362.16 65.59
-2 4 2 339.47 19.9
1 -4 -2 629.84 104.89
1 -4 -2 624.74 33.3
-1 4 2 581.54 30
-1 4 2 679.03 75.59
0 -4 -2 1031.4 132.79
-1 -4 -2 535.75 59.39
-1 -4 -2 480.65 86.69
-2 -4 -2 165.38 49.1
2 4 2 173.18 14.6
-3 -4 -2 577.54 87.29
3 4 2 457.05 95.09
3 4 2 538.25 31.3
-4 -4 -2 970.3 131.09
4 4 2 1005.3 55.19
4 4 2 1057.69 45.5
4 4 2 766.32 136.09
-5 -4 -2 122.09 10.3
-5 -4 -2 80.69 59.69
5 4 2 118.39 11.1
5 4 2 120.39 11.4
5 4 2 130.89 23
-6 -4 -2 107.39 10.7
6 4 2 101.09 10.3
6 4 2 110.19 11.7
6 4 2 122.19 12.2
-7 -4 -2 108.09 11.6
7 4 2 115.29 8.8
7 4 2 113.89 12.1
7 4 2 109.79 13.1
7 4 2 100.69 8.9
7 4 2 91.69 13.6
-8 -4 -2 29.4 5.6
8 4 2 26.3 4.5
8 4 2 26.7 5.3
-9 -4 -2 -2.2 3.4
6 -5 -2 51.89 6.8
-6 5 2 32.2 4.2
-6 5 2 43.5 7
5 -5 -2 242.68 18.5
-5 5 2 225.48 14.8
-5 5 2 201.48 16.3
-5 5 2 233.48 19.9
4 -5 -2 297.27 21.5
-4 5 2 345.87 20
-4 5 2 308.77 18.4
-4 5 2 280.07 22.6
-4 5 2 294.77 20
-4 5 2 389.56 99.19
3 -5 -2 84.99 12.4
-3 5 2 121.09 14.5
-3 5 2 95.29 9.9
-3 5 2 66.09 12
-3 5 2 92.49 48.9
2 -5 -2 758.92 39.9
2 -5 -2 687.93 126.39
-2 5 2 838.52 103.89
-2 5 2 720.83 36.6
-2 5 2 779.12 38
1 -5 -2 281.57 19.8
1 -5 -2 313.67 83.19
-1 5 2 339.87 18.7
-1 5 2 273.97 17.4
-1 5 2 407.76 65.19
0 -5 -2 192.18 14.2
0 -5 -2 221.08 69.29
0 5 2 162.18 11.5
-1 -5 -2 596.34 106.09
-2 -5 -2 451.35 71.29
-2 -5 -2 388.16 90.39
-3 -5 -2 633.74 97.99
3 5 2 600.54 30.4
-4 -5 -2 81.29 55.99
4 5 2 71.39 9.1
4 5 2 57.59 8.3
4 5 2 28.6 38.9
4 5 2 57.99 12.7
-5 -5 -2 113.29 68.39
5 5 2 179.48 22.8
5 5 2 188.88 15
5 5 2 176.48 13.2
5 5 2 186.28 15.3
-6 -5 -2 55.19 8.7
6 5 2 70.19 6.3
6 5 2 63.09 10.4
6 5 2 94.39 12.9
6 5 2 60.29 8.4
-7 -5 -2 71.09 10.3
7 5 2 78.79 10.4
7 5 2 74.09 7.7
7 5 2 62.39 11
7 5 2 84.09 12
-8 -5 -2 7.2 3.9
8 5 2 3.1 4.5
8 5 2 5.5 4
8 5 2 8.3 3.1
8 5 2 8.6 3.3
6 -6 -2 73.89 6.9
-6 6 2 81.79 7.2
5 -6 -2 45.1 8.2
-5 6 2 48.3 7.6
-5 6 2 50.89 10.1
4 -6 -2 56.19 10
-4 6 2 65.39 12.3
-4 6 2 58.29 5.6
-4 6 2 63.09 8.9
-4 6 2 86.49 11.2
-4 6 2 67.89 49.7
-4 6 2 59.19 8.3
3 -6 -2 541.85 34.1
-3 6 2 614.54 31
-3 6 2 584.44 25.7
-3 6 2 620.04 104.89
-3 6 2 575.14 33.3
-3 6 2 550.44 30
-3 6 2 577.64 27.6
-3 6 2 527.85 29
2 -6 -2 186.18 17.4
-2 6 2 207.78 63.89
-2 6 2 194.88 15.4
-2 6 2 215.58 15.6
1 -6 -2 16.7 33
1 -6 -2 18.5 6.7
-1 6 2 14.2 4.4
-1 6 2 16.3 4.9
-1 6 2 19.2 25.7
0 -6 -2 400.36 96.99
0 -6 -2 438.56 26.8
0 6 2 435.66 23.1
0 6 2 420.66 23.4
-1 -6 -2 293.17 83.49
1 6 2 336.87 18.3
1 6 2 266.57 16.9
-2 -6 -2 320.57 90.49
2 6 2 409.26 22
-3 -6 -2 357.46 97.79
-3 -6 -2 286.27 96.69
3 6 2 322.67 19.8
-4 -6 -2 767.32 132.29
4 6 2 761.32 38.6
4 6 2 719.43 38
-5 -6 -2 191.78 95.99
5 6 2 188.18 13.7
5 6 2 202.38 16.7
5 6 2 178.18 15.7
-6 -6 -2 -1.7 3.2
6 6 2 9 5.3
6 6 2 -0.7 3.3
6 6 2 2.1 2.3
6 6 2 2.1 4.5
-7 -6 -2 15.2 5.6
7 6 2 15.7 5.6
7 6 2 15.7 7
7 6 2 12.5 3.4
7 6 2 21.5 7.1
8 6 2 33.1 6.5
8 6 2 49.7 5.9
8 6 2 39 5.5
5 -7 -2 47.9 7.5
4 -7 -2 201.08 16.8
-4 7 2 230.88 15.4
-4 7 2 227.08 15.1
-4 7 2 201.38 14.2
-4 7 2 206.78 17.8
3 -7 -2 61.29 12.3
-3 7 2 84.39 8.5
-3 7 2 53.39 7.8
-3 7 2 79.09 10.2
-3 7 2 90.39 52.29
-3 7 2 52.29 9.4
-3 7 2 71.69 9
2 -7 -2 109.89 15.3
-2 7 2 154.08 13.8
-2 7 2 172.58 61.99
-2 7 2 131.49 12
-2 7 2 129.59 11.8
-2 7 2 146.89 12
-2 7 2 139.29 13.1
-2 7 2 115.99 10.5
-2 7 2 136.69 10.7
1 -7 -2 636.44 38.7
-1 7 2 678.33 34.4
-1 7 2 618.14 33.9
-1 7 2 694.43 35.6
-1 7 2 643.44 33.2
0 -7 -2 733.63 42.3
0 7 2 722.13 38.3
0 7 2 803.42 37.9
-1 -7 -2 6.9 6.4
1 7 2 3.7 3.4
1 7 2 0.6 3.1
2 7 2 1254.27 58.29
3 7 2 627.84 34
4 7 2 34.2 7.2
4 7 2 44.2 9
4 7 2 47.2 7.5
5 7 2 64.89 10.8
5 7 2 93.29 10.9
5 7 2 70.89 10.5
-6 -7 -2 263.87 18.7
6 7 2 295.37 19.4
6 7 2 306.57 22.5
6 7 2 274.57 14.9
6 7 2 264.07 21
-7 -7 -2 70.99 9.4
7 7 2 108.29 12.1
7 7 2 89.79 12.8
7 7 2 71.09 11.2
7 7 2 104.09 7.7
8 7 2 1.5 2.9
8 7 2 2.1 2.2
8 7 2 1 3.5
4 -8 -2 51.79 8.1
-4 8 2 49 6.2
3 -8 -2 244.08 19.1
3 -8 -2 239.78 20.5
-3 8 2 264.57 19.3
-3 8 2 275.77 15.4
-3 8 2 294.87 18.2
-3 8 2 274.07 16.9
2 -8 -2 181.48 19.3
-2 8 2 190.08 15.1
-2 8 2 209.78 16.9
-2 8 2 222.68 15.6
-2 8 2 205.18 14.1
-2 8 2 228.58 14.9
-2 8 2 218.18 16.3
-2 8 2 198.48 13.9
-2 8 2 249.38 18.2
1 -8 -2 11.9 7.8
-1 8 2 15.7 5.7
-1 8 2 26.6 6.8
-1 8 2 21 5.1
-1 8 2 23.9 5.9
-1 8 2 19 7
-1 8 2 14.6 4.7
-1 8 2 23 6
-1 8 2 27.1 6
0 -8 -2 231.18 21.5
0 8 2 243.48 15
0 8 2 229.38 16.2
0 8 2 256.17 17.3
0 8 2 245.28 16.8
0 8 2 241.58 18.2
0 8 2 224.78 17.2
-1 -8 -2 288.27 24.2
1 8 2 322.17 21.1
1 8 2 301.17 19.1
1 8 2 334.17 20.7
2 8 2 390.56 22.5
2 8 2 432.66 25.5
3 8 2 43.8 9.1
3 8 2 35.9 9.2
4 8 2 702.93 35.8
4 8 2 688.23 38.7
5 8 2 513.75 31.4
5 8 2 501.25 28.2
5 8 2 481.55 30.2
-6 -8 -2 66.59 9.8
6 8 2 71.29 12.5
6 8 2 82.69 10.8
6 8 2 54.09 10.6
6 8 2 68.09 6
7 8 2 38.6 4.9
7 8 2 52.39 8.3
7 8 2 33.3 8.5
8 8 2 49.2 4.5
3 -9 -2 69.89 9.3
-3 9 2 88.09 7.1
-3 9 2 91.99 9.1
-3 9 2 94.19 9.1
-2 9 2 6.6 3.4
-2 9 2 10.4 4.3
-2 9 2 6.7 3.9
-2 9 2 6.4 4.2
-2 9 2 3.2 3.6
-2 9 2 4.9 4.1
1 -9 -2 328.07 25.8
-1 9 2 338.97 20.6
-1 9 2 308.27 18.7
-1 9 2 325.47 19.3
-1 9 2 305.57 20.8
-1 9 2 330.47 22.8
-1 9 2 311.57 18.9
-1 9 2 350.16 20.7
0 -9 -2 492.85 34
0 9 2 516.45 26.4
0 9 2 496.05 26.5
0 9 2 524.35 27
0 9 2 488.55 28.7
0 9 2 517.45 28
0 9 2 503.55 30.4
0 9 2 523.25 28.3
-1 -9 -2 25.8 9.8
1 9 2 20.4 4.9
1 9 2 29.8 6.3
1 9 2 28.6 7.9
1 9 2 18.3 4.7
1 9 2 30 6.2
1 9 2 19 5.1
2 9 2 73.79 9.8
2 9 2 80.59 9.7
2 9 2 87.19 9.6
2 9 2 69.79 8.5
3 9 2 328.67 19
5 9 2 6.3 4.8
6 9 2 470.35 21.5
6 9 2 466.95 26.4
7 9 2 125.79 7.6
7 9 2 119.59 10.7
-3 10 2 11.6 3.4
2 -10 -2 255.37 18.3
-2 10 2 285.07 16.4
-2 10 2 278.77 14.3
-2 10 2 267.67 15.8
-2 10 2 268.97 16.6
-2 10 2 276.67 14.9
-2 10 2 276.17 15.7
-2 10 2 301.67 15.3
-1 10 2 249.68 15
-1 10 2 234.78 15.7
-1 10 2 236.48 14.5
-1 10 2 242.58 16.1
-1 10 2 223.98 16.1
-1 10 2 242.18 14.9
0 -10 -2 -4.8 8.3
0 10 2 -2.3 5.2
0 10 2 -2.1 3.1
0 10 2 0.7 3.3
0 10 2 2.8 3.2
0 10 2 5.9 4.7
0 10 2 5.6 3.4
0 10 2 5.4 4.3
-1 -10 -2 271.37 24.9
1 10 2 293.37 18.3
1 10 2 287.27 17.1
1 10 2 278.47 17.2
1 10 2 306.87 19.1
1 10 2 303.67 17.3
2 10 2 828.22 40.4
2 10 2 839.82 39.2
2 10 2 828.12 38.8
2 10 2 852.41 40.4
1 -11 -2 40.9 6.4
-1 11 2 52.89 5.7
-1 11 2 44 5.5
-1 11 2 43.4 5
-1 11 2 51.29 6.1
-1 11 2 53.99 7.3
-1 11 2 52.29 4.6
-1 11 2 49 6.3
0 11 2 250.67 14.3
0 11 2 254.97 15.7
0 11 2 232.08 14.9
0 11 2 239.68 14.1
1 11 2 231.08 13.6
1 11 2 216.58 13.5
1 11 2 235.98 14.9
1 11 2 225.18 14.9
1 11 2 236.48 14
2 11 2 3.9 2.8
2 11 2 1.3 1.4
2 11 2 2.8 2.9
2 11 2 2.5 3.4
2 11 2 1 2.9
0 12 2 61.19 4.9
0 12 2 49.8 3.7
1 12 2 12.6 2.9
1 12 2 16.4 3.6
1 12 2 9.1 3.8
1 12 2 14.1 2
2 12 2 269.27 14.5
2 12 2 266.57 11.9
1 10 -3 0.4 2.9
1 10 -3 3.1 3.5
1 10 -3 -1.8 3.9
0 10 -3 84.89 7.5
0 10 -3 89.49 8.2
0 10 -3 83.49 7.9
0 10 -3 61.09 9.7
-1 10 -3 113.99 10.1
-1 10 -3 106.69 7.3
2 9 -3 49.9 5.3
2 9 -3 34.3 7.6
2 9 -3 51.19 6.8
1 9 -3 150.98 9.5
1 9 -3 153.78 12.1
1 9 -3 149.88 13
1 9 -3 141.89 11.2
1 9 -3 143.39 14.4
0 9 -3 263.37 16.2
0 9 -3 244.48 16
0 9 -3 246.18 18.7
0 9 -3 232.68 16.8
0 9 -3 243.68 16.3
-1 9 -3 17.3 4.7
-1 9 -3 20.1 6.1
-1 9 -3 16.6 5
-1 9 -3 27.5 6.6
-1 9 -3 15.8 4.6
-2 9 -3 18.1 3.4
-2 9 -3 12.6 6.1
-2 9 -3 14.6 4.4
-2 9 -3 10 3.3
-2 9 -3 13.6 4.2
6 8 -3 51.99 4.4
2 8 -3 175.08 16.7
2 8 -3 192.68 13.4
2 8 -3 184.28 16.6
1 8 -3 158.88 16.8
1 8 -3 164.88 14
1 8 -3 195.48 13.9
1 8 -3 190.08 13.5
1 8 -3 173.58 10.8
1 8 -3 185.88 17.1
0 8 -3 23.4 4.7
0 8 -3 39.6 7.3
0 8 -3 36.6 9.7
0 8 -3 34.9 7.1
0 8 -3 31 7.3
0 8 -3 38.9 9
0 8 -3 28.3 6.3
-1 8 -3 255.67 16.6
-1 8 -3 247.08 20.4
-1 8 -3 233.68 18
-1 8 -3 234.68 16.6
-1 8 -3 253.87 17.8
-1 8 -3 247.28 19.2
-2 8 -3 289.57 19.1
-2 8 -3 277.77 19.2
-2 8 -3 278.77 19.5
-2 8 -3 284.97 17.5
-2 8 -3 299.87 17.3
-2 8 -3 304.87 17.4
-3 8 -3 61.59 7.3
-3 8 -3 53.29 7.6
-3 8 -3 68.39 7.9
-3 8 -3 56.49 7.7
7 7 -3 69.89 5.8
6 7 -3 9.3 3
6 7 -3 10.5 7
2 7 -3 33.5 31.7
2 7 -3 47.7 8.9
2 7 -3 45.2 9.4
2 7 -3 40.1 6.4
1 7 -3 257.27 16.8
1 7 -3 297.57 21.5
1 7 -3 259.87 20.5
1 7 -3 309.57 16.8
1 7 -3 276.97 17.3
1 7 -3 246.18 17.5
0 7 -3 1050.59 47.9
0 7 -3 1064.49 54.89
0 7 -3 1101.69 55.49
0 7 -3 1145.09 50.99
0 7 -3 1123.39 52.19
0 7 -3 1122.99 52.09
0 7 -3 1096.99 50.69
-1 7 -3 104.49 12.4
-1 7 -3 84.19 10.2
-1 7 -3 85.59 10
-1 7 -3 72.89 11.2
-1 7 -3 70.19 8.1
-1 7 -3 79.39 12.2
-1 7 -3 55.19 44.3
-1 7 -3 70.99 9.6
-2 7 -3 231.38 17.2
-2 7 -3 220.88 15.1
-2 7 -3 204.68 17.9
-2 7 -3 210.08 15
-2 7 -3 213.78 16.8
-2 7 -3 222.98 14.9
-2 7 -3 200.98 17.4
-3 7 -3 74.79 9.4
-3 7 -3 99.99 11.9
-3 7 -3 69.99 8.7
-3 7 -3 75.49 8.5
-3 7 -3 69.79 9.3
-4 7 -3 35.5 5.7
-4 7 -3 44.2 6.7
7 6 -3 1.8 3.9
7 6 -3 8.4 3.1
6 6 -3 16.8 3.5
6 6 -3 9.2 4.8
6 6 -3 9.4 6.1
5 6 -3 211.18 11.7
5 6 -3 239.58 19.3
4 6 -3 67.29 10.2
-4 -6 3 68.69 74.29
3 6 -3 1.5 9.1
3 6 -3 -3.9 20.7
-3 -6 3 2 7.2
2 6 -3 228.18 17.2
2 6 -3 209.98 16.7
2 6 -3 170.88 54.19
-2 -6 3 256.37 27.8
1 6 -3 1011.5 48.3
1 6 -3 930.41 44.5
1 6 -3 932.81 47.6
0 6 -3 15.4 5.8
0 6 -3 17.6 27.2
0 6 -3 13 5.4
0 6 -3 23.4 5.6
-1 6 -3 212.78 15.5
-1 6 -3 207.58 15.7
-1 6 -3 242.18 17.7
-1 6 -3 199.78 16.8
-1 6 -3 229.38 17.9
-1 6 -3 156.18 63.39
-2 6 -3 578.94 31.4
-2 6 -3 688.13 34.4
-2 6 -3 606.34 30.8
-2 6 -3 614.84 31.2
-2 6 -3 571.44 34.1
-2 6 -3 633.84 34.9
-2 6 -3 654.23 33.8
-3 6 -3 67.49 10
-3 6 -3 79.69 10.5
-3 6 -3 91.59 11.4
-3 6 -3 108.19 12
-4 6 -3 17.7 5.7
-4 6 -3 18.7 5.5
-5 6 -3 12.2 4.1
8 5 -3 31.2 4.4
8 5 -3 23.8 5.5
7 5 -3 60.49 8.7
7 5 -3 65.69 11.2
7 5 -3 72.79 7.3
6 5 -3 95.69 11.7
6 5 -3 88.99 7.3
6 5 -3 90.59 13
5 5 -3 50.09 8.1
5 5 -3 44.7 9.4
5 5 -3 45.8 5.2
4 5 -3 76.29 10.9
4 5 -3 60.59 34.7
4 5 -3 61.39 17.3
-4 -5 3 78.79 48.7
3 5 -3 338.27 20.7
3 5 -3 320.57 33.3
3 5 -3 287.57 56.39
2 5 -3 695.83 46.3
2 5 -3 663.23 34.7
2 5 -3 727.53 50.49
2 5 -3 534.45 73.39
-2 -5 3 744.63 45
1 5 -3 10.1 8
1 5 -3 8.8 19
1 5 -3 8.8 4.3
-1 -5 3 12.8 7.9
0 5 -3 323.37 19.9
0 5 -3 226.38 59.69
0 -5 3 314.17 28.1
-1 5 -3 727.83 35.4
-1 5 -3 526.05 86.59
-2 5 -3 38.7 36
-2 5 -3 81.89 11
-2 5 -3 55.89 9.4
-2 5 -3 102.69 11.8
-3 5 -3 93.29 55.79
-3 5 -3 51.19 8.9
-3 5 -3 54.19 8.1
-3 5 -3 49.2 8.6
-3 5 -3 51.39 9.1
-4 5 -3 430.66 25.8
-4 5 -3 484.85 26.6
-5 5 -3 117.39 10.8
-6 5 -3 8.8 3.1
8 4 -3 283.67 17.5
8 4 -3 282.57 14.8
8 4 -3 286.37 14.9
-8 -4 3 289.27 15.6
7 4 -3 156.38 11
7 4 -3 160.28 13.7
7 4 -3 149.09 14.6
7 4 -3 153.18 10.4
6 4 -3 17.2 6.6
6 4 -3 25.9 4.6
6 4 -3 28.8 6.4
5 4 -3 254.47 16.7
5 4 -3 244.68 18.4
-5 -4 3 147.49 68.09
4 4 -3 478.25 40
4 4 -3 423.46 24.9
4 4 -3 367.66 65.19
-4 -4 3 419.26 83.09
3 4 -3 114.89 21.1
3 4 -3 104.29 9.8
3 4 -3 98.79 34.6
-3 -4 3 98.69 41.9
2 4 -3 333.57 30.6
2 4 -3 360.16 27.8
2 4 -3 317.37 50.09
2 4 -3 350.86 19.9
1 4 -3 435.16 59.89
1 4 -3 448.16 24.8
1 4 -3 472.85 33.8
1 4 -3 456.15 35.9
-1 -4 3 492.25 32.8
0 4 -3 266.57 17.3
0 4 -3 311.67 26.7
0 4 -3 247.88 50.09
0 -4 3 313.37 25.6
-1 4 -3 22.7 5.3
-1 4 -3 8.7 18.4
1 -4 3 23.1 10.5
-2 4 -3 313.07 78.99
-2 4 -3 356.46 20.9
2 -4 3 353.66 31.4
-3 4 -3 643.04 34
-3 4 -3 696.43 30.5
-3 4 -3 653.63 100.09
-4 4 -3 70.19 47
-4 4 -3 45.7 6
-4 4 -3 35.3 6.9
-4 4 -3 46.9 7.8
-5 4 -3 6.5 3
-5 4 -3 12.8 5.4
-6 4 -3 84.19 9.4
6 -4 3 72.09 9.9
8 3 -3 2.2 2.7
8 3 -3 1.4 3.5
-8 -3 3 1.4 2.3
7 3 -3 28.5 5.2
7 3 -3 39.3 7.7
7 3 -3 37.2 5.3
7 3 -3 23.5 6.4
6 3 -3 360.26 18.9
6 3 -3 382.46 23
6 3 -3 380.76 24.5
-6 -3 3 177.88 83.89
5 3 -3 157.38 28.6
5 3 -3 135.09 13.3
5 3 -3 141.49 11.9
-5 -3 3 106.79 58.09
4 3 -3 32.6 24.3
4 3 -3 18.2 5.1
4 3 -3 34.8 12.3
-4 -3 3 30 30.5
3 3 -3 165.78 20.1
3 3 -3 138.09 37.8
-3 -3 3 189.48 53.89
2 3 -3 1598.54 107.29
2 3 -3 1507.85 79.59
2 3 -3 1457.25 65.59
2 3 -3 1532.35 73.79
1 3 -3 281.07 16.4
1 3 -3 270.47 25.3
1 3 -3 328.77 44.6
1 3 -3 288.67 22.5
0 3 -3 38.1 21.3
0 3 -3 37.9 9.1
0 3 -3 41.2 6.2
0 -3 3 37.1 9.9
-1 3 -3 553.44 29.4
-1 3 -3 634.54 73.29
-1 3 -3 643.74 39.1
1 -3 3 652.73 41.4
-2 3 -3 404.06 65.99
-2 3 -3 419.56 22.7
2 -3 3 459.45 34.9
-3 3 -3 18.6 25.4
3 -3 3 2.4 7.1
-4 3 -3 40.7 7.7
-4 3 -3 86.59 49
-4 3 -3 62.99 9.3
4 -3 3 57.79 16.8
-5 3 -3 539.85 30.3
-5 3 -3 677.23 105.39
-5 3 -3 528.35 28.6
-6 3 -3 69.69 9.5
-6 3 -3 75.39 8.7
6 -3 3 74.69 8.8
-7 3 -3 6.7 3
7 -3 3 9.8 3.2
8 2 -3 40.1 4.9
8 2 -3 33.1 6.2
-8 -2 3 41.3 5.6
-8 -2 3 43.9 5.5
7 2 -3 199.38 13.2
7 2 -3 198.68 15.8
7 2 -3 198.18 12.8
-7 -2 3 192.18 13.7
-7 -2 3 197.98 13.6
6 2 -3 26.5 7.4
6 2 -3 34.2 7.2
6 2 -3 32.9 5.8
6 2 -3 34.2 5.5
-6 -2 3 36.5 54.59
-6 -2 3 31.1 5.7
5 2 -3 91.09 10.4
5 2 -3 79.69 10.5
5 2 -3 90.49 19.7
-5 -2 3 24.1 35.2
4 2 -3 433.26 23.5
4 2 -3 450.85 34
4 2 -3 303.17 84.99
-4 -2 3 380.96 70.69
3 2 -3 503.25 58.59
3 2 -3 412.56 83.39
3 2 -3 586.44 36.9
-3 -2 3 598.04 75.29
2 2 -3 87.99 25
2 2 -3 85.99 10.3
2 2 -3 98.79 13.4
1 2 -3 108.79 11.5
1 2 -3 149.79 26
1 2 -3 100.79 14.2
0 2 -3 5597.44 254.57
0 2 -3 4491.55 215.38
0 2 -3 6015.7 267.57
0 -2 3 4717.13 217.18
-1 2 -3 400.26 49.7
-1 2 -3 402.16 26.5
-1 2 -3 499.15 56.89
1 -2 3 420.46 29.9
1 -2 3 375.16 81.59
-2 2 -3 643.74 72.79
-2 2 -3 656.83 37.8
2 -2 3 651.63 42.9
2 -2 3 637.24 163.78
-3 2 -3 395.86 64.79
3 -2 3 342.67 30.9
-4 2 -3 639.94 90.99
4 -2 3 551.64 43.7
-5 2 -3 49.6 41.2
-5 2 -3 53.39 9.4
-5 2 -3 42.7 8.4
-6 2 -3 51.69 7.9
-6 2 -3 41.3 7.5
6 -2 3 53.19 8.4
-7 2 -3 187.48 12.3
-7 2 -3 162.88 12.1
7 -2 3 201.68 11.9
8 1 -3 4.2 3.7
-8 -1 3 6 3.2
-8 -1 3 9.8 3.3
7 1 -3 1.2 3.3
7 1 -3 -4.9 3.9
-7 -1 3 -2.5 2.6
-7 -1 3 8.5 4.4
6 1 -3 99.89 11.9
6 1 -3 121.39 9.4
-6 -1 3 71.19 57.69
-6 -1 3 93.29 10.3
-6 -1 3 91.99 11.5
5 1 -3 680.93 48.9
5 1 -3 778.32 38.4
5 1 -3 849.02 38.3
-5 -1 3 577.04 104.79
-5 -1 3 695.43 36.2
4 1 -3 107.49 17.5
4 1 -3 58.49 40.4
4 1 -3 105.69 9.7
-4 -1 3 73.39 38.9
3 1 -3 412.06 50.99
3 1 -3 385.66 73.59
3 1 -3 452.75 29.9
-3 -1 3 450.25 64.19
2 1 -3 1551.44 76.79
2 1 -3 1630.14 99.49
2 1 -3 1496.65 73.29
-2 -1 3 1911.81 120.19
1 1 -3 1007.4 51.89
1 1 -3 979.4 47.9
1 1 -3 1003.8 77.69
0 1 -3 38.1 9
0 1 -3 50.09 23.7
0 1 -3 23.5 5.5
0 -1 3 34 7.6
-1 1 -3 260.47 45.4
-1 1 -3 289.67 18.1
1 -1 3 228.68 19.8
-2 1 -3 623.84 62.39
-2 1 -3 556.04 31.3
2 -1 3 536.95 106.19
2 -1 3 580.24 37.7
-3 1 -3 226.88 44.5
3 -1 3 218.28 23
-4 1 -3 93.19 38.7
4 -1 3 104.39 20.5
-5 1 -3 403.16 22.1
-5 1 -3 329.97 21.6
5 -1 3 343.47 34.2
-6 1 -3 127.79 13.3
-6 1 -3 143.89 13.1
6 -1 3 160.08 12.6
-7 1 -3 8.2 4
-7 1 -3 49.7 7.8
7 -1 3 26.4 4.9
-8 1 -3 16.3 4.1
-8 0 3 12.1 3.8
7 0 -3 132.09 13
7 0 -3 139.89 9.6
-7 0 3 102.09 12.8
-7 0 3 129.09 10.5
-7 0 3 121.89 11.1
6 0 -3 67.69 10.5
6 0 -3 80.69 8.8
-6 0 3 59.39 51.39
-6 0 3 49.4 8.3
-6 0 3 70.59 10.6
-6 0 3 63.89 8.1
5 0 -3 1.1 6.1
5 0 -3 3.2 3.5
5 0 -3 7.5 4.9
-5 0 3 1.1 30.1
-5 0 3 3.3 3.5
4 0 -3 14.8 26.7
4 0 -3 19.9 8.5
-4 0 3 14.3 25.1
-4 0 3 17.3 4.2
3 0 -3 1220.08 58.49
3 0 -3 1064.19 124.99
3 0 -3 1192.08 59.49
-3 0 3 1014.1 102.09
2 0 -3 360.16 57.59
2 0 -3 336.87 38.6
2 0 -3 346.87 22.5
2 0 -3 304.97 21.2
-2 0 3 360.96 48.4
1 0 -3 699.83 38.1
1 0 -3 840.22 70.99
1 0 -3 681.63 36.6
0 0 -3 851.31 45.8
0 0 -3 1001.7 44.2
0 0 -3 1080.59 82.59
0 0 3 850.01 43.9
-1 0 -3 1234.68 109.59
-1 0 -3 1583.44 61.89
1 0 3 1315.67 65.49
-2 0 -3 101.39 9.1
-2 0 -3 74.89 40.7
2 0 3 108.69 30.2
2 0 3 98.89 47.5
2 0 3 88.79 12.9
-3 0 -3 588.44 62.49
3 0 3 499.35 36.3
3 0 3 506.85 78.69
-4 0 -3 601.14 30
4 0 3 622.34 44.4
-5 0 -3 33 7.1
5 0 3 25.6 10.9
-6 0 -3 5.8 4.9
-6 0 -3 7.9 4.6
6 0 3 6.5 4.1
-7 0 -3 127.69 12.5
7 0 3 109.99 8.4
-8 0 -3 26.3 5
-8 1 3 32.8 4.9
-7 1 3 11.4 4.8
-7 1 3 21.3 6.3
6 -1 -3 69.99 6.4
6 -1 -3 51.79 9.6
6 -1 -3 62.89 7.4
-6 1 3 67.09 10.5
-6 1 3 63.99 8.2
-6 1 3 64.69 9.7
-6 1 3 59.69 54.19
5 -1 -3 205.68 13.5
5 -1 -3 221.08 16.8
-5 1 3 228.28 14.3
-5 1 3 195.98 15.5
-5 1 3 164.18 64.99
4 -1 -3 479.05 32.3
-4 1 3 386.56 74.39
-4 1 3 475.65 25
3 -1 -3 109.69 9.3
3 -1 -3 113.89 12.1
3 -1 -3 113.39 13.5
3 -1 -3 93.49 43.8
-3 1 3 96.09 41.8
2 -1 -3 209.28 48.2
2 -1 -3 222.48 15.5
2 -1 -3 190.38 16.5
-2 1 3 182.68 43.4
1 -1 -3 2229.08 93.79
1 -1 -3 2479.55 157.68
1 -1 -3 1840.42 93.79
0 -1 -3 1117.39 52.69
0 -1 -3 1117.19 97.79
0 -1 -3 1374.36 95.79
0 -1 -3 1210.38 52.89
0 1 3 1076.69 51.29
-1 -1 -3 642.34 75.49
-1 -1 -3 880.01 80.29
-1 -1 -3 827.92 35.3
1 1 3 619.14 36.8
-2 -1 -3 605.04 82.29
-2 -1 -3 841.42 34.5
2 1 3 822.92 84.99
2 1 3 711.53 111.09
2 1 3 734.23 41.7
-3 -1 -3 742.53 101.29
3 1 3 938.71 110.19
3 1 3 908.51 51.39
-4 -1 -3 900.11 39
-4 -1 -3 665.43 108.99
4 1 3 885.61 40.1
4 1 3 743.03 118.39
4 1 3 898.41 53.99
-5 -1 -3 246.48 16.4
-5 -1 -3 277.77 152.38
5 1 3 287.77 29.2
5 1 3 235.48 17.3
-6 -1 -3 73.29 10.3
-6 -1 -3 91.19 10.3
-6 -1 -3 102.89 9.6
6 1 3 102.89 7.9
6 1 3 99.09 9
-7 -1 -3 41.6 7.5
-7 -1 -3 57.79 9.6
-7 -1 -3 49.7 7.5
-8 -1 -3 0.5 3.3
-7 2 3 96.69 11
6 -2 -3 209.88 13
-6 2 3 253.27 144.29
-6 2 3 197.98 17.3
-6 2 3 172.58 14.7
5 -2 -3 106.99 9.8
-5 2 3 108.59 11.9
-5 2 3 114.09 12.4
-5 2 3 92.59 52.69
-4 2 3 63.09 8.6
-4 2 3 85.89 46
3 -2 -3 862.41 40.5
3 -2 -3 779.62 47.9
3 -2 -3 771.12 116.09
-3 2 3 945.51 39.5
-3 2 3 715.23 91.99
2 -2 -3 229.58 57.39
-2 2 3 189.68 49.7
1 -2 -3 56.69 31.4
1 -2 -3 98.29 23.4
0 -2 -3 1308.07 128.29
-1 -2 -3 853.91 83.59
-1 -2 -3 854.81 37.4
1 2 3 689.53 37.2
-2 -2 -3 13.4 23.1
-2 -2 -3 19.1 3.3
2 2 3 13.4 5.5
2 2 3 13.2 18.7
-3 -2 -3 111.99 50.29
3 2 3 120.39 14.5
3 2 3 131.69 47.4
-4 -2 -3 46.8 6.2
-4 -2 -3 42.4 38.3
4 2 3 45.3 6.6
4 2 3 44.9 12
4 2 3 30.9 32.7
-5 -2 -3 425.46 23.3
-5 -2 -3 425.16 124.39
5 2 3 413.16 23.6
5 2 3 469.35 38.7
5 2 3 414.06 24.4
-6 -2 -3 4.4 4.2
-6 -2 -3 -0.2 3.2
6 2 3 -1.7 3.7
6 2 3 1.4 2.6
6 2 3 1.5 2.2
6 2 3 2.6 3.5
-7 -2 -3 78.79 9.5
-7 -2 -3 86.89 11.7
7 2 3 92.79 7.9
-8 -2 -3 46 6.5
-7 3 3 94.09 8.9
-7 3 3 100.59 10.7
6 -3 -3 6.5 3.6
-6 3 3 5.2 4.5
-6 3 3 3.9 4.8
-6 3 3 3.6 5.7
5 -3 -3 220.78 14.8
-5 3 3 304.57 94.69
-5 3 3 223.18 18.6
-5 3 3 228.28 16.8
-4 3 3 681.43 103.99
-4 3 3 779.42 39.4
3 -3 -3 128.29 12
3 -3 -3 122.39 61.39
-3 3 3 127.79 51.09
-3 3 3 137.59 11
2 -3 -3 10.6 24.5
2 -3 -3 21.3 5.2
-2 3 3 24.6 25.6
1 -3 -3 1054.79 128.99
0 -3 -3 847.22 113.09
-1 -3 -3 29.5 26.8
-1 -3 -3 37.6 25.4
-2 -3 -3 396.96 62.89
-2 -3 -3 407.16 21.2
2 3 3 411.06 23.7
-3 -3 -3 550.94 84.59
3 3 3 525.45 94.59
3 3 3 594.84 34.7
-4 -3 -3 23.2 33.9
4 3 3 14.2 4.1
4 3 3 16.3 28.3
4 3 3 19.1 7.8
-5 -3 -3 2.2 2.7
-5 -3 -3 -2.8 30.1
5 3 3 4.6 3.4
5 3 3 6.2 3.7
5 3 3 2.7 6.9
-6 -3 -3 308.97 19.7
-6 -3 -3 300.17 17.9
-6 -3 -3 321.57 125.19
6 3 3 313.57 15.9
6 3 3 282.67 17.7
6 3 3 287.97 20.7
6 3 3 311.57 20.6
-7 -3 -3 136.99 13.6
7 3 3 150.78 10.1
-8 -3 -3 3 3.5
8 3 3 1.2 2.7
-7 4 3 25.7 4.6
-7 4 3 24.6 3.6
6 -4 -3 136.19 10.3
-6 4 3 144.79 12.6
-6 4 3 103.59 13.9
-6 4 3 140.79 11.7
5 -4 -3 332.47 22.2
-5 4 3 274.07 19.9
-5 4 3 290.57 90.39
-5 4 3 328.57 20
-5 4 3 286.77 22.6
4 -4 -3 22.7 6.6
-4 4 3 4.4 35.4
-4 4 3 19.9 6.6
-4 4 3 30.8 6.6
3 -4 -3 293.67 19.3
-3 4 3 241.38 17.7
-3 4 3 226.68 71.69
2 -4 -3 997.1 149.59
2 -4 -3 1417.96 58.89
-2 4 3 1380.66 125.89
-2 4 3 1206.78 56.29
1 -4 -3 881.21 41.6
1 -4 -3 789.62 125.39
-1 4 3 958 91.09
-1 4 3 862.41 39.2
0 -4 -3 1010.6 137.39
-1 -4 -3 1580.84 114.79
-1 -4 -3 1279.47 150.98
-2 -4 -3 1313.17 121.79
-2 -4 -3 1349.56 156.48
-3 -4 -3 16.1 25.3
3 4 3 8.8 4.7
3 4 3 5.7 19.5
-4 -4 -3 263.07 86.59
4 4 3 289.07 24.9
4 4 3 290.47 17.7
-5 -4 -3 570.14 118.99
5 4 3 694.73 35.7
5 4 3 680.63 35.2
5 4 3 683.63 47.7
-6 -4 -3 13.2 4.9
6 4 3 19.6 6.1
6 4 3 11.7 4.3
6 4 3 23.6 5.3
6 4 3 21.8 6.9
-7 -4 -3 7.8 5.5
7 4 3 4.2 4.1
7 4 3 9.9 6
7 4 3 9.8 5.4
7 4 3 4.9 3.5
7 4 3 9.2 3.7
-8 -4 -3 82.09 9.5
8 4 3 72.39 7.2
6 -5 -3 5.3 3.3
-6 5 3 10.8 3.2
-6 5 3 14.6 4.6
5 -5 -3 222.58 17.5
-5 5 3 230.58 16.7
-5 5 3 211.28 14.5
-5 5 3 205.38 19.1
4 -5 -3 489.95 29.1
-4 5 3 411.76 25.9
-4 5 3 437.06 24.6
-4 5 3 532.55 101.39
-4 5 3 499.15 26.2
-4 5 3 448.56 29.4
3 -5 -3 155.88 14.1
3 -5 -3 186.98 15.6
-3 5 3 197.48 13.4
-3 5 3 175.38 66.09
-3 5 3 172.98 15.3
2 -5 -3 6.5 3.9
-2 5 3 4.5 3.3
-2 5 3 1.6 23.6
-2 5 3 7.9 4.2
1 -5 -3 258.67 17.7
1 -5 -3 214.08 72.59
-1 5 3 237.68 15
-1 5 3 262.57 16
0 -5 -3 724.53 36.5
0 -5 -3 767.52 127.49
0 5 3 723.63 34.1
-1 -5 -3 1474.45 176.58
-2 -5 -3 224.38 73.79
-2 -5 -3 224.58 54.59
-3 -5 -3 1125.39 132.89
-3 -5 -3 1069.29 167.78
3 5 3 1138.59 51.19
-4 -5 -3 486.85 99.29
4 5 3 519.75 27.9
4 5 3 506.15 28.3
-5 -5 -3 3.5 35.2
5 5 3 5.8 4.2
5 5 3 8.5 7.9
5 5 3 12.4 4.5
5 5 3 9.6 4.7
-6 -5 -3 41.9 7.8
6 5 3 34.8 5.1
6 5 3 38.4 8.4
6 5 3 51.89 8.2
6 5 3 43.6 8.8
-7 -5 -3 313.47 21.3
7 5 3 327.37 17.6
7 5 3 333.27 20.5
7 5 3 308.47 22.5
7 5 3 293.37 22.7
7 5 3 342.77 17.5
8 5 3 72.49 10.9
8 5 3 97.19 7.6
8 5 3 96.79 7.9
8 5 3 100.09 9.6
6 -6 -3 54.19 5.5
-6 6 3 48.2 6
5 -6 -3 199.18 15.9
-5 6 3 198.48 17.5
-5 6 3 226.38 15.5
-5 6 3 200.08 10.1
4 -6 -3 21.3 6.5
4 -6 -3 18.8 11.7
-4 6 3 22.5 5.7
-4 6 3 23 7.6
-4 6 3 20.6 37.7
-4 6 3 12.8 5.5
-4 6 3 27.3 4.5
3 -6 -3 36.9 9.3
3 -6 -3 29 7.3
-3 6 3 43.2 9.4
-3 6 3 47.4 7.7
-3 6 3 42.6 7.6
-3 6 3 44.7 41.9
-3 6 3 50.39 7.3
-3 6 3 37.8 5.2
2 -6 -3 1031.7 53.69
-2 6 3 1047.5 51.59
-2 6 3 1197.08 128.19
-2 6 3 1070.39 50.79
1 -6 -3 320.27 22.2
-1 6 3 328.37 19.8
-1 6 3 322.47 19.6
0 -6 -3 177.78 81.79
0 -6 -3 141.59 13.3
0 6 3 136.49 10.9
0 6 3 146.29 11.1
-1 -6 -3 207.88 74.59
-1 -6 -3 205.88 15.7
1 6 3 255.57 15.1
1 6 3 212.08 13.6
-2 -6 -3 2008.9 238.08
2 6 3 2555.84 99.99
-3 -6 -3 512.55 124.99
-3 -6 -3 633.94 107.19
3 6 3 577.44 30.5
-4 -6 -3 109.99 66.79
4 6 3 104.29 12.6
4 6 3 83.79 11.2
-5 -6 -3 292.47 105.19
5 6 3 479.75 28.7
5 6 3 467.45 25.8
5 6 3 499.55 29.1
-6 -6 -3 232.28 17.3
6 6 3 246.38 19.9
6 6 3 238.68 17
6 6 3 209.78 18.6
6 6 3 241.58 13.7
-7 -6 -3 9.6 4.9
7 6 3 1.3 5.5
7 6 3 6.4 3.2
7 6 3 7.2 4.6
7 6 3 8.6 5.6
8 6 3 21.8 4.2
8 6 3 26.8 4.8
5 -7 -3 3.9 3.4
-5 7 3 4.8 3.4
4 -7 -3 98.99 12.3
-4 7 3 109.59 14.5
-4 7 3 114.19 12.3
3 -7 -3 689.53 39
3 -7 -3 742.23 40.7
-3 7 3 704.83 39.5
-3 7 3 780.82 37.1
-3 7 3 736.53 36.5
-3 7 3 729.23 33.8
-3 7 3 688.33 35
2 -7 -3 173.98 17.5
-2 7 3 177.88 12.6
-2 7 3 204.88 15.7
-2 7 3 161.38 11.7
-2 7 3 176.98 15
-2 7 3 167.48 13.4
-2 7 3 171.88 12.9
1 -7 -3 75.69 12.7
-1 7 3 55.39 7.5
-1 7 3 71.99 10.2
-1 7 3 65.29 9.2
-1 7 3 77.19 10.6
0 -7 -3 1012.6 54.49
0 7 3 1123.89 51.09
0 7 3 1117.19 51.69
-1 -7 -3 795.12 42.9
1 7 3 891.01 40.7
1 7 3 783.92 39.6
2 7 3 20.2 5.5
3 7 3 188.98 15.4
4 7 3 665.83 38.1
4 7 3 788.72 37.5
4 7 3 764.52 40.2
5 7 3 194.48 11.5
5 7 3 213.68 15.8
5 7 3 185.38 17.5
5 7 3 209.68 17.7
-6 -7 -3 29.6 6.9
6 7 3 35.5 7.2
6 7 3 21.6 7.2
6 7 3 30.9 4.9
6 7 3 35 9.3
-7 -7 -3 173.58 14.9
7 7 3 218.18 18.6
7 7 3 176.08 17.3
7 7 3 198.88 15.4
7 7 3 208.08 12.3
8 7 3 60.19 6.4
8 7 3 80.29 6.5
8 7 3 67.69 8.5
4 -8 -3 110.69 11
-4 8 3 115.29 8.8
-4 8 3 129.69 9.9
3 -8 -3 13.1 5.9
3 -8 -3 8.9 6.4
-3 8 3 3.5 5
-3 8 3 11.1 4.4
-3 8 3 13.2 5
-3 8 3 13 4.2
-3 8 3 5.9 3.2
2 -8 -3 107.89 15.8
-2 8 3 81.09 9.3
-2 8 3 102.59 11.2
-2 8 3 107.89 10.3
-2 8 3 107.19 11.3
-2 8 3 88.89 8.9
-2 8 3 103.89 10.2
-2 8 3 103.29 13.3
-2 8 3 100.09 10.7
1 -8 -3 607.74 38.1
-1 8 3 622.74 31.1
-1 8 3 611.94 33.1
-1 8 3 655.73 32.8
-1 8 3 633.84 32.5
-1 8 3 665.03 31.6
-1 8 3 665.63 35.4
-1 8 3 607.14 33.8
-1 8 3 613.44 31.5
-1 8 3 644.64 31.4
0 -8 -3 258.17 22.1
0 8 3 260.77 17.1
0 8 3 258.97 17.6
0 8 3 267.67 16.1
0 8 3 274.87 19.6
0 8 3 274.97 18.3
0 8 3 272.07 17.4
-1 -8 -3 69.09 12.8
1 8 3 64.59 9.2
1 8 3 73.79 10.6
1 8 3 72.49 9
2 8 3 301.17 20.1
2 8 3 280.67 17.7
3 8 3 849.02 44.4
4 8 3 113.59 10.8
4 8 3 131.19 12.2
4 8 3 156.18 15.1
5 8 3 111.49 15
5 8 3 113.99 14.2
5 8 3 136.39 8.5
5 8 3 146.39 12.7
-6 -8 -3 222.08 17.3
6 8 3 244.28 20.2
6 8 3 234.28 13.4
6 8 3 236.28 19.9
6 8 3 278.37 18.3
7 8 3 33.8 9.1
7 8 3 43.6 5.5
7 8 3 29.5 6
8 8 3 6.6 2.2
3 -9 -3 297.67 19.7
-3 9 3 280.07 16.4
-3 9 3 300.67 15.6
-3 9 3 311.47 18
2 -9 -3 469.25 31.3
2 -9 -3 418.56 27.2
-2 9 3 433.06 26.3
-2 9 3 473.85 23.2
-2 9 3 448.56 25.5
-2 9 3 463.65 24.7
-2 9 3 460.05 23.2
-2 9 3 456.95 23.8
-2 9 3 446.86 24.4
1 -9 -3 34.2 9.4
-1 9 3 32.5 6.2
-1 9 3 48.1 7.4
-1 9 3 46 7.7
-1 9 3 45.8 9
-1 9 3 40.6 6.4
-1 9 3 37.6 7.6
-1 9 3 64.69 10.2
-1 9 3 64.09 8.4
-1 9 3 63.59 10.3
0 -9 -3 213.48 20.8
0 9 3 206.28 14
0 9 3 212.48 13.8
0 9 3 233.68 15.9
0 9 3 190.38 15.7
0 9 3 205.68 17.4
0 9 3 202.48 14.2
0 9 3 215.88 14.7
0 9 3 193.28 14.9
0 9 3 192.98 15.3
-1 -9 -3 1066.29 56.09
1 9 3 1058.79 48.4
1 9 3 1077.39 51.99
1 9 3 1034.2 51.59
1 9 3 1040.4 49.7
1 9 3 1027.6 47.8
1 9 3 1066.49 49.99
1 9 3 1100.69 49.5
1 9 3 1065.49 48.3
2 9 3 120.99 10.5
2 9 3 114.39 10.6
2 9 3 112.39 9.7
2 9 3 136.89 13.3
2 9 3 116.59 11
2 9 3 99.59 10
3 9 3 101.79 10.4
3 9 3 85.59 10
3 9 3 78.59 12.9
4 9 3 139.79 11.8
4 9 3 138.39 16.7
5 9 3 206.18 18.7
5 9 3 209.68 11.5
5 9 3 234.98 16.8
-6 -9 -3 9.2 4.8
6 9 3 11.4 2.9
6 9 3 8.3 4.6
6 9 3 7.3 7.8
6 9 3 9.9 6
7 9 3 2.8 1.9
7 9 3 10 4
3 -10 -3 88.59 7.4
-3 10 3 84.69 7
-3 10 3 95.09 6
2 -10 -3 24.2 6.2
-2 10 3 20.7 3.5
-2 10 3 24.5 5.1
-2 10 3 18.6 3.7
-2 10 3 22.9 4.2
-2 10 3 22.9 4.6
-2 10 3 27.8 5.1
1 -10 -3 467.05 28
-1 10 3 491.35 25.3
-1 10 3 477.85 23.6
-1 10 3 450.25 25
-1 10 3 444.76 23.7
-1 10 3 463.85 24.1
-1 10 3 469.05 25.8
0 -10 -3 466.85 33
0 10 3 568.34 27.8
0 10 3 572.74 29.3
0 10 3 523.15 31.6
0 10 3 547.75 27.6
0 10 3 570.04 29.1
0 10 3 548.95 27.4
1 10 3 24.1 5.8
1 10 3 26.1 5.5
1 10 3 29.4 5.6
1 10 3 24.2 6.7
1 10 3 25.5 5.8
2 10 3 224.28 15.8
2 10 3 246.58 15.2
2 10 3 235.58 14.6
2 10 3 230.98 15.7
2 10 3 209.98 18
3 10 3 686.73 34.3
3 10 3 678.83 38.4
3 10 3 727.73 34
4 10 3 5.9 8.3
6 10 3 33.5 5.8
6 10 3 46.8 4.4
7 10 3 84.19 5.1
2 -11 -3 226.18 14.6
-2 11 3 219.28 12.4
1 -11 -3 117.59 10.8
-1 11 3 146.49 9.7
-1 11 3 137.89 10.2
-1 11 3 144.79 9.1
-1 11 3 143.39 10.5
-1 11 3 145.39 9.5
-1 11 3 135.49 9.7
-1 11 3 143.89 8.3
0 11 3 7.4 3.5
0 11 3 10 3.5
0 11 3 8.6 3.8
0 11 3 9.2 2.5
0 11 3 12.6 3.5
0 11 3 5.2 3.3
1 11 3 296.97 16.5
1 11 3 297.27 16.8
1 11 3 280.47 17.7
1 11 3 294.27 16
1 11 3 304.57 14.5
1 11 3 283.47 17.3
2 11 3 369.46 17.3
2 11 3 378.56 20.9
2 11 3 369.36 19.5
2 11 3 397.96 20.4
2 11 3 386.86 21.5
3 11 3 57.89 4.2
3 11 3 57.89 7
3 11 3 51.39 6.7
0 12 3 308.07 15.2
0 12 3 316.27 17.3
0 12 3 311.57 14.4
0 12 3 339.17 18.7
1 12 3 190.78 11.5
1 12 3 187.08 10.7
1 12 3 191.38 9.3
1 12 3 187.28 11.1
1 12 3 178.18 10
2 12 3 20.8 4
2 12 3 16.5 3.3
2 12 3 16.3 2.3
2 12 3 16 3.9
3 12 3 227.78 10.4
1 10 -4 223.98 14.1
1 10 -4 262.37 16.5
2 9 -4 168.98 14.5
2 9 -4 173.28 11.7
2 9 -4 158.18 9.3
1 9 -4 11.6 5.6
1 9 -4 7.2 3.8
1 9 -4 8.4 2.9
1 9 -4 8.2 4.1
0 9 -4 42.4 6.2
0 9 -4 36.5 6.7
0 9 -4 46.6 7
0 9 -4 47.4 8.1
0 9 -4 49.7 6.6
-1 9 -4 220.18 13.3
-1 9 -4 223.08 13.5
-1 9 -4 207.88 13.9
-1 9 -4 225.88 15.3
-1 9 -4 220.78 14.9
6 8 -4 33.7 3.9
2 8 -4 11.4 2.8
2 8 -4 3.1 5.4
2 8 -4 5.4 8.6
2 8 -4 14.9 4.7
1 8 -4 206.48 11.8
1 8 -4 206.78 17.7
1 8 -4 201.38 14.4
1 8 -4 135.29 18
1 8 -4 188.58 18.3
1 8 -4 199.48 14.1
0 8 -4 308.57 18.6
0 8 -4 294.77 16.3
0 8 -4 315.77 18.7
0 8 -4 282.77 18.5
0 8 -4 276.67 21
0 8 -4 272.87 19.3
-1 8 -4 15.2 4.6
-1 8 -4 19.6 6.3
-1 8 -4 16.4 6.4
-1 8 -4 20.8 5.9
-1 8 -4 18.4 5.5
-2 8 -4 59.99 7.1
-2 8 -4 67.69 7.6
-2 8 -4 80.19 9.9
-2 8 -4 60.19 8.7
-2 8 -4 88.09 10
-3 8 -4 80.79 7.7
7 7 -4 0.9 1.9
6 7 -4 212.38 11.7
5 7 -4 173.28 10.1
3 7 -4 207.08 17.1
3 7 -4 170.48 67.69
-3 -7 4 169.78 70.59
2 7 -4 500.85 29.3
2 7 -4 455.75 24
2 7 -4 415.86 27.6
2 7 -4 313.67 80.99
1 7 -4 1.5 25.5
1 7 -4 4.6 6
1 7 -4 9.8 5.3
1 7 -4 11.5 3
1 7 -4 17.5 5.3
1 7 -4 9.3 4.3
1 7 -4 0.7 5.1
0 7 -4 1.3 3.6
0 7 -4 3.3 4
0 7 -4 1.5 4.5
0 7 -4 2.2 4.3
0 7 -4 1.2 2.5
0 7 -4 13.2 31.2
0 7 -4 7.6 6.1
0 7 -4 2.1 3.5
-1 7 -4 170.08 12.2
-1 7 -4 178.68 15.1
-1 7 -4 192.18 15.2
-1 7 -4 180.08 16.3
-1 7 -4 176.28 16.6
-1 7 -4 202.28 14.4
-1 7 -4 192.88 14
-2 7 -4 38.2 8
-2 7 -4 25.2 6.1
-2 7 -4 46.6 7.5
-2 7 -4 34.7 6
-2 7 -4 49.5 8.7
-3 7 -4 17.6 4.1
-3 7 -4 10.5 4.9
-3 7 -4 15.8 5.2
-3 7 -4 10 5.1
-3 7 -4 14.3 4.6
-4 7 -4 3.2 3.1
-4 7 -4 4.5 2.8
7 6 -4 72.29 7
6 6 -4 42.5 5.5
6 6 -4 43.5 9.8
5 6 -4 14.5 7
5 6 -4 10.3 3.1
4 6 -4 148.99 58.99
-4 -6 4 150.28 70.09
3 6 -4 336.67 21.8
3 6 -4 206.88 61.49
2 6 -4 -3.2 19.1
2 6 -4 5.5 3.7
2 6 -4 -4 4.7
2 6 -4 2.7 4
-2 -6 4 -1.8 8.5
1 6 -4 101.19 10.7
1 6 -4 72.39 42.4
1 6 -4 119.99 14.6
1 6 -4 105.49 13.7
0 6 -4 417.56 29.4
0 6 -4 450.55 25
0 6 -4 530.05 30.2
0 6 -4 515.65 29.4
0 6 -4 455.75 25.9
0 6 -4 478.55 26.4
0 6 -4 329.27 82.79
-1 6 -4 78.69 8.5
-1 6 -4 72.09 10.7
-1 6 -4 60.59 10.3
-1 6 -4 80.69 11.3
-1 6 -4 88.89 9.8
-1 6 -4 66.49 9
-1 6 -4 74.79 10.2
-1 6 -4 54.19 38.5
-2 6 -4 151.28 12.6
-2 6 -4 164.28 11.8
-2 6 -4 162.28 14
-2 6 -4 160.18 15.3
-2 6 -4 131.89 14.4
-2 6 -4 157.98 12.3
-2 6 -4 147.59 12.5
-2 6 -4 151.28 14.7
-2 6 -4 87.49 51.79
-3 6 -4 195.48 15.7
-3 6 -4 176.88 13.2
-3 6 -4 181.38 14.8
-3 6 -4 184.08 15.3
-3 6 -4 186.68 14.2
-4 6 -4 163.68 13.3
-4 6 -4 166.88 14.9
-4 6 -4 174.18 13
-5 6 -4 3.8 2.7
7 5 -4 8.5 4.2
7 5 -4 16.5 3.5
-7 -5 4 9.6 3.1
6 5 -4 112.79 12.4
6 5 -4 104.49 8.3
6 5 -4 103.19 13.8
5 5 -4 152.18 15.6
5 5 -4 135.09 8.9
-5 -5 4 111.19 65.29
4 5 -4 215.78 17.3
4 5 -4 218.88 11.3
4 5 -4 135.29 49.4
-4 -5 4 171.68 66.49
3 5 -4 39.6 32.2
3 5 -4 40.7 10.1
3 5 -4 38.7 15.6
3 5 -4 46.1 8.1
2 5 -4 609.84 48.7
2 5 -4 563.34 32.1
-2 -5 4 577.34 42.2
1 5 -4 473.15 73.49
1 5 -4 605.04 33.1
-1 -5 4 646.44 44
0 5 -4 7.7 7
0 5 -4 4.1 18.6
0 5 -4 10 5.4
0 5 -4 15.7 5.2
0 -5 4 16.6 10.7
-1 5 -4 72.59 10.8
-1 5 -4 95.69 12.4
-1 5 -4 72.89 45.1
-1 5 -4 66.49 9.2
1 -5 4 80.69 27.9
-2 5 -4 376.26 24.2
-2 5 -4 422.06 24.5
-2 5 -4 305.87 82.99
-2 5 -4 386.66 22.2
-2 5 -4 429.06 24.5
-2 5 -4 373.26 20.9
-2 5 -4 379.26 24.5
-3 5 -4 185.28 15.6
-3 5 -4 175.48 14.1
-3 5 -4 213.68 70.99
-3 5 -4 190.68 15.4
-3 5 -4 172.58 15.5
-4 5 -4 7 4.7
-4 5 -4 2.3 3.8
-4 5 -4 -1.4 3.8
-5 5 -4 151.38 15
-5 5 -4 176.08 12.5
7 4 -4 148.39 13.2
7 4 -4 137.49 14.5
7 4 -4 170.78 11.1
7 4 -4 172.18 10.8
-7 -4 4 173.08 11.6
6 4 -4 53.59 8.6
6 4 -4 43.3 9.5
6 4 -4 43.5 5.8
5 4 -4 21 3.7
5 4 -4 9.9 4.4
5 4 -4 24.5 7
-5 -4 4 2 44.1
4 4 -4 160.88 52.09
4 4 -4 223.08 28.8
4 4 -4 232.48 17
-4 -4 4 120.89 55.89
3 4 -4 573.54 76.39
3 4 -4 574.74 30.9
3 4 -4 566.54 46.8
3 4 -4 540.65 30
-3 -4 4 590.94 90.99
2 4 -4 35.6 7
2 4 -4 51.29 13.6
2 4 -4 58.59 17.3
2 4 -4 38.6 26.2
1 4 -4 89.99 35.2
1 4 -4 90.69 11.2
1 4 -4 82.29 17
-1 -4 4 102.69 18.6
0 4 -4 505.15 28.1
0 4 -4 440.26 65.59
0 4 -4 509.65 39.2
0 -4 4 563.04 39
-1 4 -4 642.34 86.19
-1 4 -4 691.63 35.6
1 -4 4 720.23 49.4
-2 4 -4 70.89 9.8
-2 4 -4 76.19 10.7
-2 4 -4 69.39 40.8
2 -4 4 70.19 18.1
-3 4 -4 125.29 53.99
-3 4 -4 117.99 13.7
-3 4 -4 115.59 13.4
-3 4 -4 135.99 13.7
-4 4 -4 143.49 12.6
-4 4 -4 104.79 16.6
-4 4 -4 119.79 13.5
-4 4 -4 179.18 65.69
-5 4 -4 51.39 8.5
-5 4 -4 46 10.8
-6 4 -4 2 3.2
6 -4 4 4.1 3
8 3 -4 3.8 2.4
7 3 -4 9.1 4.8
7 3 -4 10.9 3.5
7 3 -4 4.1 4.9
7 3 -4 9.1 3.6
-7 -3 4 6.7 3.2
6 3 -4 48 8.8
6 3 -4 50.19 6.4
6 3 -4 47.4 9.4
5 3 -4 189.48 16.5
5 3 -4 193.08 11.5
5 3 -4 185.38 14.6
-5 -3 4 147.49 69.39
4 3 -4 618.24 47.2
4 3 -4 449.06 72.89
4 3 -4 599.14 31.5
-4 -3 4 490.95 91.29
3 3 -4 1.5 2.7
3 3 -4 2.2 5.6
3 3 -4 5.6 17.8
3 3 -4 0.8 3.1
-3 -3 4 -5.4 18.9
2 3 -4 184.58 23.2
2 3 -4 181.58 36.8
2 3 -4 177.58 19.1
2 3 -4 187.08 13.1
1 3 -4 2002.6 89.89
1 3 -4 2117.09 107.69
1 3 -4 2054.39 100.79
1 3 -4 2135.29 139.29
-1 -3 4 2197.68 101.49
0 3 -4 213.98 14.5
0 3 -4 216.18 40.9
0 3 -4 211.68 21
0 -3 4 210.88 21.2
-1 3 -4 231.18 45.5
-1 3 -4 251.17 15.7
-1 3 -4 229.38 23.2
1 -3 4 237.68 25.2
-2 3 -4 438.46 68.49
-2 3 -4 446.76 24.8
2 -3 4 515.05 40
-3 3 -4 400.26 24.4
-3 3 -4 463.55 76.19
3 -3 4 428.66 38.7
-4 3 -4 60.29 40.3
-4 3 -4 33.8 6.6
-4 3 -4 25.8 6.9
-4 3 -4 37.6 7.3
-5 3 -4 85.49 9.6
-5 3 -4 92.29 11.8
-6 3 -4 122.69 11.3
-6 3 -4 139.59 9
6 -3 4 138.49 11
-7 3 -4 18 3.5
7 -3 4 16.1 3.3
8 2 -4 2.1 2.4
7 2 -4 10.5 3.7
7 2 -4 9.5 4.9
7 2 -4 9.9 3.6
7 2 -4 8.2 6
-7 -2 4 6.5 3.3
6 2 -4 42.9 6.5
6 2 -4 45.7 7.1
6 2 -4 54.49 9.6
6 2 -4 41.4 9
-6 -2 4 11.8 49.5
5 2 -4 136.49 13.8
5 2 -4 147.09 26.5
5 2 -4 130.69 12.5
-5 -2 4 107.79 62.19
4 2 -4 25.6 24.5
4 2 -4 37.5 11.8
4 2 -4 42.2 7.5
-4 -2 4 28.1 34.1
3 2 -4 633.74 70.29
3 2 -4 649.64 31.8
3 2 -4 676.63 45.1
-3 -2 4 631.54 82.89
2 2 -4 1441.66 64.49
2 2 -4 1507.75 104.59
2 2 -4 1464.75 72.09
2 2 -4 1518.95 79.29
1 2 -4 11.3 7.7
1 2 -4 8 11
1 2 -4 6.5 5.1
1 2 -4 8.5 3.2
0 2 -4 1855.51 115.09
0 2 -4 1785.42 128.69
0 2 -4 1518.95 71.29
0 2 -4 1652.83 80.19
0 -2 4 1635.84 81.69
-1 2 -4 1860.91 125.69
-1 2 -4 1814.42 87.49
-1 2 -4 1671.03 77.99
-1 2 -4 2110.69 145.29
1 -2 4 1831.62 92.09
-2 2 -4 63.79 12.1
-2 2 -4 88.49 32.7
-2 2 -4 67.19 7
2 -2 4 71.79 16.1
-3 2 -4 61.49 34.3
3 -2 4 70.19 17
-4 2 -4 265.07 17.2
-4 2 -4 249.28 64.29
4 -2 4 243.28 30.1
-5 2 -4 179.28 14.8
-5 2 -4 175.08 14.8
-6 2 -4 5.2 4
-6 2 -4 5.9 4.6
6 -2 4 0.7 3.9
-7 2 -4 51.89 5.7
-7 2 -4 48 6.5
7 -2 4 46.2 5.5
7 1 -4 39.1 7.9
7 1 -4 41 6
-7 -1 4 49.8 7.3
-7 -1 4 39.8 6
6 1 -4 17.3 4.7
6 1 -4 18.7 6.3
6 1 -4 14.6 6.2
-6 -1 4 14.4 4.1
-6 -1 4 7.9 43.2
5 1 -4 225.48 17.5
5 1 -4 190.28 24.6
5 1 -4 227.48 16.7
5 1 -4 230.88 13.7
-5 -1 4 119.89 55.99
4 1 -4 493.05 26.5
4 1 -4 428.76 34.7
-4 -1 4 349.96 72.39
3 1 -4 241.98 14.5
3 1 -4 232.68 22.2
3 1 -4 208.58 39.8
-3 -1 4 192.78 53.29
2 1 -4 97.49 13.6
2 1 -4 104.09 28.4
2 1 -4 88.79 11.2
2 1 -4 94.49 8.1
-2 -1 4 122.39 39
1 1 -4 1256.27 67.89
1 1 -4 1419.26 111.99
1 1 -4 1207.18 62.59
1 1 -4 1414.76 86.79
0 1 -4 259.97 19
0 1 -4 256.67 46
0 1 -4 339.97 37.8
0 -1 4 232.68 19.8
-1 1 -4 75.99 9.8
-1 1 -4 75.89 23.9
-1 1 -4 62.49 32.3
1 -1 4 54.79 11.9
-2 1 -4 242.68 40.4
-2 1 -4 202.18 60.69
-2 1 -4 199.78 17.2
2 -1 4 205.18 22.1
-3 1 -4 1402.86 110.89
3 -1 4 1128.09 70.69
4 -1 4 205.08 26.8
-5 1 -4 7.6 5.3
-5 1 -4 14.9 5.6
-6 1 -4 126.89 13
-6 1 -4 118.99 12.4
6 -1 4 125.69 11.6
-7 1 -4 28.5 5.8
-7 1 -4 22.6 5.6
7 -1 4 27.3 4.7
-8 0 4 18.9 4.8
7 0 -4 11.5 3.6
7 0 -4 4.3 5
-7 0 4 6 3.9
-7 0 4 8.7 3.5
6 0 -4 163.48 15.7
6 0 -4 173.28 12.4
-6 0 4 162.38 13.2
-6 0 4 193.98 13.5
-6 0 4 167.98 76.79
5 0 -4 85.29 6.4
5 0 -4 83.29 8.6
5 0 -4 86.89 11.7
-5 0 4 79.49 55.89
-5 0 4 108.69 9.3
4 0 -4 66.09 14
4 0 -4 95.39 10.1
-4 0 4 63.79 40.9
3 0 -4 166.58 52.99
3 0 -4 212.88 19.4
3 0 -4 211.08 13.4
3 0 -4 203.18 18.5
-3 0 4 176.28 51.09
2 0 -4 2558.64 146.29
2 0 -4 2634.44 117.09
2 0 -4 2382.76 114.69
-2 0 4 2842.52 167.98
1 0 -4 797.82 45.8
1 0 -4 807.42 43.6
1 0 -4 818.62 80.79
1 0 -4 968.5 63.69
1 0 -4 868.31 79.09
0 0 -4 17.5 5.2
0 0 -4 22.9 22.7
0 0 4 17.7 5.8
-1 0 -4 1182.78 50.59
-1 0 -4 845.72 96.69
1 0 4 1060.69 54.59
-2 0 -4 1969.5 84.79
2 0 4 1837.52 92.59
-3 0 -4 7.6 27.9
3 0 4 30.3 10.8
4 0 4 118.39 21.8
5 0 4 313.87 18.8
5 0 4 307.07 33
-6 0 -4 50.59 8.1
6 0 4 43.4 7.2
-7 0 -4 5.2 4.1
7 0 4 -0.2 2.6
-8 0 -4 23.5 4.4
-8 0 -4 23.5 4.4
7 -1 -4 120.39 12.3
-7 1 4 135.79 10.5
-7 1 4 113.59 10.4
6 -1 -4 100.39 9.6
6 -1 -4 84.59 12.2
-6 1 4 82.09 9.6
-6 1 4 76.79 11
-6 1 4 88.39 11.1
-6 1 4 95.59 97.69
5 -1 -4 29.2 5.1
5 -1 -4 27.9 5.7
5 -1 -4 20.9 6.8
-5 1 4 20.5 4.8
-5 1 4 19.6 6.4
-5 1 4 32.2 38.9
-5 1 4 31.6 6.5
-4 1 4 906.61 41.5
-4 1 4 740.73 107.49
3 -1 -4 601.74 29.5
3 -1 -4 581.84 37
3 -1 -4 605.24 35.6
3 -1 -4 483.45 91.29
-3 1 4 505.55 78.49
2 -1 -4 34 8.1
2 -1 -4 26 7.6
2 -1 -4 34.7 27.9
-2 1 4 57.39 29.4
1 -1 -4 1229.48 96.99
1 -1 -4 992.8 52.19
1 -1 -4 1034 52.39
0 -1 -4 1358.66 109.99
0 -1 -4 1396.46 60.39
0 -1 -4 1221.68 107.29
0 1 4 1202.28 58.49
-1 -1 -4 472.75 66.49
-1 -1 -4 603.44 80.09
1 1 4 528.95 30.5
-2 -1 -4 1.8 22.7
-2 -1 -4 18.8 4.5
2 1 4 5.9 5
-3 -1 -4 358.76 80.29
3 1 4 548.85 36.5
-4 -1 -4 970.2 136.89
-4 -1 -4 1162.88 50.79
4 1 4 1127.69 51.69
4 1 4 1219.28 68.99
-5 -1 -4 81.69 8.9
5 1 4 103.69 21.6
-6 -1 -4 30.3 7
-6 -1 -4 32.9 6.7
6 1 4 28.6 5.9
6 1 4 35.8 4.6
-7 -1 -4 62.59 9.7
-7 -1 -4 54.89 8.3
7 1 4 55.89 4.8
-7 2 4 -1.5 4.1
6 -2 -4 97.69 7.9
6 -2 -4 73.39 11.2
-6 2 4 77.49 11.5
-6 2 4 85.19 10.7
5 -2 -4 393.26 24.6
5 -2 -4 355.16 19.3
5 -2 -4 386.36 20.2
5 -2 -4 370.96 24.6
-5 2 4 366.66 21.1
-5 2 4 222.48 71.99
-5 2 4 368.76 21.9
-5 2 4 328.27 23
-4 2 4 70.99 9.4
-4 2 4 105.79 53.99
3 -2 -4 99.79 53.79
3 -2 -4 111.89 10.7
3 -2 -4 107.79 17.5
-3 2 4 126.99 10
-3 2 4 96.99 45.6
2 -2 -4 1655.03 70.99
2 -2 -4 1606.04 162.78
2 -2 -4 1596.24 79.79
-2 2 4 1629.84 130.99
1 -2 -4 418.06 27
1 -2 -4 396.46 71.79
0 -2 -4 413.96 23.7
0 -2 -4 336.07 66.99
0 2 4 332.97 19.3
-1 -2 -4 537.25 74.09
-1 -2 -4 586.44 28.5
1 2 4 464.85 28.2
-2 -2 -4 493.35 24.1
-2 -2 -4 382.06 68.79
2 2 4 466.45 29.5
-3 -2 -4 500.25 86.29
3 2 4 514.35 33.8
3 2 4 413.16 80.09
-4 -2 -4 1252.27 52.79
-4 -2 -4 1059.39 141.09
4 2 4 1321.77 69.59
4 2 4 955.4 143.49
4 2 4 1267.27 53.89
-5 -2 -4 441.86 106.99
-5 -2 -4 505.95 26.3
5 2 4 526.45 41.7
5 2 4 494.45 27.3
5 2 4 463.65 27
-6 -2 -4 853.91 41.6
6 2 4 859.01 38.1
6 2 4 879.41 40.9
6 2 4 853.41 38.3
-7 -2 -4 22.3 6.5
-7 -2 -4 19.5 5.7
-7 -2 -4 36 6.6
7 2 4 20.9 3.9
-7 3 4 47.6 6.8
-7 3 4 39.6 5.5
6 -3 -4 345.77 17.4
-6 3 4 298.87 20
-6 3 4 270.77 21.4
5 -3 -4 26.4 6.7
5 -3 -4 23.6 5.7
-5 3 4 25.5 43.3
-5 3 4 36.2 7.9
-5 3 4 14.6 6.1
4 -3 -4 166.28 15.8
4 -3 -4 187.68 15.7
-4 3 4 141.39 58.19
-4 3 4 177.48 13.2
-4 3 4 176.18 15
3 -3 -4 891.51 41.4
3 -3 -4 740.23 49.9
-3 3 4 726.43 100.09
-3 3 4 798.22 39.4
2 -3 -4 260.07 16.3
2 -3 -4 203.18 66.69
-2 3 4 235.38 57.89
1 -3 -4 -2.9 16.1
-1 3 4 0.8 14
0 -3 -4 1777.22 177.38
-1 -3 -4 931.81 121.59
-1 -3 -4 1221.48 106.99
-2 -3 -4 30.4 27.3
-2 -3 -4 45.8 33.6
2 3 4 35.7 7.8
-3 -3 -4 166.58 64.49
3 3 4 124.09 14.3
-4 -3 -4 1312.57 158.18
4 3 4 1421.66 62.19
4 3 4 1422.66 74.89
-5 -3 -4 266.77 105.09
-5 -3 -4 224.58 15.4
5 3 4 241.38 16.7
5 3 4 252.27 27.1
5 3 4 266.87 18.1
-6 -3 -4 216.78 15.2
-6 -3 -4 206.08 15.9
6 3 4 218.18 14.6
6 3 4 222.88 12.6
6 3 4 239.88 17.5
6 3 4 231.38 17.4
-7 -3 -4 169.48 14.6
-7 -3 -4 158.98 13
7 3 4 166.18 10.8
-8 -3 -4 143.89 11.1
-7 4 4 3.7 2.1
-7 4 4 -1.1 2.2
6 -4 -4 16.9 4
-6 4 4 24.8 6.3
-6 4 4 17.2 5.1
-6 4 4 16.7 7
5 -4 -4 106.89 10.6
5 -4 -4 130.09 13.3
-5 4 4 111.79 13.6
-5 4 4 129.59 17
-5 4 4 103.29 55.79
-5 4 4 118.79 13.2
4 -4 -4 454.25 26.9
4 -4 -4 449.06 26.4
-4 4 4 377.96 23.1
-4 4 4 353.46 88.39
-4 4 4 367.36 23.6
-4 4 4 389.06 25.8
3 -4 -4 70.79 10.3
-3 4 4 80.59 43.6
-3 4 4 58.39 9
2 -4 -4 457.55 24.5
2 -4 -4 290.97 86.19
-2 4 4 402.06 22.9
-2 4 4 456.75 75.69
1 -4 -4 1545.15 61.19
1 -4 -4 1088.89 156.08
0 -4 -4 377.26 88.49
-1 -4 -4 98.19 52.29
-1 -4 -4 131.29 42.1
-2 -4 -4 524.65 78.99
-2 -4 -4 518.95 99.89
-3 -4 -4 1154.08 132.19
-4 -4 -4 16.3 33.9
4 4 4 11.9 4.3
4 4 4 8.1 26.8
4 4 4 7.9 4.1
4 4 4 7.3 6.4
-5 -4 -4 79.89 56.59
5 4 4 64.79 9.2
5 4 4 60.39 15.1
5 4 4 93.09 12.2
-6 -4 -4 254.17 17.5
-6 -4 -4 238.98 15.8
6 4 4 244.78 13.9
6 4 4 234.88 15.6
6 4 4 243.78 13.5
6 4 4 265.07 19.3
6 4 4 228.38 15.3
6 4 4 209.28 17.5
-7 -4 -4 47.8 9.1
-7 -4 -4 45.3 7.4
7 4 4 36.7 6.2
7 4 4 50.99 9.8
7 4 4 78.29 10.9
7 4 4 65.49 7
-8 -4 -4 19.2 5
8 4 4 22.3 3.9
6 -5 -4 75.79 6.9
-6 5 4 71.79 6.3
-6 5 4 85.59 9.5
5 -5 -4 11 5.5
5 -5 -4 6.3 4.2
-5 5 4 14.8 6.9
-5 5 4 10.3 4.4
-5 5 4 4.3 4.2
4 -5 -4 284.77 20
4 -5 -4 263.77 20
-4 5 4 218.48 76.99
-4 5 4 224.68 17
-4 5 4 248.78 19.7
-4 5 4 258.77 16.8
3 -5 -4 304.87 21.4
3 -5 -4 313.07 21.1
-3 5 4 311.67 18.7
-3 5 4 312.77 21.5
-3 5 4 304.37 80.09
-3 5 4 308.27 19.8
2 -5 -4 497.45 28.7
-2 5 4 484.15 27.6
-2 5 4 547.05 84.99
1 -5 -4 193.38 83.49
1 -5 -4 204.38 15.2
-1 5 4 204.58 14.1
0 -5 -4 132.19 11.1
0 -5 -4 96.99 55.49
0 5 4 138.99 9.6
-1 -5 -4 1093.59 155.28
-2 -5 -4 807.32 98.79
-2 -5 -4 608.64 120.29
-3 -5 -4 79.69 54.99
-3 -5 -4 106.89 53.79
3 5 4 131.99 10.5
-4 -5 -4 531.35 107.39
4 5 4 614.64 32.2
4 5 4 565.34 30.7
-5 -5 -4 233.88 87.89
5 5 4 440.46 26.2
5 5 4 403.96 22.5
5 5 4 406.16 24.9
-6 -5 -4 80.29 9.4
-6 -5 -4 65.49 10
6 5 4 89.39 8.7
6 5 4 82.89 9.3
6 5 4 60.99 10.6
6 5 4 93.09 10.6
6 5 4 76.39 11.7
-7 -5 -4 3.9 4.5
7 5 4 9.5 3.6
7 5 4 11.8 4.9
7 5 4 3.7 4.9
7 5 4 9.6 5.3
7 5 4 8.1 3.5
8 5 4 83.29 7.3
6 -6 -4 24.8 3.9
-6 6 4 18.7 4
5 -6 -4 6.3 4.2
-5 6 4 1.7 3.7
-5 6 4 5 4.9
-5 6 4 7.5 2.3
4 -6 -4 469.65 28.7
4 -6 -4 436.36 28.7
-4 6 4 491.85 30.1
-4 6 4 497.65 23.7
-4 6 4 503.35 27.4
3 -6 -4 214.78 18
3 -6 -4 237.98 18
-3 6 4 234.68 13.7
-3 6 4 231.08 15.6
-3 6 4 226.38 15.8
-3 6 4 203.28 74.39
-3 6 4 235.38 18.3
-3 6 4 219.78 13.2
2 -6 -4 40.5 7.4
2 -6 -4 45.1 8.8
-2 6 4 49.4 7.2
-2 6 4 67.19 10.4
1 -6 -4 1093.09 53.79
-1 6 4 1096.39 51.39
0 -6 -4 986.5 47.9
0 -6 -4 892.61 155.48
0 6 4 1008.6 45.3
0 6 4 992 45.6
-1 -6 -4 10.1 4.4
-1 -6 -4 14.9 29.6
1 6 4 8.5 3.1
1 6 4 14.6 4.1
-2 -6 -4 87.59 60.69
2 6 4 143.89 11.2
-3 -6 -4 1174.98 143.79
3 6 4 943.51 57.39
3 6 4 1078.49 50.39
-4 -6 -4 141.99 74.79
4 6 4 126.89 12.5
4 6 4 129.39 12.9
-5 -6 -4 6.7 42.1
5 6 4 2.5 4.8
5 6 4 3.9 3.6
5 6 4 1.3 3.7
5 6 4 7.4 4.3
-6 -6 -4 253.27 19
6 6 4 262.47 17
6 6 4 269.37 18.4
6 6 4 292.77 21.8
6 6 4 279.47 21.2
6 6 4 260.57 15.3
-7 -6 -4 107.09 13.3
7 6 4 74.39 9.7
7 6 4 101.59 8.2
7 6 4 101.99 13
7 6 4 90.99 8.3
7 6 4 74.09 12.5
8 6 4 0.7 2.5
8 6 4 1.5 3.2
8 6 4 1.8 2.6
5 -7 -4 228.68 15.1
-5 7 4 229.38 14.1
4 -7 -4 20 6.2
-4 7 4 18 6.8
-4 7 4 28.1 6.3
3 -7 -4 27.9 7.5
3 -7 -4 37.1 9.3
-3 7 4 40.3 9.2
-3 7 4 41.7 7.4
-3 7 4 37.3 5.5
-3 7 4 50.59 8.2
2 -7 -4 514.55 31.2
2 -7 -4 475.65 29.2
-2 7 4 485.15 26
-2 7 4 482.35 24.2
-2 7 4 493.05 28.8
-2 7 4 481.15 25
-2 7 4 481.35 26.6
1 -7 -4 375.06 25.4
-1 7 4 354.76 22
-1 7 4 366.76 20.9
-1 7 4 338.27 20.1
0 -7 -4 25 7.3
0 7 4 21.9 5.6
0 7 4 23.3 5.5
-1 -7 -4 669.03 36
1 7 4 704.83 34.5
1 7 4 647.74 33.1
2 7 4 638.44 33.5
3 7 4 8.7 5.2
4 7 4 9.6 4.3
4 7 4 14.7 6.1
4 7 4 12.3 4.8
5 7 4 518.05 32
5 7 4 520.75 25
5 7 4 498.95 27.8
5 7 4 566.04 29.9
5 7 4 550.24 32.9
6 7 4 170.08 11.4
6 7 4 178.58 17.6
6 7 4 244.28 19.5
6 7 4 165.78 14.4
-7 -7 -4 -0.1 4.3
7 7 4 -2.5 4.8
7 7 4 -3.9 4.8
7 7 4 0.1 3.9
7 7 4 0.5 2.5
8 7 4 29 4.2
8 7 4 25.6 5.2
8 7 4 27.9 4.4
4 -8 -4 217.48 16.3
-4 8 4 284.67 15.9
3 -8 -4 241.28 18
3 -8 -4 204.18 18
-3 8 4 230.88 13.3
-3 8 4 201.28 13.7
-3 8 4 238.78 15.8
-3 8 4 229.08 15.4
-3 8 4 218.48 17.4
2 -8 -4 73.29 11.8
2 -8 -4 67.09 11
-2 8 4 69.89 9.2
-2 8 4 76.59 8
-2 8 4 63.69 7.6
-2 8 4 62.69 9.1
-2 8 4 59.69 8
-2 8 4 83.29 12
1 -8 -4 81.39 13.8
-1 8 4 66.69 7.8
-1 8 4 65.29 7.9
-1 8 4 64.89 7.4
-1 8 4 92.39 10.6
-1 8 4 66.09 9
-1 8 4 99.09 12.4
-1 8 4 68.09 8.9
-1 8 4 85.49 9.5
0 -8 -4 642.54 39
0 8 4 734.13 36.9
0 8 4 684.73 34.3
0 8 4 678.53 34.2
0 8 4 691.83 35.9
0 8 4 679.53 33
-1 -8 -4 529.95 32
1 8 4 503.95 27.4
1 8 4 544.35 29.6
1 8 4 543.65 29
2 8 4 10.4 4.5
2 8 4 11.1 5
3 8 4 313.47 23.1
3 8 4 317.97 22.4
3 8 4 323.27 18.8
3 8 4 350.56 20.9
3 8 4 331.07 19.3
4 8 4 950.7 48
4 8 4 938.81 44.6
4 8 4 852.61 42.3
4 8 4 857.61 38.8
5 8 4 47.3 10.7
5 8 4 26.9 6.8
5 8 4 37 4.9
5 8 4 31.1 8.5
5 8 4 39.4 7.2
6 8 4 86.29 12.9
6 8 4 72.39 10.3
6 8 4 84.79 13.6
6 8 4 87.19 7.2
7 8 4 140.19 14.4
7 8 4 150.78 9.9
7 8 4 155.28 13
8 8 4 43.9 4.7
8 8 4 42.3 4.7
-4 9 4 85.99 9.5
3 -9 -4 13.3 4.5
3 -9 -4 5.5 4.3
-3 9 4 10.4 3
-3 9 4 7.7 3.3
-3 9 4 9.9 3.9
2 -9 -4 489.55 36.4
2 -9 -4 548.75 30.9
-2 9 4 497.75 29.3
-2 9 4 527.65 25.8
-2 9 4 531.25 25.8
-2 9 4 525.85 27.2
-2 9 4 537.55 28.1
-2 9 4 504.35 26.3
1 -9 -4 524.15 31.9
1 -9 -4 537.25 34.1
-1 9 4 578.94 27.8
-1 9 4 564.44 29.3
-1 9 4 557.94 28.7
-1 9 4 535.65 28
-1 9 4 576.14 29.5
-1 9 4 548.35 31
-1 9 4 549.25 29.6
-1 9 4 549.74 27.9
0 -9 -4 0.1 6.1
0 9 4 11.9 5
0 9 4 9.2 4.6
0 9 4 6.6 3.8
0 9 4 10.8 5
0 9 4 4.5 3.5
0 9 4 5.9 3.4
0 9 4 7.7 3.9
1 9 4 211.78 16.6
1 9 4 206.58 13.8
1 9 4 198.78 13.5
1 9 4 208.38 13.9
1 9 4 215.78 14.6
1 9 4 206.08 14.9
1 9 4 218.98 15.1
2 9 4 713.73 34.3
2 9 4 706.83 37.2
2 9 4 674.13 34.2
2 9 4 638.44 29.6
2 9 4 679.93 34.1
2 9 4 657.93 32.1
2 9 4 680.43 33.1
3 9 4 157.78 8.9
3 9 4 159.98 12.5
3 9 4 165.18 12.3
3 9 4 181.88 16.4
3 9 4 171.28 13
4 9 4 2.4 5.1
4 9 4 5.2 3.9
4 9 4 0.6 1.5
4 9 4 11.3 4.7
5 9 4 80.59 12.7
5 9 4 84.89 10.4
5 9 4 80.49 9.9
5 9 4 79.49 6.4
6 9 4 446.76 27.8
6 9 4 430.66 28.3
6 9 4 439.36 25.5
6 9 4 465.45 21.6
7 9 4 62.49 5.6
7 9 4 65.29 8.1
3 -10 -4 242.98 13.5
-3 10 4 242.98 12
2 -10 -4 168.68 14.2
-2 10 4 184.38 11.1
-2 10 4 189.38 11.8
-2 10 4 185.98 12.1
-2 10 4 187.38 11.3
1 -10 -4 6.5 4.9
-1 10 4 9.4 4.1
-1 10 4 14.3 4.5
-1 10 4 11 3.9
-1 10 4 6.5 2.7
-1 10 4 4.6 3.1
-1 10 4 12.5 4.1
-1 10 4 12.5 5.5
-1 10 4 10 4.4
-1 10 4 7.3 4.1
0 -10 -4 293.97 23.2
0 10 4 331.77 19.9
0 10 4 318.37 19.5
0 10 4 292.07 20.6
0 10 4 323.77 16.4
0 10 4 310.67 18.2
0 10 4 329.27 18.2
0 10 4 305.87 17.6
0 10 4 326.57 18.8
1 10 4 541.25 27.9
1 10 4 464.75 28.8
1 10 4 532.25 26.5
1 10 4 508.65 23.6
1 10 4 497.35 27.3
1 10 4 507.85 25.3
1 10 4 499.55 25.8
1 10 4 500.35 26.9
2 10 4 71.79 8.9
2 10 4 74.29 9.8
2 10 4 60.99 10
2 10 4 56.99 8.3
2 10 4 42.5 6.3
2 10 4 58.59 8.4
2 10 4 56.49 4.9
3 10 4 126.19 7.6
3 10 4 133.49 11.2
3 10 4 125.89 13.8
3 10 4 123.39 10.5
3 10 4 125.99 10.9
4 10 4 272.87 17.4
4 10 4 303.07 21.7
4 10 4 281.37 13.9
5 10 4 126.89 13.8
5 10 4 110.89 11.1
5 10 4 113.99 7.5
5 10 4 128.49 16
6 10 4 23.2 3.4
6 10 4 28.7 5.9
7 10 4 35.2 3.6
2 -11 -4 30.6 4.5
-2 11 4 30.3 3.4
1 -11 -4 175.18 13.3
-1 11 4 199.68 12.2
-1 11 4 194.28 10.5
-1 11 4 195.28 11.2
-1 11 4 210.28 11.7
-1 11 4 197.88 11.7
-1 11 4 192.18 12.5
0 11 4 282.77 15.9
0 11 4 288.47 15.8
0 11 4 276.57 16.6
0 11 4 285.47 17.2
0 11 4 263.17 15.1
0 11 4 281.07 14.1
1 11 4 -1.8 2.6
1 11 4 -1.7 3.5
1 11 4 5.3 3.2
1 11 4 2 3
1 11 4 -0.6 1.5
1 11 4 1.3 3
2 11 4 274.87 21.7
2 11 4 306.37 16.6
2 11 4 312.67 17.4
2 11 4 315.07 18.2
2 11 4 295.57 14.5
2 11 4 294.47 18.1
3 11 4 353.96 20
3 11 4 335.47 16.4
3 11 4 385.06 20.3
3 11 4 365.46 19.6
4 11 4 176.78 9.1
4 11 4 168.88 11.6
5 11 4 90.09 5.6
6 11 4 276.37 12.4
0 -12 -4 26 4.3
0 12 4 38.7 3.5
0 12 4 38.2 4.4
0 12 4 41.7 5.1
0 12 4 37 4.4
0 12 4 34 3.7
-1 -12 -4 249.68 14.4
1 12 4 254.37 13.1
1 12 4 269.87 17.4
1 12 4 279.97 12.8
1 12 4 280.57 14
1 12 4 266.37 14.3
1 12 4 253.47 14.8
2 12 4 145.79 7.8
2 12 4 156.38 10.6
2 12 4 156.88 10.4
2 12 4 149.69 9.8
2 12 4 133.59 8.9
3 12 4 2.7 1.4
3 12 4 3.4 2.9
3 12 4 3.5 2.8
4 12 4 125.29 6.7
2 9 -5 55.89 8.4
2 9 -5 51.89 4.8
2 9 -5 51.89 6.3
1 9 -5 102.69 8.6
1 9 -5 94.69 8.5
1 9 -5 91.79 10.2
0 9 -5 50.49 6
0 9 -5 45.1 5.6
-1 9 -5 43.6 4.9
5 8 -5 36.3 3.8
4 8 -5 94.19 5.9
3 8 -5 214.68 16.6
3 8 -5 211.28 11
2 8 -5 52.59 7.3
2 8 -5 53.99 9.9
2 8 -5 46.4 5.3
1 8 -5 1 3.5
1 8 -5 -0.7 2.1
1 8 -5 -3.1 4.4
1 8 -5 -2 3.4
0 8 -5 200.08 15.2
0 8 -5 201.78 16.3
0 8 -5 197.68 12.1
0 8 -5 202.38 14.1
0 8 -5 194.18 13.9
-1 8 -5 122.99 10
-1 8 -5 116.59 10.6
-1 8 -5 129.69 12
-1 8 -5 115.99 10.2
-1 8 -5 124.39 12.2
-2 8 -5 15.7 4.3
-2 8 -5 18.5 5.3
-2 8 -5 19.2 3.9
-2 8 -5 26.6 8.5
-2 8 -5 28.8 4.2
5 7 -5 74.89 6.2
4 7 -5 60.39 5.4
3 7 -5 22.1 3.6
3 7 -5 9.6 5.7
2 7 -5 47.7 5.4
2 7 -5 62.89 12
2 7 -5 63.39 8.4
2 7 -5 59.29 11.1
1 7 -5 427.56 24.1
1 7 -5 434.26 21.3
1 7 -5 443.96 28.4
1 7 -5 435.46 23.9
1 7 -5 422.16 28.4
0 7 -5 46.3 7.9
0 7 -5 44.7 9.7
0 7 -5 45.1 11
0 7 -5 43 8.1
0 7 -5 49.7 7.8
0 7 -5 44.3 9.4
0 7 -5 30.4 5.1
-1 7 -5 3.1 4.5
-1 7 -5 -3.6 2.3
-1 7 -5 -1.3 3.5
-1 7 -5 2.5 4
-1 7 -5 2.8 3.9
-1 7 -5 -2.5 4.1
-2 7 -5 219.18 16.4
-2 7 -5 197.68 15.3
-2 7 -5 224.68 16.1
-2 7 -5 206.98 13.6
-2 7 -5 200.78 14.1
-3 7 -5 150.08 11.9
-3 7 -5 154.48 10
-3 7 -5 143.79 11.9
-3 7 -5 148.19 15.4
7 6 -5 18.2 3.3
6 6 -5 76.29 6.5
5 6 -5 57.29 6.3
5 6 -5 67.09 12.5
-5 -6 5 41.1 7.3
4 6 -5 17.9 3.6
3 6 -5 62.39 10.4
3 6 -5 32 33.8
3 6 -5 69.79 6.9
-3 -6 5 44.4 45.9
2 6 -5 440.06 23.8
2 6 -5 422.16 20.7
2 6 -5 311.17 78.49
2 6 -5 437.46 27.7
2 6 -5 456.35 28.7
1 6 -5 124.59 12.4
1 6 -5 76.59 6.6
1 6 -5 100.19 10.9
1 6 -5 85.99 12.1
1 6 -5 67.09 41.7
1 6 -5 101.39 14.1
0 6 -5 56.09 6.6
0 6 -5 30.7 35.3
0 6 -5 65.69 8.9
0 6 -5 68.79 12.1
0 6 -5 63.99 9.9
0 6 -5 61.59 10.7
0 6 -5 73.59 9.9
-1 6 -5 591.64 32.2
-1 6 -5 409.96 86.89
-1 6 -5 599.44 30
-1 6 -5 588.04 31.8
-1 6 -5 601.14 30.6
-1 6 -5 556.84 33.1
-1 6 -5 564.44 28.2
-1 6 -5 591.64 33.6
-2 6 -5 299.47 20.3
-2 6 -5 273.87 19.5
-2 6 -5 257.87 17.5
-2 6 -5 311.77 21.3
-2 6 -5 295.17 21.1
-2 6 -5 284.07 17.5
-2 6 -5 280.67 17
-3 6 -5 18.7 5.2
-3 6 -5 24.7 7.2
-3 6 -5 15.3 5.4
-3 6 -5 18.3 5.6
-3 6 -5 20.4 4.9
-4 6 -5 311.57 18
-4 6 -5 323.77 18.6
-4 6 -5 293.67 17.2
7 5 -5 48.6 6.2
7 5 -5 65.59 5.8
6 5 -5 7.2 6.6
6 5 -5 6.3 3
5 5 -5 44.2 5.8
5 5 -5 31.9 9.2
4 5 -5 81.39 47.4
4 5 -5 101.39 13.9
4 5 -5 113.19 8.1
-4 -5 5 86.19 55.39
3 5 -5 269.77 19.8
3 5 -5 248.48 13.6
3 5 -5 265.97 19.1
3 5 -5 193.38 63.19
-3 -5 5 184.48 72.69
2 5 -5 50.09 31.6
2 5 -5 80.79 11.7
2 5 -5 60.39 11.2
-2 -5 5 57.49 16.7
1 5 -5 214.68 63.09
1 5 -5 214.28 17.5
1 5 -5 255.17 19.4
-1 -5 5 233.68 27.3
0 5 -5 347.77 23.5
0 5 -5 303.07 77.39
0 5 -5 335.07 22.7
0 5 -5 352.66 21.3
0 -5 5 342.07 34.7
-1 5 -5 201.48 16.3
-1 5 -5 186.28 13.6
-1 5 -5 170.68 16
-1 5 -5 192.48 15.1
-1 5 -5 201.88 15.5
-1 5 -5 189.38 12.5
-1 5 -5 165.28 60.29
-1 5 -5 177.18 13.9
-2 5 -5 258.07 15.6
-2 5 -5 224.58 17.8
-2 5 -5 246.58 18.1
-2 5 -5 220.18 15.1
-2 5 -5 255.67 18.5
-2 5 -5 244.78 16.5
-2 5 -5 236.08 18.6
-2 5 -5 240.98 74.89
-3 5 -5 348.87 20.2
-3 5 -5 341.87 21.3
-3 5 -5 380.26 23.7
-3 5 -5 360.46 23.1
-4 5 -5 142.29 11.9
-4 5 -5 142.79 12.3
-4 5 -5 148.79 12.8
-5 5 -5 7 3.3
-5 5 -5 6.7 3.2
7 4 -5 7.2 3.3
7 4 -5 10.7 3.3
7 4 -5 12.4 4.9
-7 -4 5 9.8 3.1
6 4 -5 249.68 18.1
6 4 -5 269.67 15
6 4 -5 264.17 21.2
-6 -4 5 244.98 15.5
5 4 -5 186.18 17.4
5 4 -5 189.48 16.1
5 4 -5 182.28 11.6
-5 -4 5 193.38 12.8
-5 -4 5 82.99 59.09
4 4 -5 24.6 4.2
4 4 -5 5.6 26.2
4 4 -5 10 5.2
4 4 -5 18 6.5
-4 -4 5 17.6 38.5
3 4 -5 73.59 39.3
3 4 -5 79.39 11.5
3 4 -5 86.79 23.4
3 4 -5 88.19 11.9
3 4 -5 79.19 10.5
-3 -4 5 76.39 47
2 4 -5 445.86 42.2
2 4 -5 424.76 26.2
-2 -4 5 422.56 36
1 4 -5 218.68 56.19
1 4 -5 256.07 18.9
-1 -4 5 280.87 28.6
0 4 -5 64.89 34.2
0 4 -5 59.79 9.6
0 -4 5 54.29 15.3
-1 4 -5 253.07 64.69
-1 4 -5 357.66 21.9
-1 4 -5 294.67 20.7
-1 4 -5 324.67 20.6
1 -4 5 318.37 33.7
-2 4 -5 282.37 19
-2 4 -5 221.58 17.4
-2 4 -5 218.18 17.5
-2 4 -5 242.28 17.9
-2 4 -5 274.37 72.59
2 -4 5 252.97 30.4
-3 4 -5 70.39 10.6
-3 4 -5 133.09 54.09
-3 4 -5 124.29 14.6
-3 4 -5 82.19 10.3
-4 4 -5 66.09 9.3
-4 4 -5 67.89 10
-4 4 -5 61.09 9.5
-5 4 -5 91.89 9.9
-5 4 -5 100.59 9.7
-6 4 -5 92.19 7.6
7 3 -5 58.99 6.7
7 3 -5 30.3 6.3
7 3 -5 37.2 5.6
-7 -3 5 30.8 4.9
6 3 -5 492.75 29.8
6 3 -5 441.96 26.7
6 3 -5 421.16 22.7
6 3 -5 432.66 22.7
-6 -3 5 446.16 23.9
5 3 -5 66.29 7.6
5 3 -5 55.09 9.3
5 3 -5 44.1 8.7
-5 -3 5 55.09 50.39
4 3 -5 601.44 37.3
4 3 -5 617.24 32.7
4 3 -5 553.74 48
4 3 -5 536.05 29.8
4 3 -5 378.36 70.99
-4 -3 5 451.95 91.19
3 3 -5 685.13 52.99
3 3 -5 679.93 36.3
3 3 -5 725.23 35.7
3 3 -5 622.14 80.69
-3 -3 5 633.04 94.89
2 3 -5 41.5 11.7
2 3 -5 47.3 8
2 3 -5 38.4 23.8
2 3 -5 44.9 8.4
2 3 -5 54.39 16.6
1 3 -5 90.59 9.4
1 3 -5 81.29 31.4
1 3 -5 67.29 14.7
-1 -3 5 93.49 17.4
0 3 -5 1039.9 97.49
0 3 -5 1122.39 52.69
0 3 -5 1144.69 65.49
0 -3 5 1169.68 66.29
-1 3 -5 193.18 25.4
-1 3 -5 173.68 47.5
-1 3 -5 173.48 13.6
1 -3 5 187.78 23.8
-2 3 -5 2.9 3.7
-2 3 -5 24.3 23.5
-2 3 -5 -0.9 4
2 -3 5 4.9 7.8
-3 3 -5 138.29 13.6
-3 3 -5 111.79 9
-3 3 -5 108.69 12.1
-3 3 -5 123.39 48.1
-3 3 -5 113.29 13
3 -3 5 119.39 24.6
-4 3 -5 372.16 74.09
-4 3 -5 204.18 16.7
-4 3 -5 239.38 17.2
-4 3 -5 225.88 18
-4 3 -5 243.08 14.4
-5 3 -5 71.49 9.4
-5 3 -5 90.29 7.3
-5 3 -5 109.59 12
-6 3 -5 9.7 4.1
6 -3 5 14.8 4.1
7 2 -5 68.49 9.5
7 2 -5 88.49 7.9
-7 -2 5 83.19 8
6 2 -5 205.18 18.2
6 2 -5 207.08 16.8
6 2 -5 194.38 13.2
6 2 -5 211.98 13.6
-6 -2 5 190.48 13.8
5 2 -5 375.16 25.2
5 2 -5 360.76 19.5
5 2 -5 366.76 23.5
-5 -2 5 378.66 20.9
-5 -2 5 220.68 83.19
4 2 -5 351.86 67.09
4 2 -5 528.05 28.3
4 2 -5 542.45 30.3
4 2 -5 499.45 42.8
4 2 -5 539.75 28.3
-4 -2 5 450.25 89.99
3 2 -5 9.6 4
3 2 -5 8.1 8.5
3 2 -5 9 4.3
3 2 -5 6.1 16.5
-3 -2 5 13.7 24.2
2 2 -5 560.44 38.2
2 2 -5 616.14 30.8
2 2 -5 596.74 65.99
2 2 -5 595.44 44.8
1 2 -5 517.95 27.6
1 2 -5 588.44 60.79
1 2 -5 560.34 42.2
1 2 -5 502.45 35.4
-1 -2 5 538.65 36.8
0 2 -5 316.57 58.99
0 2 -5 326.27 45.6
0 2 -5 303.07 25.5
0 2 -5 296.97 18.1
0 -2 5 322.87 27.2
-1 2 -5 42.5 30.1
-1 2 -5 37.3 6.5
-1 2 -5 47.2 11.3
-1 2 -5 46.9 24.2
1 -2 5 46.3 13.1
-2 2 -5 470.35 63.09
-2 2 -5 321.37 20.2
-2 2 -5 342.87 29
2 -2 5 382.56 34.8
-3 2 -5 247.68 18.6
-3 2 -5 313.97 59.59
3 -2 5 218.28 29.1
-4 2 -5 2.6 4.2
-4 2 -5 1.1 4.3
-4 2 -5 3.7 4.7
-4 2 -5 2.1 4.1
-5 2 -5 82.99 10.7
-5 2 -5 72.79 9.9
-5 2 -5 83.69 10.2
-6 2 -5 55.29 8.1
-6 2 -5 53.69 7
6 -2 5 67.79 8.7
-7 2 -5 58.99 6.5
7 -2 5 74.99 6.1
7 1 -5 157.78 10.4
7 1 -5 134.89 13.1
-7 -1 5 127.29 10.5
6 1 -5 101.99 13.2
6 1 -5 139.79 15.4
6 1 -5 142.49 11
-6 -1 5 149.99 11.7
5 1 -5 149.79 11
5 1 -5 160.18 14.4
5 1 -5 138.79 10.9
5 1 -5 162.28 18.1
-5 -1 5 92.89 58.49
-5 -1 5 146.49 11.6
4 1 -5 114.79 12.3
4 1 -5 113.79 21.5
4 1 -5 123.99 11.8
-4 -1 5 139.79 10.1
-4 -1 5 48.1 36.4
3 1 -5 557.04 28.8
3 1 -5 472.05 63.49
3 1 -5 569.44 41
3 1 -5 564.34 30.4
-3 -1 5 553.44 80.79
2 1 -5 492.45 36.9
2 1 -5 469.65 25.5
2 1 -5 489.95 32.9
2 1 -5 499.55 57.09
-2 -1 5 540.55 71.49
1 1 -5 6.8 5
1 1 -5 8.7 20
1 1 -5 4.7 9.4
1 1 -5 5.1 2.9
1 1 -5 9.6 7.3
-1 -1 5 7 5.2
0 1 -5 418.76 22.5
0 1 -5 428.76 28.9
0 1 -5 430.76 68.89
0 1 -5 551.44 51.99
0 -1 5 435.56 31.2
-1 1 -5 336.67 24.8
-1 1 -5 319.27 18.2
-1 1 -5 307.97 62.69
-1 1 -5 418.26 48.4
1 -1 5 350.06 29.1
-2 1 -5 1425.36 103.39
-2 1 -5 1260.47 63.79
-2 1 -5 1072.49 126.99
2 -1 5 1181.28 70.69
3 -1 5 28 12.2
4 -1 5 582.94 48.3
-5 1 -5 83.29 10.3
-5 1 -5 78.19 12.8
-5 1 -5 99.69 11.7
-6 1 -5 25.3 6.3
-6 1 -5 19.1 6.2
6 -1 5 21.6 6
-7 1 -5 7.2 3.9
-7 1 -5 5.1 3.5
7 -1 5 10.6 3.4
7 0 -5 25.5 5.1
7 0 -5 15.9 5.7
-7 0 5 15.8 4.2
6 0 -5 10.3 4.3
6 0 -5 7.7 5.5
-6 0 5 1.7 3
5 0 -5 183.98 17.3
5 0 -5 203.48 13.3
5 0 -5 192.58 17
-5 0 5 194.38 13.9
-5 0 5 96.89 56.49
4 0 -5 388.66 31.5
4 0 -5 442.76 26.6
4 0 -5 466.55 36
-4 0 5 378.46 27.2
-4 0 5 302.77 81.79
3 0 -5 641.44 41.5
3 0 -5 651.13 33.5
3 0 -5 698.43 44.3
3 0 -5 703.33 35.5
-3 0 5 610.14 85.69
2 0 -5 115.29 32.6
2 0 -5 122.59 10.1
2 0 -5 132.19 15.1
2 0 -5 146.39 17.4
-2 0 5 160.88 47.3
1 0 -5 1836.02 88.19
1 0 -5 2106.89 113.99
1 0 -5 1679.23 75.39
1 0 -5 1570.24 135.99
1 0 -5 1690.33 83.09
0 0 -5 743.23 39.2
0 0 -5 627.14 83.99
0 0 5 689.53 39.8
-1 0 -5 0 8.8
-1 0 -5 3.1 3.5
-1 0 -5 -3.4 20.7
1 0 5 -0.7 4.3
-2 0 -5 665.53 35.7
-2 0 -5 448.06 85.89
2 0 5 669.13 43
-3 0 -5 220.58 81.19
3 0 5 333.77 31
4 0 5 56.09 16.6
-5 0 -5 17 5.5
5 0 5 20.4 6
-6 0 -5 189.08 15.2
6 0 5 224.98 15
-7 0 -5 54.19 8.1
-7 0 -5 64.69 8.2
7 0 5 71.69 6.5
-7 1 5 14.6 4.3
-7 1 5 7.6 3.2
6 -1 -5 143.19 15.5
6 -1 -5 147.09 11
-6 1 5 137.19 11.6
-6 1 5 120.39 11.7
5 -1 -5 225.58 17.6
5 -1 -5 223.48 14.4
5 -1 -5 223.58 13.1
5 -1 -5 219.58 18.7
-5 1 5 142.19 62.29
-5 1 5 222.38 15.3
-5 1 5 204.08 15
4 -1 -5 33.8 7.7
-4 1 5 17.8 29.4
-4 1 5 19.5 4.6
3 -1 -5 475.65 34.1
3 -1 -5 479.45 25.1
3 -1 -5 321.37 80.99
-3 1 5 401.46 72.19
2 -1 -5 66.69 12.8
2 -1 -5 75.69 8.8
2 -1 -5 53.59 34.1
2 -1 -5 39.4 22
2 -1 -5 52.69 11.3
-2 1 5 68.09 34.6
1 -1 -5 621.04 37.3
1 -1 -5 762.32 60.79
1 -1 -5 600.64 36.1
1 -1 -5 553.94 78.09
1 -1 -5 602.84 76.69
1 -1 -5 580.64 29.1
0 -1 -5 56.19 9.6
0 -1 -5 47.7 32.7
0 1 5 62.09 10.2
-1 -1 -5 1428.36 62.49
-1 -1 -5 1174.08 126.09
1 1 5 1284.67 65.09
-2 -1 -5 485.05 26.6
-2 -1 -5 384.76 78.99
2 1 5 470.65 32.7
-3 -1 -5 17.6 29.7
3 1 5 12.8 7.7
-4 -1 -5 358.06 107.59
4 1 5 375.06 34.2
-5 -1 -5 346.37 20.8
5 1 5 338.07 19.9
5 1 5 354.76 20.3
5 1 5 355.16 35.6
-6 -1 -5 25.1 6.4
6 1 5 35 6.5
-7 -1 -5 36.7 7.3
7 1 5 25.2 3.5
-8 -1 -5 27.2 4.7
-8 -1 -5 27.1 5.3
-7 2 5 16.4 4
6 -2 -5 54.89 9.3
-6 2 5 34.8 6.8
-6 2 5 38 6.3
5 -2 -5 65.79 7.6
5 -2 -5 44.5 10
5 -2 -5 61.69 7.5
5 -2 -5 69.39 10.8
-5 2 5 47.9 43.8
-5 2 5 35.1 6.8
-5 2 5 53.69 7.8
-5 2 5 60.09 10.3
4 -2 -5 553.84 40.2
4 -2 -5 571.14 31.3
4 -2 -5 574.74 31.7
4 -2 -5 424.66 31
-4 2 5 482.55 90.49
-4 2 5 561.14 35
-4 2 5 571.34 28.3
3 -2 -5 249.58 17.3
3 -2 -5 236.98 24.7
-3 2 5 216.38 69.19
2 -2 -5 143.69 11.2
2 -2 -5 141.19 16.9
2 -2 -5 100.19 51.19
-2 2 5 121.79 43.6
1 -2 -5 195.98 12.8
1 -2 -5 166.78 52.49
1 -2 -5 298.27 52.29
1 -2 -5 186.38 18.2
-1 2 5 240.18 45.4
0 -2 -5 296.47 20.6
0 -2 -5 330.17 57.29
0 -2 -5 203.38 55.19
-1 -2 -5 772.12 37
-1 -2 -5 736.13 92.69
-1 -2 -5 561.34 89.99
1 2 5 636.24 36.5
-2 -2 -5 10.9 24.3
2 2 5 7.4 5
-3 -2 -5 838.72 121.39
3 2 5 1033 56.59
-4 -2 -5 255.27 92.89
4 2 5 290.77 18.6
4 2 5 256.67 26.8
-5 -2 -5 32.1 48.3
-5 -2 -5 16.6 4.8
5 2 5 10.7 4.9
5 2 5 18.7 10.1
5 2 5 24.7 5.2
-6 -2 -5 557.84 31.5
-6 -2 -5 650.93 32.2
6 2 5 591.64 27.4
6 2 5 605.74 28.5
-7 -2 -5 121.09 12.7
-8 -2 -5 -0.8 2.9
-7 3 5 34.1 5.2
-7 3 5 17.5 3.8
6 -3 -5 131.19 8.7
-6 3 5 76.19 11.1
-6 3 5 119.59 12.8
5 -3 -5 379.66 20
5 -3 -5 410.06 24.8
-5 3 5 335.27 21.2
-5 3 5 337.97 21.9
-5 3 5 339.17 24.1
-5 3 5 234.28 76.69
4 -3 -5 58.09 10.3
4 -3 -5 45.7 6.7
4 -3 -5 81.69 11.6
4 -3 -5 57.99 10.5
-4 3 5 76.79 50.29
-4 3 5 76.29 11.6
-4 3 5 67.89 8.5
3 -3 -5 46.7 8.4
-3 3 5 37.7 7
-3 3 5 43.5 38.3
2 -3 -5 973.4 57.69
2 -3 -5 1036.5 47.4
-2 3 5 930.41 46.1
-2 3 5 1019.2 109.79
1 -3 -5 797.22 37.2
1 -3 -5 748.13 45.2
0 -3 -5 8.9 19.1
0 -3 -5 7.1 20.9
0 -3 -5 6.7 4.4
-1 -3 -5 321.97 76.59
-1 -3 -5 420.26 25.8
-1 -3 -5 552.14 76.39
-2 -3 -5 930.51 127.99
-2 -3 -5 1048.5 118.39
-3 -3 -5 126.59 57.19
3 3 5 113.29 14.5
-4 -3 -5 179.68 71.89
4 3 5 191.68 21.2
4 3 5 177.68 13
4 3 5 195.08 15
-5 -3 -5 353.06 109.19
-5 -3 -5 371.86 21.5
5 3 5 373.66 33.6
5 3 5 370.06 22.5
5 3 5 395.06 24.1
-6 -3 -5 15 5.4
-6 -3 -5 15.9 5.4
6 3 5 7 4.9
6 3 5 15.6 3.7
6 3 5 13.1 4.9
6 3 5 18.1 5.7
-7 -3 -5 18.7 6.3
-7 -3 -5 6.7 4.5
7 3 5 15.2 3.8
-8 -3 -5 39.1 6.4
-7 4 5 58.89 7.4
6 -4 -5 11.6 3.5
-6 4 5 8.3 4
-6 4 5 12.5 4.7
5 -4 -5 26.2 5.7
5 -4 -5 36.9 8.1
-5 4 5 20 5.8
-5 4 5 19.8 7.5
-5 4 5 17.7 6.1
4 -4 -5 301.67 20.6
4 -4 -5 266.47 20.6
-4 4 5 262.87 80.29
-4 4 5 282.67 19.2
-4 4 5 275.17 18
-4 4 5 222.98 19.1
-4 4 5 233.58 17.3
3 -4 -5 881.71 43.6
-3 4 5 763.32 41.9
-3 4 5 912.31 122.19
2 -4 -5 410.86 24.1
-2 4 5 388.66 73.09
-2 4 5 381.46 22.7
1 -4 -5 163.48 12.1
1 -4 -5 100.79 58.69
0 -4 -5 416.26 96.89
0 -4 -5 526.05 25.4
-1 -4 -5 791.02 127.59
-1 -4 -5 878.21 46.1
-2 -4 -5 1.1 21.6
-2 -4 -5 6 25.2
-3 -4 -5 309.27 74.69
-3 -4 -5 272.97 84.69
3 4 5 274.77 16.5
-4 -4 -5 605.24 111.19
4 4 5 691.43 35.1
4 4 5 606.64 32.1
-5 -4 -5 59.79 56.19
-5 -4 -5 48.7 7.5
5 4 5 50.79 9.3
5 4 5 49.3 14.6
5 4 5 39.8 7.5
5 4 5 48.9 8.2
-6 -4 -5 57.49 8.1
-6 -4 -5 53.69 8.9
6 4 5 48.1 8.7
6 4 5 60.29 6.5
6 4 5 56.79 7.7
6 4 5 82.99 11.9
-7 -4 -5 54.99 8.2
-7 -4 -5 34.3 7.1
7 4 5 54.99 6
7 4 5 49 7.5
7 4 5 53.89 9.4
-8 -4 -5 42.5 6.5
-8 -4 -5 33.5 5.8
8 4 5 33.3 4.1
6 -5 -5 48.5 5.5
-6 5 5 47 5
-6 5 5 49 6.6
5 -5 -5 239.88 17.5
5 -5 -5 210.08 14.2
-5 5 5 209.98 17.8
-5 5 5 222.88 14.6
-5 5 5 238.68 16.3
4 -5 -5 159.08 14.2
4 -5 -5 136.39 14.6
-4 5 5 139.29 14.5
-4 5 5 138.89 61.79
-4 5 5 156.48 12.8
-4 5 5 143.59 12.9
3 -5 -5 73.29 9.9
3 -5 -5 72.99 11.8
-3 5 5 80.79 50.19
-3 5 5 57.99 6.7
-3 5 5 87.59 12.4
-3 5 5 70.09 8.4
2 -5 -5 985.7 48.3
-2 5 5 950.8 47
1 -5 -5 837.62 39.7
1 -5 -5 638.74 133.19
-1 5 5 820.72 38.3
0 -5 -5 725.43 34.4
0 -5 -5 601.54 122.49
0 5 5 692.43 33
-1 -5 -5 8.5 26.7
-1 -5 -5 30.7 5.6
1 5 5 14.6 6.2
-2 -5 -5 1811.92 157.78
-2 -5 -5 1349.96 187.88
2 5 5 1709.63 71.09
-3 -5 -5 891.11 123.99
-3 -5 -5 682.93 140.99
3 5 5 875.21 40.2
-4 -5 -5 48.6 50.39
4 5 5 48.2 8.5
4 5 5 34 6.6
-5 -5 -5 99.99 62.99
5 5 5 167.58 15.4
5 5 5 191.38 13.3
5 5 5 161.08 14.5
-6 -5 -5 204.18 15
-6 -5 -5 197.38 16.1
6 5 5 202.68 17
6 5 5 206.98 14.9
6 5 5 191.78 12.8
6 5 5 240.88 19
6 5 5 220.38 14.6
6 5 5 189.58 12
-7 -5 -5 67.29 9
-7 -5 -5 71.59 10.7
7 5 5 79.49 7.1
7 5 5 59.79 9.9
7 5 5 58.99 8.3
7 5 5 62.79 11.3
7 5 5 75.59 7.7
-8 -5 -5 29 5.8
8 5 5 24.4 4
-6 6 5 198.68 11.7
5 -6 -5 85.79 8.4
5 -6 -5 76.79 9.5
-5 6 5 93.49 6.4
-5 6 5 88.49 9.7
4 -6 -5 275.87 19.3
4 -6 -5 228.38 19.2
-4 6 5 259.37 14.8
-4 6 5 282.97 18.1
-4 6 5 244.38 19.6
3 -6 -5 1159.48 56.09
3 -6 -5 1099.49 56.29
3 -6 -5 1133.79 52.99
-3 6 5 1153.58 50.09
-3 6 5 1155.08 53.39
-3 6 5 1163.78 49.9
-3 6 5 1121.09 56.09
2 -6 -5 305.07 21.4
2 -6 -5 297.67 20
-2 6 5 288.17 17.6
-2 6 5 301.17 20.1
-2 6 5 283.27 15.3
1 -6 -5 1.2 3.4
-1 6 5 6 4
0 -6 -5 540.65 29.1
0 6 5 524.55 27.7
-1 -6 -5 600.54 31.1
-1 -6 -5 562.44 125.49
1 6 5 645.14 31.2
2 6 5 184.18 13.5
-3 -6 -5 108.39 57.39
3 6 5 92.99 11.8
3 6 5 101.99 10.4
-4 -6 -5 821.32 140.89
4 6 5 860.01 44.1
4 6 5 892.21 44.9
-5 -6 -5 475.45 140.49
5 6 5 457.85 25.5
5 6 5 486.65 30.2
5 6 5 496.75 29.9
5 6 5 498.85 27.3
-6 -6 -5 26.2 7
-6 -6 -5 27.9 7.2
6 6 5 18.4 6.2
6 6 5 28.4 7.2
6 6 5 22.6 6
6 6 5 24 6.3
6 6 5 20.4 4.6
-7 -6 -5 63.39 10
-7 -6 -5 59.79 8.5
7 6 5 70.99 9.4
7 6 5 74.09 12.1
7 6 5 54.29 7.8
7 6 5 58.69 6.8
7 6 5 96.49 13.2
7 6 5 70.99 7.1
8 6 5 40.2 5.3
5 -7 -5 101.59 8.2
5 -7 -5 112.99 9.7
-5 7 5 116.09 9.1
4 -7 -5 240.08 17.4
-4 7 5 217.98 17.6
-4 7 5 251.47 16.1
3 -7 -5 81.19 9.2
3 -7 -5 53.09 8.8
3 -7 -5 63.39 10.5
-3 7 5 72.39 11.1
-3 7 5 64.89 7
-3 7 5 86.99 10.8
2 -7 -5 146.69 14.5
2 -7 -5 159.68 15.3
-2 7 5 161.28 12.4
-2 7 5 170.78 12.9
-2 7 5 143.89 10.6
-2 7 5 166.58 11.1
-2 7 5 159.18 14.2
1 -7 -5 645.54 35.4
1 -7 -5 596.94 33.1
-1 7 5 604.54 30.7
-1 7 5 629.54 33.2
-1 7 5 605.24 30.4
0 -7 -5 967.8 49
0 7 5 1027.7 47.5
0 7 5 959.8 45
-1 -7 -5 2.1 4.3
1 7 5 4.5 3.6
2 7 5 157.58 13
3 7 5 572.14 32.1
3 7 5 697.73 35.5
4 7 5 601.04 31.3
4 7 5 525.45 29.7
4 7 5 579.04 33.3
4 7 5 585.24 33.1
5 7 5 8.4 5
5 7 5 8.3 4.5
5 7 5 5.2 4.7
5 7 5 4.5 2.6
5 7 5 10.8 5.6
6 7 5 304.17 19.4
6 7 5 308.67 17.4
6 7 5 355.26 21.4
6 7 5 317.37 23.4
6 7 5 312.57 23.5
-7 -7 -5 149.09 12.1
-7 -7 -5 150.08 14.2
7 7 5 143.29 11.9
7 7 5 137.89 14.6
7 7 5 142.29 12.5
7 7 5 160.68 15.1
7 7 5 160.08 10.5
7 7 5 139.69 10.2
8 7 5 4.3 3.4
8 7 5 5.2 2.5
8 7 5 4.3 2.8
4 -8 -5 3.8 3.7
-4 8 5 8.1 3.7
3 -8 -5 242.88 16.2
3 -8 -5 243.18 18.1
-3 8 5 231.28 12
-3 8 5 252.07 16
-3 8 5 246.78 13.9
-3 8 5 252.37 18.4
2 -8 -5 389.46 25
2 -8 -5 378.56 26.1
-2 8 5 392.46 20.3
-2 8 5 392.86 22
-2 8 5 362.76 24
-2 8 5 378.56 20.1
-2 8 5 372.66 21.4
-2 8 5 380.76 22.3
1 -8 -5 461.55 29
1 -8 -5 434.96 26.9
-1 8 5 448.56 26.5
-1 8 5 443.56 23.2
-1 8 5 426.46 24.2
-1 8 5 450.15 24.1
-1 8 5 455.55 24.2
-1 8 5 454.55 23.1
-1 8 5 426.26 22.6
-1 8 5 436.96 24.2
-1 8 5 420.66 21.5
0 -8 -5 94.99 13.1
0 8 5 93.69 9.7
0 8 5 98.39 10.7
0 8 5 89.99 8.7
0 8 5 83.69 9.5
0 8 5 94.09 8.1
0 8 5 103.19 12.3
1 8 5 618.14 31.2
1 8 5 606.84 31
1 8 5 621.24 31.6
1 8 5 630.14 33.4
2 8 5 957.6 44.6
2 8 5 935.91 45.3
2 8 5 922.11 45.9
2 8 5 847.32 42.6
3 8 5 31.1 7.5
3 8 5 40.6 7
3 8 5 42.3 6.9
3 8 5 33.1 5.8
3 8 5 38.1 6.9
3 8 5 47.7 10.2
4 8 5 368.96 22.2
4 8 5 316.97 19.9
4 8 5 342.47 20.3
4 8 5 345.87 24.2
4 8 5 333.07 16.9
5 8 5 334.27 24.4
5 8 5 324.67 17.3
5 8 5 315.07 20
5 8 5 345.97 21.9
5 8 5 338.47 23.7
6 8 5 127.89 11.6
6 8 5 111.19 15.1
6 8 5 149.79 16
6 8 5 152.68 10.1
6 8 5 174.28 14
7 8 5 0.3 3.4
7 8 5 2.7 4.8
7 8 5 -1.7 2.1
8 8 5 67.79 5.4
8 8 5 61.49 5.6
-4 9 5 136.99 8.8
3 -9 -5 297.97 18.9
3 -9 -5 266.57 16.8
-3 9 5 282.57 13.3
-3 9 5 310.27 17.2
-3 9 5 300.47 15.1
2 -9 -5 8.1 4.9
-2 9 5 7.2 4
-2 9 5 3.9 2.7
-2 9 5 11 3.8
-2 9 5 6.2 3.2
-2 9 5 3.4 4.3
1 -9 -5 469.35 30.9
1 -9 -5 529.45 30.3
-1 9 5 474.15 28.6
-1 9 5 511.05 25.6
-1 9 5 510.05 27.3
-1 9 5 495.25 25.7
-1 9 5 521.15 27
-1 9 5 472.95 26.8
-1 9 5 525.15 25.5
-1 9 5 514.95 24.2
-1 9 5 499.75 26.6
0 -9 -5 350.56 25
0 9 5 382.56 21.7
0 9 5 351.66 19.5
0 9 5 374.76 20.2
0 9 5 364.96 18.1
0 9 5 331.97 20.1
0 9 5 360.36 22.9
0 9 5 338.27 20.8
0 9 5 342.17 19.7
1 9 5 263.37 16
1 9 5 250.17 17.4
1 9 5 266.57 19.1
1 9 5 271.47 14.1
1 9 5 261.47 15.5
1 9 5 290.27 16.8
1 9 5 266.37 16.8
1 9 5 274.77 17.6
2 9 5 7.1 3.9
2 9 5 8.1 4.3
2 9 5 9 2.4
2 9 5 11.2 5.3
2 9 5 7 3.9
2 9 5 7.7 4.1
2 9 5 10.5 3.8
3 9 5 556.14 27.9
3 9 5 471.65 26.3
3 9 5 442.86 21.7
3 9 5 443.06 25.3
3 9 5 473.65 25.1
3 9 5 514.15 29.9
3 9 5 431.66 25.2
4 9 5 190.38 11.1
4 9 5 212.68 15.5
4 9 5 180.78 13.9
4 9 5 203.18 18
4 9 5 220.58 15
5 9 5 68.39 6.1
5 9 5 55.79 10.6
5 9 5 64.69 9.1
5 9 5 66.09 9
6 9 5 13 4.4
6 9 5 19.5 7
6 9 5 19.6 5.1
6 9 5 17.8 6.8
6 9 5 23 3.9
7 9 5 123.19 7.9
7 9 5 113.59 10.2
3 -10 -5 3.4 2.5
-3 10 5 4.2 3
-3 10 5 3.3 2.2
2 -10 -5 195.38 13.5
2 -10 -5 190.08 14.2
-2 10 5 197.18 11.4
-2 10 5 188.28 11.8
-2 10 5 216.28 11.8
-2 10 5 195.58 12.8
-2 10 5 196.78 10.1
1 -10 -5 407.96 24.6
-1 10 5 418.36 21.2
-1 10 5 432.96 21
-1 10 5 345.77 23.3
-1 10 5 400.46 22
-1 10 5 406.46 22.1
-1 10 5 420.86 20
-1 10 5 410.96 21.5
-1 10 5 423.16 22.6
0 -10 -5 49.2 9.7
0 10 5 57.59 7.7
0 10 5 62.89 7
0 10 5 81.09 10
0 10 5 81.89 8.9
0 10 5 67.79 7.8
0 10 5 90.19 11.4
0 10 5 69.39 8.2
0 10 5 88.89 6.6
1 10 5 159.28 12.5
1 10 5 144.29 13.9
1 10 5 161.98 12.1
1 10 5 154.38 11.4
1 10 5 158.08 12.7
1 10 5 164.78 9.7
1 10 5 163.18 11.3
1 10 5 167.28 13.4
2 10 5 481.05 29.7
2 10 5 511.95 23.6
2 10 5 487.55 25.3
2 10 5 520.05 27.5
2 10 5 530.25 27.7
2 10 5 530.05 27.7
2 10 5 523.05 26.6
3 10 5 362.76 20.7
3 10 5 357.56 24.3
3 10 5 374.56 17.7
3 10 5 359.96 21.1
3 10 5 366.96 21.4
4 10 5 27.9 6.1
4 10 5 34.7 6.6
4 10 5 28.6 5.8
4 10 5 27.6 7.5
4 10 5 27.5 3.8
5 10 5 280.57 17.2
5 10 5 302.27 14.9
5 10 5 273.37 21
5 10 5 293.47 18.6
6 10 5 35.9 6.3
6 10 5 54.19 5.4
7 10 5 5.8 2
2 -11 -5 150.68 10
-2 11 5 151.68 8.6
1 -11 -5 5.5 3.7
-1 11 5 12.7 3.2
-1 11 5 5.9 2.8
-1 11 5 10.8 3.6
-1 11 5 10.2 3.6
-1 11 5 10.6 2.5
-1 11 5 10 3.2
-1 11 5 8.2 2.6
-1 11 5 10.9 2.3
0 11 5 340.67 18.4
0 11 5 354.66 19.6
0 11 5 315.17 18.6
0 11 5 347.07 19.3
0 11 5 354.46 16.9
0 11 5 365.16 18.4
0 11 5 343.27 17.8
1 11 5 555.74 25.3
1 11 5 592.44 28.3
1 11 5 549.95 27.5
1 11 5 558.94 26.9
1 11 5 589.54 29
1 11 5 518.45 26
1 11 5 554.54 28.5
2 11 5 97.89 9.8
2 11 5 93.29 10.3
2 11 5 82.19 6.1
2 11 5 95.29 12.2
2 11 5 70.89 7.3
2 11 5 94.69 10
3 11 5 146.19 11.3
3 11 5 136.59 10.8
3 11 5 144.49 8.3
3 11 5 105.79 14.3
3 11 5 146.99 11.1
4 11 5 315.97 15.1
4 11 5 294.87 19.3
4 11 5 328.67 17.8
5 11 5 177.58 11.9
5 11 5 195.78 9.9
6 11 5 67.79 4.6
0 -12 -5 131.99 9.5
0 12 5 125.79 7.9
0 12 5 136.69 8.3
0 12 5 134.09 7.8
0 12 5 132.19 9.2
0 12 5 134.29 7.4
0 12 5 120.59 8.2
-1 -12 -5 7.2 3.2
1 12 5 6.9 2.9
1 12 5 7.6 2.8
1 12 5 10 2.2
1 12 5 2.8 3.1
1 12 5 8.8 3.2
2 12 5 248.58 14.4
2 12 5 240.88 13.7
2 12 5 240.78 12.7
2 12 5 243.58 14.2
2 12 5 243.78 11.9
3 12 5 239.38 14
3 12 5 247.58 14.2
3 12 5 254.47 11.9
4 12 5 45.4 3.6
4 12 5 46 5.6
4 8 -6 22.6 2.6
3 8 -6 32.3 3.7
3 8 -6 26 6.3
2 8 -6 88.49 8.6
2 8 -6 87.39 6.5
2 8 -6 103.19 11.6
1 8 -6 118.69 9.3
1 8 -6 108.29 7.5
1 8 -6 99.89 8.8
1 8 -6 96.79 11.3
0 8 -6 0.7 3.1
0 8 -6 7.6 3.3
0 8 -6 9.6 6.1
0 8 -6 8.4 4.7
-1 8 -6 60.29 9.3
-1 8 -6 37.9 5.3
-1 8 -6 52.59 5.9
5 7 -6 5 2
4 7 -6 17.3 3.2
3 7 -6 252.07 13.2
3 7 -6 255.27 18.8
2 7 -6 142.29 14.7
2 7 -6 151.88 11.8
2 7 -6 138.29 8.9
1 7 -6 26.1 5.8
1 7 -6 43.2 6.5
1 7 -6 24.5 7.2
1 7 -6 42.2 5.3
0 7 -6 161.18 12.7
0 7 -6 160.58 10.8
0 7 -6 157.88 13.6
0 7 -6 158.48 12.6
0 7 -6 155.38 14.8
-1 7 -6 77.79 8.3
-1 7 -6 87.29 10.2
-1 7 -6 74.19 9.8
-1 7 -6 90.99 7.8
-1 7 -6 69.19 8.9
-1 7 -6 79.39 8.6
-2 7 -6 51.59 8
-2 7 -6 37.5 6.8
-2 7 -6 40.6 6.1
-2 7 -6 38.3 5.2
-2 7 -6 39.2 6.6
-3 7 -6 16.5 3.9
6 6 -6 31 4.3
5 6 -6 60.99 6.7
4 6 -6 298.97 24
4 6 -6 314.77 16.4
3 6 -6 31.7 8.3
3 6 -6 20.1 4.1
2 6 -6 106.59 14.7
2 6 -6 71.69 6.4
2 6 -6 60.59 10.7
2 6 -6 64.39 8.3
1 6 -6 445.46 28.6
1 6 -6 437.06 21.9
1 6 -6 450.25 29.5
1 6 -6 435.36 24.5
1 6 -6 466.25 25.2
0 6 -6 148.89 12.2
0 6 -6 119.29 9.6
0 6 -6 154.48 17.9
0 6 -6 125.69 12.8
0 6 -6 112.19 12.8
0 6 -6 145.89 16.1
-1 6 -6 75.99 11.9
-1 6 -6 101.69 10.7
-1 6 -6 82.09 12
-1 6 -6 76.29 9.9
-1 6 -6 102.69 11.6
-1 6 -6 92.29 8.5
-1 6 -6 93.49 12
-2 6 -6 83.49 11.4
-2 6 -6 51.69 8.2
-2 6 -6 104.89 9.9
-2 6 -6 98.29 10.1
-2 6 -6 58.39 8.8
-3 6 -6 46.5 7.3
-3 6 -6 59.09 6.8
-3 6 -6 60.59 8.8
-4 6 -6 -0.1 2.4
6 5 -6 38.2 5.2
5 5 -6 61.29 7
5 5 -6 38.7 10.6
-5 -5 6 50.89 8.7
4 5 -6 31.4 7.7
4 5 -6 36.3 5.3
4 5 -6 34.7 10.2
-4 -5 6 41.5 8
3 5 -6 162.38 16
3 5 -6 155.38 10.6
3 5 -6 91.49 46.5
3 5 -6 186.48 16.2
-3 -5 6 94.59 54.99
2 5 -6 359.96 24.1
2 5 -6 285.57 76.89
2 5 -6 326.67 20.2
2 5 -6 336.47 24.7
2 5 -6 344.87 18.1
1 5 -6 2.7 22.7
1 5 -6 24.1 7.2
1 5 -6 28 8.7
1 5 -6 39.2 5.4
1 5 -6 35 6.9
1 5 -6 39.4 7.1
0 5 -6 146.79 15.4
0 5 -6 154.18 13.4
0 5 -6 148.49 10.3
0 5 -6 151.48 12.7
0 5 -6 131.19 13.7
0 5 -6 87.09 45
0 5 -6 148.99 12.7
-1 5 -6 195.58 17.3
-1 5 -6 209.48 16.2
-1 5 -6 207.58 14.7
-1 5 -6 137.49 54.89
-1 5 -6 225.48 14
-1 5 -6 213.58 15.8
-1 5 -6 200.08 17.2
-1 5 -6 219.28 16.9
-2 5 -6 162.18 14.3
-2 5 -6 148.69 16.2
-2 5 -6 150.58 11.7
-2 5 -6 135.49 12.2
-2 5 -6 128.59 13.7
-2 5 -6 134.39 11.3
-2 5 -6 144.39 13.7
-3 5 -6 18 4.7
-3 5 -6 22.8 6.2
-3 5 -6 16.8 6.2
-4 5 -6 13.8 4.9
-4 5 -6 14.4 4.4
-4 5 -6 15.8 4.8
7 4 -6 39.6 5.2
7 4 -6 49.7 5.4
6 4 -6 23.9 4.4
6 4 -6 16 7.6
6 4 -6 19.3 5
-6 -4 6 12.7 3.5
-6 -4 6 20.4 5.9
5 4 -6 175.68 19.1
5 4 -6 202.98 12.7
-5 -4 6 208.68 16.3
4 4 -6 273.97 15.4
4 4 -6 250.67 21.7
4 4 -6 255.87 76.79
4 4 -6 294.47 20.3
-4 -4 6 294.17 19.4
-4 -4 6 170.68 73.39
3 4 -6 51.29 10.7
3 4 -6 51.29 8.9
3 4 -6 67.19 7.4
3 4 -6 56.59 10.3
3 4 -6 39.9 34.7
-3 -4 6 42.4 42.8
-3 -4 6 60.79 9.4
2 4 -6 3.4 3.9
2 4 -6 -3.9 19.4
2 4 -6 2.2 4.8
-2 -4 6 -1.8 7.2
1 4 -6 296.87 58.09
1 4 -6 354.96 23.5
1 4 -6 377.26 25.2
-1 -4 6 424.56 38
0 4 -6 404.66 24.5
0 4 -6 388.86 25.4
0 4 -6 404.16 67.59
0 4 -6 435.76 27.1
0 -4 6 466.25 41
-1 4 -6 43.1 33.3
-1 4 -6 52.29 9.3
-1 4 -6 45.4 8.4
-1 4 -6 58.49 9.6
-1 4 -6 53.49 7.2
-1 4 -6 52.79 8.7
1 -4 6 37.3 22.6
-2 4 -6 154.08 15
-2 4 -6 195.88 15.9
-2 4 -6 159.68 15.1
-2 4 -6 218.68 61.99
-2 4 -6 163.18 12.3
-2 4 -6 181.08 13.9
-2 4 -6 194.08 15.8
-2 4 -6 168.98 12.7
-3 4 -6 92.69 9.8
-3 4 -6 137.19 14.9
-3 4 -6 158.38 59.49
-3 4 -6 95.69 12.4
-4 4 -6 118.29 10.8
-4 4 -6 121.99 12.1
-4 4 -6 94.69 11
-5 4 -6 -1.1 3.2
7 3 -6 13.5 3.5
7 3 -6 6.4 4.3
-7 -3 6 7.3 2.9
6 3 -6 9 6.1
6 3 -6 6.8 3.8
6 3 -6 7.9 3.4
6 3 -6 12.2 5.8
-6 -3 6 7.8 4.7
-6 -3 6 9.4 3.8
5 3 -6 261.97 22
5 3 -6 279.87 15.9
5 3 -6 247.78 18.9
-5 -3 6 273.27 16.6
4 3 -6 2.9 5.4
4 3 -6 6.8 3.3
4 3 -6 8.5 5.2
4 3 -6 27.3 33.4
-4 -3 6 0.1 35.5
3 3 -6 501.05 28.2
3 3 -6 483.75 45.2
3 3 -6 401.26 70.89
3 3 -6 493.25 30.3
3 3 -6 498.45 28.6
-3 -3 6 397.66 82.69
2 3 -6 719.43 55.89
2 3 -6 638.44 37.3
2 3 -6 733.13 36.7
2 3 -6 538.35 74.19
2 3 -6 626.84 34.5
-2 -3 6 694.93 48.6
-2 -3 6 668.73 34
1 3 -6 145.49 44.9
1 3 -6 166.48 14.2
-1 -3 6 165.38 23
0 3 -6 105.49 39.5
0 3 -6 117.69 12.1
0 -3 6 104.99 21.5
-1 3 -6 494.25 28.4
-1 3 -6 488.45 70.89
-1 3 -6 501.65 28.3
1 -3 6 487.05 43.5
-2 3 -6 265.07 18.6
-2 3 -6 258.67 18.8
-2 3 -6 210.08 16.5
2 -3 6 241.38 30.3
-3 3 -6 75.39 11.6
-3 3 -6 78.19 11.8
-3 3 -6 81.19 43.9
-4 3 -6 43.5 8
-4 3 -6 30.5 7.6
-4 3 -6 32.2 7.6
-5 3 -6 92.59 10.6
-5 3 -6 88.69 10.3
-6 3 -6 16.9 4.3
6 -3 6 17.4 3.8
7 2 -6 36.3 6.5
7 2 -6 45.6 5.5
-7 -2 6 30 4.7
6 2 -6 3.9 5.3
6 2 -6 3.8 5.1
6 2 -6 1.1 3.3
6 2 -6 4.2 3.2
-6 -2 6 0.5 4.1
-6 -2 6 2.6 3.1
5 2 -6 173.58 12.3
5 2 -6 181.58 12.6
5 2 -6 165.58 15
5 2 -6 170.38 17.4
-5 -2 6 189.58 13.1
-5 -2 6 101.29 67.19
4 2 -6 22.2 6.3
4 2 -6 21.2 7.2
4 2 -6 17.5 5.5
4 2 -6 19.4 4.4
-4 -2 6 25.2 4.9
-4 -2 6 13.8 34.2
3 2 -6 287.87 21.3
3 2 -6 280.97 55.99
3 2 -6 320.97 20.5
3 2 -6 310.27 19.8
3 2 -6 287.47 33.2
-3 -2 6 303.97 80.49
2 2 -6 146.39 25.5
2 2 -6 132.59 11.9
2 2 -6 120.09 13.1
2 2 -6 132.99 41.9
-2 -2 6 135.09 18.4
-2 -2 6 111.89 44.1
-2 -2 6 125.79 11.1
1 2 -6 522.35 38.2
1 2 -6 505.05 27.6
1 2 -6 505.85 60.59
1 2 -6 432.06 29.1
-1 -2 6 484.55 26.3
-1 -2 6 544.75 39
0 2 -6 544.95 29.2
0 2 -6 521.55 84.29
0 2 -6 528.55 39.2
0 2 -6 591.84 66.69
0 -2 6 538.45 41.1
-1 2 -6 621.44 71.49
-1 2 -6 571.44 31
-1 2 -6 600.94 92.59
1 -2 6 610.84 46.7
-2 2 -6 103.09 39.9
-2 2 -6 102.89 11.9
2 -2 6 99.39 23.2
-3 2 -6 604.44 28.8
-3 2 -6 600.44 32.7
-3 2 -6 556.24 31.7
3 -2 6 511.95 47.6
-4 2 -6 229.88 14.9
-4 2 -6 195.48 16.1
-4 2 -6 217.98 17.3
-4 2 -6 201.88 15.8
-5 2 -6 16.8 5.5
-5 2 -6 17.8 5.9
-5 2 -6 15.8 4.9
-6 2 -6 9.8 2.8
-6 2 -6 12.6 4.3
6 -2 6 8.6 3.9
7 1 -6 2.7 3
7 1 -6 1.2 3.9
-7 -1 6 -2 2.3
6 1 -6 54.19 9.7
6 1 -6 77.19 8.7
6 1 -6 51.69 10
-6 -1 6 66.29 8
-6 -1 6 50.69 8.3
5 1 -6 75.09 11.5
5 1 -6 59.39 9.5
5 1 -6 41.3 6.5
5 1 -6 49.3 7.6
5 1 -6 45.3 10.3
-5 -1 6 30.9 40.7
-5 -1 6 53.79 8.1
4 1 -6 34.5 7.6
4 1 -6 32.6 13.8
4 1 -6 60.59 9.3
4 1 -6 50.59 10.6
4 1 -6 44.4 7.9
-4 -1 6 46.5 6.5
-4 -1 6 19.1 34.8
3 1 -6 20.1 10.2
3 1 -6 19.1 5.6
3 1 -6 23 6.4
3 1 -6 27.6 23.6
-3 -1 6 21.2 25.7
2 1 -6 578.14 43.4
2 1 -6 530.85 28.9
2 1 -6 524.65 31
2 1 -6 540.65 65.29
2 1 -6 507.85 37.1
-2 -1 6 614.24 82.09
-2 -1 6 554.04 28.4
1 1 -6 809.62 53.09
1 1 -6 697.93 44.6
1 1 -6 741.63 36.5
1 1 -6 762.52 71.19
-1 -1 6 742.03 46.3
0 1 -6 352.26 27.2
0 1 -6 288.77 63.49
0 1 -6 345.47 20
0 1 -6 439.66 50.39
0 -1 6 342.77 29
-1 1 -6 552.74 36.6
-1 1 -6 544.45 27.7
-1 1 -6 459.05 85.29
1 -1 6 567.34 41.4
-2 1 -6 767.32 114.89
2 -1 6 958.5 60.79
-3 1 -6 458.45 25.8
3 -1 6 414.06 40.3
-4 1 -6 102.59 12.9
-4 1 -6 78.89 9.7
-4 1 -6 95.49 11
-4 1 -6 95.99 12.1
-5 1 -6 252.47 17
-5 1 -6 229.38 16.9
-5 1 -6 223.88 17.4
-6 1 -6 56.89 8.1
-6 1 -6 48.3 7.3
6 -1 6 60.19 7.8
-7 1 -6 2.9 2.4
-7 1 -6 10.2 3.7
7 -1 6 5.5 2.7
-7 0 6 77.29 7.6
6 0 -6 126.09 10.4
6 0 -6 108.49 13.8
-6 0 6 104.79 10.2
5 0 -6 25.8 8.4
5 0 -6 11.2 6.6
5 0 -6 23.7 7
-5 0 6 20.3 6.3
-5 0 6 20.9 5.3
-5 0 6 -0.9 38.1
4 0 -6 108.89 15.1
4 0 -6 98.59 12.4
4 0 -6 132.19 14.8
4 0 -6 109.19 9.7
-4 0 6 121.29 10.3
-4 0 6 71.49 46.1
3 0 -6 696.63 37.9
3 0 -6 705.63 35.8
3 0 -6 613.44 46.1
-3 0 6 620.74 92.09
-3 0 6 703.43 34.6
2 0 -6 143.69 13.6
2 0 -6 146.49 11.6
2 0 -6 132.89 17.5
2 0 -6 127.29 21.1
2 0 -6 113.79 34.4
-2 0 6 148.69 47.6
-2 0 6 149.09 11.3
1 0 -6 47.1 33.1
1 0 -6 76.89 13.9
1 0 -6 77.99 15.9
1 0 -6 70.49 8.6
1 0 -6 77.59 26.9
-1 0 6 78.79 14
-1 0 6 95.09 36.3
0 0 -6 957.2 53.29
0 0 -6 1169.18 79.89
0 0 -6 951.6 45.4
0 0 6 991.6 55.39
-1 0 -6 696.13 32.1
-1 0 -6 652.13 38.8
1 0 6 661.53 43.8
-2 0 -6 -4.3 24.1
2 0 6 2.6 6.1
-3 0 -6 109.19 59.79
3 0 6 208.78 25.4
-4 0 -6 277.87 18.6
4 0 6 291.77 33.3
-5 0 -6 238.38 16.9
-5 0 -6 244.78 17.8
-5 0 -6 239.18 17.5
5 0 6 245.08 17.2
-6 0 -6 -0.1 4
-6 0 -6 -5.9 3.6
6 0 6 1.6 3.8
-7 0 -6 44.2 6.7
-7 0 -6 46.5 6.9
7 0 6 51.59 5.2
-7 1 6 80.69 7.7
6 -1 -6 4.7 4
6 -1 -6 -0.5 5
-6 1 6 0.2 3.1
5 -1 -6 246.28 15.7
5 -1 -6 263.07 19.4
5 -1 -6 216.08 19.4
-5 1 6 154.58 71.09
-5 1 6 241.98 16.6
4 -1 -6 378.36 26.6
4 -1 -6 399.16 21.3
4 -1 -6 410.66 25.2
4 -1 -6 367.16 19.9
4 -1 -6 422.66 26.3
4 -1 -6 369.16 24.6
-4 1 6 391.26 22.2
-4 1 6 256.37 82.59
-4 1 6 406.56 23.6
3 -1 -6 21.3 7.4
3 -1 -6 11.5 4.7
-3 1 6 19.9 28.8
-3 1 6 10.5 4.4
2 -1 -6 175.28 43.5
2 -1 -6 153.98 18.8
2 -1 -6 177.48 13.1
-2 1 6 167.38 52.39
1 -1 -6 668.93 32.7
1 -1 -6 645.84 42
1 -1 -6 652.13 40.9
1 -1 -6 796.42 68.79
1 -1 -6 523.55 81.89
-1 1 6 643.14 38.3
-1 1 6 817.02 81.99
0 -1 -6 1388.76 66.29
0 -1 -6 1079.79 124.49
0 -1 -6 1346.87 57.59
0 1 6 1359.96 66.09
-1 -1 -6 11.4 3.1
-1 -1 -6 6.8 4.1
-1 -1 -6 2.9 23.7
1 1 6 14.8 7.1
-2 -1 -6 458.65 94.39
2 1 6 552.34 38.1
-3 -1 -6 373.16 90.49
3 1 6 532.75 39.4
-4 -1 -6 147.69 75.39
4 1 6 169.48 23.6
-5 -1 -6 128.99 13.8
-5 -1 -6 93.09 10.7
5 1 6 110.79 11.3
-6 -1 -6 177.88 14.1
6 1 6 144.59 11.9
-7 -1 -6 42.8 7.4
-7 -1 -6 42 7.8
7 1 6 42.9 3.9
-7 2 6 28.7 4.2
-6 2 6 224.48 15.2
-6 2 6 229.08 15.6
5 -2 -6 239.58 13.7
5 -2 -6 258.37 20.4
5 -2 -6 184.78 18.3
5 -2 -6 218.48 17.8
-5 2 6 150.38 63.69
-5 2 6 194.88 15.3
4 -2 -6 7.8 3.7
4 -2 -6 8.1 4.3
4 -2 -6 16.5 7.4
4 -2 -6 9.3 5.4
4 -2 -6 9 4.6
-4 2 6 7.9 3.8
-4 2 6 13 31.5
3 -2 -6 438.16 25.5
-3 2 6 296.47 75.19
2 -2 -6 1024.8 48.4
2 -2 -6 1033.2 59.69
-2 2 6 947.31 108.09
1 -2 -6 53.19 7.4
1 -2 -6 69.79 37.3
1 -2 -6 48.4 11
0 -2 -6 841.82 102.49
0 -2 -6 808.22 45.2
0 -2 -6 787.82 37.2
-1 -2 -6 1263.77 134.89
-1 -2 -6 1356.16 61.99
1 2 6 1093.49 60.99
-2 -2 -6 489.05 89.69
2 2 6 491.15 33.6
-3 -2 -6 5.1 24.8
3 2 6 7.1 7.2
-4 -2 -6 429.26 120.69
4 2 6 392.56 23.8
4 2 6 338.47 32.5
-5 -2 -6 253.97 17.8
-5 -2 -6 265.87 17.1
-5 -2 -6 355.06 121.99
5 2 6 272.07 16.7
5 2 6 251.27 13.5
5 2 6 279.27 16.9
5 2 6 244.88 28.7
-6 -2 -6 230.58 16.9
6 2 6 254.17 14.7
-7 -2 -6 6.8 4.3
-8 -2 -6 32.8 5.4
6 -3 -6 18.9 6.2
-6 3 6 14.7 4.4
-6 3 6 8.5 3.9
5 -3 -6 143.89 14
5 -3 -6 151.18 11.2
-5 3 6 142.99 12.5
-5 3 6 137.19 14.6
4 -3 -6 556.04 30.5
4 -3 -6 486.15 25.5
4 -3 -6 517.55 30.7
-4 3 6 451.75 26.5
-4 3 6 527.35 105.69
-4 3 6 460.45 26.8
3 -3 -6 293.17 19.8
3 -3 -6 288.17 20.3
3 -3 -6 254.37 23
-3 3 6 319.27 87.59
-3 3 6 264.97 22.3
2 -3 -6 36.6 43.6
2 -3 -6 67.99 15.2
2 -3 -6 90.09 11.1
-2 3 6 50.29 37.9
1 -3 -6 974.6 57.09
1 -3 -6 1054.59 47.8
0 -3 -6 1464.95 62.79
0 -3 -6 1391.46 71.49
-1 -3 -6 20.9 28.7
-2 -3 -6 134.29 58.59
-3 -3 -6 763.92 117.79
3 3 6 683.63 43.5
-4 -3 -6 105.19 58.09
4 3 6 131.59 18
4 3 6 159.18 14.2
-5 -3 -6 20.7 46.1
-5 -3 -6 11.2 4.2
5 3 6 5.6 4
5 3 6 5.5 7.2
5 3 6 7 2.8
5 3 6 9.4 5.8
5 3 6 11.2 3.6
-6 -3 -6 24.3 6.5
6 3 6 20.7 5.8
6 3 6 22.9 3.4
6 3 6 22.5 4.2
-7 -3 -6 202.58 15.3
-8 -3 -6 186.28 12.8
6 -4 -6 33.5 6.2
6 -4 -6 26.3 3.5
-6 4 6 17.9 4.7
-6 4 6 17 4.4
5 -4 -6 153.88 10.9
5 -4 -6 147.69 13.6
-5 4 6 98.89 13.3
-5 4 6 136.89 12.2
-5 4 6 89.89 10.8
-5 4 6 129.59 11.5
4 -4 -6 267.57 20.8
4 -4 -6 277.37 16.8
4 -4 -6 289.17 20.4
-4 4 6 264.87 20.1
-4 4 6 264.77 18.2
-4 4 6 273.97 18.2
-4 4 6 285.17 91.59
3 -4 -6 142.39 12.9
3 -4 -6 139.29 16.1
-3 4 6 127.49 13.1
-3 4 6 165.28 66.99
-3 4 6 130.49 11.5
2 -4 -6 772.72 39.8
-2 4 6 767.52 38.1
1 -4 -6 455.95 25.2
1 -4 -6 440.06 34.1
-1 4 6 431.56 24.4
0 -4 -6 114.89 15.3
0 -4 -6 143.49 10.7
0 -4 -6 85.59 56.09
-1 -4 -6 494.75 31.5
-1 -4 -6 393.66 95.09
-2 -4 -6 1148.59 161.88
-3 -4 -6 40.4 38
-3 -4 -6 41.2 68.29
3 4 6 30.9 5.5
3 4 6 35.2 7
-4 -4 -6 140.99 69.69
4 4 6 147.39 12.3
4 4 6 178.78 15.3
-5 -4 -6 279.27 17.6
-5 -4 -6 239.68 96.99
-5 -4 -6 278.77 17.9
5 4 6 256.07 13
5 4 6 273.07 18.7
5 4 6 270.17 14.2
5 4 6 290.87 16.9
5 4 6 314.47 21.6
-6 -4 -6 292.57 20
-6 -4 -6 332.17 20.2
6 4 6 310.57 16.1
6 4 6 312.87 18.9
6 4 6 321.67 22.2
6 4 6 279.27 20.5
-7 -4 -6 0.8 4.6
-7 -4 -6 -1.7 3.8
7 4 6 0.5 2.8
-8 -4 -6 14.5 4.2
6 -5 -6 49.8 4.4
-6 5 6 43.9 5.5
-6 5 6 40.6 4.3
5 -5 -6 35.6 7
5 -5 -6 48.7 6.7
-5 5 6 52.79 6.6
-5 5 6 41.9 8.4
-5 5 6 42.2 6.9
4 -5 -6 93.39 12.1
4 -5 -6 112.49 14.3
-4 5 6 88.59 10.9
-4 5 6 112.49 11.6
-4 5 6 124.89 14.9
3 -5 -6 311.07 20.8
3 -5 -6 295.97 18.6
3 -5 -6 264.37 20.3
-3 5 6 269.57 17.3
-3 5 6 273.07 17.9
-3 5 6 302.27 18.6
-3 5 6 269.07 19.9
-3 5 6 277.37 15.4
2 -5 -6 237.58 18.2
2 -5 -6 254.87 18.2
-2 5 6 232.88 16.8
1 -5 -6 231.28 16.5
-1 5 6 232.88 15.6
0 -5 -6 980.4 42.9
0 -5 -6 870.11 52.19
0 -5 -6 703.63 138.09
0 5 6 909.51 41.2
-1 -5 -6 698.03 43.1
-1 -5 -6 653.03 130.09
1 5 6 736.63 34.1
-2 -5 -6 53.49 39.3
-2 -5 -6 27.4 37.5
2 5 6 58.79 8
-3 -5 -6 522.45 143.39
-3 -5 -6 696.73 113.39
3 5 6 724.83 34.9
3 5 6 723.93 36.6
-4 -5 -6 360.56 107.69
4 5 6 432.06 25.9
4 5 6 387.36 23.7
-5 -5 -6 105.19 67.99
5 5 6 101.59 9.9
5 5 6 77.99 8.9
5 5 6 74.29 10.5
5 5 6 94.29 7.2
5 5 6 84.29 12
-6 -5 -6 115.79 12.5
-6 -5 -6 121.89 12.2
6 5 6 115.89 8.6
6 5 6 110.09 9.4
6 5 6 112.99 14
6 5 6 119.19 10.7
6 5 6 96.29 12.7
-7 -5 -6 91.19 11.6
-7 -5 -6 140.79 13.6
7 5 6 66.69 10.8
7 5 6 109.09 11.3
7 5 6 108.69 8
7 5 6 92.29 12.6
-8 -5 -6 62.69 7.8
-8 -5 -6 78.49 8.4
8 5 6 61.59 5.4
5 -6 -6 355.46 20.6
5 -6 -6 324.17 18
-5 6 6 339.97 15.9
-5 6 6 327.47 19
4 -6 -6 46.6 8.8
4 -6 -6 68.29 9.8
-4 6 6 74.99 10.1
-4 6 6 76.19 11.8
-4 6 6 70.29 6.8
3 -6 -6 112.59 11.4
3 -6 -6 100.89 13.2
3 -6 -6 131.29 13.1
-3 6 6 119.99 9.3
-3 6 6 118.59 14
-3 6 6 130.89 9.6
-3 6 6 113.59 10.9
2 -6 -6 21.6 5.6
-2 6 6 29.2 5
-2 6 6 23.7 5.3
-2 6 6 22.4 3.6
-2 6 6 19.6 6.5
1 -6 -6 346.97 23
-1 6 6 399.56 22.7
0 -6 -6 149.59 12.7
0 6 6 151.38 12
1 6 6 121.69 10.5
2 6 6 643.34 35.3
2 6 6 752.62 35.8
-3 -6 -6 510.15 102.89
3 6 6 465.55 26.8
3 6 6 459.15 27.3
-4 -6 -6 12.2 39.7
4 6 6 15.5 6
4 6 6 15.5 5.8
4 6 6 19 5.4
5 6 6 541.15 31.8
5 6 6 475.85 26.6
5 6 6 499.55 30.3
5 6 6 514.55 28.2
5 6 6 506.65 24.9
-6 -6 -6 220.88 17.3
-6 -6 -6 234.68 16.7
6 6 6 226.78 18.6
6 6 6 212.38 15.8
6 6 6 213.98 13.7
6 6 6 214.28 18
6 6 6 215.28 12.8
6 6 6 222.58 15.5
-7 -6 -6 25.5 6.1
-7 -6 -6 19.7 6
7 6 6 10.6 5.3
7 6 6 25.8 4.4
7 6 6 22.2 7.1
7 6 6 12.4 4.4
7 6 6 16.2 3.9
7 6 6 23 5.2
-8 -6 -6 6.4 3.8
8 6 6 10 3.1
5 -7 -6 19.5 3.9
5 -7 -6 6.8 3.4
-5 7 6 8.5 3.2
4 -7 -6 27.1 5.8
-4 7 6 37.8 7.3
-4 7 6 50.29 7.3
3 -7 -6 137.29 11.7
3 -7 -6 136.09 13.2
3 -7 -6 138.09 16.1
-3 7 6 134.49 11.6
-3 7 6 119.79 12.6
-3 7 6 128.19 7.3
-3 7 6 115.79 9.1
2 -7 -6 577.74 34.6
2 -7 -6 615.74 32
2 -7 -6 626.04 33.9
-2 7 6 619.14 26.5
-2 7 6 581.84 28.8
-2 7 6 625.04 31.5
-2 7 6 609.54 33.7
-2 7 6 618.94 29
1 -7 -6 4.8 4.4
1 -7 -6 0.4 3.6
-1 7 6 3.5 4.2
-1 7 6 1.2 3
-1 7 6 6.2 3.1
-1 7 6 3.9 3.8
0 -7 -6 133.99 13
0 7 6 124.29 10.3
0 7 6 125.99 10.4
0 7 6 141.39 12.1
1 7 6 1262.77 58.09
1 7 6 1244.98 55.79
2 7 6 116.69 11.4
2 7 6 130.79 10.2
3 7 6 290.07 17.8
3 7 6 317.87 21.2
3 7 6 308.97 20.6
3 7 6 294.67 19.3
4 7 6 380.26 22.6
4 7 6 423.76 22.9
4 7 6 434.06 26.9
4 7 6 401.36 24.5
4 7 6 422.06 26.4
5 7 6 177.88 17
5 7 6 198.48 15.3
5 7 6 194.98 14.3
5 7 6 205.98 17.7
5 7 6 192.48 12.3
-6 -7 -6 7.2 5.1
6 7 6 9.2 5.5
6 7 6 14.9 4.1
6 7 6 12.7 6.1
6 7 6 10.5 4.7
6 7 6 14.2 4.1
6 7 6 7.4 4.2
-7 -7 -6 70.39 8.8
7 7 6 72.49 10.4
7 7 6 94.39 9.8
7 7 6 76.69 8.9
7 7 6 58.69 14.6
7 7 6 95.39 7.7
7 7 6 96.89 7.9
8 7 6 76.19 6.1
8 7 6 88.19 6.5
4 -8 -6 182.58 13.4
-4 8 6 204.08 12.7
3 -8 -6 154.58 13.9
3 -8 -6 174.68 12.9
-3 8 6 200.58 11.2
-3 8 6 167.88 12.6
-3 8 6 153.58 14.1
2 -8 -6 202.48 15.1
2 -8 -6 199.68 17.4
2 -8 -6 202.48 16.4
-2 8 6 211.98 14.5
-2 8 6 187.78 16
-2 8 6 212.38 11.1
-2 8 6 200.08 12.6
-2 8 6 203.88 12.6
1 -8 -6 324.67 22.9
1 -8 -6 305.77 21.2
-1 8 6 332.27 17.7
-1 8 6 313.17 17.6
-1 8 6 310.57 18.8
-1 8 6 320.87 21.1
-1 8 6 308.17 18.9
0 -8 -6 405.36 26.8
0 8 6 444.16 22.2
0 8 6 443.26 22.7
0 8 6 441.16 23.9
0 8 6 433.86 22.8
0 8 6 462.75 24.2
0 8 6 459.75 24.5
0 8 6 442.16 26
0 8 6 433.16 21.2
1 8 6 11.6 4.2
1 8 6 13.3 5.1
1 8 6 11.2 3.9
1 8 6 7.7 3.3
1 8 6 13.5 4.6
1 8 6 19.4 5.2
2 8 6 413.46 26
2 8 6 423.46 23.8
2 8 6 448.06 24.2
2 8 6 495.25 26.1
2 8 6 446.66 25.1
2 8 6 425.26 23.1
3 8 6 680.63 35.3
3 8 6 645.24 34.5
3 8 6 667.53 33.4
3 8 6 681.03 33.4
3 8 6 687.53 37.4
3 8 6 671.53 33.8
3 8 6 695.53 34.6
4 8 6 72.39 9.4
4 8 6 69.79 11.1
4 8 6 57.09 6.3
4 8 6 69.09 9.5
4 8 6 74.09 12.1
4 8 6 85.19 10.2
5 8 6 189.98 17.9
5 8 6 217.78 15.6
5 8 6 196.88 12.6
5 8 6 225.38 18.3
5 8 6 220.58 16.5
6 8 6 66.29 7.1
6 8 6 65.69 11.4
6 8 6 57.89 8.3
6 8 6 77.79 11.5
6 8 6 74.89 9.4
-7 -8 -6 104.99 9.7
7 8 6 100.39 7.8
7 8 6 109.49 8.1
7 8 6 88.59 11
7 8 6 113.59 9.9
7 8 6 108.59 10
8 8 6 -0.5 1.5
-4 9 6 2.1 2.6
3 -9 -6 244.88 16.7
3 -9 -6 253.57 15.3
-3 9 6 266.07 13.7
-3 9 6 267.77 15.3
2 -9 -6 480.95 25.9
2 -9 -6 471.85 27.4
-2 9 6 472.65 21.5
-2 9 6 488.15 23.2
-2 9 6 463.95 25
-2 9 6 487.35 23.4
-2 9 6 452.05 26.8
1 -9 -6 47.1 8.2
1 -9 -6 43.1 8.7
1 -9 -6 48.9 8.5
-1 9 6 62.99 7.1
-1 9 6 72.89 9.4
-1 9 6 67.19 8.5
-1 9 6 67.99 7.3
-1 9 6 74.49 10
-1 9 6 68.39 6.6
-1 9 6 51.19 7.1
-1 9 6 71.79 8.2
0 -9 -6 144.09 14.8
0 9 6 128.09 11.3
0 9 6 132.89 10
0 9 6 123.49 10.5
0 9 6 135.69 11.8
0 9 6 154.68 11
0 9 6 149.69 9.5
0 9 6 144.49 11.5
0 9 6 143.19 13.2
1 9 6 342.27 18.5
1 9 6 365.76 17.8
1 9 6 376.16 20.9
1 9 6 330.07 20.5
1 9 6 367.96 20.1
1 9 6 369.66 21.3
1 9 6 339.67 22.6
1 9 6 335.17 19
2 9 6 337.17 20.6
2 9 6 334.67 17.1
2 9 6 336.57 20.5
2 9 6 346.07 19.8
2 9 6 365.86 21
2 9 6 343.17 22.9
2 9 6 362.16 21.4
2 9 6 343.87 18.6
3 9 6 10.4 4.2
3 9 6 12.6 4.9
3 9 6 17.4 5.1
3 9 6 9.1 3.8
3 9 6 9.6 4.4
3 9 6 9.6 2.8
3 9 6 9.3 5.4
4 9 6 250.87 17.3
4 9 6 214.38 18.7
4 9 6 239.78 15.9
4 9 6 224.38 15.7
4 9 6 236.18 13.1
5 9 6 232.88 16.5
5 9 6 222.28 18.8
5 9 6 233.48 13.2
5 9 6 208.08 15.4
6 9 6 129.69 10.7
6 9 6 135.89 13.4
6 9 6 111.09 10.8
6 9 6 123.89 8.6
6 9 6 90.09 12.9
-7 -9 -6 38 5.2
7 9 6 36.4 4.5
7 9 6 30.1 5.1
7 9 6 26.5 4.9
7 9 6 28.7 4.1
-3 10 6 140.09 10.5
2 -10 -6 2.1 3.2
2 -10 -6 1.1 3
-2 10 6 4.1 1.7
-2 10 6 -0.2 2
-2 10 6 0.3 2.4
-2 10 6 0.9 2.2
1 -10 -6 173.38 13.6
-1 10 6 166.68 15.3
-1 10 6 171.88 10.3
-1 10 6 165.88 11.1
-1 10 6 172.88 11
-1 10 6 168.68 12.1
-1 10 6 163.28 12.3
-1 10 6 159.88 11.2
-1 10 6 164.28 11.8
-1 10 6 173.58 9.5
0 -10 -6 888.61 41.6
0 10 6 853.71 39.1
0 10 6 845.32 38.8
0 10 6 847.92 40.3
0 10 6 867.61 38.3
0 10 6 760.42 41.8
0 10 6 834.42 37.3
0 10 6 838.32 39.9
0 10 6 839.22 40.4
-1 -10 -6 105.79 11.2
1 10 6 121.39 10.9
1 10 6 126.29 10.6
1 10 6 140.39 9.8
1 10 6 134.49 13.2
1 10 6 119.19 11.1
1 10 6 153.38 12.2
1 10 6 139.29 8.9
1 10 6 147.59 10.6
2 10 6 294.47 17.1
2 10 6 312.47 15.9
2 10 6 300.27 21.4
2 10 6 330.57 19.4
2 10 6 310.07 18.4
2 10 6 308.07 19.2
2 10 6 304.17 18.8
3 10 6 497.05 26.7
3 10 6 494.45 27.1
3 10 6 513.45 23.5
3 10 6 459.85 29.4
3 10 6 492.05 26.5
3 10 6 527.95 26.6
4 10 6 210.98 11.9
4 10 6 216.88 18
4 10 6 222.98 14.9
4 10 6 204.18 15.1
4 10 6 206.58 14.5
5 10 6 4.8 2.4
5 10 6 3.3 3.6
5 10 6 1.3 4.9
5 10 6 -0.9 3.2
6 10 6 71.59 8.1
6 10 6 81.09 6.2
6 10 6 76.89 8.3
7 10 6 41 3.8
1 -11 -6 272.17 16.3
-1 11 6 290.27 15.2
-1 11 6 305.87 14.9
-1 11 6 293.57 16.1
-1 11 6 289.47 14.9
-1 11 6 291.57 14.7
-1 11 6 289.97 13.6
0 -11 -6 0.1 3.8
0 11 6 2.3 1.9
0 11 6 1.3 3
0 11 6 2.6 2.1
0 11 6 -0.9 2.8
0 11 6 -4.9 1.9
0 11 6 6.6 3
0 11 6 -0.1 2.5
0 11 6 4.2 3.2
-1 -11 -6 303.67 18.3
1 11 6 313.37 17.2
1 11 6 306.17 18.3
1 11 6 316.27 15.5
1 11 6 309.97 16.7
1 11 6 274.57 17.2
1 11 6 313.77 18.2
1 11 6 295.67 15.8
2 11 6 422.16 20.7
2 11 6 404.06 22.2
2 11 6 418.16 22.7
2 11 6 436.26 22.9
2 11 6 366.16 25.2
2 11 6 426.46 19.8
2 11 6 409.16 21.8
3 11 6 68.99 8.3
3 11 6 73.39 8.7
3 11 6 74.29 8.3
3 11 6 60.69 5.4
4 11 6 112.39 7.3
4 11 6 115.79 9.3
4 11 6 115.89 9.6
5 11 6 196.38 12.4
5 11 6 173.48 11.7
5 11 6 194.28 10.1
6 11 6 88.39 5.6
0 -12 -6 290.27 19
0 12 6 296.27 14.8
0 12 6 277.87 14.1
0 12 6 314.77 16.8
0 12 6 289.07 13.8
1 12 6 156.68 8.5
1 12 6 147.59 9.6
1 12 6 144.19 8
1 12 6 152.78 10.2
1 12 6 175.08 13.5
1 12 6 149.99 9
2 12 6 5.7 2.5
2 12 6 7.2 3.2
2 12 6 7.7 3.4
2 12 6 6.5 3.2
2 12 6 7 2.1
3 12 6 158.38 10.2
3 12 6 147.69 8.3
3 12 6 155.58 10.5
4 12 6 254.17 11.8
4 12 6 221.98 13.2
4 12 6 265.97 13.8
5 12 6 45.1 3.3
2 8 -7 3.6 1.7
1 8 -7 70.29 6.6
1 8 -7 64.09 5
1 8 -7 55.89 6.6
0 8 -7 74.79 8.9
0 8 -7 64.69 6.5
4 7 -7 6 2
3 7 -7 4.6 2
3 7 -7 3 4.8
2 7 -7 239.88 12.9
2 7 -7 242.98 17.8
2 7 -7 231.68 14.7
1 7 -7 114.49 9.8
1 7 -7 117.29 8.3
1 7 -7 118.19 9.7
1 7 -7 99.19 11.9
0 7 -7 14.2 5.5
0 7 -7 17.8 4.5
0 7 -7 17.4 4.6
0 7 -7 10.5 3.1
-1 7 -7 62.49 8.3
-1 7 -7 73.19 7.1
-1 7 -7 59.09 8.1
-1 7 -7 62.59 7
-2 7 -7 94.29 7.2
5 6 -7 27.8 4.1
4 6 -7 69.69 6.3
4 6 -7 66.59 9.6
3 6 -7 139.49 15.3
3 6 -7 123.19 8.6
2 6 -7 2.7 3.9
2 6 -7 8.3 2.6
1 6 -7 51.99 7.4
1 6 -7 58.79 8.9
1 6 -7 36.8 5.3
1 6 -7 64.99 10.8
0 6 -7 155.18 14.8
0 6 -7 175.78 13.2
0 6 -7 127.79 13.7
0 6 -7 167.08 11.3
0 6 -7 184.88 13.1
-1 6 -7 177.38 13.1
-1 6 -7 171.28 11.9
-1 6 -7 202.58 13.1
-1 6 -7 171.28 14.6
-1 6 -7 170.48 14
-1 6 -7 180.08 15.3
-2 6 -7 22.6 4.9
-2 6 -7 15.5 4.3
-2 6 -7 17.8 5.6
-2 6 -7 20 5.7
-2 6 -7 20.7 5.5
-3 6 -7 40.5 5.1
-3 6 -7 48.9 6.7
6 5 -7 29.2 4.2
5 5 -7 86.49 7.4
4 5 -7 98.19 15.1
4 5 -7 102.79 8.2
4 5 -7 86.19 11.6
-4 -5 7 94.89 11.6
3 5 -7 8.8 3.3
3 5 -7 12 5.8
3 5 -7 14.2 7.6
2 5 -7 160.18 10.5
2 5 -7 141.49 14.8
2 5 -7 139.29 12.4
2 5 -7 146.09 17.6
1 5 -7 47 36.6
1 5 -7 120.99 15.7
1 5 -7 112.99 11.6
1 5 -7 113.59 8.9
1 5 -7 135.29 15.5
1 5 -7 110.59 11.2
0 5 -7 82.29 10.7
0 5 -7 62.89 8.5
0 5 -7 86.19 12.6
0 5 -7 67.19 7.6
0 5 -7 71.49 9.4
0 5 -7 112.29 14.9
-1 5 -7 25 7.6
-1 5 -7 23.4 5.9
-1 5 -7 32.4 6
-1 5 -7 31.2 7.1
-1 5 -7 28.8 7.8
-1 5 -7 31.9 7.9
-1 5 -7 40.9 7.1
-2 5 -7 116.89 13
-2 5 -7 122.09 10.7
-2 5 -7 130.59 10.5
-2 5 -7 125.39 12.1
-2 5 -7 115.79 12.4
-2 5 -7 120.39 10.8
-3 5 -7 217.18 13.6
-3 5 -7 220.88 15.8
-3 5 -7 243.18 16.4
-4 5 -7 1.4 2.8
6 4 -7 191.48 11.4
6 4 -7 171.98 11.6
5 4 -7 30.6 5.2
5 4 -7 33.8 10
-5 -4 7 26.1 6.6
4 4 -7 97.39 8.6
4 4 -7 89.19 12.1
4 4 -7 110.89 16.1
-4 -4 7 98.69 11.8
3 4 -7 209.78 20.9
3 4 -7 249.97 20
3 4 -7 180.78 63.99
3 4 -7 226.68 18.2
3 4 -7 210.08 13.6
-3 -4 7 146.79 63.19
-3 -4 7 228.98 17.1
2 4 -7 48.7 7.5
2 4 -7 63.39 7.7
2 4 -7 51.29 9.2
2 4 -7 55.59 11.5
2 4 -7 53.09 37.8
-2 -4 7 47.7 39.5
1 4 -7 11.9 24.9
1 4 -7 5.1 3.1
1 4 -7 3.6 5.3
1 4 -7 7.3 5.2
1 4 -7 8.2 4.2
1 4 -7 7.1 4.9
0 4 -7 380.46 24.8
0 4 -7 393.66 26.2
0 4 -7 414.86 24.6
0 4 -7 410.56 23.5
0 4 -7 316.37 71.89
0 4 -7 385.76 20.9
0 4 -7 385.06 22.7
-1 4 -7 194.28 16.4
-1 4 -7 187.58 15.6
-1 4 -7 185.68 16.2
-1 4 -7 205.88 13.9
-1 4 -7 192.98 15.3
-1 4 -7 124.09 45.6
-1 4 -7 195.68 14.2
-1 4 -7 207.28 17.3
-2 4 -7 61.29 9.9
-2 4 -7 43.9 39.9
-2 4 -7 62.19 9.1
-2 4 -7 61.19 8.3
-2 4 -7 63.19 8.1
-2 4 -7 65.89 10.8
-3 4 -7 5.9 4.3
-3 4 -7 9.3 4.3
-3 4 -7 11.2 5.1
-4 4 -7 207.58 14.7
-4 4 -7 190.58 14.2
-5 4 -7 95.49 7.9
-5 4 -7 72.69 8.2
6 3 -7 0 4.3
6 3 -7 2.5 2.9
6 3 -7 5.5 3.6
-6 -3 7 -0.3 2.6
5 3 -7 45.3 10.6
5 3 -7 58.39 8
5 3 -7 52.89 9.3
5 3 -7 57.09 7.3
-5 -3 7 45.3 7.9
4 3 -7 577.34 27.7
4 3 -7 604.04 33
4 3 -7 564.44 35.4
4 3 -7 407.86 84.09
-4 -3 7 402.96 109.99
-4 -3 7 593.64 31.6
3 3 -7 48 34.6
3 3 -7 67.89 12.1
3 3 -7 61.69 9.7
3 3 -7 49.99 6.7
3 3 -7 50.19 11.4
-3 -3 7 13.5 31.1
-3 -3 7 72.39 10.2
2 3 -7 103.19 15.5
2 3 -7 117.99 14.7
2 3 -7 132.19 12.5
2 3 -7 99.39 12.3
2 3 -7 96.19 11.1
2 3 -7 94.69 43
-2 -3 7 116.79 11.8
-2 -3 7 70.29 43.8
1 3 -7 280.07 56.29
1 3 -7 336.37 22
1 3 -7 343.77 23.4
-1 -3 7 349.07 34.8
0 3 -7 101.69 12.1
0 3 -7 90.79 36.3
0 3 -7 132.09 15.3
0 3 -7 115.89 13.4
0 -3 7 106.39 23.6
-1 3 -7 11.6 23.7
-1 3 -7 2.6 4.9
-1 3 -7 0.2 3.9
-1 3 -7 4.3 5.2
-1 3 -7 0.4 4.5
-1 3 -7 1.9 3.7
-1 3 -7 -0.1 3.9
-2 3 -7 71.09 8.2
-2 3 -7 122.69 14.9
-2 3 -7 77.19 11.6
-2 3 -7 77.69 9.9
-2 3 -7 96.69 40.5
-3 3 -7 208.28 17
-3 3 -7 189.38 13.9
-3 3 -7 188.78 16.8
-4 3 -7 16.4 5.6
-4 3 -7 18.3 5.7
-4 3 -7 19.4 5.5
-5 3 -7 3.1 3.6
-5 3 -7 3.2 3.4
6 2 -7 51.19 6.6
6 2 -7 46.1 8.4
6 2 -7 54.19 10.3
6 2 -7 63.09 7.2
-6 -2 7 43.8 7.5
-6 -2 7 50.29 6.7
5 2 -7 76.09 13.1
5 2 -7 69.29 10.6
5 2 -7 107.59 12.7
5 2 -7 84.49 9.4
5 2 -7 83.19 8.5
-5 -2 7 92.59 9.1
-5 -2 7 97.49 11.7
4 2 -7 149.19 19.2
4 2 -7 135.19 13.7
4 2 -7 143.99 10.9
-4 -2 7 86.59 56.39
-4 -2 7 146.89 13.7
3 2 -7 19 6.8
3 2 -7 22.2 5.9
3 2 -7 25.4 29.3
3 2 -7 20.3 7.7
3 2 -7 24.8 5.4
-3 -2 7 30 36
-3 -2 7 25.1 6.6
2 2 -7 1097.29 57.99
2 2 -7 1204.08 54.79
2 2 -7 1007.1 105.69
2 2 -7 1214.88 56.09
-2 -2 7 1124.79 53.89
-2 -2 7 1216.88 70.09
-2 -2 7 1032.6 120.89
1 2 -7 259.17 49.4
1 2 -7 290.97 19.2
1 2 -7 241.78 17.5
1 2 -7 220.58 20.7
-1 -2 7 277.07 29
-1 -2 7 270.27 18.2
0 2 -7 274.67 24.7
0 2 -7 259.57 18.1
0 2 -7 228.28 45.8
0 -2 7 241.68 28.3
-1 2 -7 308.57 20.8
-1 2 -7 320.27 55.29
-1 2 -7 312.27 20.5
1 -2 7 296.07 34.5
-2 2 -7 430.86 26
-2 2 -7 417.16 26
-2 2 -7 428.46 20.5
2 -2 7 418.86 41.8
-3 2 -7 7.3 5.5
-3 2 -7 3.1 4.5
-3 2 -7 5.5 3.2
-4 2 -7 53.99 8.7
-4 2 -7 64.89 9.6
-4 2 -7 87.59 7.7
-4 2 -7 68.69 10.7
-5 2 -7 62.29 8.7
-5 2 -7 61.09 5.3
-5 2 -7 61.09 9.4
-6 2 -7 17.1 4.2
6 -2 7 19.7 4.5
6 1 -7 21.1 6.5
6 1 -7 25.4 5.2
6 1 -7 25 7.9
-6 -1 7 26.2 6.4
-6 -1 7 17.9 4.4
5 1 -7 0.9 3.7
5 1 -7 4.2 5.7
5 1 -7 4.5 5.5
5 1 -7 -0.8 4.3
5 1 -7 8.9 3.8
-5 -1 7 4.9 3.4
-5 -1 7 4.1 4.4
4 1 -7 741.13 35.9
4 1 -7 834.42 41.2
4 1 -7 697.33 36
4 1 -7 688.43 39.7
4 1 -7 803.52 44.5
-4 -1 7 794.52 40
-4 -1 7 759.52 37
3 1 -7 493.25 31.9
3 1 -7 544.85 30
3 1 -7 493.75 44
3 1 -7 512.25 28.5
3 1 -7 387.76 69.79
-3 -1 7 504.35 28.2
-3 -1 7 392.66 82.69
2 1 -7 68.69 32
2 1 -7 59.99 9.5
2 1 -7 44.8 9.5
2 1 -7 69.59 18
-2 -1 7 65.49 15.3
-2 -1 7 52.09 8.1
-2 -1 7 55.69 32.5
1 1 -7 480.85 61.19
1 1 -7 433.96 25.1
1 1 -7 387.56 27.9
-1 -1 7 477.25 36.6
-1 -1 7 423.56 24.7
0 1 -7 466.15 89.59
0 1 -7 655.13 32.5
0 1 -7 718.73 71.39
0 -1 7 652.53 45.5
0 -1 7 573.94 32.1
-1 1 -7 99.19 11.4
-1 1 -7 61.79 46.2
1 -1 7 90.49 20
-2 1 -7 88.99 11.5
-2 1 -7 85.49 58.39
2 -1 7 50.29 15.9
-3 1 -7 156.58 12.1
-3 1 -7 143.69 13.6
-3 1 -7 148.79 15.9
3 -1 7 112.99 24.9
-4 1 -7 157.88 13.7
-4 1 -7 163.58 14.9
-4 1 -7 171.08 13.4
-4 1 -7 155.98 14.5
-5 1 -7 -1.5 3.6
-5 1 -7 -0.9 4
-5 1 -7 -3.3 3.2
-6 1 -7 26.6 4.8
-6 1 -7 32.9 6.5
6 -1 7 30.2 5.6
-7 1 -7 33.4 6.8
6 0 -7 39.4 8.4
6 0 -7 55.99 6.9
-6 0 7 62.59 8
5 0 -7 375.66 27.1
5 0 -7 348.57 20.6
5 0 -7 407.56 25
5 0 -7 336.27 24.6
-5 0 7 372.06 22
-5 0 7 350.66 23
4 0 -7 36.3 6.8
4 0 -7 35.1 8.8
4 0 -7 21.3 6.5
4 0 -7 29.3 9.3
4 0 -7 26.5 7.9
-4 0 7 18.4 39.4
-4 0 7 21.8 5.2
-4 0 7 32.3 7.2
3 0 -7 30.7 9.1
3 0 -7 27.9 7.4
3 0 -7 25.9 6.1
3 0 -7 31.3 7.7
-3 0 7 29.1 5.3
-3 0 7 36.4 7.1
-3 0 7 24.3 30.1
2 0 -7 788.92 85.99
2 0 -7 874.81 56.99
2 0 -7 865.91 41.9
2 0 -7 777.92 44.3
-2 0 7 824.92 50.39
-2 0 7 819.02 40.7
-2 0 7 794.52 99.89
1 0 -7 367.76 21.4
1 0 -7 236.18 78.29
1 0 -7 331.97 24.2
1 0 -7 394.36 39.3
1 0 -7 401.66 52.99
-1 0 7 364.26 29.4
-1 0 7 431.46 66.69
-1 0 7 338.57 21
0 0 -7 6.6 27.2
0 0 -7 13.5 7.3
0 0 -7 20.6 5
0 0 7 13.6 4.9
0 0 7 19.6 9
-1 0 -7 290.87 24.5
-1 0 -7 291.17 17.3
-1 0 -7 148.99 65.39
1 0 7 278.87 18.4
1 0 7 291.47 28.6
-2 0 -7 243.38 86.09
2 0 7 435.16 36.7
-3 0 -7 7 41.3
-3 0 -7 29 6.7
3 0 7 36.5 15.2
-4 0 -7 40.1 7
-4 0 -7 39 7.3
-4 0 -7 37.4 8.1
-4 0 -7 35.2 7.5
-5 0 -7 65.99 9.5
-5 0 -7 74.79 9.8
-5 0 -7 103.79 11.7
5 0 7 113.19 12.2
-6 0 -7 151.08 13.2
-6 0 -7 154.58 12.8
6 0 7 177.98 12.5
-7 0 -7 2 2.7
-7 0 -7 -0.7 3.2
7 0 7 2 1.8
-6 1 7 135.09 11.3
5 -1 -7 4.7 4.6
5 -1 -7 16.5 6.4
5 -1 -7 10.8 6.6
-5 1 7 7.1 4
4 -1 -7 263.07 20.3
4 -1 -7 240.28 21.7
4 -1 -7 262.47 19.3
4 -1 -7 244.78 13.3
4 -1 -7 246.48 20.3
4 -1 -7 265.17 16.9
-4 1 7 248.68 18.2
-4 1 7 188.28 75.69
-4 1 7 248.18 17.1
3 -1 -7 559.94 31.8
3 -1 -7 519.65 30.1
3 -1 -7 536.05 25.9
3 -1 -7 536.25 31.3
3 -1 -7 522.65 33.8
-3 1 7 542.85 28.3
-3 1 7 557.74 30.1
2 -1 -7 144.99 43.6
2 -1 -7 158.78 16.2
2 -1 -7 147.19 13.1
-2 1 7 153.98 12.8
-2 1 7 144.09 52.19
1 -1 -7 22.5 20.8
1 -1 -7 19.5 6.7
1 -1 -7 21 8.7
1 -1 -7 28.5 5.9
1 -1 -7 12.6 25.2
-1 1 7 18.7 5
0 -1 -7 640.24 31
0 -1 -7 610.64 39.2
0 -1 -7 491.15 91.29
0 1 7 659.33 40.6
-1 -1 -7 862.31 48.9
-1 -1 -7 898.81 40.9
1 1 7 870.21 53.29
-2 -1 -7 -6.4 29.5
2 1 7 0.4 5.3
2 1 7 1.2 3.4
-3 -1 -7 202.78 88.59
3 1 7 215.98 26.1
3 1 7 233.68 17.5
-4 -1 -7 424.86 25.2
-4 -1 -7 401.36 120.39
-4 -1 -7 486.95 26.8
-4 -1 -7 422.16 24.2
4 1 7 382.96 38.1
4 1 7 463.05 23.8
-5 -1 -7 29.5 7.4
-5 -1 -7 32.6 6.7
5 1 7 34.1 7
-6 -1 -7 18.5 6.2
-6 -1 -7 17.2 5.8
6 1 7 14.8 4.6
-7 -1 -7 38.6 6.6
-7 -1 -7 30.9 6.2
6 -2 -7 25.2 6.2
-6 2 7 14.5 4.2
5 -2 -7 179.38 15.6
-5 2 7 134.59 12.5
4 -2 -7 175.78 13.6
4 -2 -7 201.78 16.8
4 -2 -7 181.48 12.3
4 -2 -7 198.08 17.8
4 -2 -7 185.18 12.8
4 -2 -7 157.38 18
-4 2 7 182.28 14.4
-4 2 7 185.78 75.19
3 -2 -7 4 3.4
3 -2 -7 3.7 4.9
3 -2 -7 2.8 4.4
3 -2 -7 4.7 6.3
3 -2 -7 2.6 3.3
-3 2 7 1.5 3.6
-3 2 7 6.3 3.4
-3 2 7 0.5 27.7
2 -2 -7 587.64 35.1
2 -2 -7 614.54 32.6
-2 2 7 581.14 31
-2 2 7 556.44 93.19
1 -2 -7 831.42 53.19
1 -2 -7 969.8 43.9
1 -2 -7 850.51 46.2
1 -2 -7 988.2 118.99
-1 2 7 889.11 43
0 -2 -7 10.1 28.3
0 -2 -7 13.1 6.8
0 -2 -7 10 3.7
-1 -2 -7 5.5 3
-1 -2 -7 14.7 31.4
-1 -2 -7 7.8 5.2
-2 -2 -7 331.37 101.09
2 2 7 300.67 19.2
2 2 7 253.67 24.7
-3 -2 -7 445.06 100.49
3 2 7 581.94 30.7
3 2 7 485.05 38.5
-4 -2 -7 8.1 4.8
-4 -2 -7 -0.8 37.4
4 2 7 0.9 7.3
4 2 7 8.3 5.3
4 2 7 11.1 6.6
-5 -2 -7 98.69 12.2
-5 -2 -7 114.39 12.2
5 2 7 117.99 11
5 2 7 119.09 10.5
-6 -2 -7 183.58 14.7
6 2 7 185.28 12
-7 -2 -7 29.5 6.1
6 -3 -7 100.39 10.6
-6 3 7 71.99 7.9
5 -3 -7 4.2 4.4
5 -3 -7 0.7 2.6
5 -3 -7 1.8 3.1
-5 3 7 4 3.3
4 -3 -7 9.8 4.1
4 -3 -7 8.5 4.8
4 -3 -7 4.3 5.8
-4 3 7 21.5 42.5
-4 3 7 5 3.5
3 -3 -7 460.75 27.4
3 -3 -7 457.75 24.2
3 -3 -7 466.05 28.8
-3 3 7 366.16 113.89
-3 3 7 445.86 25.3
2 -3 -7 552.94 31.3
1 -3 -7 16.4 27.3
1 -3 -7 10.1 4.6
1 -3 -7 10.1 7.4
-1 3 7 4.7 3.6
0 -3 -7 157.88 59.99
0 -3 -7 100.99 16.2
0 -3 -7 107.29 9.6
-1 -3 -7 547.45 92.49
-1 -3 -7 467.95 33
-1 -3 -7 499.65 25.5
-2 -3 -7 22 33
2 3 7 18.6 5.5
-3 -3 -7 1.4 29.9
3 3 7 8.4 4.9
-4 -3 -7 241.08 16.4
-4 -3 -7 294.37 107.69
4 3 7 159.18 28.7
4 3 7 255.67 19
-5 -3 -7 404.36 23.5
-5 -3 -7 415.66 25
5 3 7 409.86 21.5
5 3 7 435.66 26.8
5 3 7 400.06 22.7
5 3 7 407.06 19.5
-6 -3 -7 -1.1 3.7
6 3 7 1.4 3.7
6 3 7 0.6 2
-7 -3 -7 36.6 7.1
-8 -3 -7 143.29 10.4
6 -4 -7 1.4 3.4
-6 4 7 1.8 2.2
-6 4 7 -1.6 2
5 -4 -7 12.8 5.2
5 -4 -7 7.7 3.5
-5 4 7 7 3.8
-5 4 7 9.5 4.2
-5 4 7 6 4.5
4 -4 -7 438.96 25.8
4 -4 -7 371.36 21.6
4 -4 -7 363.76 25.5
-4 4 7 377.66 22.4
-4 4 7 408.76 23.6
3 -4 -7 242.38 19
3 -4 -7 253.77 17.2
3 -4 -7 248.98 18.3
3 -4 -7 211.98 15.2
-3 4 7 246.48 16.7
2 -4 -7 191.48 15.7
2 -4 -7 172.58 14
-2 4 7 176.38 13.1
1 -4 -7 661.33 34.6
0 -4 -7 923.21 55.49
0 -4 -7 978.1 45.4
-1 -4 -7 19.1 29.1
-1 -4 -7 15.6 7.1
-2 -4 -7 380.06 99.79
2 4 7 312.27 20.2
-3 -4 -7 626.14 112.69
3 4 7 603.74 33.5
-4 -4 -7 105.69 62.89
-4 -4 -7 138.29 14.3
4 4 7 156.38 11.9
4 4 7 143.99 14.5
-5 -4 -7 10.5 5.4
-5 -4 -7 24.4 5.6
5 4 7 25.3 5.5
5 4 7 26.4 4.3
5 4 7 27.8 8.1
5 4 7 25.9 3.8
-6 -4 -7 207.98 15.9
6 4 7 217.78 18.1
6 4 7 196.68 11.8
6 4 7 199.78 14.7
-7 -4 -7 101.29 10.9
-8 -4 -7 51.19 6.8
-6 5 7 131.89 9.9
5 -5 -7 139.79 12.4
5 -5 -7 143.89 10.6
-5 5 7 153.08 11.6
-5 5 7 203.58 11.6
4 -5 -7 43.5 8.1
4 -5 -7 43.9 9.1
4 -5 -7 36.4 6.8
-4 5 7 32.9 6.3
-4 5 7 49.4 7.6
-4 5 7 36.7 6.6
3 -5 -7 140.59 16.2
3 -5 -7 123.59 12.5
3 -5 -7 111.69 12.1
-3 5 7 148.79 11.8
-3 5 7 131.99 15.1
-3 5 7 107.49 10.5
-3 5 7 122.69 9.3
-3 5 7 134.49 11.8
2 -5 -7 514.85 28.8
2 -5 -7 536.35 30.5
-2 5 7 516.45 32.2
-2 5 7 515.35 27.6
-2 5 7 492.15 25.7
1 -5 -7 503.35 28.6
0 -5 -7 48.3 7.8
-1 -5 -7 600.24 129.29
1 5 7 781.82 36.5
-2 -5 -7 456.45 88.99
2 5 7 411.36 24.7
-3 -5 -7 42.9 47.2
3 5 7 61.39 9.5
-4 -5 -7 245.58 18.1
-4 -5 -7 366.96 118.39
4 5 7 248.78 17.8
4 5 7 266.47 17.2
4 5 7 267.67 19.8
4 5 7 234.08 15.1
-5 -5 -7 243.98 18.6
5 5 7 251.07 16.4
5 5 7 262.77 14.1
5 5 7 270.77 17.1
5 5 7 289.37 21.3
5 5 7 268.17 19
-6 -5 -7 105.49 12
6 5 7 87.79 13.6
6 5 7 87.99 10.3
6 5 7 98.79 7.9
-7 -5 -7 29.3 6.8
7 5 7 19.1 5.4
7 5 7 30.4 7.3
7 5 7 22 4
-8 -5 -7 53.09 6.8
5 -6 -7 12.9 4.3
5 -6 -7 15.2 3.8
-5 6 7 11.3 3.8
-5 6 7 9.6 2.3
4 -6 -7 306.17 20.1
4 -6 -7 299.97 18.2
-4 6 7 323.77 18.9
-4 6 7 300.17 20.3
-4 6 7 320.07 16.7
3 -6 -7 303.77 20.6
3 -6 -7 281.17 21.1
3 -6 -7 302.87 18.9
-3 6 7 304.27 18.7
-3 6 7 297.37 16.8
-3 6 7 320.97 19.5
-3 6 7 301.67 20.7
-3 6 7 298.87 16.3
2 -6 -7 7.6 4.3
2 -6 -7 12.3 5.3
2 -6 -7 6.9 4.3
-2 6 7 16.8 5
-2 6 7 8.3 3.9
-2 6 7 12.1 5.2
-2 6 7 12.7 3.8
-2 6 7 12.8 3.9
-2 6 7 15.4 2.8
1 -6 -7 114.79 10.8
1 -6 -7 121.39 12.1
-1 6 7 104.69 10.1
-1 6 7 117.39 11.2
-1 6 7 112.99 8.6
0 -6 -7 1435.66 67.69
0 6 7 1525.95 66.89
0 6 7 1510.95 64.99
1 6 7 327.47 19.8
-2 -6 -7 0.3 4.5
2 6 7 3.7 2.9
2 6 7 4.9 4.1
2 6 7 9.9 4.6
-3 -6 -7 494.55 108.39
-3 -6 -7 426.96 26.9
3 6 7 447.16 26.2
3 6 7 493.65 25.9
3 6 7 422.56 26.6
3 6 7 428.46 23.8
-4 -6 -7 577.74 32.2
-4 -6 -7 650.13 128.29
-4 -6 -7 593.44 32.6
4 6 7 558.04 29.1
4 6 7 608.94 33.4
4 6 7 531.15 25.7
4 6 7 519.35 28.9
4 6 7 564.14 30.5
4 6 7 567.74 28.7
4 6 7 584.34 32.2
-5 -6 -7 55.09 9.5
5 6 7 44.9 7.2
5 6 7 72.19 7.8
5 6 7 53.69 8.1
5 6 7 67.89 9.3
5 6 7 72.89 7.2
5 6 7 74.99 11.9
5 6 7 53.09 9.3
-6 -6 -7 78.69 11.1
-6 -6 -7 107.69 12.5
6 6 7 82.39 7.4
6 6 7 92.69 8.4
6 6 7 106.99 11.3
6 6 7 49.99 9.2
6 6 7 97.29 12.9
6 6 7 88.99 10.4
-7 -6 -7 104.19 11.4
7 6 7 92.89 10.4
7 6 7 97.89 12.4
7 6 7 92.59 7.4
-8 -6 -7 16.7 4.5
-5 7 7 79.99 6.4
4 -7 -7 180.18 13.8
-4 7 7 189.78 12.8
3 -7 -7 7.5 4.2
3 -7 -7 7.1 5.5
3 -7 -7 6.1 4.5
-3 7 7 8.7 3.2
-3 7 7 11.4 4.3
-3 7 7 8.8 2.4
-3 7 7 5.9 4.5
2 -7 -7 852.81 46.3
2 -7 -7 910.81 43.6
2 -7 -7 887.51 45.1
-2 7 7 913.41 42.9
-2 7 7 890.81 40.4
-2 7 7 930.51 43.4
-2 7 7 900.71 38.3
-2 7 7 833.72 40
-2 7 7 914.11 38.6
-2 7 7 979.2 45.9
1 -7 -7 1264.27 61.99
1 -7 -7 1342.27 59.69
1 -7 -7 1315.87 60.59
-1 7 7 1296.07 56.29
-1 7 7 1320.97 54.09
-1 7 7 1281.47 56.39
-1 7 7 1312.17 54.49
-1 7 7 1258.97 58.89
-1 7 7 1336.27 58.69
-1 7 7 1286.57 60.69
0 -7 -7 55.39 9
0 7 7 71.49 8.3
0 7 7 46.1 7
0 7 7 73.49 10.4
0 7 7 53.69 8.2
0 7 7 54.49 5
1 7 7 411.66 23.4
1 7 7 441.66 22.9
1 7 7 411.96 24.4
2 7 7 893.91 42.1
2 7 7 904.61 43.4
2 7 7 902.11 44.7
-3 -7 -7 138.69 15.2
3 7 7 114.09 12.2
3 7 7 122.59 10.7
3 7 7 126.99 12.9
3 7 7 115.49 10.4
3 7 7 139.69 11.9
3 7 7 123.69 10.8
-4 -7 -7 41.3 9.3
4 7 7 28.2 7.1
4 7 7 34.3 5.1
4 7 7 27.8 6.9
4 7 7 46.7 7.6
4 7 7 37.6 7.2
4 7 7 38 7
4 7 7 33.2 6.7
-5 -7 -7 70.39 11.2
5 7 7 68.79 9.2
5 7 7 54.99 8.6
5 7 7 50.89 5.8
5 7 7 41.9 8.8
5 7 7 57.09 6.8
5 7 7 55.19 8.8
5 7 7 40.2 8.5
-6 -7 -7 348.67 21.6
-6 -7 -7 369.56 23.1
6 7 7 368.56 21.6
6 7 7 319.97 20.2
6 7 7 358.66 24
6 7 7 295.57 22.3
6 7 7 339.37 18.6
6 7 7 334.27 17.5
-7 -7 -7 35.9 6.8
7 7 7 39.4 5.1
7 7 7 36.2 4.9
7 7 7 44.6 6.3
7 7 7 38.7 7.8
7 7 7 32.8 5.9
4 -8 -7 122.69 10.1
-4 8 7 130.89 9.3
3 -8 -7 344.47 19.3
3 -8 -7 341.57 21.1
-3 8 7 323.57 17
-3 8 7 336.37 19.1
2 -8 -7 147.09 13.3
2 -8 -7 148.09 12.5
2 -8 -7 135.09 14
-2 8 7 156.38 12
-2 8 7 160.08 8.6
-2 8 7 147.69 10.1
-2 8 7 149.29 10.3
-2 8 7 128.49 12.7
1 -8 -7 163.88 15
1 -8 -7 153.98 13.5
-1 8 7 157.68 12.5
-1 8 7 157.28 11.2
-1 8 7 170.28 9.5
-1 8 7 167.68 14.3
0 -8 -7 684.03 37.3
0 -8 -7 668.63 34.7
0 8 7 697.03 34.1
0 8 7 698.43 32.5
0 8 7 656.73 34.4
0 8 7 653.73 35.7
0 8 7 689.13 31.8
0 8 7 690.73 34
0 8 7 705.73 33.8
0 8 7 696.63 30.3
-1 -8 -7 663.23 32.2
1 8 7 663.53 32.8
1 8 7 601.64 31.5
1 8 7 671.23 34.4
1 8 7 620.74 30.4
1 8 7 639.64 29.9
1 8 7 598.34 27.8
1 8 7 641.44 31.8
1 8 7 611.04 31.4
1 8 7 594.44 29
1 8 7 620.84 28.8
2 8 7 68.09 7.4
2 8 7 83.99 11.4
2 8 7 69.59 6.2
2 8 7 57.29 7.7
2 8 7 71.69 8.5
2 8 7 71.69 9.3
2 8 7 80.79 9.7
2 8 7 74.29 9.5
-3 -8 -7 272.77 21.3
3 8 7 318.57 19.9
3 8 7 302.47 18.5
3 8 7 308.47 18.4
3 8 7 290.77 20.9
3 8 7 296.67 15.9
3 8 7 288.07 18.5
3 8 7 299.37 18.7
-4 -8 -7 331.87 22.6
4 8 7 279.97 21.1
4 8 7 332.67 20.6
4 8 7 289.37 18.4
4 8 7 305.87 22
4 8 7 300.37 18.8
4 8 7 306.67 16.7
4 8 7 289.37 18.7
-5 -8 -7 151.68 14.5
5 8 7 157.68 12.4
5 8 7 156.18 15.1
5 8 7 143.99 10.5
5 8 7 147.79 12.8
5 8 7 159.78 12.8
5 8 7 139.49 15.1
6 8 7 -2.9 4.1
6 8 7 1.5 2.6
6 8 7 3.9 2.8
6 8 7 3.3 3.8
6 8 7 3.9 4.2
6 8 7 1.7 3.9
-7 -8 -7 23.6 5.3
7 8 7 22.3 4
7 8 7 18.6 3.7
7 8 7 17.8 4.7
7 8 7 17 4.1
3 -9 -7 17.2 4.6
3 -9 -7 8.4 3.6
-3 9 7 22.1 4.6
2 -9 -7 160.68 12.2
2 -9 -7 143.19 12.6
-2 9 7 150.68 8.1
-2 9 7 145.39 9.6
-2 9 7 154.18 10
-2 9 7 144.69 11.2
-2 9 7 130.09 16.1
1 -9 -7 451.25 29.5
1 -9 -7 522.05 28.2
-1 9 7 518.95 26.9
-1 9 7 507.95 26.5
-1 9 7 491.65 28.6
-1 9 7 530.85 25.4
-1 9 7 511.25 25
-1 9 7 539.45 23.4
0 -9 -7 152.68 13.1
0 -9 -7 143.79 14.2
0 9 7 143.49 9.9
0 9 7 160.18 10.6
0 9 7 138.09 11.9
0 9 7 134.39 11.6
0 9 7 158.08 11
0 9 7 137.79 10.9
0 9 7 147.99 11.6
0 9 7 140.39 13.3
0 9 7 155.98 9.1
-1 -9 -7 3.1 4.5
1 9 7 2.7 3.5
1 9 7 1.8 3.5
1 9 7 6 2.9
1 9 7 7.9 4.4
1 9 7 1.8 3
1 9 7 5.8 3.9
1 9 7 3.8 3.7
1 9 7 1 2.2
1 9 7 3.7 2.6
1 9 7 13.6 4.8
2 9 7 600.24 30.8
2 9 7 601.14 27.7
2 9 7 580.84 30.8
2 9 7 628.34 31.8
2 9 7 617.94 30
2 9 7 606.74 33.5
2 9 7 568.94 28.3
2 9 7 567.04 30.3
3 9 7 431.96 23.9
3 9 7 421.66 23.3
3 9 7 412.16 20.5
3 9 7 387.26 25.9
3 9 7 425.36 24.5
3 9 7 417.56 23.3
-4 -9 -7 72.09 11.2
4 9 7 121.19 12.2
4 9 7 99.89 8
4 9 7 90.69 9.8
4 9 7 111.59 14
4 9 7 113.89 11.8
4 9 7 120.69 10.9
-5 -9 -7 133.19 13.1
5 9 7 106.79 14.2
5 9 7 123.69 12.4
5 9 7 124.29 9
5 9 7 110.19 10.4
5 9 7 110.79 11
5 9 7 141.29 13.8
6 9 7 234.68 17.1
6 9 7 221.38 15
6 9 7 213.68 11.9
6 9 7 205.68 14.2
6 9 7 204.88 12.3
-7 -9 -7 65.19 7.2
7 9 7 53.09 5.4
7 9 7 56.09 5.1
7 9 7 51.09 6.3
7 9 7 65.39 7.1
2 -10 -7 258.07 15.2
2 -10 -7 248.98 15.8
-2 10 7 244.78 14.7
-2 10 7 268.77 12.1
-2 10 7 267.27 13.6
-2 10 7 279.77 13.5
1 -10 -7 43.4 6.9
-1 10 7 46.6 5.7
-1 10 7 38.3 4.1
-1 10 7 37.6 6.2
-1 10 7 46.4 5.9
-1 10 7 37.9 8.4
0 -10 -7 165.68 14.1
0 10 7 202.38 13.7
0 10 7 200.58 12.3
0 10 7 160.58 14.3
0 10 7 212.08 11.6
0 10 7 184.18 10.4
0 10 7 188.58 13.2
0 10 7 193.78 12.5
0 10 7 172.98 12.8
0 10 7 200.48 12
-1 -10 -7 896.31 43.6
1 10 7 959.1 41.7
1 10 7 930.41 39.5
1 10 7 924.71 43.3
1 10 7 926.71 42.3
1 10 7 976.5 43.8
1 10 7 880.01 40.5
1 10 7 842.02 45.1
1 10 7 893.41 43.1
1 10 7 939.91 40.5
2 10 7 80.09 6.8
2 10 7 90.09 8.6
2 10 7 108.39 10.9
2 10 7 99.69 10.7
2 10 7 55.69 8
2 10 7 84.19 9.9
2 10 7 101.69 11.3
3 10 7 -2 4
3 10 7 7.5 4.4
3 10 7 9.9 3
3 10 7 6.8 4
3 10 7 10.6 4.3
3 10 7 11.3 4.2
-4 -10 -7 166.08 15.1
4 10 7 171.38 12.8
4 10 7 153.28 12.4
4 10 7 177.78 13.2
4 10 7 186.38 13
4 10 7 172.18 10.5
4 10 7 172.68 15.3
-5 -10 -7 194.98 15.2
5 10 7 186.38 14.1
5 10 7 227.88 12.2
5 10 7 238.58 14.6
6 10 7 10.6 2.7
6 10 7 7 3.5
6 10 7 10.8 3.8
7 10 7 13.8 2.4
1 -11 -7 159.38 10.6
-1 11 7 167.48 9.5
-1 11 7 156.88 10.4
-1 11 7 152.18 9.1
-1 11 7 165.98 8.1
0 -11 -7 338.97 18.3
0 11 7 292.27 17
0 11 7 318.07 15.5
0 11 7 305.67 15.7
0 11 7 286.67 16.2
0 11 7 321.37 17.5
0 11 7 306.67 14.6
0 11 7 312.07 17.2
0 11 7 311.97 16.1
-1 -11 -7 45.5 6.5
1 11 7 41.9 5.3
1 11 7 42.5 6.6
1 11 7 36.7 5.7
1 11 7 50.79 7
1 11 7 34.3 4.1
1 11 7 40.7 6.6
1 11 7 35 4.5
1 11 7 35.1 5
2 11 7 93.99 9.4
2 11 7 78.49 7.4
2 11 7 81.39 9.1
2 11 7 79.99 6.5
2 11 7 73.89 8.8
2 11 7 74.59 8.4
-3 -11 -7 358.16 22.5
3 11 7 343.77 19.5
3 11 7 344.87 19.6
3 11 7 368.36 20.2
3 11 7 367.66 17.5
4 11 7 140.19 8.5
4 11 7 130.09 10
4 11 7 127.89 10.2
4 11 7 146.59 10.6
5 11 7 2.8 1.7
5 11 7 1.8 2.9
5 11 7 5.3 2.7
6 11 7 84.79 5.4
0 12 7 2.5 1.9
1 12 7 236.38 12.7
1 12 7 275.77 12.5
1 12 7 224.08 11.6
1 12 7 219.58 13
1 12 7 219.18 11
-2 -12 -7 307.87 21.8
2 12 7 300.67 15.9
2 12 7 311.57 14.4
2 12 7 294.07 14.7
2 12 7 299.07 18.7
2 12 7 310.97 16.4
2 12 7 274.57 13.7
3 12 7 82.79 7.2
3 12 7 87.29 7.2
3 12 7 94.59 5.9
4 12 7 29.1 4.4
4 12 7 32.9 3.5
4 12 7 33.6 5.3
5 12 7 174.98 8.7
3 7 -8 61.59 4.6
2 7 -8 8.4 3.3
2 7 -8 9.4 2.4
1 7 -8 119.09 9
1 7 -8 125.49 9.1
1 7 -8 139.79 8.2
0 7 -8 46.4 5.5
0 7 -8 48.9 4.9
0 7 -8 42.7 4.9
-1 7 -8 3.6 3.3
4 6 -8 3.1 1.7
3 6 -8 64.99 9.3
3 6 -8 59.79 5.5
2 6 -8 88.49 6.9
2 6 -8 76.89 8.3
2 6 -8 82.39 10.7
1 6 -8 104.19 12.3
1 6 -8 105.69 10.2
1 6 -8 91.99 9.1
1 6 -8 101.29 8
0 6 -8 4.5 3.4
0 6 -8 0.4 2.7
0 6 -8 3.2 4.6
0 6 -8 6 3.5
-1 6 -8 116.59 10.8
-1 6 -8 113.99 8.8
-1 6 -8 115.19 11
-1 6 -8 120.59 9.2
-1 6 -8 126.79 9.6
-2 6 -8 77.49 6.1
-2 6 -8 79.19 6.7
-2 6 -8 65.19 7.7
5 5 -8 8.4 2.7
4 5 -8 165.78 10.3
4 5 -8 148.19 13.6
3 5 -8 76.49 10.9
3 5 -8 76.79 7
2 5 -8 59.19 10.3
2 5 -8 50.19 7.6
2 5 -8 70.59 7.5
1 5 -8 44.8 8.6
1 5 -8 50.89 7.8
1 5 -8 48.7 7.5
1 5 -8 42.2 5.9
0 5 -8 163.08 11.6
0 5 -8 142.89 14.4
0 5 -8 169.98 13.2
0 5 -8 167.28 12.8
-1 5 -8 154.78 11.8
-1 5 -8 148.69 14.1
-1 5 -8 145.59 14.6
-1 5 -8 163.58 11.6
-1 5 -8 167.78 12.7
-2 5 -8 3.2 3.5
-2 5 -8 1 4.4
-2 5 -8 1.7 2.9
-2 5 -8 7 3.4
-3 5 -8 128.29 8.7
-3 5 -8 116.89 9.8
-3 5 -8 123.39 10
5 4 -8 157.18 10.2
5 4 -8 151.58 11
4 4 -8 7 3.1
4 4 -8 1.9 4.6
4 4 -8 3.4 6.8
-4 -4 8 10 4.6
3 4 -8 13.9 5
3 4 -8 12.8 8.5
3 4 -8 15.6 4.4
3 4 -8 18 9.9
3 4 -8 21.6 6.9
-3 -4 8 6 4.9
2 4 -8 261.37 19.9
2 4 -8 287.47 16
2 4 -8 240.38 20.9
2 4 -8 261.47 17.2
1 4 -8 110.39 13.6
1 4 -8 130.99 16.1
1 4 -8 146.69 10.8
1 4 -8 154.18 14.7
1 4 -8 140.49 13.4
0 4 -8 84.69 11.8
0 4 -8 89.19 10.5
0 4 -8 82.29 12.8
0 4 -8 100.99 11.3
0 4 -8 75.29 8.5
0 4 -8 60.89 8.5
0 4 -8 72.39 10.7
-1 4 -8 63.99 8
-1 4 -8 48.2 7.9
-1 4 -8 47.1 6.9
-1 4 -8 52.49 9.5
-1 4 -8 51.19 9.3
-1 4 -8 53.29 9.4
-2 4 -8 150.78 12.3
-2 4 -8 145.09 13.2
-2 4 -8 141.59 11.4
-2 4 -8 144.09 15
-3 4 -8 36.4 6.7
-3 4 -8 37.3 6.9
-3 4 -8 47.3 6.4
-4 4 -8 0.1 3.1
-4 4 -8 1.1 3.3
6 3 -8 27.8 4.1
6 3 -8 31.9 5
5 3 -8 -0.9 6.4
5 3 -8 3.8 4.7
5 3 -8 1.2 2.5
5 3 -8 4.8 3.5
-5 -3 8 3.2 3.8
4 3 -8 18.9 8.3
4 3 -8 15.5 5.6
4 3 -8 11.4 4.8
4 3 -8 9.7 3.6
-4 -3 8 9.2 4.8
3 3 -8 408.46 27.8
3 3 -8 443.76 27.1
3 3 -8 413.96 23.1
3 3 -8 378.26 29.4
3 3 -8 423.86 22.2
-3 -3 8 408.26 25.3
2 3 -8 91.79 9.7
2 3 -8 68.49 42.4
2 3 -8 61.49 8.1
2 3 -8 68.29 10.9
2 3 -8 78.69 12.3
2 3 -8 66.59 13.4
-2 -3 8 57.99 9.4
-2 -3 8 61.09 44
1 3 -8 62.39 10
1 3 -8 51.19 8
1 3 -8 63.79 10.8
1 3 -8 67.89 8.2
1 3 -8 75.89 9.5
1 3 -8 61.69 35.1
0 3 -8 200.68 14.4
0 3 -8 197.58 15.3
0 3 -8 190.08 16.2
0 3 -8 174.38 14.6
0 3 -8 201.18 17.5
0 3 -8 177.38 15.7
0 3 -8 198.28 13.4
0 3 -8 145.19 46
-1 3 -8 194.78 15.2
-1 3 -8 188.58 16.9
-1 3 -8 182.28 16.3
-1 3 -8 206.18 17
-1 3 -8 190.78 14.1
-1 3 -8 238.38 59.09
-2 3 -8 34.3 5.9
-2 3 -8 43.3 7.8
-2 3 -8 23.7 6.7
-2 3 -8 39.9 8.9
-3 3 -8 28.7 7.4
-3 3 -8 29.8 5.9
-3 3 -8 21.7 6.2
-4 3 -8 141.19 12.2
-4 3 -8 145.79 12.5
-5 3 -8 11.3 3.7
6 2 -8 -2.4 2.7
-6 -2 8 1.4 2.7
5 2 -8 97.69 13.8
5 2 -8 85.89 9.3
5 2 -8 122.89 12.7
5 2 -8 96.69 8.8
-5 -2 8 113.99 12
4 2 -8 38.6 7.3
4 2 -8 28.8 5.5
4 2 -8 39.2 10.7
4 2 -8 44 8.5
-4 -2 8 38.5 8
3 2 -8 45.4 8.1
3 2 -8 29.5 7
3 2 -8 64.89 11.7
3 2 -8 29 31.7
3 2 -8 41.8 6.9
3 2 -8 53.19 7.2
3 2 -8 56.29 12.3
-3 -2 8 16 32.1
-3 -2 8 59.19 9.7
2 2 -8 242.58 16.1
2 2 -8 227.88 17.8
2 2 -8 243.98 15.1
2 2 -8 265.97 20.1
2 2 -8 205.48 20.8
2 2 -8 239.28 61.69
-2 -2 8 236.78 17.9
-2 -2 8 201.38 62.79
1 2 -8 918.91 44.3
1 2 -8 827.02 39.5
1 2 -8 647.34 42.5
1 2 -8 778.32 91.29
1 2 -8 873.81 42.5
-1 -2 8 825.42 42.4
0 2 -8 172.28 15.1
0 2 -8 204.28 15.2
0 2 -8 187.48 13.6
0 2 -8 195.58 17
0 2 -8 195.48 16.4
0 2 -8 204.48 50.79
-1 2 -8 64.19 8
-1 2 -8 74.29 9.8
-1 2 -8 76.29 10.1
-1 2 -8 80.29 11.3
-1 2 -8 76.69 11.6
-2 2 -8 247.18 16.9
-2 2 -8 266.87 19.5
-2 2 -8 225.38 18.3
-3 2 -8 241.68 18.5
-3 2 -8 220.28 15.6
-3 2 -8 236.38 18.5
-4 2 -8 2.5 4.6
-4 2 -8 5.7 4.9
-5 2 -8 3.1 3.5
-5 2 -8 11.5 4.5
6 1 -8 127.19 9.2
-6 -1 8 105.09 9
5 1 -8 47.2 11.2
5 1 -8 44.1 8.9
5 1 -8 35.6 6.3
-5 -1 8 41.4 8.5
-5 -1 8 39.2 6.5
4 1 -8 54.79 9.3
4 1 -8 59.29 9.4
4 1 -8 54.29 7.7
4 1 -8 48.9 7.1
4 1 -8 58.49 11.8
4 1 -8 60.19 11.8
-4 -1 8 50.09 7.1
-4 -1 8 64.79 9.8
3 1 -8 627.94 31.6
3 1 -8 646.34 32.2
3 1 -8 446.86 79.79
3 1 -8 622.34 38.9
3 1 -8 669.43 36.6
3 1 -8 623.74 31
3 1 -8 673.73 35.4
-3 -1 8 687.33 35.2
-3 -1 8 470.45 94.99
2 1 -8 60.29 10.6
2 1 -8 59.59 36.2
2 1 -8 50.79 8.9
2 1 -8 52.99 7.9
2 1 -8 52.39 10.7
2 1 -8 60.49 8.2
-2 -1 8 54.99 8.6
-2 -1 8 45.9 36.3
-2 -1 8 51.39 15.6
1 1 -8 4.7 4.3
1 1 -8 7 4.3
1 1 -8 17.7 23.4
1 1 -8 17.4 7.2
-1 -1 8 16.6 24.8
-1 -1 8 4.5 4.3
-1 -1 8 11.6 9.5
0 1 -8 68.29 9.8
0 1 -8 46.2 45.2
0 1 -8 66.29 9.3
0 -1 8 51.59 15.8
0 -1 8 76.89 10.4
-1 1 -8 661.63 34.3
-1 1 -8 638.64 33.8
-1 1 -8 643.04 28.6
-1 1 -8 576.84 36.6
-1 1 -8 476.45 127.19
1 -1 8 602.44 50.29
-2 1 -8 163.48 15.1
-2 1 -8 166.48 11.3
-2 1 -8 164.78 14.9
-3 1 -8 -1.6 3.7
-3 1 -8 4 5.3
-3 1 -8 1.9 3.1
-4 1 -8 207.28 16.5
-4 1 -8 209.78 17
-4 1 -8 201.38 13.5
-5 1 -8 216.28 15.2
-5 1 -8 216.38 12.9
-5 1 -8 225.08 16.4
-6 1 -8 11.9 3.8
-6 1 -8 7 3.5
6 -1 8 5.1 3.2
6 0 -8 1.8 2.8
-6 0 8 1.8 3
5 0 -8 49.7 9.4
5 0 -8 41.4 6.8
5 0 -8 49.99 11.8
-5 0 8 56.09 9.3
-5 0 8 52.49 7.9
4 0 -8 327.67 23.4
4 0 -8 302.67 25.4
4 0 -8 292.87 22.5
4 0 -8 347.37 22.9
4 0 -8 346.07 19.9
-4 0 8 322.37 19.9
-4 0 8 330.87 22.2
-4 0 8 180.58 72.19
3 0 -8 5.8 4.7
3 0 -8 15.7 7.9
3 0 -8 13.7 5.2
3 0 -8 11.5 5
3 0 -8 2.8 4.8
-3 0 8 12 5.5
-3 0 8 0.4 2.9
-3 0 8 -4.1 32.7
2 0 -8 19.6 8.5
2 0 -8 23.8 7
2 0 -8 27.7 27.7
2 0 -8 12.7 4.4
2 0 -8 21.3 6.1
-2 0 8 24.9 6.7
-2 0 8 34.4 35.2
1 0 -8 401.56 23.7
1 0 -8 441.46 73.79
1 0 -8 350.96 26.6
1 0 -8 390.76 22.9
-1 0 8 367.86 23.3
-1 0 8 369.76 32.7
0 0 -8 140.79 64.79
0 0 -8 270.87 17.9
0 0 8 284.37 29
0 0 8 282.57 18.9
-1 0 -8 63.89 9.9
-1 0 -8 11.7 34
-1 0 -8 56.19 9.1
1 0 8 67.59 10.5
-2 0 -8 5.6 38.9
-2 0 -8 16.9 4.9
-2 0 -8 26 6.9
2 0 8 26.7 13.1
-3 0 -8 368.66 130.89
-3 0 -8 622.84 33.1
-3 0 -8 598.14 30.3
-3 0 -8 624.44 33.5
-4 0 -8 166.08 15
-4 0 -8 174.08 15.3
-4 0 -8 182.08 13.9
-5 0 -8 4.3 3.8
-5 0 -8 0.4 4.2
-5 0 -8 2.5 4.4
5 0 8 0.5 4.1
-6 0 -8 117.09 10.5
-6 0 -8 128.59 10.9
-6 0 -8 121.09 9.8
6 0 8 132.49 10.1
6 -1 -8 93.79 10.2
-6 1 8 71.79 8.1
5 -1 -8 253.57 15.9
5 -1 -8 292.07 20.3
-5 1 8 247.28 17.3
4 -1 -8 13.4 5.2
4 -1 -8 4.7 4.9
4 -1 -8 6.2 6.3
4 -1 -8 3.2 6.8
-4 1 8 -13.1 35.5
-4 1 8 5 4.9
-4 1 8 6.2 3.9
3 -1 -8 52.69 10.2
3 -1 -8 66.89 8.7
3 -1 -8 65.19 6.7
3 -1 -8 62.49 9.1
3 -1 -8 49.7 8.8
3 -1 -8 44.9 10.7
-3 1 8 49.5 8.5
-3 1 8 55.49 7.9
-3 1 8 50.49 45.9
2 -1 -8 411.66 21.2
2 -1 -8 436.26 25
2 -1 -8 399.86 29.4
2 -1 -8 429.86 26.2
-2 1 8 422.96 25.4
-2 1 8 409.46 23
1 -1 -8 252.67 17.5
1 -1 -8 237.68 21.2
-1 1 8 256.37 18
0 -1 -8 83.39 10
0 -1 -8 51.69 43.8
0 1 8 66.89 9.3
-1 -1 -8 526.25 27.3
1 1 8 507.55 28.8
1 1 8 465.35 38.8
-2 -1 -8 610.74 31
-2 -1 -8 347.67 104.99
2 1 8 610.84 32.3
2 1 8 523.05 42.5
-3 -1 -8 28.1 6.8
-3 -1 -8 35 6.8
-3 -1 -8 34.4 7.4
-3 -1 -8 22.3 47.9
3 1 8 24.5 7.9
3 1 8 13.2 9.7
-4 -1 -8 122.89 12.3
-4 -1 -8 120.59 12.1
-4 -1 -8 139.89 15.2
-4 -1 -8 94.49 11.6
-5 -1 -8 229.08 17.1
-5 -1 -8 226.68 18
-5 -1 -8 247.68 16.8
5 1 8 250.07 17
-6 -1 -8 53.39 8.4
-6 -1 -8 28.4 6.3
-6 -1 -8 29.1 6.5
6 1 8 45.2 6.3
-7 -1 -8 4.5 3.3
-7 -1 -8 -1 3
6 -2 -8 13.2 4.7
-6 2 8 8.5 3.4
5 -2 -8 3.7 4.5
-5 2 8 1.1 3.3
4 -2 -8 202.18 18.4
4 -2 -8 209.48 12.4
4 -2 -8 231.28 18.1
4 -2 -8 203.68 14.5
-4 2 8 213.38 77.69
-4 2 8 197.98 15.5
3 -2 -8 453.55 23.2
3 -2 -8 445.96 27
3 -2 -8 443.26 28.7
3 -2 -8 447.76 24.1
3 -2 -8 429.96 25.1
3 -2 -8 413.96 30.5
-3 2 8 440.36 25.4
-3 2 8 441.36 26.7
2 -2 -8 106.59 13
2 -2 -8 68.29 9.3
2 -2 -8 99.69 8.8
2 -2 -8 63.99 11.9
-2 2 8 63.19 9.4
-2 2 8 97.79 10.4
1 -2 -8 398.26 24.2
1 -2 -8 398.96 86.19
-1 2 8 409.26 24.4
0 -2 -8 433.36 24.5
0 -2 -8 407.86 87.99
0 2 8 451.75 25.8
-1 -2 -8 185.28 13.5
-1 -2 -8 120.09 57.19
1 2 8 202.28 15.2
-2 -2 -8 22.5 32.6
-2 -2 -8 49.4 13.8
2 2 8 49.1 8.7
-3 -2 -8 232.98 17.1
-3 -2 -8 182.88 79.39
3 2 8 209.88 26.1
3 2 8 263.57 19.2
-4 -2 -8 381.86 24
-4 -2 -8 369.06 24.1
-4 -2 -8 398.26 22.4
4 2 8 399.66 25.8
4 2 8 391.36 23.1
4 2 8 403.76 21.7
-5 -2 -8 44.5 9.3
-5 -2 -8 25.8 6.2
5 2 8 36.4 7.2
-6 -2 -8 7.4 4.9
-6 -2 -8 14.5 5.8
6 2 8 10.9 3.4
-7 -2 -8 84.99 9.5
-7 -2 -8 75.29 9
-6 3 8 7.4 3.1
-6 3 8 6.3 3.2
5 -3 -8 214.88 16.7
-5 3 8 239.98 16
4 -3 -8 237.48 20
4 -3 -8 223.88 14.4
4 -3 -8 231.18 18.2
-4 3 8 248.68 17.1
3 -3 -8 6.7 4.1
3 -3 -8 2.7 5.4
3 -3 -8 1.9 3.8
3 -3 -8 3.9 4.6
3 -3 -8 12.6 4.9
-3 3 8 11.4 4.2
2 -3 -8 440.76 23.3
2 -3 -8 439.16 23.6
2 -3 -8 430.06 26.6
2 -3 -8 439.76 25.4
-2 3 8 408.36 25.2
-2 3 8 398.56 23.7
1 -3 -8 556.34 31
1 -3 -8 610.24 105.89
-1 3 8 547.35 30.4
0 -3 -8 165.88 66.49
0 -3 -8 147.69 12.2
0 3 8 142.99 12.9
-1 -3 -8 238.78 83.79
-1 -3 -8 209.28 24.4
1 3 8 212.88 15.9
-2 -3 -8 1118.39 148.89
2 3 8 1066.19 52.39
-3 -3 -8 326.17 21.2
-3 -3 -8 338.07 108.39
3 3 8 329.97 22.6
-4 -3 -8 4.9 5.1
-4 -3 -8 8.3 4.9
-4 -3 -8 4.3 4.1
-4 -3 -8 6.7 61.19
4 3 8 8.6 5.6
4 3 8 5.1 4.6
4 3 8 5.9 2.5
4 3 8 8.4 3.9
-5 -3 -8 145.39 14.3
-5 -3 -8 144.89 12.6
5 3 8 158.68 14.8
5 3 8 145.89 11.1
-6 -3 -8 157.18 14.1
-6 -3 -8 162.18 13.6
6 3 8 146.39 8.4
-7 -3 -8 6.5 4.2
5 -4 -8 42.5 7.5
5 -4 -8 48 4.8
-5 4 8 36.3 5.9
-5 4 8 56.99 7
4 -4 -8 93.09 10
4 -4 -8 108.69 12.8
4 -4 -8 87.29 12.5
-4 4 8 68.49 8.8
-4 4 8 44.5 9
3 -4 -8 656.63 34.2
3 -4 -8 619.44 32.9
3 -4 -8 689.93 36.3
3 -4 -8 707.33 38.4
-3 4 8 647.44 34.3
2 -4 -8 413.76 26.5
2 -4 -8 435.46 25.2
2 -4 -8 422.36 24.8
-2 4 8 394.26 23.7
1 -4 -8 6.1 4.3
-1 4 8 8.2 3.4
-1 4 8 11.3 4.7
0 -4 -8 578.34 30.4
0 4 8 534.35 30
-1 -4 -8 1162.78 136.89
1 4 8 918.21 47.5
-2 -4 -8 158.08 72.39
-2 -4 -8 175.68 20.6
2 4 8 144.89 13.1
2 4 8 170.18 14.5
-3 -4 -8 176.38 69.79
-3 -4 -8 285.87 19.1
3 4 8 314.87 20.9
-4 -4 -8 442.86 177.08
-4 -4 -8 364.76 23.7
-4 -4 -8 357.46 21.2
-4 -4 -8 380.86 23.9
4 4 8 373.66 18
4 4 8 371.56 19.8
4 4 8 391.36 25.6
4 4 8 361.66 20.8
4 4 8 369.46 20.6
-5 -4 -8 148.59 12.5
-5 -4 -8 103.29 13
5 4 8 147.69 9.2
5 4 8 147.39 14.7
5 4 8 149.49 12
5 4 8 136.79 8.8
-6 -4 -8 5.4 5.1
-6 -4 -8 6.9 4.8
6 4 8 6.4 4.2
6 4 8 5.5 3.6
6 4 8 5.3 5.5
-7 -4 -8 22.8 6.3
5 -5 -8 193.88 10.5
5 -5 -8 190.98 13.4
-5 5 8 186.38 11.3
-5 5 8 190.58 12.6
-5 5 8 178.18 11.5
4 -5 -8 92.79 9.2
4 -5 -8 68.99 9.5
-4 5 8 72.29 8.7
-4 5 8 99.99 8.9
-4 5 8 90.09 8.7
3 -5 -8 13.8 5
3 -5 -8 15.9 5.2
3 -5 -8 17.2 6.8
3 -5 -8 14 5
-3 5 8 8.7 4.1
-3 5 8 14.4 5.2
2 -5 -8 3.4 3.7
2 -5 -8 4.7 4.2
2 -5 -8 5.2 4.5
-2 5 8 9.2 4.6
-2 5 8 4.7 3.1
-2 5 8 11.5 3.7
1 -5 -8 534.25 30.4
1 -5 -8 535.95 28.6
-1 5 8 510.85 26.4
-1 5 8 549.25 28.4
0 -5 -8 547.05 30.2
0 -5 -8 548.35 30.2
0 5 8 568.54 27.7
0 5 8 540.15 28.5
-1 -5 -8 9 5.1
1 5 8 9.6 4.7
1 5 8 14.7 4.2
-2 -5 -8 718.73 38
-2 -5 -8 867.01 124.49
2 5 8 720.53 38.1
2 5 8 718.83 35.1
-3 -5 -8 453.85 103.59
-3 -5 -8 459.35 26.5
3 5 8 431.56 21.4
3 5 8 432.46 23
3 5 8 410.26 24
3 5 8 438.36 26.9
-4 -5 -8 225.08 17.5
-4 -5 -8 223.68 17.7
4 5 8 200.98 11.4
4 5 8 217.68 14.6
4 5 8 215.98 14.7
4 5 8 227.98 12.1
4 5 8 230.08 18.2
-5 -5 -8 144.39 12.1
-5 -5 -8 122.59 15
5 5 8 127.09 8.8
5 5 8 117.49 10.9
5 5 8 127.99 15.4
5 5 8 119.19 11
-6 -5 -8 118.69 12.7
6 5 8 150.38 14.9
6 5 8 141.59 9.2
6 5 8 145.19 12.2
-7 -5 -8 49.99 7.8
5 -6 -8 92.09 6.3
5 -6 -8 96.29 8.5
-5 6 8 98.29 7.1
4 -6 -8 2.3 3.5
-4 6 8 -0.1 2.8
-4 6 8 2.8 2.5
-4 6 8 0.9 3.2
3 -6 -8 374.66 24.9
3 -6 -8 404.96 22.4
3 -6 -8 383.56 23.7
-3 6 8 399.56 20.4
-3 6 8 361.36 21.4
-3 6 8 394.06 22.8
2 -6 -8 281.77 19.3
2 -6 -8 256.67 20
2 -6 -8 286.27 18.4
-2 6 8 273.57 17
-2 6 8 302.07 16.6
-2 6 8 282.47 18.5
-2 6 8 296.07 15.9
1 -6 -8 33 6.4
1 -6 -8 20.4 5.5
1 -6 -8 26.3 6.6
-1 6 8 24.9 5.6
-1 6 8 24.5 5.3
-1 6 8 18 5.1
-1 6 8 23.4 4.3
-1 6 8 20.7 3.1
-1 6 8 20.9 4.5
0 -6 -8 10.7 5.4
0 -6 -8 6.3 4.5
0 6 8 12.4 4.2
0 6 8 7.2 2.2
0 6 8 9.2 3.1
0 6 8 16.8 4.4
-1 -6 -8 635.54 33.8
1 6 8 646.64 31
1 6 8 611.34 31.8
1 6 8 625.24 28.6
-2 -6 -8 366.46 22.6
2 6 8 320.07 21.6
2 6 8 336.07 20.2
2 6 8 337.37 19.4
2 6 8 331.37 16.3
-3 -6 -8 0.6 4.9
-3 -6 -8 2.3 39.5
3 6 8 6.9 2.7
3 6 8 2.1 3.7
3 6 8 16 4.7
3 6 8 4.5 3.4
3 6 8 3 4.2
3 6 8 3.4 4.4
-4 -6 -8 382.66 24.7
-4 -6 -8 362.26 24.7
4 6 8 362.56 21.1
4 6 8 394.96 25.2
4 6 8 392.56 18.8
4 6 8 371.46 22.8
4 6 8 376.96 22
4 6 8 379.26 21.6
-5 -6 -8 373.46 23.8
5 6 8 351.36 23.9
5 6 8 333.17 20.4
5 6 8 335.87 17.4
5 6 8 324.57 20
5 6 8 347.97 20.9
-6 -6 -8 43.9 7.6
6 6 8 23.3 6.8
6 6 8 33.7 4.6
6 6 8 30.4 6.2
-7 -6 -8 22.3 5.8
7 6 8 16.3 4.8
4 -7 -8 188.38 13.3
4 -7 -8 183.48 12.2
-4 7 8 183.58 11.8
3 -7 -8 362.46 22.1
3 -7 -8 356.06 20.5
-3 7 8 371.86 16.6
-3 7 8 326.77 19.8
-3 7 8 384.66 21
2 -7 -8 48.9 7.5
2 -7 -8 23.7 5.7
2 -7 -8 25.6 7.1
-2 7 8 24.1 5.9
-2 7 8 39 4.7
-2 7 8 30.1 4.9
-2 7 8 50.39 7.3
-2 7 8 43.1 5.8
-2 7 8 49.99 7.9
1 -7 -8 693.93 37.7
1 -7 -8 716.83 35.2
-1 7 8 657.93 35.6
-1 7 8 684.83 30.5
-1 7 8 717.63 35.4
-1 7 8 713.03 32.3
-1 7 8 697.33 32.3
-1 7 8 673.13 34
-1 7 8 704.83 30.3
0 -7 -8 86.49 10.1
0 -7 -8 74.59 10.8
0 7 8 74.59 5.7
0 7 8 62.89 8.3
0 7 8 63.59 7.9
0 7 8 68.39 7
0 7 8 83.19 9.2
0 7 8 73.19 7.4
0 7 8 73.29 9.6
0 7 8 74.69 5.3
-1 -7 -8 4.2 3.8
-1 -7 -8 2.5 4.7
1 7 8 7.4 3.5
1 7 8 7.6 4.2
1 7 8 8.8 4.7
1 7 8 9 3.7
1 7 8 5.4 3.9
1 7 8 7.4 3.8
1 7 8 8.7 2.3
-2 -7 -8 11.9 5.6
2 7 8 13.2 4
2 7 8 23.6 5.6
2 7 8 14.9 4.7
2 7 8 24.3 5.7
2 7 8 15.7 5.8
2 7 8 13.4 4.6
2 7 8 20.9 3.6
-3 -7 -8 399.16 25.7
3 7 8 399.66 22.5
3 7 8 423.06 23.1
3 7 8 383.56 24.9
3 7 8 407.96 25.1
3 7 8 423.26 24.1
3 7 8 380.86 21.8
3 7 8 398.36 19.3
3 7 8 396.56 20.6
-4 -7 -8 273.87 20.4
-4 -7 -8 266.97 20.3
4 7 8 222.38 18.5
4 7 8 283.67 17.4
4 7 8 254.97 13.9
4 7 8 257.27 16.6
4 7 8 263.07 19.5
4 7 8 266.37 17.3
4 7 8 261.17 15.4
4 7 8 249.38 17.9
-5 -7 -8 -3.9 4.8
5 7 8 1.1 3.6
5 7 8 8.6 5.3
5 7 8 -0.5 3.7
5 7 8 1.9 4.1
5 7 8 0 3
5 7 8 4.5 5.2
5 7 8 0.5 2.6
-6 -7 -8 76.09 9.9
-6 -7 -8 49.5 11.7
6 7 8 33.6 7.4
6 7 8 65.99 8.4
6 7 8 54.19 9
6 7 8 68.59 6.9
6 7 8 58.39 8.3
-7 -7 -8 226.08 14.8
7 7 8 212.18 11.4
7 7 8 189.08 13.4
-4 8 8 66.49 5.9
3 -8 -8 92.29 9.9
3 -8 -8 104.89 9.1
-3 8 8 104.29 8.7
2 -8 -8 254.57 17.7
2 -8 -8 268.37 16.9
-2 8 8 285.37 16.7
-2 8 8 244.98 17.6
-2 8 8 246.08 14.2
-2 8 8 281.37 14.9
1 -8 -8 138.49 13.4
1 -8 -8 106.49 13.7
-1 8 8 135.39 11.5
-1 8 8 125.09 7.6
-1 8 8 128.79 9.5
-1 8 8 115.29 11.7
-1 8 8 128.99 9.3
-1 8 8 129.09 11
0 -8 -8 53.49 9.1
0 -8 -8 54.19 7.9
0 8 8 49.3 7.9
0 8 8 53.19 7.7
0 8 8 61.39 5.2
0 8 8 54.29 6.3
0 8 8 56.39 7.8
0 8 8 60.19 7.6
0 8 8 75.49 7.9
-1 -8 -8 280.07 17.9
1 8 8 303.97 16.5
1 8 8 317.17 19.1
1 8 8 307.07 18.3
1 8 8 275.87 15.8
1 8 8 292.37 15.9
1 8 8 286.37 19.5
1 8 8 290.97 18
1 8 8 304.57 18.3
1 8 8 285.87 14.6
-2 -8 -8 179.68 16.5
2 8 8 188.68 14.3
2 8 8 187.18 13.7
2 8 8 169.48 11.5
2 8 8 163.38 12.7
2 8 8 212.88 10.7
2 8 8 191.08 13.9
2 8 8 173.48 15.1
2 8 8 188.78 11.6
2 8 8 177.18 13.4
-3 -8 -8 236.98 18.8
3 8 8 230.38 17.6
3 8 8 227.08 14.9
3 8 8 224.58 15.3
3 8 8 198.88 14.9
3 8 8 224.18 16.2
3 8 8 215.88 11.9
3 8 8 207.38 13
-4 -8 -8 60.59 10
-4 -8 -8 55.89 10.1
4 8 8 64.49 10
4 8 8 70.19 9.3
4 8 8 73.09 9.7
4 8 8 63.19 6.9
4 8 8 62.09 8.6
4 8 8 57.29 10.3
4 8 8 67.49 8.8
4 8 8 83.19 6.4
-5 -8 -8 354.86 23.2
5 8 8 348.17 18.5
5 8 8 320.07 22.8
5 8 8 308.87 22.6
5 8 8 355.36 20.6
5 8 8 330.67 20.3
5 8 8 355.46 21.2
5 8 8 366.56 17.6
-6 -8 -8 127.09 12.6
6 8 8 89.59 11.6
6 8 8 114.49 10.2
6 8 8 104.59 10.2
6 8 8 112.69 8
6 8 8 109.09 8.5
-7 -8 -8 2.1 3.6
7 8 8 4 2.2
7 8 8 2.1 2.7
7 8 8 -1.3 1.9
7 8 8 2.9 3.2
3 -9 -8 190.38 12.4
3 -9 -8 279.87 20.1
-3 9 8 234.38 13
2 -9 -8 64.29 8.1
2 -9 -8 64.79 7.6
-2 9 8 70.89 7.8
-2 9 8 74.19 6.2
-2 9 8 84.29 6.7
1 -9 -8 18.4 4.9
-1 9 8 14.4 5.2
-1 9 8 15.1 2.7
-1 9 8 13.5 4.4
-1 9 8 14.1 3.7
-1 9 8 12.2 3.3
0 -9 -8 676.33 34.6
0 -9 -8 607.74 37.9
0 9 8 699.23 32
0 9 8 717.93 30.4
0 9 8 670.63 34.5
0 9 8 668.73 33.7
0 9 8 712.83 36.5
0 9 8 711.33 32.6
0 9 8 726.13 34.4
0 9 8 684.23 33.6
-1 -9 -8 175.98 13.5
1 9 8 161.38 12.7
1 9 8 157.88 10.7
1 9 8 181.78 11.7
1 9 8 170.18 13
1 9 8 161.58 9.6
1 9 8 173.88 13.3
1 9 8 169.18 12
1 9 8 173.28 11
1 9 8 162.88 14.5
1 9 8 171.48 13
-2 -9 -8 17.7 7.2
2 9 8 20.9 5.3
2 9 8 18 4.9
2 9 8 15 4.9
2 9 8 19.7 5.2
2 9 8 18.8 3.2
2 9 8 17.5 5.4
2 9 8 19.8 4.5
2 9 8 13.6 5.6
2 9 8 22 4.2
-3 -9 -8 324.67 22.5
3 9 8 319.97 15.8
3 9 8 294.87 19.6
3 9 8 309.47 18.8
3 9 8 329.77 19.5
3 9 8 327.57 17.1
3 9 8 323.67 22
3 9 8 304.47 19
-4 -9 -8 233.08 18.4
4 9 8 226.58 18.4
4 9 8 248.98 16.3
4 9 8 248.78 13.3
4 9 8 272.97 17.4
4 9 8 255.17 14.4
4 9 8 244.58 16.2
4 9 8 237.98 15.9
-5 -9 -8 117.39 12.6
5 9 8 111.09 11.1
5 9 8 102.49 7.9
5 9 8 91.09 7.2
5 9 8 64.69 10
5 9 8 99.99 10.4
5 9 8 98.29 11.7
5 9 8 104.59 10
-6 -9 -8 39.6 6.5
6 9 8 32.3 4.6
6 9 8 24.7 4.9
6 9 8 32.9 5.7
6 9 8 27.1 3.9
-7 -9 -8 140.29 9.7
7 9 8 133.49 7.5
7 9 8 134.29 9.3
7 9 8 129.09 7.9
2 -10 -8 113.39 8.9
-2 10 8 121.59 8.6
-2 10 8 127.49 7.3
-2 10 8 124.09 7.7
1 -10 -8 558.64 27.4
-1 10 8 540.35 23.3
-1 10 8 547.35 26.6
-1 10 8 531.15 24.8
-1 10 8 502.55 24.8
0 -10 -8 85.19 9.3
0 10 8 112.89 7
0 10 8 131.59 17
0 10 8 121.39 9.7
0 10 8 112.89 8.7
0 10 8 102.89 8.2
0 10 8 112.79 9.6
0 10 8 110.89 9.6
-1 -10 -8 72.89 8.8
1 10 8 61.29 7.7
1 10 8 75.19 7.2
1 10 8 57.39 7.7
1 10 8 40.7 6.7
1 10 8 60.19 7.5
1 10 8 47 7
1 10 8 66.89 5.4
1 10 8 66.99 7.1
1 10 8 69.99 6.8
1 10 8 60.39 9.5
-2 -10 -8 539.65 30.4
2 10 8 540.85 24.6
2 10 8 510.85 24.7
2 10 8 520.55 27.2
2 10 8 486.15 23.2
2 10 8 502.75 26.7
2 10 8 486.55 26.8
2 10 8 526.05 26.4
2 10 8 553.54 27.2
2 10 8 470.85 28.8
-3 -10 -8 72.29 10.4
3 10 8 100.39 12.4
3 10 8 104.89 9.9
3 10 8 71.39 8.7
3 10 8 109.49 10.6
3 10 8 103.89 9.6
3 10 8 100.19 6.8
3 10 8 103.49 7.7
-4 -10 -8 2.9 4.9
4 10 8 -0.8 2.9
4 10 8 -3.8 3.1
4 10 8 -1.3 2
4 10 8 3.9 4.1
4 10 8 2.8 2.4
4 10 8 0.9 3.2
4 10 8 2.6 3.2
-5 -10 -8 83.49 9.8
5 10 8 87.49 8.5
5 10 8 85.89 6.8
5 10 8 84.79 8.9
5 10 8 81.59 6.3
5 10 8 77.79 8.5
-6 -10 -8 128.99 9.6
6 10 8 128.99 9.4
6 10 8 128.39 9.3
6 10 8 143.89 8.4
6 10 8 135.49 7.8
1 -11 -8 4.4 2.7
-1 11 8 1.5 2.3
-1 11 8 -0.6 1.8
-1 11 8 0.1 1.8
0 -11 -8 252.57 14.9
0 -11 -8 236.58 16.7
0 11 8 257.17 13.6
0 11 8 260.57 12.2
0 11 8 244.58 14.1
0 11 8 259.77 14.6
0 11 8 250.17 14.4
0 11 8 257.97 13.2
-1 -11 -8 328.47 21.3
1 11 8 336.37 17.7
1 11 8 316.57 16.9
1 11 8 341.77 15.7
1 11 8 321.07 18.3
1 11 8 338.57 18.6
1 11 8 324.97 18.3
1 11 8 358.06 16.8
-2 -11 -8 237.58 17
2 11 8 212.58 13.6
2 11 8 211.88 11.3
2 11 8 223.58 14.3
2 11 8 218.78 12.4
2 11 8 219.68 12
2 11 8 233.18 14.4
-3 -11 -8 29.4 6.8
3 11 8 21.3 4.7
3 11 8 42 6.1
3 11 8 34.5 5.8
3 11 8 38.7 4.2
3 11 8 33.7 4.3
3 11 8 28.8 5.2
-4 -11 -8 463.05 24.6
4 11 8 441.66 20.7
4 11 8 425.36 22
4 11 8 439.16 20
4 11 8 460.55 22.7
4 11 8 462.75 22.8
4 11 8 419.56 22.3
-5 -11 -8 137.99 9.8
5 11 8 117.59 7.2
5 11 8 110.39 8.8
5 11 8 136.99 7.7
5 11 8 111.89 8.4
5 11 8 146.49 9.3
6 11 8 1.2 1.6
1 12 8 12.2 2.3
1 12 8 15.5 3
1 12 8 9.1 2.3
2 12 8 194.38 10.3
2 12 8 206.68 11.4
2 12 8 195.98 9.7
2 12 8 205.08 10.4
2 12 8 189.88 11.4
3 12 8 288.57 15
3 12 8 281.97 14.7
3 12 8 267.67 13.1
3 12 8 277.97 13.5
4 12 8 78.39 5.2
4 12 8 92.69 10.8
3 6 -9 5.6 2.1
2 6 -9 15 4.3
2 6 -9 21.3 3.4
1 6 -9 27.1 6.7
1 6 -9 35.8 5.1
1 6 -9 28.8 4.5
1 6 -9 35 4.5
0 6 -9 88.49 6.7
0 6 -9 87.69 7.1
0 6 -9 74.99 6.8
-1 6 -9 -2.1 1.9
4 5 -9 2.4 1.8
3 5 -9 168.58 14.1
3 5 -9 178.18 10.3
3 5 -9 161.08 11
2 5 -9 80.49 8.8
2 5 -9 93.99 9.7
2 5 -9 89.39 7.3
2 5 -9 84.19 11.1
1 5 -9 22.1 4.6
1 5 -9 15.9 5.8
1 5 -9 22.8 5.1
1 5 -9 10.5 4.4
0 5 -9 106.19 9.4
0 5 -9 122.59 9.2
0 5 -9 115.39 11
0 5 -9 114.69 11.5
-1 5 -9 71.99 8.9
-1 5 -9 100.69 8.4
-1 5 -9 98.39 8.1
-1 5 -9 94.59 9.1
-1 5 -9 103.09 10.1
-2 5 -9 35.4 6.1
-2 5 -9 44.7 5.5
5 4 -9 83.29 6
4 4 -9 84.69 10.8
4 4 -9 73.99 8
4 4 -9 93.79 7.2
3 4 -9 41.2 6.8
3 4 -9 39.2 6.3
3 4 -9 28.6 7.2
3 4 -9 34 4.9
2 4 -9 10.1 5.3
2 4 -9 8.8 4.8
2 4 -9 9.9 4.7
2 4 -9 9.8 3.4
1 4 -9 167.58 13.1
1 4 -9 155.58 14.8
1 4 -9 177.48 11.8
1 4 -9 158.88 12.7
1 4 -9 162.18 12.9
0 4 -9 103.59 11.3
0 4 -9 115.69 13.5
0 4 -9 116.79 10.2
0 4 -9 124.59 11.9
-1 4 -9 6.1 4.5
-1 4 -9 5.5 3.6
-1 4 -9 7.6 5
-1 4 -9 8.6 4.2
-1 4 -9 2.8 3.6
-2 4 -9 18.5 5.6
-2 4 -9 17.1 4.9
-2 4 -9 23.2 5
-2 4 -9 26.7 4.6
-3 4 -9 49.1 6.7
-3 4 -9 70.29 6.8
-3 4 -9 55.79 7.6
5 3 -9 66.59 7.3
5 3 -9 61.39 6.3
4 3 -9 65.99 11.8
4 3 -9 56.19 7.3
4 3 -9 83.59 11.3
4 3 -9 61.59 6.8
-4 -3 9 69.99 9.5
3 3 -9 26.5 6.1
3 3 -9 14.5 4.1
3 3 -9 19.3 6.1
3 3 -9 12.7 4.8
-3 -3 9 9.2 5
2 3 -9 395.96 20.3
2 3 -9 368.06 21.7
2 3 -9 361.06 21.3
2 3 -9 373.76 26
2 3 -9 354.76 24
-2 -3 9 367.76 23.7
1 3 -9 112.59 11.7
1 3 -9 90.39 13.1
1 3 -9 103.09 12.5
1 3 -9 115.49 11.6
1 3 -9 102.99 11
1 3 -9 119.59 9.8
0 3 -9 28.4 5.8
0 3 -9 11.3 4.4
0 3 -9 17.7 6.1
0 3 -9 23.8 6.2
0 3 -9 8.5 6.3
0 3 -9 26.3 6.5
-1 3 -9 64.09 9.1
-1 3 -9 70.89 10.9
-1 3 -9 73.19 11.3
-1 3 -9 78.79 9.4
-2 3 -9 208.68 13.8
-2 3 -9 203.78 16.6
-2 3 -9 192.88 15.7
-2 3 -9 219.58 14.9
-3 3 -9 7.2 3.7
-3 3 -9 4.5 3.9
-3 3 -9 14.4 5.5
-4 3 -9 1.1 3.1
-4 3 -9 0.5 2.8
5 2 -9 8.7 3
5 2 -9 10.1 5.1
5 2 -9 7.4 3.3
4 2 -9 138.19 18.4
4 2 -9 155.58 14.7
4 2 -9 145.29 10.6
4 2 -9 132.09 11.4
-4 -2 9 153.68 13.8
3 2 -9 157.48 11.5
3 2 -9 156.58 12.7
3 2 -9 142.39 12.3
3 2 -9 169.68 15.3
3 2 -9 191.48 20.2
3 2 -9 134.79 18.6
-3 -2 9 140.49 14.4
2 2 -9 269.17 16.4
2 2 -9 273.07 19.8
2 2 -9 257.97 17.4
2 2 -9 269.27 21.5
2 2 -9 255.27 17.1
-2 -2 9 252.87 19.2
1 2 -9 28.7 31.1
1 2 -9 49 7.6
1 2 -9 45.4 9.1
1 2 -9 29 6.7
1 2 -9 21.1 4.8
1 2 -9 34.3 8.6
1 2 -9 33.8 6.8
-1 -2 9 33.1 7.1
-1 -2 9 35.3 37.2
0 2 -9 294.27 19.4
0 2 -9 304.27 22.1
0 2 -9 323.57 19.6
0 2 -9 319.97 18.9
0 2 -9 266.77 20.3
-1 2 -9 96.59 11.1
-1 2 -9 140.19 15.5
-1 2 -9 143.49 14.3
-1 2 -9 133.99 12.3
-2 2 -9 21.2 6.2
-2 2 -9 29.3 7.5
-2 2 -9 25.5 7
-3 2 -9 51.49 8.6
-3 2 -9 47 7.3
-3 2 -9 35.9 7.4
-4 2 -9 78.59 9.6
-4 2 -9 55.29 8.1
-5 2 -9 10.3 3.8
5 -2 9 18 4.9
5 1 -9 117.29 24
5 1 -9 98.79 9.6
5 1 -9 108.79 12.1
-5 -1 9 117.49 19.7
-5 -1 9 114.19 9.1
4 1 -9 39.5 8.3
4 1 -9 29.9 9.6
4 1 -9 43.1 7.6
-4 -1 9 36 8
3 1 -9 2.2 7.2
3 1 -9 11.2 4.5
3 1 -9 3.8 5.8
3 1 -9 3.9 4.8
3 1 -9 8.9 4
3 1 -9 10.7 4.8
-3 -1 9 -0.9 3.8
2 1 -9 42.5 9.4
2 1 -9 40.6 35.8
2 1 -9 22.3 8.8
2 1 -9 52.29 9.4
2 1 -9 44.8 7.6
2 1 -9 30.2 5.4
2 1 -9 48 8.3
-2 -1 9 24 6.6
-2 -1 9 37.4 41.2
1 1 -9 59.89 7.4
1 1 -9 95.29 11.2
1 1 -9 79.09 12.3
1 1 -9 93.49 10.5
1 1 -9 85.09 9.9
1 1 -9 49.5 8.4
-1 -1 9 76.09 11.5
0 1 -9 622.04 31.9
0 1 -9 674.53 32.7
0 1 -9 668.23 35.9
0 1 -9 645.04 34.7
0 1 -9 638.54 33.1
0 -1 9 589.24 35
-1 1 -9 -5.3 4.2
-1 1 -9 2.7 4.8
-1 1 -9 -1.6 3.4
-1 1 -9 13 4.6
-2 1 -9 442.16 26.8
-2 1 -9 438.76 26.8
-2 1 -9 412.66 19.7
-2 1 -9 420.56 24.1
-3 1 -9 88.49 11.2
-3 1 -9 94.39 10.5
-3 1 -9 94.59 12
-3 1 -9 99.39 7.3
-4 1 -9 8.3 4.9
-4 1 -9 3.7 2.8
-4 1 -9 6.8 4.5
-5 1 -9 44.6 7.2
-5 1 -9 34.1 6.8
5 -1 9 63.59 7.7
5 0 -9 9.8 3.9
5 0 -9 2.2 4.4
-5 0 9 6.1 5.1
-5 0 9 6.4 3.3
4 0 -9 14.1 8.3
4 0 -9 10.2 5
-4 0 9 15.3 4.9
-4 0 9 5.8 5.5
3 0 -9 152.68 20
3 0 -9 159.58 14.7
3 0 -9 160.18 16.3
3 0 -9 141.49 12.7
3 0 -9 146.29 12.7
-3 0 9 141.89 14.5
2 0 -9 570.44 29.5
2 0 -9 563.54 29.8
2 0 -9 497.75 35.9
2 0 -9 589.54 32.1
2 0 -9 594.44 33.9
-2 0 9 564.14 32.6
1 0 -9 106.39 11
1 0 -9 83.79 11.7
1 0 -9 122.19 12.1
1 0 -9 96.29 10.2
1 0 -9 120.09 18.3
-1 0 9 87.29 11.6
0 0 -9 130.39 12.2
0 0 -9 142.39 12.8
0 0 -9 130.59 8.9
0 0 -9 127.39 11.1
0 0 -9 131.79 10.9
0 0 -9 45.8 46.2
0 0 9 139.59 13.9
0 0 9 110.79 23
-1 0 -9 425.96 25.6
-1 0 -9 420.76 21.5
-1 0 -9 433.56 30.4
-1 0 -9 397.56 25.6
-1 0 -9 407.06 22.4
-1 0 -9 423.96 22.9
1 0 9 412.56 26.4
-2 0 -9 136.39 10.7
-2 0 -9 131.59 14.6
-2 0 -9 150.88 13.8
-2 0 -9 102.19 12.9
-3 0 -9 26.9 5.6
-3 0 -9 20.8 6.3
-3 0 -9 13.3 4.7
-4 0 -9 208.38 16.5
-4 0 -9 201.48 16.7
-4 0 -9 205.78 14.1
-5 0 -9 16.5 4.3
-5 0 -9 10 4.6
-5 0 -9 19.3 5.9
-5 0 -9 24.2 6.6
-6 0 -9 4.1 3.5
-6 0 -9 4.5 3.5
6 0 9 8.4 3.2
5 -1 -9 74.39 10
-5 1 9 60.49 7.3
4 -1 -9 219.48 18.9
4 -1 -9 227.68 15
4 -1 -9 223.68 17.6
4 -1 -9 187.18 22.6
-4 1 9 202.48 15.1
-4 1 9 212.88 17.8
3 -1 -9 157.18 18.1
3 -1 -9 115.89 13.8
3 -1 -9 141.49 19.4
3 -1 -9 151.78 13.2
3 -1 -9 126.09 12.2
-3 1 9 123.79 11.1
-3 1 9 129.59 13.8
2 -1 -9 121.19 11.9
2 -1 -9 133.09 13.2
2 -1 -9 132.79 12.8
2 -1 -9 134.79 16.1
2 -1 -9 120.89 8.8
-2 1 9 105.59 13.4
1 -1 -9 383.36 21.5
1 -1 -9 382.36 20
1 -1 -9 368.76 21.6
1 -1 -9 354.76 22.6
1 -1 -9 389.56 24.4
-1 1 9 400.16 25
0 -1 -9 643.84 30.2
0 -1 -9 417.76 99.89
0 -1 -9 619.04 30.3
0 -1 -9 627.84 33.5
0 1 9 659.63 35
-1 -1 -9 -0.6 3.7
-1 -1 -9 3.9 4.8
-1 -1 -9 -0.3 3.3
-1 -1 -9 -1.4 26.7
1 1 9 4.5 4.4
-2 -1 -9 34.3 44.6
-2 -1 -9 87.99 11.3
-2 -1 -9 95.99 11.8
-2 -1 -9 107.89 10
2 1 9 97.49 12.7
2 1 9 128.89 25.3
-3 -1 -9 301.27 20.6
-3 -1 -9 279.37 20.2
-3 -1 -9 273.67 18.2
-4 -1 -9 49.4 9.5
-4 -1 -9 47.1 8.3
-4 -1 -9 58.89 9.9
4 1 9 30.5 7.3
-5 -1 -9 17.8 5.6
-5 -1 -9 20 6.4
-5 -1 -9 15.1 5.9
-5 -1 -9 13.3 4.9
5 1 9 13.3 4.9
-6 -1 -9 8.7 4.4
-6 -1 -9 7.5 3.9
-6 -1 -9 8.2 4.4
6 1 9 11.2 3.2
5 -2 -9 41 7.5
-5 2 9 21.6 4.8
4 -2 -9 48 10.1
4 -2 -9 55.29 9.7
-4 2 9 49.7 7.6
3 -2 -9 276.17 15.5
3 -2 -9 297.87 20.5
3 -2 -9 271.77 22
3 -2 -9 273.47 18.7
3 -2 -9 267.57 17
-3 2 9 291.77 18.8
-3 2 9 269.27 20.5
2 -2 -9 440.66 27.4
2 -2 -9 424.96 24
2 -2 -9 412.66 22.5
2 -2 -9 409.86 25.3
2 -2 -9 411.36 22.1
-2 2 9 417.56 23.8
-2 2 9 391.96 25.7
1 -2 -9 148.49 13.1
1 -2 -9 184.38 15.3
1 -2 -9 164.48 12
1 -2 -9 153.68 12
-1 2 9 175.88 14.8
0 -2 -9 84.39 10.8
0 -2 -9 92.59 10.2
0 -2 -9 101.99 60.09
0 2 9 107.59 13.5
-1 -2 -9 110.59 64.89
-1 -2 -9 130.99 15.4
-1 -2 -9 130.69 14.5
1 2 9 137.99 13.7
-2 -2 -9 324.87 20.1
-2 -2 -9 330.57 21.8
-2 -2 -9 333.77 21.8
2 2 9 340.17 23.1
-3 -2 -9 51.39 8.7
-3 -2 -9 51.29 9.4
-3 -2 -9 66.09 9.4
3 2 9 43.7 8.8
-4 -2 -9 141.29 14.1
-4 -2 -9 144.49 15.8
4 2 9 128.39 15.4
4 2 9 141.99 13
-5 -2 -9 191.18 15
-5 -2 -9 173.78 14.2
-5 -2 -9 189.08 15.9
-5 -2 -9 174.98 15
5 2 9 179.28 13.3
-6 -2 -9 44 7.3
-6 -2 -9 55.49 7.9
-6 -2 -9 34.6 6.8
6 2 9 42.1 4.7
-7 -2 -9 9.1 4.2
-7 -2 -9 7.9 3.4
5 -3 -9 45.7 7.8
-5 3 9 29.7 5.4
4 -3 -9 248.88 13.5
4 -3 -9 269.17 19
-4 3 9 260.97 17.6
3 -3 -9 138.49 13.2
3 -3 -9 127.29 12.9
3 -3 -9 129.59 10.7
3 -3 -9 107.69 14.3
-3 3 9 143.99 12.3
2 -3 -9 4.2 4.1
2 -3 -9 1.9 4.3
2 -3 -9 -3.9 3.4
2 -3 -9 2 3.6
-2 3 9 1.1 3.2
-2 3 9 -0.1 3.8
1 -3 -9 308.67 20.9
1 -3 -9 299.67 18.5
-1 3 9 293.37 18.4
-1 3 9 281.37 20.4
0 -3 -9 729.33 37.5
0 -3 -9 768.22 119.69
0 3 9 699.63 35.2
0 3 9 704.23 38.1
-1 -3 -9 176.48 69.99
-1 -3 -9 219.18 16.8
1 3 9 240.78 17.9
-2 -3 -9 205.98 15.6
-2 -3 -9 130.59 63.59
2 3 9 218.88 17.1
2 3 9 149.49 18.1
-3 -3 -9 188.98 15.6
-3 -3 -9 179.78 15.9
3 3 9 191.08 14.6
3 3 9 194.18 17
-4 -3 -9 66.99 10
-4 -3 -9 64.59 10.2
4 3 9 94.59 13.4
4 3 9 60.09 8.1
4 3 9 71.99 9.4
-5 -3 -9 30.2 7.4
-5 -3 -9 28.3 7.2
-5 -3 -9 33.3 6.9
5 3 9 26.9 5.9
5 3 9 37 6.1
5 3 9 34.4 7.7
-6 -3 -9 46.4 8.6
-6 -3 -9 45.7 7.9
-7 -3 -9 49.1 6.9
-7 -3 -9 47.8 6.6
5 -4 -9 188.08 13.4
-5 4 9 186.58 12.6
-5 4 9 184.18 11.6
4 -4 -9 33.4 6.8
4 -4 -9 43.8 5.9
-4 4 9 40.3 6.6
-4 4 9 45.3 7.6
3 -4 -9 145.29 15.2
3 -4 -9 151.28 13
3 -4 -9 143.79 13.3
3 -4 -9 149.79 11.6
-3 4 9 135.89 12.5
2 -4 -9 184.68 16.2
2 -4 -9 159.18 13.7
2 -4 -9 168.18 14.3
2 -4 -9 191.88 13.9
2 -4 -9 178.78 14.2
-2 4 9 173.08 13.8
1 -4 -9 338.07 20.5
1 -4 -9 332.97 22.2
1 -4 -9 337.17 20.6
-1 4 9 341.17 20.4
-1 4 9 318.27 21.8
0 -4 -9 23.8 6.1
0 4 9 12.5 4.6
0 4 9 26 5.8
0 4 9 11.9 4.2
0 4 9 20.4 6.3
-1 -4 -9 348.97 22.1
-1 -4 -9 412.46 91.99
1 4 9 393.16 20.2
1 4 9 358.96 20.4
1 4 9 316.97 20.1
1 4 9 342.97 22.8
-2 -4 -9 287.27 19.6
-2 -4 -9 209.68 77.69
-2 -4 -9 236.68 22.3
2 4 9 281.57 17.2
2 4 9 300.07 20.5
2 4 9 300.07 20.7
-3 -4 -9 83.39 11.3
-3 -4 -9 71.89 10.2
3 4 9 84.19 12.4
3 4 9 73.49 5.7
3 4 9 79.79 9.3
3 4 9 73.29 9.1
-4 -4 -9 99.49 10.7
-4 -4 -9 123.99 14.8
-4 -4 -9 98.69 12.6
4 4 9 122.89 9.6
4 4 9 100.69 13.6
4 4 9 104.09 7.3
-5 -4 -9 51.39 8.4
-5 -4 -9 82.59 11.6
-5 -4 -9 51.19 9.5
5 4 9 52.39 5.2
5 4 9 34.7 7.8
5 4 9 54.39 8
-6 -4 -9 59.19 8.5
-6 -4 -9 62.59 9.9
6 4 9 53.29 9.5
-7 -4 -9 37.8 6.5
5 -5 -9 -0.8 2.9
-5 5 9 0.9 2
4 -5 -9 116.29 9.1
4 -5 -9 118.29 11.1
-4 5 9 123.09 9.8
-4 5 9 126.09 10.7
3 -5 -9 68.89 9.2
3 -5 -9 70.79 8.7
3 -5 -9 66.69 8.7
3 -5 -9 91.29 12.5
3 -5 -9 78.59 9.2
-3 5 9 72.69 8.4
-3 5 9 83.29 9.8
2 -5 -9 178.08 18
2 -5 -9 222.38 15.7
2 -5 -9 229.78 16.4
2 -5 -9 232.38 18.2
-2 5 9 240.28 16.5
-2 5 9 214.68 14.7
1 -5 -9 12.2 5.2
1 -5 -9 5.3 4.3
-1 5 9 9.4 4.5
-1 5 9 5.1 3.6
-1 5 9 12.6 3.9
0 -5 -9 635.54 34.1
0 -5 -9 697.73 35.8
0 -5 -9 637.04 34.9
0 5 9 677.63 32.1
0 5 9 667.73 32.4
0 5 9 701.63 34
0 5 9 633.94 35.3
-1 -5 -9 462.25 27.5
1 5 9 473.75 27.8
1 5 9 452.05 25.3
1 5 9 490.45 24.9
1 5 9 459.65 23.9
1 5 9 481.95 21.3
-2 -5 -9 66.49 54.39
-2 -5 -9 73.39 10.4
-2 -5 -9 78.59 10.8
2 5 9 56.09 9.2
2 5 9 52.99 7.3
2 5 9 58.89 7.3
2 5 9 92.99 6
2 5 9 80.59 9.6
2 5 9 97.09 10.4
-3 -5 -9 220.78 16.7
-3 -5 -9 203.68 17
3 5 9 203.48 17.1
3 5 9 195.68 12.4
3 5 9 195.48 14.3
3 5 9 182.58 10.8
-4 -5 -9 201.98 14.7
-4 -5 -9 217.28 17.6
-4 -5 -9 212.18 17.6
4 5 9 204.68 17.5
4 5 9 192.58 11.2
4 5 9 207.88 14.5
4 5 9 192.18 11.2
4 5 9 208.08 14.2
-5 -5 -9 76.29 13
-5 -5 -9 93.09 12.7
-5 -5 -9 71.99 8.9
5 5 9 53.79 9.5
5 5 9 80.29 6.7
-6 -5 -9 9.4 4.8
-6 -5 -9 13.9 6.3
6 5 9 12.3 5.9
6 5 9 7.1 4.1
-7 -5 -9 56.09 8.1
4 -6 -9 171.08 12.8
4 -6 -9 171.08 10.9
-4 6 9 173.68 9.6
-4 6 9 157.18 11.4
3 -6 -9 32.5 6.3
3 -6 -9 26.7 6.1
3 -6 -9 30.5 6.3
-3 6 9 24.6 5.7
-3 6 9 24.6 4.6
2 -6 -9 468.05 25
2 -6 -9 415.36 25.2
2 -6 -9 430.96 27.6
-2 6 9 458.35 25.4
-2 6 9 447.26 22.7
1 -6 -9 311.47 19.3
1 -6 -9 304.07 21.1
-1 6 9 304.47 17.3
-1 6 9 318.47 19.7
-1 6 9 322.37 17.1
0 -6 -9 122.79 10.7
0 -6 -9 104.29 12.7
0 -6 -9 126.49 13.2
0 6 9 114.29 10.9
0 6 9 103.99 8.9
0 6 9 104.29 8.7
0 6 9 117.29 9.9
0 6 9 106.99 7
-1 -6 -9 4.1 3.4
-1 -6 -9 14.4 5.7
1 6 9 4.3 4.3
1 6 9 6.4 4
1 6 9 8.7 3.7
1 6 9 5.4 2.7
1 6 9 5.2 2.3
1 6 9 3.4 3.1
1 6 9 10.2 4.3
-2 -6 -9 508.65 29.5
-2 -6 -9 507.25 28.6
2 6 9 506.35 26.3
2 6 9 486.55 22.6
2 6 9 475.75 25.9
2 6 9 497.55 28.9
2 6 9 480.15 23.1
2 6 9 480.35 26.8
2 6 9 511.15 24.6
-3 -6 -9 402.56 25.8
-3 -6 -9 416.76 25.8
3 6 9 380.76 23
3 6 9 414.86 23.9
3 6 9 392.46 25.7
3 6 9 411.26 22.7
3 6 9 414.66 19.6
3 6 9 404.46 19
3 6 9 433.56 23.4
-4 -6 -9 29.1 8.3
-4 -6 -9 25.6 7.3
4 6 9 41.4 7.3
4 6 9 18.3 6.1
4 6 9 13.5 3.3
4 6 9 22.7 5.4
4 6 9 28.6 6.1
-5 -6 -9 85.09 10.8
-5 -6 -9 61.39 10.1
5 6 9 82.19 6.8
5 6 9 80.39 9.7
5 6 9 93.99 10.4
5 6 9 87.59 12.4
-6 -6 -9 164.08 13.7
-6 -6 -9 172.88 14.5
6 6 9 170.78 12.9
6 6 9 168.28 9.8
6 6 9 154.08 14.6
-7 -6 -9 27 5.4
4 -7 -9 44.7 5.2
4 -7 -9 47.5 6.3
-4 7 9 47.6 5.2
3 -7 -9 203.58 14.7
3 -7 -9 206.78 13.7
3 -7 -9 226.68 14.3
-3 7 9 194.48 13.6
-3 7 9 213.88 13.1
2 -7 -9 310.67 22.2
2 -7 -9 335.77 21
2 -7 -9 378.86 20.8
-2 7 9 357.86 16.7
-2 7 9 353.16 17.8
-2 7 9 331.37 19.3
-2 7 9 360.76 20.8
1 -7 -9 14.2 5
1 -7 -9 20.3 6.5
-1 7 9 16.3 4.1
-1 7 9 16.7 3.8
-1 7 9 18.1 4.7
-1 7 9 13.5 3.1
-1 7 9 14.8 4.7
0 -7 -9 410.36 25.4
0 -7 -9 414.16 25.7
0 -7 -9 434.76 24
0 7 9 436.96 24.5
0 7 9 423.36 21.8
0 7 9 451.65 19.9
0 7 9 428.66 23.2
0 7 9 422.86 21.3
0 7 9 427.36 19.8
-1 -7 -9 348.47 22.6
-1 -7 -9 321.27 19.5
1 7 9 333.27 16.3
1 7 9 328.77 20.7
1 7 9 341.07 19.5
1 7 9 335.57 18.1
1 7 9 361.36 20.2
-2 -7 -9 497.45 28.7
2 7 9 485.15 25.4
2 7 9 443.16 27.5
2 7 9 454.45 26
2 7 9 479.05 21.8
2 7 9 467.55 25.3
2 7 9 452.95 23.1
-3 -7 -9 -0.5 5.2
-3 -7 -9 2.8 3.8
3 7 9 2.3 3.6
3 7 9 5.2 4.9
3 7 9 -1.4 3.2
3 7 9 -1.6 3.2
3 7 9 -2.5 3
3 7 9 1.2 2
-4 -7 -9 216.18 18.3
-4 -7 -9 259.57 19.4
4 7 9 221.68 16.5
4 7 9 253.27 16.1
4 7 9 246.28 18.8
4 7 9 239.38 16.3
4 7 9 232.38 13
-5 -7 -9 193.68 16.7
5 7 9 191.98 14.1
5 7 9 197.88 11.4
5 7 9 195.18 14.2
5 7 9 189.68 16.3
5 7 9 213.58 14.6
-6 -7 -9 22.2 5.7
-6 -7 -9 20.3 6.2
6 7 9 20.9 5.7
6 7 9 28.7 5.8
-7 -7 -9 9.6 3.9
7 7 9 10.6 3.7
7 7 9 1.8 1.9
3 -8 -9 55.49 6.3
3 -8 -9 51.59 6.8
-3 8 9 61.49 6.6
2 -8 -9 0.9 3.3
2 -8 -9 -1.4 2.6
-2 8 9 0.9 2.3
-2 8 9 -0.9 2.5
-2 8 9 4.4 3.3
1 -8 -9 265.77 17.1
1 -8 -9 245.58 18.8
-1 8 9 262.27 12.6
-1 8 9 261.57 16.1
-1 8 9 261.87 17
-1 8 9 266.17 14.8
-1 8 9 262.87 14.6
0 -8 -9 734.13 38.6
0 -8 -9 672.23 39.1
0 -8 -9 734.83 36.8
0 8 9 756.92 37.5
0 8 9 767.82 32.6
0 8 9 794.52 34.9
0 8 9 763.62 36.4
0 8 9 760.02 34.2
0 8 9 762.22 36.1
-1 -8 -9 286.47 20.1
-1 -8 -9 258.57 17.3
1 8 9 285.97 18.4
1 8 9 292.67 16
1 8 9 271.17 17.4
1 8 9 291.37 17.7
1 8 9 273.77 15.3
1 8 9 285.87 17.3
1 8 9 288.87 14.2
-2 -8 -9 740.13 39.6
2 8 9 721.33 34.1
2 8 9 741.63 36.2
2 8 9 761.32 32.8
2 8 9 732.13 37.4
2 8 9 756.62 36.5
2 8 9 750.92 36.6
-3 -8 -9 521.55 30
3 8 9 479.15 27.1
3 8 9 491.25 26.4
3 8 9 486.25 22.8
3 8 9 482.95 24.1
3 8 9 510.95 26.5
3 8 9 461.35 25.3
-4 -8 -9 208.68 17.4
-4 -8 -9 214.88 17.8
4 8 9 223.48 15.3
4 8 9 218.48 15.9
4 8 9 224.48 14.9
4 8 9 207.98 11.9
4 8 9 198.18 16.9
4 8 9 256.87 15.4
4 8 9 206.08 13.2
-5 -8 -9 21.2 6.5
5 8 9 21.2 5.2
5 8 9 18.9 4.8
5 8 9 17.7 3.9
5 8 9 20.4 3.7
5 8 9 21.7 5.3
5 8 9 25.7 7
-6 -8 -9 114.89 11.3
-6 -8 -9 85.89 9.5
6 8 9 92.99 8.8
6 8 9 114.79 7.4
6 8 9 83.19 11.3
6 8 9 123.29 9.8
-7 -8 -9 22.3 4.3
7 8 9 10.9 3.3
7 8 9 20.4 3.1
2 -9 -9 379.26 19.7
-2 9 9 374.46 17.4
-2 9 9 354.46 18.9
1 -9 -9 152.88 11.9
-1 9 9 156.28 11.3
-1 9 9 156.58 10.1
-1 9 9 150.78 11.7
-1 9 9 148.59 8.1
-1 9 9 166.48 10.2
0 -9 -9 1.6 3.6
0 -9 -9 11 5.9
0 9 9 12 4.3
0 9 9 4.7 2.8
0 9 9 10 2.4
0 9 9 10.2 4.1
0 9 9 4.8 3.6
0 9 9 11.4 3
0 9 9 14.2 5
-1 -9 -9 730.83 38.5
-1 -9 -9 738.43 35.3
1 9 9 758.22 35.3
1 9 9 741.63 31.8
1 9 9 667.83 35.7
1 9 9 722.23 35.3
1 9 9 724.43 33.3
1 9 9 788.32 35.8
1 9 9 727.03 33.5
1 9 9 664.93 36.9
-2 -9 -9 403.46 25.7
2 9 9 404.46 22.6
2 9 9 403.66 19.1
2 9 9 398.86 20.5
2 9 9 430.46 23
2 9 9 430.36 22.7
2 9 9 401.16 21.4
2 9 9 395.56 20.3
2 9 9 394.66 23
2 9 9 381.86 24.2
-3 -9 -9 75.59 10.9
3 9 9 47 5.8
3 9 9 60.99 10.2
3 9 9 75.99 8.8
3 9 9 63.09 8
3 9 9 69.09 8.9
3 9 9 61.79 8.6
3 9 9 62.29 5.6
-4 -9 -9 145.09 13.6
-4 -9 -9 170.98 16.4
4 9 9 134.29 11.2
4 9 9 131.69 10.9
4 9 9 143.99 8.7
4 9 9 136.79 10.8
4 9 9 128.69 11.4
4 9 9 126.59 12.9
4 9 9 132.19 9.6
-5 -9 -9 257.47 17.1
5 9 9 219.38 11.9
5 9 9 205.38 15.7
5 9 9 227.38 14.9
5 9 9 209.88 12.6
5 9 9 221.28 14.2
5 9 9 231.38 14.4
-6 -9 -9 55.79 7.3
6 9 9 37.9 5.2
6 9 9 56.99 6.8
6 9 9 50.29 5.2
6 9 9 42.9 4.4
2 -10 -9 10.7 3
-2 10 9 13.1 3.1
1 -10 -9 71.59 7.4
-1 10 9 76.19 7
-1 10 9 67.29 5.8
0 -10 -9 462.95 23.3
0 -10 -9 428.16 24.8
0 10 9 414.86 22.4
0 10 9 444.16 21.2
0 10 9 433.36 20.8
0 10 9 423.76 22.3
0 10 9 431.86 19.4
-1 -10 -9 140.89 12.7
-1 -10 -9 153.58 15.4
1 10 9 149.69 9.9
1 10 9 155.28 11.5
1 10 9 130.29 11.1
1 10 9 161.18 11.2
1 10 9 144.39 11.2
1 10 9 141.99 8.3
-2 -10 -9 22.6 6.7
2 10 9 22.7 10.3
2 10 9 13.5 4.3
2 10 9 19 4.5
2 10 9 22.6 5.2
2 10 9 25.2 4.3
2 10 9 34.6 6.1
2 10 9 20.4 3.8
2 10 9 24.1 4.5
2 10 9 19.7 3.2
-3 -10 -9 264.87 18.2
3 10 9 242.68 13.7
3 10 9 258.07 15.8
3 10 9 244.08 12.6
3 10 9 233.18 15.6
3 10 9 234.38 14.8
3 10 9 251.07 15.4
-4 -10 -9 265.57 18.3
-4 -10 -9 290.37 18.4
4 10 9 279.77 16.1
4 10 9 279.27 16.4
4 10 9 260.97 13.5
4 10 9 252.77 16.2
4 10 9 283.17 14.7
4 10 9 276.17 15.8
-5 -10 -9 28.2 5.8
5 10 9 23.5 4.7
5 10 9 24.3 4.5
5 10 9 28.2 3.6
5 10 9 21.9 4.6
5 10 9 29.4 4
-6 -10 -9 6.4 3
6 10 9 9.1 2.2
6 10 9 6.4 2.7
6 10 9 8.9 2.2
0 -11 -9 36.8 5.3
0 11 9 34.3 5
0 11 9 35.2 4.2
0 11 9 31.6 3
-1 -11 -9 89.09 10.2
1 11 9 78.29 6.4
1 11 9 83.79 7.2
1 11 9 81.49 5.4
1 11 9 79.49 7.5
1 11 9 82.49 7.3
-2 -11 -9 311.97 19.9
2 11 9 311.07 17.2
2 11 9 328.07 15.8
2 11 9 328.57 16.8
2 11 9 318.67 17.5
2 11 9 311.27 15.7
2 11 9 282.17 16.9
2 11 9 324.67 14.9
-3 -11 -9 277.47 18
3 11 9 297.47 15.8
3 11 9 293.97 16.2
3 11 9 269.77 15.8
3 11 9 278.67 13.5
3 11 9 290.67 14.4
3 11 9 263.07 15.5
-4 -11 -9 38.8 6.8
4 11 9 35.1 5.1
4 11 9 28.5 3.9
4 11 9 36 5
4 11 9 33.1 4.8
4 11 9 37.6 3.9
5 11 9 105.09 6.2
5 11 9 104.59 7.5
5 11 9 106.09 6.5
3 12 9 74.59 5.7
2 5 -10 43.9 6.8
2 5 -10 55.69 4.9
1 5 -10 80.19 7.5
1 5 -10 79.69 7.4
1 5 -10 80.19 6.3
0 5 -10 18.8 3.5
0 5 -10 24 3.7
0 5 -10 24 4.2
-1 5 -10 -1.6 2
3 4 -10 12.6 5.2
3 4 -10 11.3 3.5
3 4 -10 13.9 4.8
3 4 -10 11.5 3
2 4 -10 132.39 10.4
2 4 -10 148.99 9.3
2 4 -10 104.99 11.4
2 4 -10 126.49 9.6
1 4 -10 5.4 3.6
1 4 -10 4 4
1 4 -10 3.8 3
1 4 -10 -3 3.8
0 4 -10 23.1 6.2
0 4 -10 20 4.4
0 4 -10 14.7 4.3
0 4 -10 22.4 5.3
-1 4 -10 91.29 8.6
-1 4 -10 50.69 8
-1 4 -10 87.79 8.1
-2 4 -10 36.7 5.1
4 3 -10 110.09 8.2
4 3 -10 109.59 11.6
4 3 -10 108.79 7.4
3 3 -10 92.19 7.5
3 3 -10 98.99 11.6
3 3 -10 91.19 9.2
3 3 -10 68.19 8.4
2 3 -10 50.59 7.3
2 3 -10 46.2 8.3
2 3 -10 40.3 5.6
2 3 -10 63.59 8.6
1 3 -10 140.69 11.1
1 3 -10 133.39 12.3
1 3 -10 108.19 11.4
1 3 -10 129.29 14.2
1 3 -10 118.99 9.6
0 3 -10 155.08 14
0 3 -10 150.18 11.9
0 3 -10 136.69 13.5
0 3 -10 151.88 12.6
-1 3 -10 1.4 3.7
-1 3 -10 1.8 3.2
-1 3 -10 3 5.3
-2 3 -10 3.5 3.4
-2 3 -10 -1.7 3.6
-2 3 -10 1.4 4.3
-3 3 -10 98.39 9.6
-3 3 -10 66.29 6.5
-3 3 -10 53.99 7.1
4 2 -10 6.1 3.1
4 2 -10 5.5 4.6
4 2 -10 6.4 3.1
3 2 -10 76.29 10.3
3 2 -10 82.09 9.4
3 2 -10 79.79 8.3
3 2 -10 76.89 7.6
-3 -2 10 68.39 10.1
2 2 -10 37.8 6.6
2 2 -10 38.4 5.7
2 2 -10 41.7 8.2
2 2 -10 58.19 8
-2 -2 10 39.7 8
1 2 -10 189.18 13.4
1 2 -10 160.08 14.8
1 2 -10 172.78 16.4
1 2 -10 180.78 13.5
1 2 -10 164.28 14
-1 -2 10 174.88 15.7
0 2 -10 27.7 6.2
0 2 -10 32.9 6.6
0 2 -10 34.2 8.9
0 2 -10 39.9 8.3
0 2 -10 28.5 5.8
-1 2 -10 239.48 16.1
-1 2 -10 205.28 14.6
-1 2 -10 207.08 17.3
-2 2 -10 117.19 13.2
-2 2 -10 149.99 11.7
-2 2 -10 98.09 11.5
-3 2 -10 9 4.5
-3 2 -10 2.7 4.4
-3 2 -10 4.4 3.3
-4 2 -10 1.5 3
-4 2 -10 4.9 3.8
5 1 -10 2.4 2.5
4 1 -10 71.99 7.9
4 1 -10 68.39 9.4
-4 -1 10 50.49 8.1
3 1 -10 123.79 11.8
3 1 -10 97.89 11.9
3 1 -10 110.69 10
-3 -1 10 114.59 12.3
2 1 -10 0.4 3.8
2 1 -10 3.1 3.6
2 1 -10 15.4 6.5
2 1 -10 2.2 3.7
-2 -1 10 1.5 4.2
1 1 -10 62.19 9.5
1 1 -10 87.59 10.1
1 1 -10 62.39 8.3
1 1 -10 51.19 9.6
1 1 -10 49.4 7.9
-1 -1 10 68.39 10.8
0 1 -10 268.27 16.9
0 1 -10 239.68 16.5
0 1 -10 241.58 19.4
0 1 -10 265.47 19.2
0 1 -10 258.37 17.7
0 -1 10 267.57 19.6
-1 1 -10 310.97 22.1
-1 1 -10 303.87 18.8
-1 1 -10 342.77 20.4
-2 1 -10 15.6 6.5
-2 1 -10 2.6 4.1
-2 1 -10 12.6 5.6
-3 1 -10 197.08 15.8
-3 1 -10 207.38 14.5
-3 1 -10 227.08 16.9
-4 1 -10 52.29 7.9
-4 1 -10 86.49 9.8
-5 1 -10 12.2 3.8
5 -1 10 10.7 5.1
5 0 -10 107.69 10.8
4 0 -10 50.39 8.7
4 0 -10 76.29 8.2
-4 0 10 70.09 10.4
3 0 -10 18 5.5
3 0 -10 5.2 4.9
3 0 -10 18.1 4.9
-3 0 10 19 6.6
2 0 -10 253.07 19.1
2 0 -10 272.47 21.3
2 0 -10 259.17 17.8
2 0 -10 300.97 17.4
-2 0 10 265.17 20
1 0 -10 466.75 26.9
1 0 -10 489.55 25.4
1 0 -10 453.55 28.8
1 0 -10 461.65 27.8
1 0 -10 482.15 26.1
-1 0 10 494.35 29.3
0 0 -10 254.27 15.9
0 0 -10 227.38 16.7
0 0 -10 245.18 16
0 0 -10 222.98 18.3
0 0 10 226.28 18.6
-1 0 -10 154.88 12.2
-1 0 -10 140.69 9
-1 0 -10 151.58 13.1
-1 0 -10 153.08 16.8
1 0 10 140.49 14.1
-2 0 -10 106.49 13.2
-2 0 -10 104.89 12.8
-2 0 -10 100.49 10.6
-2 0 -10 108.89 8.3
-3 0 -10 165.08 15.1
-3 0 -10 156.58 10.4
-3 0 -10 150.98 12.7
-3 0 -10 163.28 14.5
-4 0 -10 4.3 4.8
-4 0 -10 0 2.3
-4 0 -10 2.5 4.1
-5 0 -10 44.6 7.1
-5 0 -10 32.6 6.5
5 0 10 57.19 6.6
5 -1 -10 3 4.1
-5 1 10 10.9 3.2
4 -1 -10 66.79 10
4 -1 -10 78.29 10.7
-4 1 10 61.89 7.8
-4 1 10 74.49 10.7
3 -1 -10 205.88 14
3 -1 -10 210.38 15.4
3 -1 -10 194.28 16.5
3 -1 -10 201.48 18.4
-3 1 10 207.68 14.9
-3 1 10 210.98 17.9
2 -1 -10 226.38 18.8
2 -1 -10 189.88 16
2 -1 -10 214.88 15.5
2 -1 -10 220.18 14.6
-2 1 10 224.28 18
1 -1 -10 195.48 14.5
1 -1 -10 200.68 13.9
1 -1 -10 180.68 15.2
1 -1 -10 194.98 16.6
1 -1 -10 192.28 15.6
1 -1 -10 200.08 11.6
-1 1 10 223.68 17.8
0 -1 -10 174.48 11.6
0 -1 -10 159.88 12.8
0 -1 -10 166.58 15.3
0 -1 -10 180.78 14.3
0 -1 -10 172.58 12.5
0 1 10 169.78 15.9
-1 -1 -10 258.77 19.8
-1 -1 -10 247.78 16.4
-1 -1 -10 268.37 17.9
-1 -1 -10 270.07 16
1 1 10 284.27 20.7
-2 -1 -10 6.5 4.9
-2 -1 -10 6.5 5.5
-2 -1 -10 4.2 4.3
-2 -1 -10 5.7 4.1
2 1 10 5.1 4.7
-3 -1 -10 40.9 8.8
-3 -1 -10 28.8 7.1
-3 -1 -10 31.6 6.3
-3 -1 -10 22.9 5.4
-4 -1 -10 75.79 10.9
-4 -1 -10 59.79 9.6
-4 -1 -10 64.09 8.3
4 1 10 71.79 9.9
-5 -1 -10 149.59 10.7
-5 -1 -10 138.09 12.8
-5 -1 -10 148.79 13.1
5 1 10 145.19 11
-6 -1 -10 -1.3 3
6 1 10 -0.1 1.8
5 -2 -10 47.2 7.1
-5 2 10 36.1 5.4
4 -2 -10 137.79 12.8
-4 2 10 126.39 11.1
3 -2 -10 111.89 11.7
3 -2 -10 99.49 13.8
3 -2 -10 127.09 12.5
-3 2 10 131.89 14.1
-3 2 10 117.89 10.9
2 -2 -10 186.58 12.7
2 -2 -10 208.58 17.5
2 -2 -10 166.58 11.4
2 -2 -10 177.18 14.9
2 -2 -10 179.08 14.2
-2 2 10 172.48 13.4
-2 2 10 197.78 17
1 -2 -10 186.48 14.2
1 -2 -10 173.18 15.9
1 -2 -10 180.98 12.7
1 -2 -10 184.88 14.9
1 -2 -10 174.58 12.4
1 -2 -10 177.68 14.4
-1 2 10 187.28 16.5
0 -2 -10 203.98 13.9
0 -2 -10 182.18 13.9
0 -2 -10 180.38 15.4
0 -2 -10 184.98 14.8
0 2 10 189.78 16.8
-1 -2 -10 31.4 6.5
-1 -2 -10 21 4.9
-1 -2 -10 32.1 7.2
-1 -2 -10 15.3 6.5
1 2 10 33.5 8.3
-2 -2 -10 295.17 20.8
-2 -2 -10 273.77 20.2
-2 -2 -10 304.77 18.8
-2 -2 -10 282.77 18.4
2 2 10 295.87 21.6
-3 -2 -10 313.57 21.1
-3 -2 -10 281.67 18.1
-3 -2 -10 286.87 20.6
-3 -2 -10 292.37 18.8
3 2 10 226.88 21.6
3 2 10 302.57 21.1
-4 -2 -10 53.89 9.3
-4 -2 -10 47.8 8
-4 -2 -10 63.69 10.1
4 2 10 48.5 8.1
-5 -2 -10 40 8
-5 -2 -10 35 7.6
-5 -2 -10 39.3 7.4
5 2 10 35.6 5.9
-6 -2 -10 60.49 7.8
-6 -2 -10 63.39 7.4
-6 -2 -10 75.19 9
5 -3 -10 60.49 9.2
-5 3 10 46.3 6.5
4 -3 -10 33.5 7.1
-4 3 10 26.6 5.3
3 -3 -10 132.99 13.1
3 -3 -10 144.19 16.6
3 -3 -10 141.29 9.6
3 -3 -10 134.39 12.7
-3 3 10 147.59 12.3
2 -3 -10 238.28 16.6
2 -3 -10 222.08 18.9
2 -3 -10 255.07 15.5
2 -3 -10 250.77 18
-2 3 10 243.48 16.6
-2 3 10 213.18 18.4
1 -3 -10 121.89 13
1 -3 -10 135.99 11.4
1 -3 -10 139.29 13.3
1 -3 -10 122.79 12
1 -3 -10 115.99 12.4
-1 3 10 134.99 11.4
-1 3 10 144.39 14.2
0 -3 -10 89.09 10.3
0 -3 -10 91.59 12.5
0 -3 -10 79.89 10.5
0 -3 -10 80.99 10.3
0 3 10 76.29 11.9
-1 -3 -10 524.25 29.8
-1 -3 -10 496.85 27.6
-1 -3 -10 479.45 26.2
1 3 10 526.05 30.8
-2 -3 -10 128.09 12.5
-2 -3 -10 157.38 16.3
-2 -3 -10 103.19 11.2
-2 -3 -10 136.89 15.3
2 3 10 123.59 12
2 3 10 125.39 13.6
-3 -3 -10 12.5 4.9
-3 -3 -10 11.4 5.1
-3 -3 -10 15.4 6.5
3 3 10 10.6 5.1
3 3 10 22.2 6.7
-4 -3 -10 48 9.1
-4 -3 -10 89.49 12.5
4 3 10 54.19 9.3
4 3 10 73.09 9.3
-5 -3 -10 100.39 11.1
-5 -3 -10 168.08 14.6
-5 -3 -10 166.68 15.8
-5 -3 -10 117.49 12.9
5 3 10 114.29 8.9
-6 -3 -10 58.49 7.5
-6 -3 -10 57.49 8.7
-6 -3 -10 54.39 8.1
4 -4 -10 95.29 10.2
-4 4 10 105.29 8.9
-4 4 10 93.09 9.3
3 -4 -10 190.28 13.9
3 -4 -10 191.38 14.9
3 -4 -10 184.78 12.4
-3 4 10 210.38 15
-3 4 10 182.98 14.1
2 -4 -10 -4.4 3.1
2 -4 -10 1.7 4.5
2 -4 -10 2.1 4.1
2 -4 -10 2.6 3.7
-2 4 10 -4 2.8
1 -4 -10 136.09 12.5
1 -4 -10 135.99 13.5
1 -4 -10 160.68 14.5
1 -4 -10 142.39 12.7
-1 4 10 150.38 12.3
-1 4 10 137.29 14.1
0 -4 -10 551.84 28.9
0 -4 -10 532.55 28.9
0 -4 -10 501.85 27.6
0 -4 -10 551.14 30.4
0 4 10 506.15 30.8
0 4 10 499.45 27
0 4 10 545.75 28.1
-1 -4 -10 62.59 8.9
-1 -4 -10 63.19 10.1
-1 -4 -10 89.59 10.2
1 4 10 82.79 10
1 4 10 75.99 12
-2 -4 -10 62.69 10.7
-2 -4 -10 66.89 9.1
-2 -4 -10 69.59 9.9
2 4 10 84.79 10.2
2 4 10 86.69 12.5
2 4 10 54.09 7.6
-3 -4 -10 325.77 22.8
-3 -4 -10 311.57 22.1
3 4 10 350.86 23.8
3 4 10 344.37 19.9
-4 -4 -10 282.57 21
-4 -4 -10 305.07 21.5
4 4 10 303.47 16.9
4 4 10 262.67 20.8
-5 -4 -10 -3 4.7
-5 -4 -10 2.5 5.1
-5 -4 -10 -0.8 3.8
5 4 10 3.1 4.7
5 4 10 2.1 2
5 4 10 -0.9 3.1
-6 -4 -10 24.4 6.4
-6 -4 -10 30 6.6
4 -5 -10 64.19 8.5
4 -5 -10 69.09 5.1
-4 5 10 73.79 6.7
-4 5 10 75.79 8.4
3 -5 -10 37.5 6.5
3 -5 -10 30.6 6.2
3 -5 -10 29 5.3
-3 5 10 37.2 6.2
-3 5 10 26.2 5.6
2 -5 -10 347.97 19.9
2 -5 -10 334.87 20.8
2 -5 -10 329.57 22.7
2 -5 -10 335.07 20.2
-2 5 10 328.87 19
-2 5 10 317.47 20.4
1 -5 -10 535.75 27.7
1 -5 -10 522.55 35.8
1 -5 -10 484.95 29.5
-1 5 10 508.05 26.3
-1 5 10 492.95 27.6
0 -5 -10 5 4.7
0 -5 -10 3.4 3.9
0 5 10 2.7 2.9
0 5 10 0.4 3.3
0 5 10 3.2 4.4
0 5 10 1.8 3.2
-1 -5 -10 323.57 21.2
-1 -5 -10 306.17 18.7
1 5 10 304.27 19.2
1 5 10 314.17 18.1
1 5 10 294.27 21.2
-2 -5 -10 395.76 24.3
-2 -5 -10 373.96 22.9
-2 -5 -10 399.66 25
2 5 10 406.96 22
2 5 10 417.06 21.4
2 5 10 362.66 25.1
2 5 10 384.16 22.6
-3 -5 -10 112.99 13.7
-3 -5 -10 140.79 13.3
3 5 10 103.39 9.1
3 5 10 138.69 16.1
3 5 10 121.99 10.9
-4 -5 -10 35.2 8.3
-4 -5 -10 58.19 10.9
4 5 10 45.8 5
4 5 10 36 7.8
-5 -5 -10 291.97 20.7
-5 -5 -10 288.37 20.9
-5 -5 -10 293.87 18.5
5 5 10 278.77 20.4
5 5 10 307.27 17.9
-6 -5 -10 106.79 12
-6 -5 -10 90.99 10
-7 -5 -10 -0.6 3.5
4 -6 -10 114.29 6.7
4 -6 -10 94.69 8.8
-4 6 10 112.79 6.2
-4 6 10 149.79 13.8
3 -6 -10 238.88 14.8
3 -6 -10 261.27 15.5
3 -6 -10 257.67 16.6
-3 6 10 248.98 15.8
-3 6 10 247.58 13.6
2 -6 -10 3.7 3.9
2 -6 -10 7.8 7
2 -6 -10 7.7 4
2 -6 -10 8.1 3.8
-2 6 10 5.9 3.3
-2 6 10 9.2 3.6
1 -6 -10 176.58 13.8
1 -6 -10 172.98 15.3
-1 6 10 182.88 14
-1 6 10 179.68 11.4
-1 6 10 186.58 12.1
0 -6 -10 131.69 13.2
0 -6 -10 143.69 12
0 6 10 99.89 11.6
0 6 10 132.89 10
0 6 10 136.79 11.9
0 6 10 140.59 9.7
-1 -6 -10 206.48 14.7
-1 -6 -10 236.38 17.6
1 6 10 238.38 13.3
1 6 10 232.58 16
1 6 10 223.88 14.6
1 6 10 195.48 17
1 6 10 218.18 11.3
1 6 10 211.68 13.2
-2 -6 -10 22 6.1
-2 -6 -10 41.9 8.3
2 6 10 39.6 5.2
2 6 10 39.6 8.5
2 6 10 36.2 7.1
2 6 10 27.5 5.8
2 6 10 32.1 4.1
2 6 10 30.4 5.6
-3 -6 -10 256.87 19.9
-3 -6 -10 265.57 19.3
3 6 10 289.77 20.6
3 6 10 259.57 13.4
3 6 10 280.57 17.9
3 6 10 270.17 17
3 6 10 247.28 12.5
-4 -6 -10 447.76 27.3
-4 -6 -10 409.36 23.1
-4 -6 -10 436.66 26.8
4 6 10 380.66 26.1
4 6 10 426.16 20
4 6 10 413.66 22.5
4 6 10 447.86 23.9
-5 -6 -10 38.4 8.9
-5 -6 -10 30.1 6
-5 -6 -10 44.7 9.3
5 6 10 42.8 8.5
5 6 10 26.5 5.3
5 6 10 34.9 4.4
-6 -6 -10 5.9 4.1
-6 -6 -10 1.6 4.4
-7 -6 -10 94.59 10.1
3 -7 -10 0.7 2.7
3 -7 -10 -1.2 2.7
3 -7 -10 1.5 2.8
-3 7 10 -1.2 2.2
2 -7 -10 156.28 11.8
2 -7 -10 154.78 12.1
-2 7 10 138.59 11.9
-2 7 10 156.58 8.3
-2 7 10 156.98 12.1
1 -7 -10 406.26 26.9
1 -7 -10 495.85 25.8
-1 7 10 475.85 23.1
-1 7 10 485.55 21.7
-1 7 10 509.85 26.5
0 -7 -10 35 8.9
0 -7 -10 33.2 5.9
0 7 10 40.9 7.2
0 7 10 37.8 4.4
0 7 10 42.5 6.2
0 7 10 30 4.7
-1 -7 -10 171.88 15.1
-1 -7 -10 167.38 12.8
-1 -7 -10 142.79 18.4
1 7 10 157.58 12.1
1 7 10 159.48 10.8
1 7 10 175.68 9.4
1 7 10 177.38 13.7
-2 -7 -10 88.59 11.2
-2 -7 -10 97.49 12.2
2 7 10 111.69 8.4
2 7 10 119.49 10.3
2 7 10 95.19 12.2
2 7 10 116.19 7.4
2 7 10 120.39 11.2
2 7 10 114.19 10.1
-3 -7 -10 190.58 15.9
-3 -7 -10 224.48 17.2
3 7 10 166.78 13.3
3 7 10 174.78 15.9
3 7 10 176.38 10.3
3 7 10 182.18 13.2
3 7 10 179.88 14.1
-4 -7 -10 -2.6 4.1
-4 -7 -10 0.8 5.2
4 7 10 -1.1 3.3
4 7 10 0.1 3.3
4 7 10 -1.5 3.1
4 7 10 1.6 2.2
4 7 10 0.2 4.5
-5 -7 -10 94.89 10.4
-5 -7 -10 93.29 11.7
-5 -7 -10 132.09 14.4
5 7 10 97.99 9
5 7 10 98.39 7.1
5 7 10 78.89 10.7
5 7 10 98.09 9.3
-6 -7 -10 184.48 14.1
-6 -7 -10 175.48 12.8
6 7 10 185.18 12.2
6 7 10 176.28 9.7
3 -8 -10 182.28 10.7
2 -8 -10 177.78 12
-2 8 10 177.18 12.4
1 -8 -10 19.1 4.9
-1 8 10 26.4 5.6
-1 8 10 28.1 4.4
0 -8 -10 403.06 22.3
0 -8 -10 379.96 23.7
0 8 10 421.76 20.5
0 8 10 395.76 18.2
0 8 10 404.16 21.5
0 8 10 407.66 23
-1 -8 -10 562.64 31.4
-1 -8 -10 580.44 32.9
-1 -8 -10 617.14 30.4
1 8 10 627.74 28.7
1 8 10 583.24 29.8
1 8 10 639.24 30.4
1 8 10 646.74 32
1 8 10 592.84 26.7
-2 -8 -10 12.8 6.6
-2 -8 -10 7.6 4.3
2 8 10 12.8 3.3
2 8 10 8.7 4
2 8 10 12.1 4.4
2 8 10 11 4.3
2 8 10 9.7 2.6
-3 -8 -10 221.08 17.5
-3 -8 -10 220.08 17
3 8 10 215.18 15.4
3 8 10 216.28 14.9
3 8 10 208.58 17.7
3 8 10 218.48 14.6
3 8 10 222.78 11.7
-4 -8 -10 43.1 8.2
-4 -8 -10 52.19 9.4
4 8 10 32.5 6.1
4 8 10 50.99 5.4
4 8 10 41.3 7
4 8 10 47.1 6.8
4 8 10 41 8.3
-5 -8 -10 90.59 11.2
-5 -8 -10 104.29 10.4
-5 -8 -10 120.79 12.9
5 8 10 86.29 8.5
5 8 10 98.39 8.8
5 8 10 74.69 10
5 8 10 95.69 6.7
5 8 10 98.59 8.9
-6 -8 -10 4.4 3.6
-6 -8 -10 2.9 3.5
6 8 10 7.7 2.2
6 8 10 5.7 3.1
2 -9 -10 3.6 2.8
-2 9 10 5.8 2.3
1 -9 -10 436.16 22
-1 9 10 397.26 21.6
-1 9 10 399.16 20.6
-1 9 10 410.66 19.5
0 -9 -10 120.59 13.7
0 -9 -10 144.09 11.4
0 9 10 168.08 11.1
0 9 10 152.98 10
0 9 10 152.08 11
0 9 10 162.48 12.1
0 9 10 154.98 8.2
-1 -9 -10 4.3 4.5
-1 -9 -10 4.5 5
1 9 10 7.4 3.6
1 9 10 6.9 2.9
1 9 10 2.1 1.9
1 9 10 7.2 3.6
1 9 10 5 3.3
1 9 10 4.8 3.4
-2 -9 -10 87.19 10.6
-2 -9 -10 68.79 10.1
2 9 10 79.99 6.8
2 9 10 83.09 9
2 9 10 79.69 5.8
2 9 10 65.29 7.8
2 9 10 63.79 7.9
-3 -9 -10 184.78 15.7
-3 -9 -10 211.08 15.7
3 9 10 197.58 10.8
3 9 10 209.58 13.7
3 9 10 192.28 12.6
3 9 10 200.98 14.1
3 9 10 205.38 13.7
-4 -9 -10 3.9 4
-4 -9 -10 8.2 5.3
4 9 10 7.3 3.9
4 9 10 0.8 3.2
4 9 10 10.2 2.6
4 9 10 11.4 3.8
-5 -9 -10 6 4.2
-5 -9 -10 5.2 3.6
5 9 10 3.7 3.2
5 9 10 7.4 2.2
5 9 10 5.6 3.1
5 9 10 9 3.6
-6 -9 -10 67.59 6.9
6 9 10 68.69 4.7
6 9 10 70.19 6.3
1 -10 -10 49.8 5.6
-1 10 10 64.59 4.8
-1 10 10 53.29 5.1
0 -10 -10 37.9 5.5
0 10 10 23.4 4.3
0 10 10 17.6 3.9
0 10 10 30.4 4.2
-1 -10 -10 208.88 15.7
1 10 10 210.78 13.3
1 10 10 242.58 11.1
1 10 10 195.38 13.5
1 10 10 218.18 12.1
1 10 10 215.08 13.2
1 10 10 229.68 13.4
-2 -10 -10 326.17 19.8
-2 -10 -10 324.67 20.3
2 10 10 330.87 15.1
2 10 10 325.57 18
2 10 10 322.27 17.8
2 10 10 300.07 15.9
2 10 10 292.87 17.9
-3 -10 -10 5.3 4.3
-3 -10 -10 3 4.3
3 10 10 3.2 3.1
3 10 10 4 1.9
3 10 10 5.5 3
3 10 10 -0.2 2.6
3 10 10 1.8 2.7
-4 -10 -10 54.09 8
-4 -10 -10 52.09 7.4
4 10 10 56.39 6.8
4 10 10 56.19 4.5
4 10 10 45.7 4.9
4 10 10 36.5 5.2
4 10 10 47.6 6
-5 -10 -10 167.88 10.8
-5 -10 -10 165.88 11.9
5 10 10 185.78 8.9
5 10 10 166.68 10.3
5 10 10 154.88 10.9
5 10 10 166.78 10.5
5 10 10 166.98 9.4
0 11 10 207.78 10.4
1 11 10 150.38 7.5
1 11 10 146.39 8.5
-2 -11 -10 34.5 6
2 11 10 39.9 7.5
2 11 10 27.9 3.6
2 11 10 28.6 4.5
2 11 10 32.3 3.2
-3 -11 -10 172.08 12.4
3 11 10 184.18 9.9
3 11 10 174.88 11.1
3 11 10 187.88 9.2
3 11 10 184.28 10.7
3 11 10 192.78 14.4
-4 -11 -10 223.78 13.7
4 11 10 212.78 11.1
4 11 10 255.37 14.3
4 11 10 213.08 10.5
4 11 10 217.28 12.3
1 4 -11 180.48 10.7
0 4 -11 7.5 2.9
0 4 -11 7.8 2.8
3 3 -11 191.18 13.1
2 3 -11 40 7.5
2 3 -11 34.9 4.8
2 3 -11 43.4 6.1
2 3 -11 44.2 5.6
1 3 -11 8.8 4.6
1 3 -11 10.6 3.7
1 3 -11 7.4 3.8
0 3 -11 10.3 3.9
0 3 -11 16 4.1
-1 3 -11 124.89 9.7
-1 3 -11 138.29 9.2
-2 3 -11 2.5 2.6
3 2 -11 10.4 4.3
3 2 -11 17.2 3.9
3 2 -11 12 4.9
2 2 -11 7.5 4.1
2 2 -11 7 4.8
2 2 -11 13.4 4.1
1 2 -11 107.29 10.4
1 2 -11 86.09 9.9
1 2 -11 95.39 11.4
0 2 -11 227.88 15.5
0 2 -11 227.48 14.7
-1 2 -11 2.9 3
-1 2 -11 0.3 4.9
-1 2 -11 3.2 3.6
-2 2 -11 75.89 8.1
-2 2 -11 64.19 8.7
-3 2 -11 34 5.4
-3 2 -11 43.6 5
3 1 -11 21.7 5.2
3 1 -11 19.8 4.3
3 1 -11 23.9 6.2
2 1 -11 225.78 14.6
2 1 -11 199.78 13
2 1 -11 207.08 16.2
-2 -1 11 202.48 16
1 1 -11 49.5 8.3
1 1 -11 45.6 6.7
1 1 -11 57.29 8.5
1 1 -11 52.69 7.4
-1 -1 11 33.7 7.3
0 1 -11 3.9 3.9
0 1 -11 4.3 3.5
-1 1 -11 92.19 9.2
-1 1 -11 83.69 11.3
-1 1 -11 76.99 8.8
-2 1 -11 151.68 13.6
-2 1 -11 125.59 11.2
-3 1 -11 -0.5 3.5
-3 1 -11 0.7 4.1
-3 1 -11 -1.7 3.1
-4 1 -11 77.79 7.7
4 0 -11 109.29 10.3
3 0 -11 98.59 10
3 0 -11 89.39 8
3 0 -11 92.09 11.1
-3 0 11 84.79 11.4
2 0 -11 18.4 6.2
2 0 -11 15.8 4.9
2 0 -11 11.3 4.2
-2 0 11 3.6 4.6
1 0 -11 62.69 7.7
1 0 -11 59.89 8.1
1 0 -11 55.49 9.1
1 0 -11 59.19 8.6
-1 0 11 50.19 8.7
0 0 -11 111.59 13.9
0 0 -11 141.29 13.4
0 0 -11 123.19 11.9
0 0 11 130.29 13.5
-1 0 -11 8.6 4.5
-1 0 -11 6.7 4.1
-1 0 -11 8.9 6.1
1 0 11 6.6 5.3
-2 0 -11 109.99 11.3
-2 0 -11 87.49 15.1
-2 0 -11 73.99 10.7
-3 0 -11 32.9 6.2
-3 0 -11 34.6 7.7
-3 0 -11 22 6
-4 0 -11 154.98 12.5
-4 0 -11 142.79 11.9
4 0 11 169.28 11.5
-5 0 -11 -1 3.4
4 -1 -11 112.49 10.7
3 -1 -11 67.49 8.4
3 -1 -11 65.09 9.6
-3 1 11 69.89 10.6
2 -1 -11 91.49 10.2
2 -1 -11 95.49 11.6
2 -1 -11 110.39 9.3
-2 1 11 103.29 13.4
1 -1 -11 131.69 11.6
1 -1 -11 103.99 11.3
1 -1 -11 112.99 14.2
1 -1 -11 121.69 12.1
1 -1 -11 133.29 10.6
-1 1 11 133.89 14
0 -1 -11 53.99 8.3
0 -1 -11 32.3 8
0 -1 -11 40.3 6.7
0 1 11 48.6 9.7
-1 -1 -11 10.2 4.3
-1 -1 -11 7.9 3.1
-1 -1 -11 5.8 4.7
-1 -1 -11 5 6.3
1 1 11 4.6 5.1
-2 -1 -11 182.78 15.9
-2 -1 -11 204.08 12.3
-2 -1 -11 202.58 17
-2 -1 -11 192.68 14.5
2 1 11 210.68 17.3
-3 -1 -11 73.49 10.5
-3 -1 -11 66.39 7.2
-3 -1 -11 49.4 7.5
-3 -1 -11 60.29 10.3
-4 -1 -11 2.4 4
-4 -1 -11 1.7 2.5
-4 -1 -11 -0.8 4.3
4 1 11 0.5 3.5
-5 -1 -11 40.9 6.6
5 1 11 51.19 5.5
4 -2 -11 108.49 10
-4 2 11 93.19 7.9
3 -2 -11 180.28 12.9
3 -2 -11 173.48 14
-3 2 11 152.48 14.8
-3 2 11 159.88 11.8
2 -2 -11 120.39 11.5
2 -2 -11 97.99 17.1
2 -2 -11 128.79 12.3
-2 2 11 96.39 12.8
1 -2 -11 17.4 6.8
1 -2 -11 29.7 5.9
1 -2 -11 14.4 5
1 -2 -11 27.7 6.8
1 -2 -11 28.5 4.7
-1 2 11 22.9 7.2
0 -2 -11 309.67 17.2
0 -2 -11 279.17 20.9
0 -2 -11 292.17 18.4
0 -2 -11 290.87 19.2
0 2 11 308.77 21.9
-1 -2 -11 245.78 16.4
-1 -2 -11 250.37 17.4
-1 -2 -11 261.27 19.4
-1 -2 -11 261.77 15.9
1 2 11 241.38 19.5
-2 -2 -11 64.89 10.1
-2 -2 -11 83.59 10.4
-2 -2 -11 55.39 9.7
-2 -2 -11 73.49 9
2 2 11 46.5 8.5
-3 -2 -11 61.69 10.4
-3 -2 -11 85.99 12.3
-3 -2 -11 81.09 9.4
-3 -2 -11 60.39 8.2
3 2 11 77.89 10.3
3 2 11 44.5 8.6
-4 -2 -11 72.49 10.1
-4 -2 -11 90.69 9
-4 -2 -11 75.39 10.1
4 2 11 93.99 9.6
-5 -2 -11 29.4 6.4
-5 -2 -11 24.6 4.8
-5 -2 -11 26.6 6.1
5 2 11 26.6 3.9
4 -3 -11 53.29 6.8
-4 3 11 60.69 6.8
3 -3 -11 4.4 3.8
3 -3 -11 3.6 4
-3 3 11 3.3 3.5
2 -3 -11 13.7 4.7
2 -3 -11 32.9 6.6
2 -3 -11 17.9 9.7
2 -3 -11 32.2 4.9
-2 3 11 39.7 8.7
-2 3 11 27.4 5.7
1 -3 -11 361.76 21
1 -3 -11 341.77 21.6
1 -3 -11 357.56 19.6
1 -3 -11 335.17 23.3
-1 3 11 331.77 23.6
0 -3 -11 134.29 10.9
0 -3 -11 121.09 11.7
0 -3 -11 103.59 11.2
0 -3 -11 86.49 11.4
0 3 11 89.29 12.6
-1 -3 -11 20.7 6.9
-1 -3 -11 30.7 6.8
-1 -3 -11 21.3 5.5
-1 -3 -11 13.8 5.4
1 3 11 15.7 6
-2 -3 -11 311.97 19.9
-2 -3 -11 346.77 20.4
-2 -3 -11 330.97 22.3
-2 -3 -11 315.37 21.7
2 3 11 302.37 19.5
2 3 11 311.57 22.5
-3 -3 -11 50.99 8.9
-3 -3 -11 66.09 10.7
-3 -3 -11 59.09 8.5
-3 -3 -11 42 7.5
3 3 11 47.1 9
3 3 11 67.39 9.4
-4 -3 -11 14.3 5.1
-4 -3 -11 17.3 6.6
-4 -3 -11 7.1 5.3
4 3 11 17.3 4.7
4 3 11 19.5 6.2
-5 -3 -11 11.7 5.6
-5 -3 -11 22.2 5.8
-5 -3 -11 11.8 4.8
5 3 11 13 2.8
-6 -3 -11 48.7 6.2
-6 -3 -11 58.79 7.5
4 -4 -11 7.7 3.5
-4 4 11 4.4 2.7
-4 4 11 5.3 2.6
3 -4 -11 224.98 14
3 -4 -11 215.58 15.1
3 -4 -11 199.38 10.8
-3 4 11 210.28 13.3
-3 4 11 219.88 14.6
2 -4 -11 255.27 17.3
2 -4 -11 287.47 17.3
2 -4 -11 278.77 15.7
-2 4 11 247.18 16.9
1 -4 -11 9.9 4.5
1 -4 -11 9.3 4.4
1 -4 -11 10.6 5.1
1 -4 -11 4 4.8
-1 4 11 9.4 3.7
-1 4 11 8.6 4.3
-1 4 11 4.4 5.3
0 -4 -11 128.99 13.6
0 -4 -11 155.58 12.2
0 -4 -11 148.99 13
0 -4 -11 155.08 12.7
0 4 11 150.08 17.1
0 4 11 140.89 14.7
0 4 11 151.58 12.4
-1 -4 -11 419.06 24
-1 -4 -11 389.16 22.4
-1 -4 -11 416.36 24.2
-1 -4 -11 361.86 24.8
1 4 11 430.26 26.9
1 4 11 414.56 22.9
-2 -4 -11 135.69 13.2
-2 -4 -11 145.09 13.8
-2 -4 -11 90.19 11.8
2 4 11 100.99 13
2 4 11 133.79 11.4
-3 -4 -11 5.8 5.7
-3 -4 -11 6.9 4.5
-3 -4 -11 -3.9 3.9
3 4 11 7.3 4.2
3 4 11 3.3 4.4
-4 -4 -11 260.87 19.1
-4 -4 -11 263.17 19.3
4 4 11 234.08 18.6
4 4 11 241.18 14
-5 -4 -11 47.3 8.5
-5 -4 -11 51.89 8.7
-5 -4 -11 42.4 7.3
5 4 11 28.1 7.2
-6 -4 -11 2.6 3.6
-6 -4 -11 3.3 3.8
3 -5 -11 121.89 8.1
3 -5 -11 132.49 11
3 -5 -11 140.89 10.2
-3 5 11 137.29 10.5
-3 5 11 121.09 9.2
2 -5 -11 40.9 6.9
2 -5 -11 41.5 6.5
2 -5 -11 43.1 6.5
-2 5 11 39 6.2
-2 5 11 47.7 6.6
1 -5 -11 433.66 26.4
1 -5 -11 437.96 23.9
1 -5 -11 444.76 24.7
1 -5 -11 438.56 24
-1 5 11 442.76 24.5
-1 5 11 435.66 23.1
0 -5 -11 140.29 12.1
0 -5 -11 119.49 10.7
0 -5 -11 91.79 14
0 -5 -11 141.59 13.5
0 5 11 112.39 10.7
0 5 11 122.79 14.7
0 5 11 126.09 10.5
-1 -5 -11 4.4 3.8
-1 -5 -11 3.8 4.3
-1 -5 -11 -0.2 5
1 5 11 1.8 3.6
1 5 11 6.6 5.1
1 5 11 3 3.5
-2 -5 -11 114.89 12.9
-2 -5 -11 122.59 13.9
-2 -5 -11 118.99 11.9
2 5 11 111.89 9.6
2 5 11 99.29 13.4
2 5 11 100.39 9.9
-3 -5 -11 350.26 22.5
-3 -5 -11 346.47 23.1
-3 -5 -11 315.57 20.2
3 5 11 329.77 17.5
3 5 11 305.77 22.7
-4 -5 -11 43.2 8.8
-4 -5 -11 39.3 8.3
4 5 11 43 4
4 5 11 43.6 8.9
-5 -5 -11 31 7.5
-5 -5 -11 16.2 6.4
5 5 11 13.4 5.4
-6 -5 -11 100.99 9.7
-6 -5 -11 83.49 8.7
3 -6 -11 83.09 6.4
3 -6 -11 70.29 7.6
3 -6 -11 79.99 7.7
-3 6 11 72.29 7.8
-3 6 11 87.59 5.9
2 -6 -11 243.08 15.2
2 -6 -11 250.57 15.2
2 -6 -11 218.78 15.2
-2 6 11 258.17 13.8
-2 6 11 263.97 16.1
1 -6 -11 21.7 5.4
1 -6 -11 13.5 4.7
1 -6 -11 15 4.6
-1 6 11 13.7 3.9
-1 6 11 23 5.6
0 -6 -11 1.5 3.9
0 -6 -11 -1.6 3.7
0 6 11 4.1 3.7
0 6 11 0.5 2.7
-1 -6 -11 201.08 13.6
-1 -6 -11 191.98 14.5
-1 -6 -11 175.58 15.4
1 6 11 187.38 11.7
1 6 11 191.18 14
1 6 11 165.78 15.8
-2 -6 -11 321.27 21.1
-2 -6 -11 363.36 21.1
-2 -6 -11 375.46 23.1
2 6 11 317.27 22.7
2 6 11 351.76 19.4
2 6 11 319.97 20
2 6 11 332.67 17.1
-3 -6 -11 36.9 8.4
-3 -6 -11 47.4 7.8
-3 -6 -11 39.3 8.1
3 6 11 27.4 7.1
3 6 11 42.1 7
-4 -6 -11 47.1 8.4
-4 -6 -11 56.19 9.4
4 6 11 36.1 7.9
-5 -6 -11 163.28 13.9
-5 -6 -11 128.09 11.9
-5 -6 -11 154.18 13.7
5 6 11 138.59 10.2
5 6 11 130.89 12.4
-6 -6 -11 12.8 4.6
3 -7 -11 141.59 9.9
3 -7 -11 119.69 8.2
2 -7 -11 6.8 3.7
2 -7 -11 3.3 3.2
-2 7 11 9.6 3.5
1 -7 -11 74.79 8.6
1 -7 -11 67.79 8.2
-1 7 11 60.69 5.1
-1 7 11 65.69 8.4
0 -7 -11 604.04 30.1
0 7 11 609.34 31.3
0 7 11 600.24 25.9
-1 -7 -11 59.79 7.7
-1 -7 -11 57.09 9.6
1 7 11 47.8 7
-2 -7 -11 38.6 6.7
-2 -7 -11 45.3 8.2
-2 -7 -11 34.6 7.8
2 7 11 44.5 8.8
2 7 11 45.8 6.8
2 7 11 32.7 6.4
-3 -7 -11 98.79 10.4
-3 -7 -11 105.49 12.2
-3 -7 -11 77.69 10.7
3 7 11 83.59 6.7
3 7 11 65.69 9.7
3 7 11 95.69 9
3 7 11 87.99 9.7
-4 -7 -11 252.57 18.1
-4 -7 -11 239.88 17.6
4 7 11 245.18 15.3
4 7 11 216.98 17.1
-5 -7 -11 40.5 7.7
-5 -7 -11 33.1 6
-5 -7 -11 30.7 7.1
5 7 11 32.2 5
-6 -7 -11 13.5 4.3
-6 -7 -11 14.3 4
6 7 11 13.5 3.4
2 -8 -11 302.27 16.1
2 -8 -11 292.47 15.7
-2 8 11 286.67 17.6
1 -8 -11 213.68 13.7
-1 8 11 234.08 14.3
0 -8 -11 24.5 5
0 8 11 31.2 4.5
0 8 11 13.8 4.1
-1 -8 -11 106.79 11.6
1 8 11 106.29 8.1
1 8 11 116.59 9.3
1 8 11 115.89 10.5
-2 -8 -11 449.46 26.2
-2 -8 -11 480.95 27.4
2 8 11 489.05 24.8
2 8 11 488.05 21.5
2 8 11 522.95 26.6
-3 -8 -11 54.59 8.6
-3 -8 -11 67.49 9.5
-3 -8 -11 83.19 9
3 8 11 69.59 8.3
3 8 11 62.89 5.1
3 8 11 64.99 7.8
3 8 11 54.69 8.4
-4 -8 -11 -1.9 4.5
-4 -8 -11 0.4 3.9
4 8 11 3.6 3.4
4 8 11 -1 4
4 8 11 0.2 2.9
4 8 11 1.9 1.8
-5 -8 -11 39.5 5.8
-5 -8 -11 31.7 7
-5 -8 -11 41.3 6.8
1 -9 -11 6.9 3.2
-1 9 11 6.7 4.1
0 -9 -11 188.68 12.3
0 9 11 189.08 12.7
0 9 11 195.38 10.9
-1 -9 -11 186.68 14.3
1 9 11 190.98 11
1 9 11 187.68 13
1 9 11 185.48 11.9
-2 -9 -11 76.89 9.8
-2 -9 -11 107.19 10.2
2 9 11 107.79 8.8
2 9 11 96.59 9.3
2 9 11 115.49 9.1
2 9 11 107.59 6.3
-3 -9 -11 8.6 4.9
-3 -9 -11 5.6 4.1
3 9 11 6.2 3.6
3 9 11 3.3 3.2
3 9 11 10.5 2.4
-4 -9 -11 623.94 31.4
-4 -9 -11 608.04 31.4
4 9 11 630.64 29.2
4 9 11 645.34 26.6
4 9 11 610.64 28.9
4 9 11 569.34 29.3
-5 -9 -11 97.79 7.6
-5 -9 -11 99.69 9.1
5 9 11 99.29 7.1
5 9 11 93.79 5.6
0 -10 -11 146.19 9.4
0 10 11 147.29 8.4
1 10 11 5.4 2.3
1 10 11 4.2 2.7
-2 -10 -11 159.28 11.7
-2 -10 -11 169.08 12.6
2 10 11 167.58 8.2
2 10 11 163.38 11.1
2 10 11 156.28 10.1
2 10 11 163.18 10.4
-3 -10 -11 400.86 21.7
-3 -10 -11 390.66 21.3
3 10 11 392.66 19.6
3 10 11 394.96 17.2
3 10 11 353.66 19.5
-4 -10 -11 24.5 4.9
-4 -10 -11 19.9 5.6
4 10 11 14.6 5.4
4 10 11 20.6 2.5
2 2 -12 70.79 8
1 2 -12 -0.9 2.5
1 2 -12 2.4 3.2
0 2 -12 96.49 8.1
0 2 -12 89.19 7.5
-1 2 -12 68.49 7
-1 2 -12 63.99 6.5
-2 2 -12 5.5 2.7
2 1 -12 36.3 7.1
2 1 -12 16 4.2
1 1 -12 142.79 11.5
1 1 -12 121.09 10.6
1 1 -12 136.99 10.4
0 1 -12 7 3.4
0 1 -12 3.7 3.7
-1 1 -12 0.3 2.9
-1 1 -12 0.6 3.2
-2 1 -12 100.79 8.6
3 0 -12 67.29 6.8
2 0 -12 82.29 9.3
2 0 -12 60.29 7.2
1 0 -12 6 3.3
1 0 -12 11.3 4.5
1 0 -12 9.6 4.5
-1 0 12 3.4 4.9
0 0 -12 25.3 5.8
0 0 -12 45.9 6.5
0 0 12 23.3 6.1
-1 0 -12 149.29 11.8
-1 0 -12 136.69 10.7
-2 0 -12 29.2 6.8
-2 0 -12 29.5 5.6
-3 0 -12 11.5 4.8
-3 0 -12 12 4.4
-3 0 -12 10.6 3.7
3 -1 -12 67.89 8.3
3 -1 -12 57.99 7
2 -1 -12 8.4 4.4
2 -1 -12 11.2 4.2
-2 1 12 10.3 7.1
1 -1 -12 112.89 11.6
1 -1 -12 130.39 10.6
-1 1 12 120.39 12.2
0 -1 -12 190.38 13.4
0 -1 -12 195.58 14.3
0 1 12 192.78 15.9
-1 -1 -12 33.2 6.3
-1 -1 -12 57.09 9.5
-1 -1 -12 41.8 6.6
1 1 12 51.59 9
-2 -1 -12 338.87 19.2
-2 -1 -12 297.97 20.5
-3 -1 -12 136.09 12.9
-3 -1 -12 159.98 12.8
-3 -1 -12 177.68 12
3 1 12 167.18 12.2
-4 -1 -12 5.7 3.7
4 1 12 6.3 3.1
3 -2 -12 51.39 6.4
3 -2 -12 42.4 6.3
2 -2 -12 136.09 11.8
2 -2 -12 140.79 11.2
-2 2 12 140.99 13.6
1 -2 -12 100.49 11
1 -2 -12 117.19 10.3
-1 2 12 108.79 13.1
0 -2 -12 0.6 3.3
0 -2 -12 -0.5 3.5
0 2 12 -0.5 4.3
-1 -2 -12 354.16 19.9
-1 -2 -12 328.57 22.6
-1 -2 -12 372.96 21.4
-1 -2 -12 349.17 17.4
1 2 12 369.16 23.5
-2 -2 -12 70.09 6.6
-2 -2 -12 61.69 9.4
-2 -2 -12 70.89 8.6
2 2 12 45.8 8.4
-3 -2 -12 8.3 4.2
-3 -2 -12 8.7 4.7
-3 -2 -12 3.5 5.2
-3 -2 -12 6.2 2.9
3 2 12 10.3 4.2
-4 -2 -12 103.59 10
-4 -2 -12 103.09 11.2
-4 -2 -12 100.39 6.6
4 2 12 122.19 8.7
3 -3 -12 58.89 6.8
3 -3 -12 67.49 7.8
-3 3 12 43.7 6.3
2 -3 -12 16.3 5
2 -3 -12 8.4 3.9
-2 3 12 20.2 6.2
1 -3 -12 4 2.2
1 -3 -12 3.1 3.8
1 -3 -12 3.3 3.8
-1 3 12 4.7 5.1
0 -3 -12 366.66 18.6
0 -3 -12 332.07 20.5
0 -3 -12 348.37 19.8
0 3 12 326.47 23.1
-1 -3 -12 40.6 6.8
-1 -3 -12 54.99 7.6
-1 -3 -12 43.9 6.4
-1 -3 -12 43.9 8.7
1 3 12 34.2 7.5
1 3 12 63.19 8.7
-2 -3 -12 3.9 3.3
-2 -3 -12 -0.5 3.7
-2 -3 -12 -0.4 5
2 3 12 -1.5 4
2 3 12 5 4
-3 -3 -12 163.38 12.4
-3 -3 -12 152.18 14.3
-3 -3 -12 165.98 13.8
-3 -3 -12 158.88 12
3 3 12 172.78 12.1
3 3 12 160.78 14.6
-4 -3 -12 102.99 11.4
-4 -3 -12 81.09 9.8
-4 -3 -12 94.99 8.4
4 3 12 82.09 7.3
-5 -3 -12 18.3 4.6
3 -4 -12 -1.4 3.7
3 -4 -12 -2 2.8
-3 4 12 -0.1 3
-3 4 12 1.8 2.6
2 -4 -12 155.68 11.9
2 -4 -12 171.38 11.9
-2 4 12 173.28 11.7
-2 4 12 174.48 11.6
1 -4 -12 177.78 13
1 -4 -12 181.48 11.6
1 -4 -12 175.38 13.3
-1 4 12 186.38 16.2
-1 4 12 178.88 12.9
-1 4 12 216.98 16.1
0 -4 -12 11.4 4.2
0 -4 -12 9.7 4.6
0 -4 -12 9.8 4.4
0 4 12 8.3 5.3
0 4 12 11.2 4.2
-1 -4 -12 1.5 3.8
-1 -4 -12 -1.1 3.5
-1 -4 -12 6.7 3.9
-1 -4 -12 4.7 5.8
1 4 12 2 3.8
1 4 12 3.7 4.7
-2 -4 -12 174.68 15.4
-2 -4 -12 187.88 13.8
-2 -4 -12 171.48 13.6
2 4 12 162.78 15.3
2 4 12 176.58 12.6
-3 -4 -12 112.09 10.6
-3 -4 -12 82.29 10.9
-3 -4 -12 123.99 10.8
-3 -4 -12 77.99 10.2
3 4 12 112.89 13.7
3 4 12 112.59 9
-4 -4 -12 0.2 3.8
-4 -4 -12 0.5 4.2
-4 -4 -12 1 3.8
4 4 12 0.1 2.2
4 4 12 6.5 7.5
-5 -4 -12 89.29 10.1
-5 -4 -12 80.89 8.1
3 -5 -12 90.09 7.1
-3 5 12 96.09 6.5
2 -5 -12 60.49 5.5
2 -5 -12 70.19 7.5
-2 5 12 61.69 7.3
-2 5 12 75.49 7.4
1 -5 -12 1.8 3.1
1 -5 -12 2.9 3.4
1 -5 -12 4 3
-1 5 12 2.4 2.9
-1 5 12 2 3.1
0 -5 -12 150.68 12.3
0 -5 -12 137.19 11
0 -5 -12 144.89 11.6
0 5 12 139.99 11.1
0 5 12 128.19 13.8
0 5 12 140.99 10.6
-1 -5 -12 149.59 14.3
-1 -5 -12 166.28 13.1
-1 -5 -12 176.48 13.2
-1 -5 -12 157.28 12
1 5 12 163.88 11.4
1 5 12 151.88 14.7
-2 -5 -12 76.09 9.5
-2 -5 -12 93.69 10.5
-2 -5 -12 91.49 16.8
-2 -5 -12 88.29 11.6
2 5 12 89.69 12.3
2 5 12 84.79 8
-3 -5 -12 20.6 6.6
-3 -5 -12 10.5 4.4
-3 -5 -12 12.3 4.9
-3 -5 -12 9.8 4.6
3 5 12 14.5 3.2
3 5 12 19.6 6.1
-4 -5 -12 139.79 12.6
-4 -5 -12 131.99 12.5
-4 -5 -12 125.89 11.8
4 5 12 109.89 11.3
-5 -5 -12 74.49 9.2
-5 -5 -12 76.79 8.8
2 -6 -12 6.3 2.6
2 -6 -12 0.8 2.6
-2 6 12 3.8 2.1
1 -6 -12 155.18 11.1
1 -6 -12 165.78 11.9
1 -6 -12 168.58 11.6
-1 6 12 169.48 10
-1 6 12 160.38 12
0 -6 -12 160.18 12.1
0 -6 -12 159.18 11.5
0 -6 -12 157.28 12.1
0 6 12 152.68 10
0 6 12 156.58 11.8
-1 -6 -12 69.79 7.8
-1 -6 -12 67.69 9.5
-1 -6 -12 50.49 7.3
-1 -6 -12 34.3 8.5
1 6 12 51.59 8.7
1 6 12 60.09 7.7
1 6 12 55.09 5.6
-2 -6 -12 118.49 11.1
-2 -6 -12 125.39 11
-2 -6 -12 93.39 11.3
2 6 12 116.19 7.1
2 6 12 127.89 13.1
-3 -6 -12 215.18 14
-3 -6 -12 190.78 15.7
-3 -6 -12 195.18 15.1
3 6 12 189.28 15.8
-4 -6 -12 32.2 7.2
-4 -6 -12 39.3 7.2
4 6 12 28.8 6.6
-5 -6 -12 2.2 3.6
2 -7 -12 188.98 11
2 -7 -12 183.78 10.4
1 -7 -12 30.3 5.1
1 -7 -12 23.3 4.5
1 -7 -12 33.6 5.5
-1 7 12 31 5.3
0 -7 -12 78.29 8.6
0 -7 -12 55.19 7.6
0 -7 -12 53.89 6.7
0 7 12 56.39 7.3
-1 -7 -12 398.06 22.6
-1 -7 -12 372.86 21.2
1 7 12 376.36 21.2
-2 -7 -12 32.4 5.9
-2 -7 -12 44.4 8.2
-2 -7 -12 41.3 6.9
2 7 12 42.4 5.9
2 7 12 38.6 5.9
2 7 12 50.09 8.8
-3 -7 -12 -4 4
-3 -7 -12 3.2 3.4
-3 -7 -12 2.2 3.8
3 7 12 2.6 4.2
-4 -7 -12 24.3 6
-4 -7 -12 19.1 5.3
-5 -7 -12 139.09 11
1 -8 -12 102.29 9.6
1 -8 -12 105.59 8.3
1 -8 -12 124.59 8.6
-1 8 12 109.09 8.8
0 -8 -12 193.08 12.7
0 -8 -12 202.18 12.3
0 8 12 213.28 13.3
-1 -8 -12 66.49 7.8
-1 -8 -12 70.09 9.1
1 8 12 75.29 8
-2 -8 -12 55.89 7.2
-2 -8 -12 35.4 7
-2 -8 -12 33.7 6
2 8 12 46.9 5.7
2 8 12 56.19 7
-3 -8 -12 278.17 18
-3 -8 -12 267.27 16.9
-3 -8 -12 266.67 15.4
3 8 12 268.17 15.5
3 8 12 269.37 15.2
-4 -8 -12 22.6 5.3
-4 -8 -12 10.1 4.2
-5 -8 -12 1.6 3
0 -9 -12 8.9 3.2
0 -9 -12 14.5 3.1
-1 -9 -12 92.49 7.9
1 9 12 85.09 7.7
-2 -9 -12 281.47 16.6
-2 -9 -12 287.57 17.6
-2 -9 -12 287.47 16.2
2 9 12 292.87 15.2
2 9 12 311.17 16.6
-3 -9 -12 87.29 8.6
-3 -9 -12 88.99 9.8
3 9 12 92.19 7.2
3 9 12 86.59 7.4
-4 -9 -12 93.09 8.4
-1 -10 -12 223.28 12.3
-2 -10 -12 4.6 2.7
1 0 -13 27.5 5.4
1 0 -13 36.4 5
0 0 -13 43.9 5.1
0 0 -13 46.5 5.9
-1 0 -13 -1.6 3.8
-1 0 -13 2.6 2.9
-2 0 -13 27.5 4.3
2 -1 -13 106.89 7.7
1 -1 -13 -0.8 2.5
1 -1 -13 1.4 3.7
0 -1 -13 105.89 8.4
0 -1 -13 105.09 10
-1 -1 -13 48.3 6.1
-1 -1 -13 52.09 5.9
-2 -1 -13 29.4 5.2
2 -2 -13 0.9 2.6
1 -2 -13 154.28 10.9
1 -2 -13 160.38 10.8
0 -2 -13 55.59 6.5
0 -2 -13 72.69 8.1
-1 -2 -13 0.3 3.1
-1 -2 -13 1.9 2.7
1 2 13 3 4
-2 -2 -13 17.4 4.4
-2 -2 -13 19.2 5.4
2 2 13 27.1 5.2
-3 -2 -13 10.3 3.4
-3 -2 -13 6.2 6.3
2 -3 -13 202.48 11.9
1 -3 -13 28.2 4.7
1 -3 -13 26.7 5
-1 3 13 38.4 5.7
0 -3 -13 0.5 3.2
0 -3 -13 4.2 3.1
0 3 13 2.4 3.4
-1 -3 -13 158.08 12.2
-1 -3 -13 166.58 11.1
1 3 13 213.28 24.7
1 3 13 160.28 11.7
-2 -3 -13 106.69 11.3
-2 -3 -13 108.59 9.6
-2 -3 -13 94.19 6.2
2 3 13 102.59 8.9
-3 -3 -13 14.7 5.3
-3 -3 -13 28.8 5.6
-3 -3 -13 19 4.4
-3 -3 -13 22.9 3
3 3 13 24.9 4.1
-4 -3 -13 7.5 4.6
2 -4 -13 0.5 2.3
-2 4 13 0.7 2.4
1 -4 -13 115.59 8.9
1 -4 -13 109.39 8.6
-1 4 13 99.79 8.4
0 -4 -13 81.09 5.9
0 -4 -13 70.39 7.9
0 -4 -13 86.39 8.1
0 4 13 84.49 8.1
-1 -4 -13 57.19 6.5
-1 -4 -13 42.5 6.3
-1 -4 -13 49.5 5.9
1 4 13 56.19 6.6
1 4 13 48.1 8.8
-2 -4 -13 -1.2 3.4
-2 -4 -13 -1.2 4.4
-2 -4 -13 -0.9 2.9
2 4 13 5.1 3.1
-3 -4 -13 128.89 11.5
-3 -4 -13 117.49 8.8
-3 -4 -13 98.69 9.8
-3 -4 -13 125.59 9.5
3 4 13 106.79 7.3
-4 -4 -13 107.79 9.2
-4 -4 -13 112.89 7.6
2 -5 -13 75.89 6
1 -5 -13 182.58 10.7
1 -5 -13 147.89 10.4
1 -5 -13 137.89 7.7
-1 5 13 166.38 9.7
0 -5 -13 26.8 5.2
0 -5 -13 27.6 4.4
0 5 13 27.8 4.3
-1 -5 -13 186.48 12.6
-1 -5 -13 165.68 11.5
1 5 13 172.08 10.5
-2 -5 -13 140.19 10.3
-2 -5 -13 133.49 10.8
-2 -5 -13 131.39 12.1
2 5 13 134.79 8.4
-3 -5 -13 69.99 7.8
-3 -5 -13 75.89 9.5
-3 -5 -13 72.49 8
-3 -5 -13 57.09 8
-4 -5 -13 2.1 3.1
-4 -5 -13 -0.3 3
1 -6 -13 -0.5 2.4
1 -6 -13 7.6 2.9
1 -6 -13 1.5 2
0 -6 -13 192.98 12
0 -6 -13 202.08 12.3
0 -6 -13 201.58 12.9
0 6 13 219.48 10
0 6 13 194.48 12.3
-1 -6 -13 200.88 13.2
-1 -6 -13 220.18 13.7
-2 -6 -13 -0.5 3.9
-2 -6 -13 0.3 3
-2 -6 -13 0.8 3.5
-3 -6 -13 107.89 8.5
-3 -6 -13 83.69 9.7
-3 -6 -13 104.69 9.2
-3 -6 -13 87.69 8.7
-4 -6 -13 87.89 8.5
1 -7 -13 149.79 10.2
1 -7 -13 164.98 9.6
0 -7 -13 46.3 5.4
0 -7 -13 39.6 4.9
0 -7 -13 35 5
0 7 13 40.1 6.3
-1 -7 -13 34.1 5.3
-1 -7 -13 42.4 6
1 7 13 30.1 4.8
-2 -7 -13 90.69 8.6
-2 -7 -13 79.29 9.2
-2 -7 -13 78.39 7.9
-3 -7 -13 67.49 8.4
-3 -7 -13 82.19 7
-3 -7 -13 64.69 7.9
-4 -7 -13 12.6 4
0 -8 -13 109.59 7.7
-1 -8 -13 130.19 9.1
-2 -8 -13 148.79 9.9
-3 -8 -13 15.1 5.2
-1 -9 -13 20.7 5.3
-1 -2 -14 68.89 6.1
0 -3 -14 20.4 3.6
-1 -3 -14 1 2.5
-2 -3 -14 53.49 5.6
0 -4 -14 20.3 4.8
0 -4 -14 17.8 3.6
-1 -4 -14 34.1 4.9
1 4 14 35.9 5.7
-2 -4 -14 100.09 7.5
0 -5 -14 116.19 8
-1 -5 -14 18.7 3.8
-2 -5 -14 38.4 4.6
0 -6 -14 2.2 3
-1 -6 -14 50.49 5.3
-2 -6 -14 83.09 6.6
-1 -7 -14 65.49 8.4
