#------------------------------------------------------------------------------
#$Date: 2022-08-27 01:16:45 +0300 (Sat, 27 Aug 2022) $
#$Revision: 277411 $
#$URL: file:///home/coder/svn-repositories/cod/cif/7/13/06/7130605.cif $
#------------------------------------------------------------------------------
#
# This file is available in the Crystallography Open Database (COD),
# http://www.crystallography.net/
#
# All data on this site have been placed in the public domain by the
# contributors.
#
data_7130605
loop_
_publ_author_name
'Liu, Chang-Hong'
'Guo, Jiangming'
'Li, Xin'
'Sun, Jianting'
'Wei, Bangguo'
'Si, Chang-Mei'
_publ_section_title
;
 SmI2&#x2011;Mediated Intermolecular Addition-Elimination of Piperidine
 and Pyrrolidine N-\a-Radicals with Arylacetylene Sulfones
;
_journal_name_full               'Chemical Communications'
_journal_paper_doi               10.1039/D2CC03984B
_journal_year                    2022
_chemical_absolute_configuration ad
_chemical_formula_sum            'C12 H12 Br N O'
_chemical_formula_weight         266.14
_space_group_crystal_system      monoclinic
_space_group_IT_number           4
_space_group_name_Hall           'P 2yb'
_space_group_name_H-M_alt        'P 1 21 1'
_atom_sites_solution_hydrogens   mixed
_audit_creation_method           SHELXL-2013
_audit_update_record
;
2022-04-01 deposited with the CCDC.	2022-08-26 downloaded from the CCDC.
;
_cell_angle_alpha                90
_cell_angle_beta                 104.8590(10)
_cell_angle_gamma                90
_cell_formula_units_Z            2
_cell_length_a                   9.1212(3)
_cell_length_b                   5.4427(2)
_cell_length_c                   11.9771(4)
_cell_measurement_reflns_used    3591
_cell_measurement_temperature    213(2)
_cell_measurement_theta_max      54.591
_cell_measurement_theta_min      6.457
_cell_volume                     574.71(3)
_computing_cell_refinement       'Bruker SAINT'
_computing_data_collection       'Bruker APEX2'
_computing_data_reduction        'Bruker SAINT'
_computing_molecular_graphics    'Bruker SHELXTL'
_computing_publication_material  'Bruker SHELXTL'
_computing_structure_refinement  'SHELXL-2013 (Sheldrick, 2013)'
_computing_structure_solution    'SHELXS-97 (Sheldrick 2008)'
_diffrn_ambient_temperature      213(2)
_diffrn_measured_fraction_theta_full 0.987
_diffrn_measured_fraction_theta_max 0.988
_diffrn_measurement_device_type  'Bruker APEX-II CCD'
_diffrn_measurement_method       '\f and \w scans'
_diffrn_radiation_type           MoK\a
_diffrn_radiation_wavelength     0.71073
_diffrn_reflns_av_R_equivalents  0.0263
_diffrn_reflns_av_unetI/netI     0.0457
_diffrn_reflns_Laue_measured_fraction_full 0.987
_diffrn_reflns_Laue_measured_fraction_max 0.988
_diffrn_reflns_limit_h_max       11
_diffrn_reflns_limit_h_min       -11
_diffrn_reflns_limit_k_max       6
_diffrn_reflns_limit_k_min       -6
_diffrn_reflns_limit_l_max       14
_diffrn_reflns_limit_l_min       -14
_diffrn_reflns_number            5679
_diffrn_reflns_point_group_measured_fraction_full 0.980
_diffrn_reflns_point_group_measured_fraction_max 0.980
_diffrn_reflns_theta_full        25.242
_diffrn_reflns_theta_max         25.999
_diffrn_reflns_theta_min         3.244
_exptl_absorpt_coefficient_mu    3.549
_exptl_absorpt_correction_T_max  0.7456
_exptl_absorpt_correction_T_min  0.4234
_exptl_absorpt_correction_type   multi-scan
_exptl_absorpt_process_details   sadabs
_exptl_crystal_colour            colorless
_exptl_crystal_density_diffrn    1.538
_exptl_crystal_description       prismatic
_exptl_crystal_F_000             268
_exptl_crystal_size_max          0.180
_exptl_crystal_size_mid          0.120
_exptl_crystal_size_min          0.070
_refine_diff_density_max         0.150
_refine_diff_density_min         -0.196
_refine_diff_density_rms         0.037
_refine_ls_abs_structure_details
; 
 Flack x determined using 799 quotients [(I+)-(I-)]/[(I+)+(I-)] 
 (Parsons and Flack (2004), Acta Cryst. A60, s61). 
;
_refine_ls_abs_structure_Flack   0.027(8)
_refine_ls_extinction_coef       0.023(6)
_refine_ls_extinction_expression Fc^*^=kFc[1+0.001xFc^2^\l^3^/sin(2\q)]^-1/4^
_refine_ls_extinction_method     SHELXL
_refine_ls_goodness_of_fit_ref   1.038
_refine_ls_hydrogen_treatment    mixed
_refine_ls_matrix_type           full
_refine_ls_number_parameters     142
_refine_ls_number_reflns         2216
_refine_ls_number_restraints     1
_refine_ls_restrained_S_all      1.038
_refine_ls_R_factor_all          0.0297
_refine_ls_R_factor_gt           0.0246
_refine_ls_shift/su_max          0.001
_refine_ls_shift/su_mean         0.000
_refine_ls_structure_factor_coef Fsqd
_refine_ls_weighting_details     'w=1/[\s^2^(Fo^2^)] where P=(Fo^2^+2Fc^2^)/3'
_refine_ls_weighting_scheme      calc
_refine_ls_wR_factor_gt          0.0513
_refine_ls_wR_factor_ref         0.0536
_reflns_Friedel_coverage         0.784
_reflns_Friedel_fraction_full    0.971
_reflns_Friedel_fraction_max     0.970
_reflns_number_gt                2007
_reflns_number_total             2216
_reflns_threshold_expression     'I > 2\s(I)'
_cod_data_source_file            d2cc03984b2.cif
_cod_data_source_block           mo_d8v21878_0m
_cod_original_sg_symbol_H-M      'P 21'
_cod_database_code               7130605
_shelx_space_group_comment
; 
The symmetry employed for this shelxl refinement is uniquely defined 
by the following loop, which should always be used as a source of 
symmetry information in preference to the above space-group names. 
They are only intended as comments. 
;
_shelx_estimated_absorpt_t_min   0.568
_shelx_estimated_absorpt_t_max   0.789
_shelxl_version_number           2013-4
_shelx_res_file
; 
TITL mo_d8v21878_0m_b.res in P2(1) 
CELL 0.71073 9.1212 5.4427 11.9771 90 104.859 90 
ZERR 2 0.0003 0.0002 0.0004 0 0.001 0 
LATT -1 
SYMM -X,0.5+Y,-Z 
SFAC C  H  Br N  O 
UNIT 24 24 2 2 2 
OMIT 1 0 0 
OMIT 0 0 1 
OMIT  -3.00  52.00 
L.S. 10 
ACTA 
BOND $H 
FMAP 2 
PLAN 20 
LIST 4 
size 0.18 0.12 0.07 
wpdb -1 
mpla 
htab 
conf 
EQIV $1 x, y+1, z 
HTAB O1 N1_$1 
EQIV $2 -x, y+1/2, -z+1 
HTAB C2 Br1_$2 
EQIV $3 -x+1, y+1/2, -z+1 
HTAB C4 Br1_$3 
EQIV $4 -x+1, y-1/2, -z 
HTAB N1 O1_$4 
TEMP -60 
WGHT    0.000000 
EXTI    0.023123 
FVAR       1.63666 
BR1   3    0.112761    0.051960    0.760935    11.00000    0.06414    0.08751 = 
         0.04660    0.01020    0.03162   -0.00398 
O1    5    0.444517    0.979696    0.090578    11.00000    0.05166    0.02208 = 
         0.05985    0.00739    0.03562    0.00118 
AFIX 147 
H1    2    0.412516    1.122843    0.080324    11.00000   -1.50000 
AFIX   0 
N1    4    0.347360    0.459415    0.064168    11.00000    0.04673    0.02606 = 
         0.03340    0.00012    0.01791   -0.00424 
C1    1    0.192632    0.561572    0.031765    11.00000    0.04549    0.04725 = 
         0.04554    0.00625    0.00012   -0.00908 
AFIX  23 
H1B   2    0.122617    0.451636    0.057375    11.00000   -1.20000 
H1C   2    0.157800    0.579379   -0.052317    11.00000   -1.20000 
AFIX   0 
C2    1    0.196785    0.810697    0.089634    11.00000    0.03376    0.03875 = 
         0.05299    0.01311    0.01381    0.00633 
AFIX  23 
H2A   2    0.130369    0.811807    0.142274    11.00000   -1.20000 
H2B   2    0.163672    0.940125    0.031771    11.00000   -1.20000 
AFIX   0 
C3    1    0.361822    0.850268    0.156278    11.00000    0.03676    0.02143 = 
         0.03708    0.00232    0.01937    0.00198 
AFIX  13 
H3    2    0.369285    0.930602    0.231691    11.00000   -1.20000 
AFIX   0 
C4    1    0.423117    0.586294    0.171524    11.00000    0.02888    0.02362 = 
         0.03523    0.00223    0.01156   -0.00039 
AFIX  13 
H4    2    0.534423    0.585537    0.182327    11.00000   -1.20000 
AFIX   0 
C5    1    0.383294    0.473510    0.272493    11.00000    0.03726    0.02740 = 
         0.03395    0.00175    0.00540    0.00143 
C6    1    0.341177    0.398263    0.351422    11.00000    0.04103    0.02721 = 
         0.03120    0.00511    0.00768    0.00335 
C7    1    0.289758    0.313157    0.448655    11.00000    0.03371    0.02843 = 
         0.03009    0.00674    0.00854    0.00555 
C8    1    0.323470    0.445359    0.551249    11.00000    0.03885    0.03009 = 
         0.03583    0.00089    0.00641   -0.00063 
AFIX  43 
H8    2    0.383186    0.587971    0.557655    11.00000   -1.20000 
AFIX   0 
C9    1    0.270310    0.370112    0.644561    11.00000    0.04131    0.04365 = 
         0.02995   -0.00196    0.00568    0.00556 
AFIX  43 
H9    2    0.292048    0.461382    0.713485    11.00000   -1.20000 
AFIX   0 
C10   1    0.185180    0.159026    0.633651    11.00000    0.03506    0.04529 = 
         0.03096    0.00864    0.01237    0.00920 
C11   1    0.150240    0.024270    0.533626    11.00000    0.04066    0.03558 = 
         0.04388    0.00500    0.01452   -0.00453 
AFIX  43 
H11   2    0.090725   -0.118416    0.528019    11.00000   -1.20000 
AFIX   0 
C12   1    0.203320    0.100198    0.441241    11.00000    0.04814    0.03313 = 
         0.03256   -0.00267    0.01190    0.00155 
AFIX  43 
H12   2    0.180923    0.007367    0.372772    11.00000   -1.20000 
AFIX   0 
H1A   2    0.398896    0.489948    0.016131    11.00000    0.03221 
HKLF 4 
  
REM  mo_d8v21878_0m_b.res in P2(1) 
REM R1 =  0.0246 for    2007 Fo > 4sig(Fo)  and  0.0297 for all    2216 data 
REM    142 parameters refined using      1 restraints 
  
END 
  
WGHT      0.0000      0.0000 
  
REM Instructions for potential hydrogen bonds 
HTAB O1 N1_$1 
HTAB C2 Br1_$2 
HTAB C4 Br1_$3 
HTAB N1 O1_$4 
  
REM Highest difference peak  0.150,  deepest hole -0.196,  1-sigma level  0.037 
Q1    1   0.3803  0.7015  0.1657  11.00000  0.05    0.15 
Q2    1   0.4196  0.7293  0.3455  11.00000  0.05    0.15 
Q3    1   0.1409  0.1102  0.5783  11.00000  0.05    0.14 
Q4    1   0.3342  0.3581  0.3984  11.00000  0.05    0.14 
Q5    1   0.1095  0.2470  0.7335  11.00000  0.05    0.14 
Q6    1   0.0963  0.6741  0.0985  11.00000  0.05    0.14 
Q7    1   0.1399  1.0398 -0.0444  11.00000  0.05    0.14 
Q8    1   0.2614  0.0665  0.8335  11.00000  0.05    0.13 
Q9    1   0.4337  0.3875  0.3376  11.00000  0.05    0.13 
Q10   1   0.3262  0.3338  0.4969  11.00000  0.05    0.13 
Q11   1   0.1795 -0.0738  0.6455  11.00000  0.05    0.12 
Q12   1   0.2035  0.0402  0.5031  11.00000  0.05    0.12 
Q13   1   0.3748  0.4826  0.1285  11.00000  0.05    0.12 
Q14   1   0.1665 -0.0546  0.5526  11.00000  0.05    0.12 
Q15   1   0.2820  0.8254  0.1172  11.00000  0.05    0.12 
Q16   1   0.2493  0.5554 -0.0100  11.00000  0.05    0.11 
Q17   1   0.4686  0.6573  0.7138  11.00000  0.05    0.11 
Q18   1   0.3785  1.2895  0.0610  11.00000  0.05    0.11 
Q19   1   0.4304  0.9303  0.2697  11.00000  0.05    0.11 
Q20   1   0.2728  0.0499  0.5995  11.00000  0.05    0.11 
;
_shelx_res_checksum              57053
_shelx_hkl_file
; 
  -1   0   0    0.10    0.30 
  -1   0   0    0.00    0.30 
  -2   0   0 3485.75  199.88 
  -2   0   0 3528.75  200.58 
   2   0   0 3814.82  201.08 
   2   0   0 3801.52  200.18 
  -3   0   0 1719.73   98.29 
   3   0   0 1805.72   99.89 
   3   0   0 1788.32   98.69 
  -3   0   0 1691.13   99.29 
  -4   0   0 8803.12  483.15 
  -4   0   0 8611.44  484.65 
   4   0   0 9101.89  485.45 
   4   0   0 8938.71  483.85 
   5   0   0  544.75   42.30 
   5   0   0  568.74   37.70 
  -5   0   0  575.54   38.70 
  -5   0   0  604.14   37.20 
   6   0   0    2.60    5.10 
   6   0   0    2.60    6.00 
  -6   0   0    5.50    5.10 
   7   0   0   39.00    9.70 
   7   0   0   17.60    8.70 
  -7   0   0   28.50    8.00 
   8   0   0   29.20   11.00 
   8   0   0   24.60   10.10 
   9   0   0  279.57   28.60 
   9   0   0  295.77   27.90 
  10   0   0   58.59   15.50 
  10   0   0   61.49   14.10 
  11   0   0   56.09   16.80 
  11   0   0   44.70   13.90 
   0  -1   0    0.50    1.30 
   0  -1   0    1.70    1.60 
   0   1   0    0.70    1.40 
   0   1   0    2.60    1.70 
   1  -1   0 2819.32  177.68 
  -1  -1   0 2772.62  175.88 
  -1  -1   0 2706.73  176.58 
   1   1   0 3572.04  177.88 
  -1   1   0 3493.35  177.38 
   1   1   0 3538.15  177.08 
   1   1   0 3578.74  176.88 
  -1   1   0 3358.06  177.98 
   3  -1   0 4558.24  229.48 
  -3  -1   0 4335.37  225.48 
  -3  -1   0 4485.75  227.98 
   3  -1   0 4332.37  229.38 
   3   1   0 3853.01  224.28 
  -3   1   0 3928.51  228.28 
   3   1   0 3811.32  226.18 
  -3   1   0 3709.03  227.08 
   4  -1   0 1157.78   75.49 
  -4  -1   0 1130.69   73.89 
   4  -1   0 1105.19   74.69 
  -4  -1   0 1160.08   71.39 
  -4   1   0 1414.86   75.69 
   4   1   0 1326.87   73.29 
   4   1   0 1377.76   71.19 
  -4   1   0 1362.66   75.09 
   5  -1   0   70.29   12.20 
   5  -1   0   58.79   12.20 
  -5  -1   0   65.69    9.00 
  -5  -1   0   72.39   12.20 
   5   1   0  101.19    9.40 
  -5   1   0  104.89   12.10 
   5   1   0  105.99   11.80 
   6  -1   0 1591.64  102.79 
   6  -1   0 1786.72  105.89 
   6   1   0 1727.43   99.29 
   6   1   0 1710.73  102.09 
  -6   1   0 1800.22  102.19 
   7  -1   0  499.85   37.40 
   7  -1   0  527.85   39.90 
   7   1   0  456.55   35.50 
   7   1   0  434.86   32.80 
  -8  -1   0  147.59   17.10 
   8  -1   0  165.98   20.40 
   8  -1   0  157.18   21.70 
   8   1   0  119.89   15.20 
   8   1   0  127.09   27.50 
   9  -1   0   12.20   12.00 
   9  -1   0   16.70    9.90 
   9   1   0    8.70    7.50 
   9   1   0    0.30    7.70 
  10  -1   0   24.40   12.80 
  10  -1   0   35.50   13.40 
  10   1   0   16.10    8.70 
  10   1   0   19.90   11.10 
  11  -1   0   64.29   17.40 
  11  -1   0   49.99   14.80 
  11   1   0   62.59   13.80 
  11   1   0   39.40   15.10 
   1  -2   0 3207.48  199.38 
  -1  -2   0 3085.09  197.98 
  -1  -2   0 3140.99  198.78 
   1  -2   0 3280.37  199.98 
   1   2   0 3851.21  200.38 
   1   2   0 3947.51  198.18 
  -1   2   0 3839.22  200.68 
   1   2   0 3912.21  199.58 
   1   2   0 3758.22  198.88 
  -1   2   0 3895.61  199.68 
  -2  -2   0  806.12   51.59 
   2  -2   0  816.52   52.19 
  -2  -2   0  816.02   49.99 
   2  -2   0  895.21   54.29 
   2   2   0  851.71   50.99 
   2   2   0  899.01   51.39 
   2   2   0  832.52   52.49 
  -2   2   0  907.01   53.49 
   2   2   0  847.12   49.50 
  -2   2   0  868.11   51.69 
   3  -2   0 4809.02  271.47 
   3  -2   0 4455.35  268.77 
  -3  -2   0 4559.14  268.37 
  -3  -2   0 4564.94  265.77 
   3   2   0 5158.08  265.07 
  -3   2   0 4985.10  268.37 
   3   2   0 5204.08  267.57 
  -3   2   0 5067.69  270.67 
  -4  -2   0 3726.43  210.38 
   4  -2   0 3877.11  208.58 
  -4  -2   0 3735.53  203.08 
   4  -2   0 3540.55  213.58 
   4   2   0 3562.04  201.18 
  -4   2   0 3598.34  207.68 
   5   2   0  379.46   23.00 
   5   2   0  351.66   25.90 
  -5   2   0  349.67   28.70 
  -5   2   0  334.57   27.00 
   6  -2   0  241.58   24.70 
   6  -2   0  203.48   24.20 
  -6  -2   0  194.28   18.40 
   6   2   0  255.27   21.00 
   6   2   0  263.37   18.10 
   7  -2   0   87.69   18.80 
   7  -2   0   92.09   18.20 
  -7  -2   0   68.79   11.90 
   7   2   0   99.09   11.20 
   7   2   0   92.19   13.80 
   8  -2   0  156.68   23.60 
  -8  -2   0   94.69   13.40 
   8  -2   0  114.59   22.60 
   8   2   0   81.89   16.10 
   8   2   0   81.99   12.80 
   9  -2   0  257.07   28.30 
   9  -2   0  254.07   32.00 
   9   2   0  208.68   20.80 
   9   2   0  208.18   25.40 
  10  -2   0   34.80   17.60 
  10  -2   0   64.69   17.10 
  10   2   0   83.69   13.40 
  10   2   0   61.39   16.50 
   0  -3   0   -0.80    3.90 
   0  -3   0    1.70    5.00 
   0   3   0    4.80    4.40 
   0   3   0    1.80    4.30 
   0   3   0    1.00    3.80 
   1  -3   0 1995.30  119.29 
  -1  -3   0 1866.01  117.79 
   1  -3   0 1905.31  119.39 
  -1  -3   0 1924.31  117.49 
   1   3   0 2172.88  116.99 
   1   3   0 2159.68  118.89 
   1   3   0 2181.88  118.09 
  -1   3   0 2011.60  118.09 
   1   3   0 2135.39  119.69 
  -1   3   0 2058.19  119.49 
   2  -3   0 1839.12  102.79 
   2  -3   0 1770.62  101.09 
   2   3   0 1676.93   98.29 
   2   3   0 1696.33   96.49 
   2   3   0 1734.23  100.89 
  -2   3   0 1552.14   99.99 
  -2   3   0 1565.04   98.49 
   2   3   0 1650.53   98.79 
  -3  -3   0  611.84   40.30 
   3  -3   0  620.84   43.60 
  -3  -3   0  613.04   37.40 
   3  -3   0  557.34   40.40 
   3   3   0  523.05   37.80 
   3   3   0  564.14   35.70 
   3   3   0  562.94   37.70 
  -3   3   0  572.64   41.00 
  -3   3   0  541.55   38.50 
   3   3   0  517.65   39.70 
   4  -3   0  579.54   43.40 
   4  -3   0  549.15   40.50 
  -4  -3   0  513.45   35.90 
   4   3   0  576.34   37.40 
  -4   3   0  562.74   38.70 
   4   3   0  512.55   36.90 
   4   3   0  550.84   34.10 
   5  -3   0  597.34   46.20 
   5  -3   0  555.24   46.90 
  -5  -3   0  565.44   40.00 
   5   3   0  683.53   38.10 
   5   3   0  652.73   41.80 
   5   3   0  617.94   41.50 
  -6  -3   0 1378.46   81.59 
   6  -3   0 1406.96   91.29 
   6  -3   0 1600.34   93.09 
   6   3   0 1259.67   82.09 
   6   3   0 1261.37   77.79 
  -7  -3   0  185.48   18.30 
   7   3   0  179.88   22.40 
   7   3   0  181.68   15.70 
   8  -3   0   99.99   21.80 
   8  -3   0  118.99   25.20 
  -8  -3   0  112.99   15.00 
   8   3   0  177.28   20.90 
   9  -3   0    5.00   15.20 
   9  -3   0   15.00   14.60 
   9   3   0   38.10   13.10 
   9   3   0   17.30    7.80 
  10  -3   0   28.40   14.90 
  10  -3   0   30.30   18.10 
  10   3   0   39.80   10.20 
  10   3   0   41.90   14.40 
   0  -4   0  893.41   61.89 
   0  -4   0  935.51   62.69 
   0   4   0  963.80   62.09 
   0   4   0  982.20   61.19 
   0   4   0  960.40   62.39 
   1  -4   0  920.11   61.59 
   1  -4   0  894.41   61.69 
  -1  -4   0  893.71   60.29 
  -1   4   0  888.01   59.59 
   1   4   0  970.80   61.39 
  -1   4   0  929.61   59.89 
   1   4   0  927.31   61.19 
   1   4   0  881.81   59.19 
   1   4   0  935.41   58.29 
   2  -4   0  168.78   19.20 
   2  -4   0  147.19   19.00 
   2   4   0  133.79   16.50 
   2   4   0  105.29   13.60 
   2   4   0  113.99   15.40 
   3  -4   0  647.34   52.09 
   3  -4   0  716.53   51.09 
   3   4   0  720.13   45.10 
   3   4   0  666.03   48.20 
   3   4   0  743.63   47.90 
   4  -4   0  239.88   24.50 
   4  -4   0  218.58   25.30 
   4   4   0  175.58   19.80 
   4   4   0  167.78   19.00 
   4   4   0  171.78   16.10 
   5  -4   0  130.79   21.60 
   5   4   0  103.69   15.30 
   5   4   0   97.49   11.60 
   5   4   0  107.59   16.20 
   6  -4   0  105.79   25.80 
  -6  -4   0  114.69   14.60 
   6  -4   0  130.79   24.60 
   6   4   0   93.09   15.70 
   6   4   0  119.79   12.00 
   6   4   0  111.59   16.90 
   7  -4   0   50.29   19.00 
   7  -4   0   63.19   18.30 
   7   4   0   50.59   13.70 
   7   4   0   67.99    9.60 
   8  -4   0   16.10   13.50 
   8  -4   0   19.70   18.20 
   8   4   0   27.60   11.80 
   8   4   0   19.60    7.00 
   9  -4   0    2.00   14.00 
   9   4   0    4.90   10.60 
   9   4   0    3.10    6.60 
   0  -5   0   -1.30    6.30 
   0  -5   0    3.20    8.80 
   0   5   0    6.40    8.90 
   0   5   0    9.30    8.70 
   1  -5   0  183.08   24.20 
   1  -5   0  217.88   24.00 
  -1  -5   0  207.38   23.60 
   1   5   0  181.78   21.80 
  -1   5   0  184.78   21.90 
   1   5   0  186.48   20.40 
   2  -5   0   11.50   10.30 
   2  -5   0   32.60   13.00 
   2   5   0   33.20   11.60 
   2   5   0   38.20   10.30 
  -2   5   0   34.30   14.20 
   3  -5   0  255.67   31.00 
   3  -5   0  280.67   28.40 
   3   5   0  237.68   22.40 
   3   5   0  228.08   24.50 
   4  -5   0  257.37   33.40 
   4  -5   0  247.68   32.20 
   4   5   0  252.47   27.70 
   4   5   0  256.27   22.30 
   5  -5   0  264.67   31.90 
   5  -5   0  247.88   30.20 
   5   5   0  210.28   19.90 
   5   5   0  248.98   24.20 
   6  -5   0   16.60   13.90 
   6  -5   0   20.20   15.40 
   6   5   0    0.20    8.30 
   6   5   0    4.50    6.10 
   7  -5   0   84.79   23.70 
   7   5   0   79.99   15.20 
   7   5   0   79.79   11.30 
   8  -5   0   49.99   21.70 
   8  -5   0   60.79   22.10 
   8   5   0   45.50    9.10 
   8   5   0   38.50   12.90 
   0  -6   0   26.80   14.50 
   0   6   0    8.90   12.30 
   0   6   0   23.80   12.20 
   1  -6   0  124.59   23.10 
   1  -6   0  118.19   22.50 
  -1   6   0  100.59   20.30 
   1   6   0  109.19   18.20 
  -1   6   0  122.19   20.90 
   1   6   0   89.69   18.70 
   2  -6   0   -7.20   11.40 
   2  -6   0    3.70   10.60 
  -2   6   0    7.00   10.60 
   2   6   0    8.30   10.60 
   2   6   0    2.70    8.50 
   3  -6   0   21.70   13.60 
   3  -6   0   41.40   17.00 
   3   6   0   16.60    9.30 
  -3   6   0   13.10   12.80 
   3   6   0   34.50   13.20 
   4  -6   0   14.10   13.70 
   4  -6   0   -4.20   11.30 
   4   6   0   17.80    8.80 
  -4   6   0    6.30   11.60 
   4   6   0    2.40   10.20 
   5  -6   0   15.60   13.70 
   5  -6   0   27.50   17.40 
   5   6   0   21.50    8.70 
   5   6   0   40.20   13.20 
  -5   6   0    4.70   13.40 
   6  -6   0   18.00   16.70 
   6  -6   0   33.70   15.70 
   6   6   0   12.90    8.30 
   0  -7   0   12.90   13.70 
   0   7   0   -4.30   12.00 
   0   7   0   -2.50   12.30 
   1  -7   0   40.80   17.30 
   1   7   0   27.10   14.60 
  -1   7   0   21.30   13.50 
   1   7   0   14.40   11.80 
  -1   7   0   -4.00   12.20 
  11   0  -1   17.00   12.30 
  11   0  -1   31.50   11.90 
  10   0  -1   61.69   13.70 
  10   0  -1   74.59   17.00 
   9   0  -1   33.70   10.10 
   9   0  -1   16.40   11.20 
   8   0  -1   83.69   13.90 
  -8   0   1   82.39   12.30 
   8   0  -1   75.99   15.00 
   7   0  -1  544.65   41.50 
   7   0  -1  624.34   44.70 
  -7   0   1  692.53   41.30 
  -6   0   1 2176.88  116.29 
   6   0  -1 1973.40  119.49 
   6   0  -1 1942.71  116.99 
  -5   0   1 1154.78   64.09 
   5   0  -1 1048.20   66.39 
   5   0  -1 1035.60   64.19 
  -4   0   1 2517.35  141.19 
   4   0  -1 2581.64  143.79 
   4   0  -1 2486.65  141.59 
  -4   0   1 2558.24  143.39 
  -3   0   1 2227.98  123.59 
   3   0  -1 2189.88  125.29 
   3   0  -1 2284.87  123.79 
  -3   0   1 2209.28  125.39 
   0   0   1    0.10    0.20 
   0   0   1    0.10    0.10 
   0   0   1    0.20    0.20 
  -1   0  -1   55.69    4.60 
  -1   0  -1   54.59    4.50 
   1   0   1   55.09    4.80 
   1   0   1   54.09    4.60 
   3   0   1   92.99    9.20 
  -3   0  -1   72.99    8.20 
   3   0   1   94.49    8.90 
  -3   0  -1   82.99    8.70 
  -4   0  -1  247.88   20.00 
  -4   0  -1  249.38   19.10 
   4   0   1  266.07   20.70 
   4   0   1  284.97   20.20 
   5   0   1   59.19   10.30 
  -5   0  -1   67.59   10.90 
  -5   0  -1   59.69    9.40 
   5   0   1   44.80    9.50 
  -6   0  -1 2970.40  161.58 
   6   0   1 2720.13  162.48 
   6   0   1 2858.71  164.08 
   7   0   1 1058.09   67.09 
   7   0   1  991.10   65.09 
   8   0   1   38.00   11.10 
   9   0   1   43.90   13.50 
   9   0   1   61.89   14.00 
  10   0   1   11.70   10.80 
  10   0   1   30.30   12.90 
  11   0   1   72.59   16.10 
  11   0   1   60.69   17.40 
  11  -1  -1  -10.90    8.90 
  11  -1  -1   -1.60   10.00 
  11   1  -1   -5.60    8.90 
  11   1  -1    0.10    7.70 
  10  -1  -1  119.89   22.20 
  10  -1  -1   98.19   21.60 
  10   1  -1  101.69   19.20 
  10   1  -1  106.89   15.50 
   9  -1  -1  313.37   32.80 
  -9  -1   1  346.77   27.20 
   9  -1  -1  280.17   29.40 
   9   1  -1  327.67   26.60 
   9   1  -1  320.57   30.70 
   8  -1  -1  325.57   30.00 
   8  -1  -1  280.27   26.50 
   8   1  -1  249.88   23.90 
   8   1  -1  221.48   24.00 
  -7  -1   1   54.99    9.30 
   7  -1  -1   76.39   15.50 
   7  -1  -1   70.39   13.40 
  -7   1   1   38.70    9.80 
   7   1  -1   54.19    9.50 
   7   1  -1   48.40   11.10 
   6  -1  -1 1085.99   68.29 
  -6   1   1 1020.90   63.89 
   6   1  -1  993.30   60.79 
   6   1  -1 1014.50   64.09 
  -5  -1   1  460.25   30.00 
   5  -1  -1  573.44   37.30 
  -5  -1   1  460.05   34.30 
   5  -1  -1  558.34   35.50 
   5   1  -1  470.85   30.20 
  -5   1   1  445.96   33.50 
  -5   1   1  454.85   33.00 
  -4  -1   1 3149.98  174.88 
  -4  -1   1 3270.57  171.18 
   4  -1  -1 3337.27  177.18 
   4  -1  -1 3256.57  176.08 
   4   1  -1 2985.70  170.88 
   4   1  -1 3092.49  173.58 
  -4   1   1 2845.12  174.18 
  -4   1   1 3027.40  174.78 
  -3  -1   1  549.65   30.30 
   3  -1  -1  562.74   34.80 
   3  -1  -1  560.04   34.60 
  -3  -1   1  573.04   33.20 
   3   1  -1  524.25   32.20 
   3   1  -1  483.35   30.80 
  -3   1   1  497.25   33.50 
  -3   1   1  475.45   32.90 
   2  -1  -1  739.93   45.00 
  -2  -1   1  728.73   41.50 
   2  -1  -1  720.93   44.50 
  -2   1   1  742.43   44.10 
   2   1  -1  750.72   42.70 
   2   1  -1  773.32   41.20 
  -2   1   1  751.82   44.70 
   1   1  -1 3884.41  211.68 
  -1   1   1 3948.60  213.48 
  -1   1   1 3829.82  213.48 
   2  -1   1 3477.55  194.18 
  -2  -1  -1 3515.85  191.18 
  -2  -1  -1 3429.36  192.58 
   2  -1   1 3557.94  192.78 
   2   1   1 3482.05  191.98 
   2   1   1 3552.14  190.68 
  -2   1  -1 3500.35  193.78 
  -2   1  -1 3397.06  191.98 
  -3  -1  -1 2745.33  167.58 
   3  -1   1 2897.81  168.88 
   3  -1   1 2788.72  169.28 
  -3  -1  -1 2859.51  165.88 
   3   1   1 3282.47  167.28 
  -3   1  -1 3105.39  168.18 
   3   1   1 3202.68  165.18 
  -3   1  -1 3188.18  169.38 
  -4  -1  -1 8156.48  445.96 
   4  -1   1 8287.17  447.46 
   4  -1   1 7877.91  447.06 
  -4  -1  -1 8246.47  443.66 
   4   1   1 8244.17  444.06 
   4   1   1 8248.27  442.16 
  -4   1  -1 7921.41  445.86 
  -4   1  -1 8014.50  445.66 
  -5  -1  -1 1933.31  112.79 
  -5  -1  -1 1629.94  108.89 
   5  -1   1 1990.20  114.29 
   5  -1   1 2106.09  114.79 
   5   1   1 1940.81  110.39 
   5   1   1 1874.71  108.39 
  -5   1  -1 1944.21  111.69 
  -5   1  -1 1910.01  111.69 
  -6  -1  -1    7.40    5.30 
   6  -1   1   54.49   12.10 
   6  -1   1   -0.30    6.60 
  -6   1  -1   33.20    8.80 
   6   1   1   20.60    6.80 
   6   1   1   19.40    7.60 
   7  -1   1  144.89   20.60 
  -7  -1  -1  146.49   16.50 
   7  -1   1  123.19   18.30 
   7   1   1  160.18   18.20 
   7   1   1  160.28   16.50 
   8  -1   1  324.67   36.10 
   8  -1   1  339.97   30.70 
   8   1   1  283.17   27.90 
   8   1   1  315.67   27.00 
   9  -1   1  130.49   22.10 
   9   1   1   64.89   13.50 
   9   1   1   70.89   16.20 
  10  -1   1   24.00   12.00 
  10  -1   1   30.50   14.30 
  10   1   1   24.90   10.40 
  10   1   1   14.60   11.60 
  11  -1   1    3.10   11.60 
  11  -1   1   51.29   15.50 
  11   1   1   42.50   12.90 
  11   1   1   25.60   13.10 
  11  -2  -1   31.50   15.80 
  11  -2  -1   31.80   15.00 
  11   2  -1   64.59   16.20 
  11   2  -1   54.59   12.10 
  10  -2  -1   45.10   17.00 
  10  -2  -1   37.30   14.70 
  10   2  -1   36.40   12.90 
  10   2  -1   18.40    8.30 
   9  -2  -1   19.90   12.60 
  -9  -2   1   -1.60    7.00 
   9  -2  -1   15.10   13.30 
   9   2  -1   24.30    7.50 
   9   2  -1   17.50    9.70 
  -8  -2   1  152.88   16.40 
   8  -2  -1  129.09   24.40 
   8  -2  -1  176.38   22.80 
   8   2  -1  185.68   21.20 
   8   2  -1  220.08   17.50 
  -7  -2   1  661.43   46.30 
   7  -2  -1  725.53   56.59 
   7  -2  -1  800.22   55.99 
   7   2  -1  819.02   51.59 
   7   2  -1  772.32   46.30 
   6  -2  -1  464.25   35.20 
  -6  -2   1  440.26   27.10 
   6  -2  -1  435.26   35.70 
   6   2  -1  347.47   29.00 
   6   2  -1  347.97   25.30 
  -5  -2   1  287.57   23.90 
   5  -2  -1  270.67   25.60 
   5  -2  -1  238.88   24.10 
  -5  -2   1  261.47   18.50 
   5   2  -1  268.87   20.90 
  -5   2   1  260.27   22.10 
   5   2  -1  263.37   17.20 
  -5   2   1  256.37   22.90 
  -4  -2   1  475.35   27.40 
  -4  -2   1  491.25   31.30 
   4  -2  -1  497.55   34.60 
   4   2  -1  399.46   28.40 
  -4   2   1  357.36   32.00 
  -4   2   1  392.06   33.60 
   4   2  -1  420.46   25.70 
   3  -2  -1  730.93   50.19 
  -3  -2   1  769.52   48.90 
  -3  -2   1  735.43   47.40 
   3  -2  -1  833.92   52.09 
   3   2  -1  840.12   45.70 
  -3   2   1  818.82   49.70 
  -3   2   1  817.22   50.89 
   3   2  -1  814.12   47.70 
  -2  -2   1 4616.54  247.78 
   2  -2  -1 4778.42  250.77 
   2  -2  -1 4624.14  249.97 
  -2   2   1 4248.48  249.38 
   2   2  -1 4425.86  245.48 
   2   2  -1 4510.05  248.98 
   2   2  -1 4382.96  246.68 
   2   2  -1 4477.35  248.38 
  -2   2   1 4375.86  248.78 
  -1  -2   1 4491.65  250.17 
  -1  -2   1 4393.76  249.78 
   1  -2  -1 4560.04  252.17 
   1  -2  -1 4321.27  251.77 
  -1   2   1 4651.73  252.07 
  -1   2   1 4576.84  251.57 
  -1   2   1 4604.44  250.77 
   1   2  -1 4543.25  250.17 
   1   2  -1 4574.34  249.48 
   1   2  -1 4747.82  250.87 
   1   2  -1 4542.15  249.08 
   0  -2  -1  407.66   25.90 
   0  -2  -1  372.96   25.80 
   0  -2   1  402.76   25.80 
   0  -2   1  373.86   24.60 
   0   2  -1  341.97   24.10 
   0   2   1  362.16   25.60 
   0   2   1  346.37   25.50 
   0   2   1  354.06   24.30 
   0   2  -1  360.36   25.10 
   1  -2   1 1188.48   81.99 
  -1  -2  -1 1147.79   81.29 
   1   2   1 1520.35   80.59 
   1   2   1 1548.45   83.59 
  -1   2  -1 1502.35   80.89 
   1   2   1 1437.66   81.89 
   1   2   1 1479.35   81.79 
  -1   2  -1 1431.36   82.39 
   2  -2   1 6577.54  353.36 
  -2  -2  -1 6675.93  354.16 
   2  -2   1 6802.82  356.16 
  -2  -2  -1 6680.43  352.06 
  -2   2  -1 6214.28  352.06 
  -2   2  -1 6160.98  354.56 
   2   2   1 6166.68  352.66 
   2   2   1 6277.67  354.76 
   2   2   1 6347.67  351.06 
  -3  -2  -1 2789.52  172.48 
  -3  -2  -1 2837.42  174.98 
   3  -2   1 2768.62  176.78 
   3  -2   1 2952.60  175.08 
   3   2   1 3389.76  171.88 
  -3   2  -1 3423.66  174.58 
   3   2   1 3373.96  174.48 
  -3   2  -1 3341.77  177.38 
  -4  -2  -1  848.62   50.09 
  -4  -2  -1  802.82   52.99 
   4  -2   1  820.32   55.19 
   4  -2   1  864.61   54.39 
  -4   2  -1  775.02   53.59 
   4   2   1  828.32   48.10 
   4   2   1  812.02   50.89 
  -4   2  -1  803.82   53.79 
   5  -2   1 1681.63  108.69 
  -5  -2  -1 1735.03  103.39 
   5  -2   1 1764.12  109.09 
   5   2   1 1906.91  101.19 
   5   2   1 1876.31  104.39 
  -5   2  -1 1753.62  105.69 
   6  -2   1 1105.69   72.19 
   6  -2   1 1088.69   70.69 
   6   2   1  952.10   63.89 
   6   2   1 1064.29   65.59 
   7  -2   1  161.78   22.50 
  -7  -2  -1  143.69   16.30 
   7  -2   1  204.68   23.30 
   7   2   1   98.59   13.70 
   7   2   1  123.19   17.10 
   8  -2   1  174.78   25.80 
   8  -2   1  174.48   37.60 
   8   2   1  202.38   22.10 
   8   2   1  200.18   19.30 
   9  -2   1   22.90   13.20 
   9  -2   1    7.70   11.50 
   9   2   1   14.10   10.30 
   9   2   1   32.40   10.20 
  10  -2   1   10.70   10.70 
  10  -2   1   19.10   15.00 
  10   2   1   16.00    9.30 
  10  -3  -1   24.80   15.60 
  10  -3  -1   29.20   18.50 
  10   3  -1   14.60    6.80 
  10   3  -1   16.70   19.90 
   9  -3  -1   56.39   20.20 
  -9  -3   1   81.99   13.30 
   9  -3  -1  103.19   22.40 
   9   3  -1  123.99   16.40 
   9   3  -1   93.89   17.70 
  -8  -3   1  190.98   17.60 
   8  -3  -1  220.38   32.10 
   8  -3  -1  212.68   26.70 
   8   3  -1  174.18   16.00 
   8   3  -1  189.08   22.20 
   7  -3  -1   26.80   12.20 
  -7  -3   1   17.20    7.10 
   7   3  -1   26.40    9.40 
   7   3  -1   36.90    6.90 
  -6  -3   1  359.46   25.60 
   6  -3  -1  385.36   35.00 
   6  -3  -1  389.46   35.60 
   6   3  -1  360.56   27.70 
   6   3  -1  336.17   26.10 
   6   3  -1  335.57   22.90 
  -5  -3   1  475.25   35.60 
   5  -3  -1  450.65   42.50 
   5  -3  -1  507.05   42.70 
   5   3  -1  644.54   34.60 
   5   3  -1  619.94   38.20 
   5   3  -1  639.94   38.60 
   4  -3  -1 1581.84   85.99 
  -4  -3   1 1523.35   82.79 
   4   3  -1 1170.38   81.19 
   4   3  -1 1272.07   78.79 
   4   3  -1 1263.97   78.59 
   4   3  -1 1257.07   75.79 
  -3   3   1  416.96   32.00 
  -3   3   1  416.46   30.50 
   3   3  -1  390.66   28.80 
   3   3  -1  402.36   26.70 
   3   3  -1  433.36   29.00 
   3   3  -1  410.36   31.30 
   2  -3  -1  168.88   18.40 
   2  -3  -1  151.28   17.70 
   2   3  -1  187.68   15.00 
   2   3  -1  184.38   15.60 
   2   3  -1  181.78   16.50 
  -2   3   1  168.18   17.80 
   2   3  -1  193.48   17.80 
   1   3  -1   76.69    9.60 
   1   3  -1   76.89   10.60 
  -1   3   1   57.89   10.70 
   1   3  -1   70.19   10.40 
  -1   3   1   81.69   11.30 
   1   3  -1   80.19   10.00 
   0  -3   1 3181.98  175.18 
   0  -3  -1 3214.18  176.08 
   0  -3  -1 3188.98  175.28 
   0  -3   1 3104.09  174.08 
   0   3   1 3062.89  173.38 
   0   3   1 2972.10  175.08 
   0   3  -1 2923.11  174.18 
   0   3   1 2978.10  175.28 
   0   3  -1 3091.69  173.68 
  -1  -3  -1 2987.50  166.68 
   1  -3   1 3048.09  166.08 
   1  -3   1 3028.90  167.58 
   1   3   1 2840.32  166.08 
   1   3   1 2950.30  167.58 
  -1   3  -1 2850.91  164.28 
  -1   3  -1 2834.92  166.08 
   1   3   1 2797.62  165.08 
   1   3   1 2886.11  163.68 
   2  -3   1   69.69   12.20 
  -2  -3  -1   67.99    9.50 
   2  -3   1   89.39   14.90 
   2   3   1   79.89    9.30 
  -2   3  -1   73.99   10.20 
  -2   3  -1   77.09   12.90 
   2   3   1   84.59   11.70 
   2   3   1   82.09   11.70 
   2   3   1   57.79   11.60 
  -3  -3  -1  602.64   43.90 
   3  -3   1  657.93   47.40 
  -3  -3  -1  650.43   42.10 
   3   3   1  661.73   40.50 
   3   3   1  673.53   45.80 
  -3   3  -1  634.94   42.70 
   3   3   1  629.74   43.10 
   3   3   1  655.03   42.90 
   4  -3   1 1030.40   70.59 
   4  -3   1 1004.00   67.19 
  -4  -3  -1 1010.60   63.69 
   4   3   1 1048.00   61.39 
   4   3   1 1062.29   64.69 
  -4   3  -1 1073.29   65.09 
   5  -3   1  763.52   55.99 
   5  -3   1  760.92   54.09 
  -5  -3  -1  733.03   48.10 
   5   3   1  739.53   49.00 
   5   3   1  717.13   45.10 
   6  -3   1  110.59   21.90 
  -6  -3  -1  145.09   16.40 
   6  -3   1  156.78   24.90 
   6   3   1  156.38   14.00 
   6   3   1  159.58   18.00 
   7  -3   1  288.17   33.50 
   7   3   1  299.87   22.80 
   7   3   1  302.87   26.90 
   8  -3   1  259.37   31.80 
   8  -3   1  216.88   31.60 
   8   3   1  186.68   22.50 
   8   3   1  200.68   19.50 
   9  -3   1   22.20   15.20 
   9  -3   1    3.80   13.30 
   9   3   1   32.10    9.40 
   9   3   1   20.20   10.90 
  10  -3   1   27.30   15.70 
  10  -3   1   12.60   15.20 
  10   3   1   15.20   12.90 
  10   3   1   23.10   10.00 
   9  -4  -1    0.60   15.70 
   9   4  -1   18.70   11.50 
   9   4  -1   15.10    6.70 
   8  -4  -1   -0.80   11.70 
   8  -4  -1   -4.50   11.60 
   8   4  -1   10.50    5.50 
   8   4  -1    3.50    9.60 
   7  -4  -1   38.50   15.90 
   7  -4  -1   54.19   19.20 
   7   4  -1   90.69   15.80 
   7   4  -1   89.49   14.10 
   6  -4  -1  209.68   28.90 
   6  -4  -1  195.58   28.60 
   6   4  -1  223.68   29.60 
   6   4  -1  274.07   23.50 
   6   4  -1  227.28   23.00 
   5  -4  -1  248.88   27.80 
   5  -4  -1  289.57   31.30 
   5   4  -1  236.68   22.50 
   5   4  -1  252.47   19.20 
   5   4  -1  251.77   23.00 
   4  -4  -1  194.78   25.40 
   4  -4  -1  172.48   22.60 
   4   4  -1  160.68   15.30 
   4   4  -1  209.88   19.10 
   4   4  -1  173.28   20.50 
   3  -4  -1  814.92   58.49 
   3  -4  -1  804.22   56.69 
   3   4  -1  764.22   56.79 
   3   4  -1  785.72   51.29 
   2  -4  -1  565.24   44.60 
   2  -4  -1  616.84   45.30 
   2   4  -1  564.54   39.10 
   2   4  -1  573.34   40.30 
   2   4  -1  624.94   43.70 
   2   4  -1  589.24   42.30 
   1  -4  -1  179.98   19.90 
  -1  -4   1  173.58   17.90 
  -1  -4   1  187.78   18.60 
   1  -4  -1  170.68   20.00 
  -1   4   1  120.99   16.20 
   1   4  -1  114.49   16.60 
   1   4  -1  139.19   16.80 
   1   4  -1  132.39   15.90 
   1   4  -1  139.49   15.80 
   0  -4   1  174.48   18.60 
   0  -4  -1  142.29   17.60 
   0  -4   1  133.79   17.10 
   0  -4  -1  191.48   20.00 
   0   4  -1  135.89   15.90 
   0   4  -1  136.69   16.50 
   0   4   1  149.19   17.90 
   0   4   1  134.79   16.90 
   0   4  -1  152.48   17.80 
   0   4  -1  169.28   17.60 
   1  -4   1  191.58   22.80 
  -1  -4  -1  205.28   22.20 
   1  -4   1  203.28   21.80 
  -1   4  -1  214.98   20.80 
   1   4   1  281.07   23.40 
   1   4   1  260.87   21.50 
   2  -4   1  293.17   27.60 
   2  -4   1  241.88   23.90 
  -2   4  -1  293.87   23.70 
   2   4   1  267.47   24.50 
   2   4   1  262.07   25.10 
   2   4   1  238.28   21.70 
   3  -4   1  393.06   35.90 
   3  -4   1  368.76   32.20 
   3   4   1  383.16   27.90 
   3   4   1  380.26   30.10 
   3   4   1  369.36   31.20 
   4  -4   1  149.79   19.70 
   4  -4   1  133.39   22.80 
   4   4   1  134.19   14.10 
   4   4   1  114.89   16.40 
   5  -4   1   53.29   14.50 
   5  -4   1   78.29   18.60 
   5   4   1   38.40    8.50 
   5   4   1   39.50   11.40 
   6  -4   1  114.09   23.10 
   6   4   1   67.89   14.10 
   6   4   1   75.79   10.90 
   7  -4   1  265.57   35.20 
   7  -4   1  264.47   33.40 
   7   4   1  257.07   25.40 
   7   4   1  273.37   21.40 
   8  -4   1  105.79   25.40 
   8  -4   1   98.19   26.00 
   8   4   1  106.89   14.30 
   8   4   1  108.79   18.80 
   9  -4   1   30.30   31.10 
   9  -4   1   69.59   20.00 
   9   4   1   38.30   10.80 
   9   4   1   39.40   14.10 
   8  -5  -1   32.20   17.90 
   8  -5  -1    2.50   13.10 
   8   5  -1   26.00   14.00 
   7  -5  -1   28.30   16.40 
   7  -5  -1   30.60   16.00 
   7   5  -1   20.70   10.60 
   7   5  -1   19.10    6.00 
   6  -5  -1   10.00   12.70 
   6  -5  -1   -6.00    9.80 
   6   5  -1    3.80    8.10 
   6   5  -1    6.60    5.40 
   5  -5  -1  297.17   33.40 
   5  -5  -1  266.47   35.10 
   5   5  -1  291.87   26.50 
   5   5  -1  268.17   22.00 
   4  -5  -1   62.89   16.90 
   4  -5  -1   67.09   19.70 
   4   5  -1   47.10   11.90 
   4   5  -1   33.80    8.80 
  -4   5   1   40.70   14.40 
   3  -5  -1  141.89   24.40 
   3  -5  -1  148.09   22.30 
  -3   5   1  174.88   23.50 
   3   5  -1  184.68   20.20 
   3   5  -1  180.58   18.10 
   2  -5  -1   53.89   14.60 
   2  -5  -1   46.80   23.80 
   2   5  -1   76.69   14.30 
   2   5  -1   58.59   12.40 
   1  -5  -1  272.67   27.80 
  -1  -5   1  260.27   26.00 
  -1  -5   1  295.37   27.00 
   1  -5  -1  267.87   28.50 
   1   5  -1  217.18   24.00 
  -1   5   1  208.98   24.60 
   1   5  -1  197.38   22.80 
   0  -5   1   79.39   16.70 
   0  -5   1   70.29   15.60 
   0  -5  -1   77.79   17.00 
   0   5  -1  112.49   18.30 
   0   5  -1  133.89   17.60 
   0   5   1  117.19   16.80 
   0   5   1   96.49   18.00 
   1  -5   1  112.69   19.10 
  -1  -5  -1  101.29   18.30 
   1  -5   1  117.79   20.60 
   1   5   1   78.99   16.40 
  -1   5  -1  100.89   17.90 
   1   5   1  106.59   15.70 
   2  -5   1  109.09   19.90 
   2  -5   1   98.09   20.00 
   2   5   1  122.69   16.80 
   2   5   1  142.19   18.80 
   3  -5   1   68.09   16.60 
   3  -5   1   62.69   16.90 
   3   5   1   83.49   13.90 
   3   5   1   77.29   24.10 
   4  -5   1  168.08   28.80 
   4  -5   1  149.49   23.60 
   4   5   1  211.38   19.60 
   4   5   1  231.48   23.70 
   5  -5   1  132.59   23.50 
   5  -5   1  116.49   24.10 
   5   5   1  107.89   17.90 
   5   5   1   89.79   13.40 
   6  -5   1   63.89   17.80 
   6  -5   1   67.09   20.90 
   6   5   1   44.00   13.40 
   6   5   1   62.99   10.80 
   7  -5   1   67.29   22.00 
   7  -5   1   66.89   20.70 
   7   5   1   68.89   10.80 
   7   5   1   54.49   14.60 
   6  -6  -1   45.20   19.00 
  -6   6   1   10.50   14.20 
   6   6  -1   31.80   12.10 
   6   6  -1   14.60    7.20 
   5  -6  -1   -3.80   11.60 
   5  -6  -1   -2.90   14.00 
   5   6  -1    9.60    7.30 
  -5   6   1   -7.50   10.50 
   5   6  -1    0.20    8.00 
   4  -6  -1   -6.30   10.50 
   4  -6  -1   21.10   15.20 
  -4   6   1   28.90   13.80 
   4   6  -1   30.10   11.80 
   4   6  -1   29.00    9.60 
   3  -6  -1   28.70   14.80 
   3  -6  -1   24.60   13.60 
   3   6  -1   60.79   14.80 
  -3   6   1   19.20   13.60 
   3   6  -1   44.20   14.20 
   2  -6  -1   74.69   19.70 
   2  -6  -1   76.89   19.50 
   2   6  -1   40.60   13.80 
  -2   6   1   74.39   18.60 
   2   6  -1   69.39   14.90 
   1  -6  -1   34.60   14.20 
   1  -6  -1   29.20   14.70 
   1   6  -1   24.60   11.60 
   1   6  -1   25.00   12.30 
  -1   6   1   18.40   13.60 
  -1   6   1    2.80   11.10 
   0  -6   1   -0.90    8.90 
   0  -6  -1    6.10   11.80 
   0   6   1   12.70   10.50 
   0   6   1    9.00   12.20 
   0   6  -1    9.40   11.10 
   0   6  -1   26.90   13.40 
   1  -6   1  135.59   22.60 
   1  -6   1  102.09   22.10 
  -1   6  -1  125.59   21.70 
   1   6   1  138.69   21.50 
   1   6   1  121.19   22.50 
  -1   6  -1  117.49   21.40 
   2  -6   1   21.10   12.20 
   2  -6   1    6.80   11.20 
  -2   6  -1  -11.40    8.90 
   2   6   1   10.30    9.60 
   2   6   1  -11.70    8.90 
   3  -6   1   33.30   14.50 
   3  -6   1   27.50   15.30 
   3   6   1   48.50   12.60 
   3   6   1   30.00   12.90 
  -3   6  -1   12.10   11.90 
   4  -6   1   13.00   14.70 
   4  -6   1   15.40   11.40 
   4   6   1   10.20   10.00 
   4   6   1   15.20    9.10 
   5  -6   1    7.40   11.90 
   5  -6   1   -2.30   11.40 
   5   6   1   -2.80    8.30 
   5   6   1   -2.40    6.80 
   1  -7  -1   -5.80   12.00 
  -1   7   1   10.70   12.50 
   1   7  -1   18.00   13.00 
  -1   7   1  -19.60   11.20 
   1   7  -1   13.50   12.00 
   0  -7  -1   40.50   17.30 
   0   7   1   69.09   20.10 
   0   7  -1   55.49   16.70 
   0   7  -1   36.00   14.90 
   1  -7   1   27.40   17.10 
   1  -7   1   25.50   14.30 
   1   7   1   19.90   15.30 
  -1   7  -1   34.30   15.30 
   1   7   1   26.30   13.80 
  -1   7  -1   19.80   14.00 
  11   0  -2   19.20   10.60 
  10   0  -2  146.89   22.00 
  10   0  -2  130.29   18.50 
  -9   0   2  399.36   31.00 
   9   0  -2  357.56   29.90 
   9   0  -2  349.07   33.20 
   8   0  -2  925.51   63.29 
   8   0  -2  923.11   65.69 
  -8   0   2 1095.19   60.89 
   7   0  -2   19.50    9.10 
   7   0  -2   19.30    7.10 
  -7   0   2   25.30    6.80 
  -6   0   2 1963.30  107.99 
  -6   0   2 1918.81  111.49 
   6   0  -2 1786.72  108.49 
   6   0  -2 1888.21  112.09 
   5   0  -2 2905.91  165.18 
  -5   0   2 3031.40  167.78 
   5   0  -2 2980.00  168.28 
  -5   0   2 2925.41  164.48 
   4   0  -2 1507.15   87.49 
  -4   0   2 1467.15   86.19 
  -4   0   2 1514.65   87.39 
   4   0  -2 1497.45   84.99 
   3   0  -2  951.10   55.49 
  -3   0   2  920.01   53.19 
  -3   0   2  930.41   55.19 
   3   0  -2  941.31   53.49 
   1   0  -2  128.89    7.90 
  -1   0   2  119.79    7.70 
  -1   0   2  115.59    8.10 
   1   0  -2  124.39    8.30 
   0   0  -2 1462.75   77.19 
   0   0  -2 1372.06   76.89 
   0   0   2 1371.86   76.79 
   0   0   2 1356.86   76.79 
   0   0   2 1434.66   77.19 
   0   0  -2 1389.66   76.99 
   2   0   2  611.74   36.00 
  -2   0  -2  592.14   35.70 
  -2   0  -2  586.14   35.70 
   2   0   2  605.74   35.50 
  -3   0  -2   56.79    7.20 
   3   0   2   62.59    7.50 
  -3   0  -2   47.20    6.70 
   3   0   2   54.09    7.50 
  -4   0  -2 5626.24  339.87 
   4   0   2 6591.64  341.77 
   4   0   2 6369.16  341.17 
  -4   0  -2 6211.68  341.37 
  -5   0  -2 1088.99   68.09 
   5   0   2 1174.68   69.89 
  -5   0  -2 1132.39   69.69 
  -6   0  -2  569.34   37.50 
   6   0   2  513.35   38.20 
   6   0   2  531.85   38.90 
   7   0   2  202.58   21.60 
   7   0   2  203.78   21.60 
   8   0   2  636.54   47.50 
   8   0   2  648.04   47.30 
   9   0   2   57.59   15.90 
   9   0   2   23.80   11.30 
  10   0   2   -3.00    8.60 
  10   0   2   -6.00    8.40 
  11  -1  -2   99.39   19.60 
  11  -1  -2  152.78   26.40 
  11   1  -2  103.99   16.00 
  10  -1  -2   31.20   14.60 
 -10  -1   2   49.10    9.70 
  10  -1  -2   33.70   12.90 
  10   1  -2    8.40   11.20 
  10   1  -2   22.30    8.90 
   9  -1  -2   20.90   12.50 
   9  -1  -2   23.60   10.70 
   9   1  -2    6.10    8.60 
   9   1  -2   17.70    7.90 
   8  -1  -2  597.84   46.20 
  -8  -1   2  592.14   37.30 
   8  -1  -2  591.94   42.90 
   8   1  -2  503.65   36.90 
   8   1  -2  532.85   41.40 
   7  -1  -2  691.33   48.90 
   7  -1  -2  650.03   45.80 
   7   1  -2  611.04   40.30 
  -7   1   2  643.54   43.40 
   7   1  -2  621.24   44.50 
   6  -1  -2  847.52   57.69 
  -6  -1   2  800.82   55.39 
   6  -1  -2  880.01   55.69 
  -6   1   2  848.12   53.79 
   6   1  -2  814.72   54.19 
   6   1  -2  879.91   50.59 
   5  -1  -2  461.05   34.00 
   5  -1  -2  467.35   32.60 
  -5  -1   2  400.56   26.80 
  -5  -1   2  390.46   31.30 
   5   1  -2  465.15   31.50 
  -5   1   2  464.65   31.30 
   5   1  -2  478.45   27.80 
  -5   1   2  464.65   31.90 
   4  -1  -2 1902.71  107.59 
   4  -1  -2 1921.21  106.79 
  -4  -1   2 1790.32  105.39 
  -4  -1   2 1887.71  100.89 
   4   1  -2 1837.32  105.09 
   4   1  -2 1794.62  101.39 
  -4   1   2 1764.72  105.39 
  -4   1   2 1835.82  105.69 
  -3  -1   2 1609.54   92.49 
   3  -1  -2 1602.24   97.69 
   3  -1  -2 1660.13   97.59 
  -3  -1   2 1703.03   96.09 
   3   1  -2 1817.82   95.89 
   3   1  -2 1731.93   92.69 
  -3   1   2 1780.22   97.49 
  -3   1   2 1717.13   97.09 
  -2   1   2 8994.40  489.95 
   1  -1  -2 1985.60  114.79 
   1  -1  -2 2041.60  115.59 
  -1  -1   2 2032.80  113.49 
   1  -1  -2 2065.89  116.09 
  -1  -1   2 2002.80  112.89 
  -1   1   2 2105.89  115.89 
   1   1  -2 2047.40  113.49 
  -1   1   2 2094.39  114.89 
  -1   1   2 2127.29  115.99 
   1   1  -2 2155.08  112.69 
   0  -1   2 1174.98   70.19 
   0  -1  -2 1137.29   70.59 
   0  -1   2 1238.38   68.09 
   0  -1  -2 1194.88   69.69 
   0   1  -2 1302.67   67.79 
   0   1  -2 1282.67   70.09 
   0   1   2 1279.97   69.69 
   0   1   2 1262.57   73.09 
  -1  -1  -2 4334.97  223.78 
   1  -1   2 4103.49  225.68 
  -1  -1  -2 4300.17  224.98 
   1  -1   2 4333.47  222.98 
  -1   1  -2 3811.92  222.58 
   1   1   2 4087.39  224.48 
   1   1   2 4041.10  225.48 
  -1   1  -2 3646.24  224.48 
   2  -1   2 3432.16  204.18 
  -2  -1  -2 3458.95  202.78 
   2  -1   2 3481.05  202.38 
  -2  -1  -2 3559.04  201.48 
  -2   1  -2 3694.03  203.68 
   2   1   2 4012.80  202.58 
   2   1   2 3958.70  200.98 
  -2   1  -2 3718.53  202.08 
   3  -1   2 2029.60  119.29 
  -3  -1  -2 2019.60  117.49 
   3  -1   2 1962.30  117.89 
  -3  -1  -2 2125.59  116.09 
  -3   1  -2 2022.40  117.99 
  -3   1  -2 2110.99  116.99 
   3   1   2 2136.49  116.29 
   3   1   2 2070.99  114.59 
   4  -1   2 1327.87   81.69 
   4  -1   2 1399.06   81.79 
  -4  -1  -2 1420.06   79.09 
  -4   1  -2 1355.86   80.49 
   4   1   2 1282.37   76.69 
  -4   1  -2 1320.57   79.39 
   4   1   2 1310.27   79.99 
  -5  -1  -2  768.32   52.69 
  -5  -1  -2  914.21   56.49 
   5  -1   2  930.21   56.89 
   5  -1   2  873.81   56.19 
  -5   1  -2  851.21   53.79 
   5   1   2  835.82   51.59 
   5   1   2  771.92   52.19 
  -5   1  -2  841.82   54.49 
   6  -1   2 1048.80   63.39 
   6  -1   2  971.60   62.49 
   6   1   2  895.91   58.79 
   6   1   2  830.22   56.99 
   7  -1   2  252.17   26.50 
   7  -1   2  303.87   28.50 
   7   1   2  285.67   25.90 
   7   1   2  301.17   24.70 
   8  -1   2  239.98   25.40 
   8  -1   2  168.38   23.20 
   8   1   2  191.98   22.10 
   8   1   2  190.48   21.30 
   9  -1   2    4.70   10.80 
   9  -1   2   24.10   12.80 
   9   1   2   16.30    9.70 
   9   1   2    6.20    9.20 
  10  -1   2   59.89   17.30 
  10  -1   2   61.29   16.60 
  10   1   2   59.19   14.60 
  10   1   2   79.99   20.00 
  11  -2  -2   12.90   13.40 
  11  -2  -2   35.40   14.10 
  11   2  -2   10.90   10.50 
  10  -2  -2   99.49   20.10 
  10  -2  -2   42.20   17.50 
  10   2  -2   64.19   15.70 
  10   2  -2   41.50    9.50 
   9  -2  -2  280.47   30.10 
  -9  -2   2  212.78   20.50 
   9  -2  -2  282.97   34.00 
   9   2  -2  314.17   22.10 
   9   2  -2  314.17   29.40 
   8  -2  -2  274.47   26.90 
  -8  -2   2  212.28   16.60 
   8  -2  -2  214.48   27.70 
   8   2  -2  169.68   15.90 
   8   2  -2  171.88   21.30 
   7  -2  -2    9.90    9.50 
   7  -2  -2   11.80    9.60 
  -7  -2   2   11.20    4.70 
   7   2  -2   17.40    8.50 
   7   2  -2   13.50    4.90 
   6  -2  -2  293.97   28.30 
  -6  -2   2  266.37   18.70 
   6  -2  -2  270.67   26.70 
   6   2  -2  278.77   18.60 
   6   2  -2  290.67   23.00 
  -5  -2   2 2707.63  152.18 
  -5  -2   2 2600.64  145.69 
   5  -2  -2 2665.43  154.38 
   5  -2  -2 2606.34  154.88 
   5   2  -2 2588.64  148.99 
   5   2  -2 2646.84  144.79 
  -5   2   2 2660.83  155.08 
  -5   2   2 2685.93  152.98 
  -4  -2   2 1472.65   84.99 
   4  -2  -2 1489.45   88.29 
   4  -2  -2 1431.66   88.19 
  -4  -2   2 1486.35   80.59 
  -4   2   2 1400.16   85.59 
  -4   2   2 1403.56   86.49 
   4   2  -2 1432.06   82.89 
   4   2  -2 1429.06   81.19 
   4   2  -2 1444.06   79.49 
   3  -2  -2  734.93   47.50 
  -3  -2   2  734.93   44.40 
   3  -2  -2  651.33   46.50 
  -3   2   2  738.73   47.00 
   3   2  -2  732.93   43.00 
   3   2  -2  718.73   42.20 
   3   2  -2  727.83   41.00 
  -3   2   2  717.83   45.90 
   2  -2  -2 2071.89  117.19 
  -2  -2   2 2088.09  113.59 
   2  -2  -2 2179.38  117.39 
  -2  -2   2 2031.00  112.49 
   2   2  -2 2026.50  111.79 
   2   2  -2 2047.00  114.19 
  -2   2   2 1941.31  114.99 
   2   2  -2 1969.60  112.69 
  -2   2   2 1931.21  116.09 
   2   2  -2 1983.80  112.49 
  -2   2   2 1942.81  115.69 
   1  -2  -2 2304.27  143.19 
   1  -2  -2 2450.55  144.09 
  -1  -2   2 2422.56  141.39 
  -1   2   2 2693.23  144.39 
  -1   2   2 2592.94  142.59 
   1   2  -2 2516.45  142.99 
   1   2  -2 2673.83  140.49 
  -1   2   2 2602.74  144.09 
   1   2  -2 2571.44  141.59 
   0  -2  -2 2419.96  145.89 
   0  -2   2 2437.46  143.19 
   0  -2   2 2571.64  145.39 
   0  -2  -2 2466.25  144.49 
   0   2  -2 2687.13  145.29 
   0   2  -2 2644.54  143.19 
   0   2   2 2639.34  146.59 
   0   2   2 2687.13  146.29 
   0   2   2 2677.03  144.49 
   1  -2   2 1551.24   80.29 
   1  -2   2 1612.34   83.39 
  -1  -2  -2 1561.84   82.99 
  -1  -2  -2 1495.05   80.59 
  -1   2  -2 1267.17   78.49 
   1   2   2 1250.67   79.09 
  -1   2  -2 1245.18   81.09 
   1   2   2 1272.37   80.69 
   1   2   2 1266.17   82.09 
  -2  -2  -2  203.48   18.20 
   2  -2   2  231.68   20.40 
   2  -2   2  210.28   17.00 
  -2  -2  -2  234.08   17.40 
  -2   2  -2  237.08   16.90 
  -2   2  -2  224.68   19.40 
   2   2   2  205.28   19.10 
   2   2   2  236.98   16.60 
   2   2   2  220.08   17.90 
  -3  -2  -2   27.70    6.10 
   3  -2   2   29.60   12.90 
   3  -2   2   43.40    8.80 
  -3   2  -2   35.50    6.80 
  -3   2  -2   39.90   10.60 
   3   2   2   44.90    6.90 
   3   2   2   41.60    9.10 
  -4  -2  -2 1303.47   83.39 
  -4  -2  -2 1329.47   80.69 
   4  -2   2 1352.96   85.99 
   4  -2   2 1393.66   84.19 
   4   2   2 1413.16   81.29 
   4   2   2 1427.66   78.59 
  -4   2  -2 1356.96   84.09 
  -5  -2  -2  925.81   63.09 
   5  -2   2  947.61   67.99 
   5  -2   2 1020.30   68.39 
  -5   2  -2 1086.49   65.79 
   5   2   2 1092.69   63.89 
   5   2   2 1074.09   60.89 
  -6  -2  -2  645.04   48.80 
   6  -2   2  716.23   54.69 
   6  -2   2  756.22   54.09 
   6   2   2  783.02   46.40 
   6   2   2  768.62   49.10 
   7  -2   2  217.78   26.60 
   7  -2   2  233.28   25.90 
   7   2   2  233.88   20.70 
   8  -2   2  209.28   27.90 
   8  -2   2  257.17   31.30 
   8   2   2  242.18   25.90 
   8   2   2  257.17   23.30 
   9  -2   2   35.00   15.70 
   9  -2   2   25.60   12.60 
   9   2   2   16.60   10.70 
   9   2   2   22.20   10.00 
  10  -2   2   85.49   20.40 
  10   2   2   68.39   17.00 
  10   2   2   75.09   15.70 
  10  -3  -2    3.30   13.40 
  10  -3  -2   17.40   16.90 
  10   3  -2    9.00   11.20 
   9  -3  -2   23.40   13.80 
   9  -3  -2   14.40   15.50 
  -9  -3   2   19.50    6.40 
   9   3  -2   13.80    5.40 
   9   3  -2    9.50    9.50 
   8  -3  -2   82.69   20.60 
  -8  -3   2  108.69   11.00 
   8  -3  -2  104.79   20.60 
   8   3  -2   97.39   16.70 
   8   3  -2   78.29   10.90 
   8   3  -2   74.59    9.60 
   7  -3  -2  241.78   30.10 
   7   3  -2  322.97   21.30 
   7   3  -2  351.56   23.70 
   7   3  -2  315.67   27.40 
   6  -3  -2  586.74   45.70 
   6  -3  -2  637.14   47.40 
   6   3  -2  558.74   38.80 
   6   3  -2  528.85   35.90 
   6   3  -2  536.55   33.00 
   5  -3  -2  180.78   23.60 
   5  -3  -2  205.88   23.00 
   5   3  -2  204.28   14.10 
   5   3  -2  210.28   16.90 
   5   3  -2  210.68   18.00 
   4  -3  -2  687.43   47.00 
  -4  -3   2  656.43   42.70 
   4  -3  -2  685.73   47.50 
   4   3  -2  604.44   37.30 
   4   3  -2  632.44   40.20 
   4   3  -2  616.74   39.70 
   4   3  -2  544.95   42.20 
   3  -3  -2 1056.99   75.09 
  -3  -3   2 1011.10   71.39 
   3  -3  -2 1045.90   75.39 
   3   3  -2 1328.67   69.49 
  -3   3   2 1251.77   76.19 
   3   3  -2 1292.07   71.69 
   3   3  -2 1278.87   71.09 
  -3   3   2 1247.58   74.69 
   3   3  -2 1266.87   73.89 
   2  -3  -2 3097.89  162.38 
  -2  -3   2 3069.59  156.98 
   2  -3  -2 3110.69  162.28 
   2   3  -2 2577.84  155.28 
  -2   3   2 2708.93  158.88 
   2   3  -2 2712.63  157.88 
  -2   3   2 2657.03  160.18 
   2   3  -2 2761.62  155.28 
   2   3  -2 2585.54  156.38 
  -2   3   2 2562.44  158.88 
  -1  -3   2  641.54   44.10 
   1  -3  -2  593.54   45.70 
  -1  -3   2  657.43   43.40 
  -1   3   2  714.93   47.00 
  -1   3   2  757.22   46.00 
   1   3  -2  697.13   42.90 
   1   3  -2  745.73   44.40 
   1   3  -2  694.83   44.40 
  -1   3   2  677.83   46.60 
   0  -3   2  472.45   31.00 
   0  -3   2  468.25   32.40 
   0   3  -2  457.65   31.80 
   0   3   2  406.56   33.10 
   0   3  -2  409.06   29.70 
   0   3   2  430.36   32.90 
   1  -3   2  543.05   37.50 
  -1  -3  -2  534.25   37.20 
   1  -3   2  592.64   35.00 
  -1  -3  -2  543.05   36.80 
   1   3   2  435.46   32.50 
   1   3   2  433.56   37.20 
   1   3   2  465.25   36.50 
  -1   3  -2  438.36   32.10 
   1   3   2  439.46   34.10 
   2  -3   2 1900.51  119.69 
   2  -3   2 1950.70  123.49 
  -2   3  -2 2096.69  122.59 
   2   3   2 2180.78  121.59 
   2   3   2 2120.39  120.99 
   2   3   2 2120.39  123.79 
  -2   3  -2 2136.79  118.69 
  -3  -3  -2  507.15   33.80 
   3  -3   2  529.95   39.30 
   3  -3   2  501.85   34.90 
  -3   3  -2  444.96   33.50 
   3   3   2  448.26   33.60 
   3   3   2  459.45   31.40 
   3   3   2  435.36   34.00 
  -4  -3  -2    3.50    5.30 
   4  -3   2    4.10    6.40 
   4  -3   2    6.30    8.30 
   4   3   2    8.20    5.30 
   4   3   2    9.00    6.30 
  -4   3  -2   13.50    6.20 
  -5  -3  -2   34.20    9.40 
   5  -3   2   35.10   12.50 
   5  -3   2   32.50   11.10 
   5   3   2    8.60    7.60 
   6  -3   2  240.78   31.00 
   6   3   2  364.46   24.40 
   6   3   2  343.57   28.50 
   7  -3   2  331.77   36.20 
   7   3   2  330.07   29.70 
   7   3   2  353.26   26.30 
   8  -3   2  131.89   26.60 
   8  -3   2  103.69   22.00 
   8   3   2   93.69   17.60 
   8   3   2  128.79   15.70 
   9  -3   2   33.00   15.50 
   9  -3   2   24.00   14.50 
   9   3   2   12.60   17.00 
   9   3   2   27.10    9.90 
   9  -4  -2   99.69   23.00 
   9   4  -2  108.59   19.60 
   8  -4  -2  114.89   26.30 
   8  -4  -2  103.19   23.10 
   8   4  -2   96.89   17.30 
   8   4  -2  108.59   10.90 
   7  -4  -2   61.89   18.40 
   7  -4  -2   69.29   19.90 
   7   4  -2   76.59    8.50 
   7   4  -2   77.09   14.50 
   7   4  -2   83.19   12.10 
   6  -4  -2  195.18   26.80 
   6  -4  -2  205.38   28.60 
   6   4  -2  230.48   21.40 
   6   4  -2  215.78   19.50 
   6   4  -2  224.68   16.00 
   5  -4  -2  362.96   36.40 
   5  -4  -2  411.56   38.50 
   5   4  -2  428.56   27.00 
   5   4  -2  424.76   31.00 
   5   4  -2  416.66   30.90 
   4  -4  -2  281.37   29.60 
   4  -4  -2  259.67   29.80 
   4   4  -2  285.87   21.10 
   4   4  -2  284.27   24.10 
   4   4  -2  298.67   23.60 
   3  -4  -2   84.99   16.70 
   3  -4  -2  117.29   16.90 
  -3   4   2   50.89   12.70 
   3   4  -2   51.99   11.00 
   3   4  -2   60.19   10.80 
   3   4  -2   74.99   10.40 
   3   4  -2   67.69   13.30 
   2  -4  -2  272.47   26.40 
   2  -4  -2  252.47   26.40 
   2   4  -2  224.88   24.70 
   2   4  -2  233.68   22.80 
  -2   4   2  253.97   24.40 
   2   4  -2  256.37   21.30 
  -1  -4   2  363.46   28.10 
  -1  -4   2  375.46   28.70 
   1  -4  -2  366.76   31.80 
   1  -4  -2  343.37   30.50 
   1   4  -2  318.87   26.30 
  -1   4   2  300.57   27.50 
   1   4  -2  302.77   27.10 
   0  -4   2  364.16   31.20 
   0  -4   2  364.06   32.60 
   0  -4  -2  388.66   34.10 
   0   4   2  441.26   32.20 
   0   4  -2  427.36   33.00 
   0   4  -2  474.05   35.40 
   0   4   2  458.75   35.00 
   1  -4   2  146.39   19.30 
  -1  -4  -2  142.29   17.60 
  -1   4  -2   88.09   12.60 
   1   4   2   92.79   14.40 
   1   4   2   84.69   15.00 
   2  -4   2  110.89   19.00 
   2  -4   2  128.39   16.40 
   2   4   2   98.19   13.00 
   2   4   2  124.19   15.90 
  -2   4  -2  110.89   13.60 
   3  -4   2    3.30    6.40 
   3  -4   2    3.10    9.00 
   3   4   2    6.10    6.70 
   3   4   2    9.70    6.50 
   4  -4   2  538.55   47.10 
   4  -4   2  490.45   41.80 
   4   4   2  558.54   40.80 
   4   4   2  592.74   37.50 
   5  -4   2  285.17   29.80 
   5  -4   2  236.38   31.00 
   5   4   2  296.97   22.70 
   5   4   2  262.87   25.00 
   6  -4   2   37.20   17.10 
   6  -4   2   41.60   18.30 
   6   4   2   19.90    7.60 
   6   4   2   14.70    9.40 
   7  -4   2   21.20   16.60 
   7  -4   2   10.20   13.90 
   7   4   2   11.60    9.30 
   7   4   2   14.50    7.10 
   8  -4   2   31.40   17.50 
   8  -4   2   16.40   14.90 
   8   4   2   31.40   12.50 
   8   4   2   40.60   10.00 
   8  -5  -2   17.60   14.60 
   8  -5  -2   17.90   19.00 
   8   5  -2    9.00   10.00 
   7  -5  -2  158.58   30.20 
   7  -5  -2  162.38   31.10 
   7   5  -2  209.58   15.80 
   7   5  -2  215.58   22.80 
   6  -5  -2   54.99   19.40 
   6  -5  -2   68.79   20.60 
   6   5  -2   49.30   13.50 
  -6   5   2   43.20   15.60 
   6   5  -2   28.40   10.70 
   5  -5  -2   59.49   16.10 
   5  -5  -2   53.89   18.00 
   5   5  -2   72.69   13.60 
   5   5  -2   59.29   12.60 
   5   5  -2   53.89    9.30 
  -5   5   2   52.59   16.90 
   4  -5  -2   63.79   16.70 
   4  -5  -2   60.39   17.50 
   4   5  -2   61.69   10.80 
  -4   5   2   76.09   17.10 
   4   5  -2   71.59   13.40 
   3  -5  -2  672.83   57.79 
   3   5  -2  799.22   50.39 
   3   5  -2  738.33   50.89 
  -3   5   2  808.22   57.29 
   2  -5  -2  103.69   25.00 
   2  -5  -2   71.99   17.50 
  -2   5   2   95.59   20.80 
   2   5  -2  113.99   16.00 
   2   5  -2  118.19   15.80 
  -1  -5   2   30.00   10.70 
   1  -5  -2   30.70   12.60 
   1   5  -2   56.89   12.80 
  -1   5   2   36.80   13.50 
  -1   5   2   31.90   12.70 
   1   5  -2   46.80   12.00 
   0  -5  -2  186.98   24.30 
   0  -5   2  187.98   22.40 
   0  -5   2  196.58   23.60 
   0   5   2  216.18   25.00 
   0   5   2  215.78   22.70 
   0   5  -2  197.28   22.50 
   0   5  -2  231.68   23.00 
   1  -5   2  156.68   19.70 
   1  -5   2  145.59   20.30 
  -1  -5  -2  125.39   21.60 
   1   5   2   94.59   18.80 
   1   5   2   89.79   15.60 
   2  -5   2  244.28   25.90 
   2   5   2  216.78   22.60 
   3  -5   2   33.60   14.10 
   3  -5   2   34.00   12.70 
   3   5   2    9.50    8.90 
   3   5   2    0.10    6.50 
   4  -5   2    6.60   13.00 
   4  -5   2    7.50    9.90 
   4   5   2    5.80    7.30 
   4   5   2   15.70   10.10 
   5  -5   2   13.70   10.80 
   5  -5   2   -7.50   10.90 
   5   5   2    0.60    7.30 
   5   5   2    4.70    9.10 
   6  -5   2   72.79   20.30 
   6  -5   2   50.99   17.20 
   6   5   2   65.49   15.90 
   7  -5   2   39.30   18.40 
   7  -5   2  -11.60   12.70 
   7   5   2    4.20    6.90 
   7   5   2    7.20    8.80 
   6  -6  -2  -25.90   13.70 
   6  -6  -2   -2.20   11.10 
  -6   6   2    1.80   10.50 
   6   6  -2   -2.60    5.90 
   6   6  -2    8.20    9.70 
   5  -6  -2  112.39   23.90 
   5  -6  -2  129.59   27.90 
   5   6  -2  112.89   15.10 
   5   6  -2  123.49   18.00 
  -5   6   2  114.89   24.10 
   4  -6  -2   32.70   16.00 
   4  -6  -2   16.60   15.30 
  -4   6   2   26.40   13.20 
   4   6  -2   40.00   11.50 
   4   6  -2   34.10    9.80 
   3  -6  -2   46.30   16.50 
   3  -6  -2   16.10   14.60 
   3   6  -2   35.60   11.50 
   3   6  -2   34.00   11.40 
  -3   6   2   39.30   14.20 
   2  -6  -2   35.70   16.60 
   2  -6  -2   27.60   15.40 
  -2   6   2   31.40   13.10 
   2   6  -2   41.30   14.50 
   1  -6  -2   53.89   17.80 
  -1  -6   2   45.50   14.10 
   1   6  -2   62.99   14.90 
  -1   6   2   74.59   19.50 
   1   6  -2   67.19   15.30 
  -1   6   2   67.59   17.00 
   0  -6  -2  148.49   25.20 
   0  -6   2  136.99   23.70 
   0  -6   2  158.18   25.10 
   0   6  -2  155.18   21.70 
   0   6   2  150.68   23.40 
   0   6  -2  133.29   21.90 
   0   6   2  143.69   24.80 
   1  -6   2   58.99   17.10 
   1  -6   2   47.10   13.90 
   1   6   2   27.40   14.60 
   1   6   2   14.00    9.90 
  -1   6  -2   17.60   11.50 
  -1   6  -2   30.80   13.00 
   2  -6   2    9.60   10.80 
   2   6   2    6.40    9.30 
   2   6   2   -1.20   10.10 
  -2   6  -2    3.10   10.10 
   3  -6   2   -4.40   10.50 
   3  -6   2   25.20   12.60 
   3   6   2    7.40    9.80 
   3   6   2   10.00    8.90 
   4  -6   2    4.00   12.00 
   4  -6   2    7.70   15.00 
   4   6   2   -8.00    9.90 
   4   6   2    9.20    8.70 
   5  -6   2    0.60   13.70 
   5  -6   2   25.30   13.60 
   5   6   2   24.20   10.10 
   5   6   2   16.70   11.50 
   1  -7  -2   55.79   19.70 
   1   7  -2   47.90   15.50 
   1   7  -2   57.09   16.10 
  -1   7   2   22.90   12.70 
  -1   7   2   65.79   19.80 
   0  -7  -2   82.09   22.20 
   0  -7   2   44.70   17.90 
   0   7   2   47.60   18.70 
   0   7   2   43.90   16.50 
   0   7  -2   56.49   16.00 
   0   7  -2   66.99   17.30 
  11   0  -3  245.68   29.30 
  11   0  -3  213.88   23.90 
  10   0  -3  106.99   20.00 
  10   0  -3  112.19   16.60 
   9   0  -3  101.19   14.70 
   9   0  -3  100.49   18.80 
  -9   0   3   87.39   11.80 
   8   0  -3 1009.60   65.59 
   8   0  -3 1046.90   70.49 
  -8   0   3 1095.29   63.39 
   7   0  -3 1201.18   76.79 
  -7   0   3 1373.46   75.89 
   7   0  -3 1286.47   81.39 
   6   0  -3  992.50   64.79 
  -6   0   3  996.70   59.69 
  -6   0   3 1049.30   63.79 
   6   0  -3 1010.30   60.99 
   5   0  -3   12.30    4.60 
  -5   0   3    9.50    3.90 
  -5   0   3   20.10    6.40 
   5   0  -3   12.50    6.50 
  -4   0   3  675.93   43.20 
   4   0  -3  719.43   44.00 
   4   0  -3  662.73   40.90 
  -4   0   3  706.23   40.70 
  -3   0   3 5549.54  292.27 
  -3   0   3 5250.67  291.67 
   3   0  -3 5386.76  292.27 
   3   0  -3 5371.86  294.27 
  -3   0   3 5264.57  293.77 
   2   0  -3 2818.22  151.48 
  -2   0   3 2912.11  152.08 
  -2   0   3 2695.33  152.28 
   2   0  -3 2658.93  152.68 
   0   0   3  475.45   27.80 
   0   0   3  480.45   27.40 
   0   0  -3  442.86   28.40 
  -3   0  -3 1521.65   87.09 
   3   0   3 1541.85   87.39 
   3   0   3 1525.25   86.49 
  -3   0  -3 1453.25   86.69 
   4   0   3  163.88   15.50 
   4   0   3  160.38   15.40 
  -4   0  -3  165.28   17.10 
  -4   0  -3  196.88   16.60 
  -5   0  -3  299.67   24.30 
   5   0   3  321.47   25.10 
  -5   0  -3  312.17   25.40 
   5   0   3  304.87   24.80 
   6   0   3  865.81   57.39 
   6   0   3  880.21   57.69 
   7   0   3   25.80    9.70 
   7   0   3   26.50   10.50 
   8   0   3  121.49   18.70 
   8   0   3  158.18   20.30 
   9   0   3   -8.40    8.20 
   9   0   3   -2.90    8.20 
  10   0   3   23.00   12.50 
  11  -1  -3   15.00   12.30 
  11  -1  -3   11.70   22.30 
  11   1  -3   16.30    7.30 
  11   1  -3  -15.10    9.50 
  10  -1  -3  113.49   19.40 
 -10  -1   3  120.39   13.10 
  10  -1  -3  116.19   23.30 
  10   1  -3   86.79   18.20 
  10   1  -3   81.29   13.20 
   9  -1  -3 1051.89   71.49 
  -9  -1   3 1081.39   59.09 
   9  -1  -3  943.21   65.19 
   9   1  -3  884.11   59.09 
   9   1  -3  877.81   65.09 
   8  -1  -3  138.49   18.70 
  -8  -1   3  154.58   14.60 
   8  -1  -3  163.88   22.50 
  -8   1   3  220.38   19.80 
   8   1  -3  196.28   21.60 
   8   1  -3  198.88   16.10 
  -7  -1   3   33.50    5.90 
   7  -1  -3   29.20    9.90 
   7  -1  -3   41.80   12.60 
  -7   1   3   50.89   10.00 
   7   1  -3   48.00    7.60 
   7   1  -3   51.49   11.70 
   6  -1  -3 1317.67   84.29 
  -6  -1   3 1293.47   84.69 
   6  -1  -3 1344.47   87.29 
   6   1  -3 1461.85   79.19 
   6   1  -3 1517.25   84.99 
  -6   1   3 1437.86   83.59 
   5  -1  -3 3472.25  189.08 
  -5  -1   3 3238.68  181.98 
   5  -1  -3 3402.56  190.98 
  -5  -1   3 2799.62  187.48 
  -5   1   3 3327.67  188.38 
  -5   1   3 3483.15  188.08 
   5   1  -3 3500.55  182.88 
   5   1  -3 3569.54  188.48 
   4  -1  -3 2146.99  125.59 
   4  -1  -3 2214.08  127.09 
   4   1  -3 2243.48  124.79 
  -4   1   3 2196.68  125.29 
  -4   1   3 2212.58  125.09 
   3  -1  -3 1287.17   70.29 
  -3  -1   3 1220.58   68.19 
   3  -1  -3 1227.68   70.79 
  -3   1   3 1116.69   68.49 
  -3   1   3 1142.59   69.39 
   3   1  -3 1170.88   68.09 
  -3   1   3 1154.28   69.39 
   2  -1  -3 2556.04  147.59 
  -2  -1   3 2625.34  143.99 
   2  -1  -3 2554.84  146.89 
  -2  -1   3 2625.64  143.29 
  -2   1   3 2765.02  147.29 
  -2   1   3 2635.24  146.09 
  -2   1   3 2713.13  147.29 
   2   1  -3 2661.33  142.59 
   2   1  -3 2534.15  144.29 
  -1  -1   3 6348.56  342.77 
   1  -1  -3 6929.21  345.17 
  -1   1   3 6064.79  344.37 
   1   1  -3 5764.92  340.07 
   1   1  -3 5981.20  341.47 
   1   1  -3 6706.33  340.37 
  -1   1   3 6256.47  344.37 
   0  -1   3 8706.53  474.65 
   1   1   3 1244.78   69.29 
   1   1   3 1140.39   66.19 
  -1   1  -3 1135.79   65.09 
   1   1   3 1191.78   67.79 
  -1   1  -3 1120.59   67.49 
   2  -1   3  228.78   18.80 
  -2  -1  -3  260.67   18.70 
   2  -1   3  268.67   21.20 
  -2  -1  -3  271.67   19.90 
   2   1   3  274.37   17.80 
   2   1   3  264.27   19.10 
  -2   1  -3  257.57   20.00 
  -2   1  -3  276.97   18.10 
  -3  -1  -3 1855.91   98.79 
  -3  -1  -3 1903.01   97.59 
   3  -1   3 1940.21  101.29 
   3  -1   3 1746.93   98.59 
   3   1   3 1504.35   94.69 
  -3   1  -3 1532.55   97.69 
   3   1   3 1539.45   95.99 
  -3   1  -3 1536.15   95.99 
  -4  -1  -3 1693.93   98.99 
  -4  -1  -3 1650.03   99.89 
   4  -1   3 1700.33  101.59 
   4  -1   3 1687.23  100.39 
   4   1   3 1704.63   96.39 
  -4   1  -3 1689.03   98.19 
   4   1   3 1774.62   97.89 
  -4   1  -3 1632.34   99.19 
   5  -1   3  465.45   37.90 
   5  -1   3  448.86   38.40 
   5   1   3  668.03   36.70 
   6  -1   3  450.15   34.80 
   6  -1   3  435.66   34.20 
   6   1   3  376.96   29.90 
   6   1   3  368.26   30.20 
   7  -1   3   94.19   17.50 
   7  -1   3  115.59   19.50 
   7   1   3   89.89   15.10 
   7   1   3   89.19   15.50 
   8  -1   3  192.28   25.50 
   8  -1   3  229.38   25.70 
   8   1   3  203.28   23.20 
   8   1   3  217.38   23.00 
   9  -1   3   31.20   13.80 
   9  -1   3   27.40   13.80 
   9   1   3   46.40   13.70 
   9   1   3   43.70   13.10 
  10  -1   3   68.69   28.10 
  10  -1   3   41.30   14.80 
  10   1   3   40.80   14.60 
  10   1   3   49.40   14.10 
  11  -2  -3   85.19   18.50 
  11  -2  -3   53.09   20.40 
  11   2  -3   97.49   19.10 
  10  -2  -3  101.39   24.70 
  10  -2  -3  125.89   22.00 
  10   2  -3  131.29   21.40 
  10   2  -3  117.59   12.30 
   9  -2  -3   35.10   15.20 
  -9  -2   3   23.10    5.50 
   9  -2  -3   32.90   13.00 
   9   2  -3   31.40    6.30 
   9   2  -3   29.30   10.40 
   8  -2  -3  424.76   36.00 
   8  -2  -3  403.56   38.80 
   8   2  -3  356.86   32.20 
   8   2  -3  383.96   24.90 
   7  -2  -3 1252.07   84.79 
   7  -2  -3 1350.16   88.89 
  -7  -2   3 1274.57   73.99 
   7   2  -3 1379.26   74.59 
   7   2  -3 1371.46   82.09 
   6  -2  -3  713.53   49.30 
   6  -2  -3  708.13   46.60 
  -6  -2   3  593.14   55.39 
   6   2  -3  599.64   35.20 
  -6   2   3  571.04   43.70 
   6   2  -3  601.14   35.40 
   6   2  -3  590.14   41.30 
   5  -2  -3   23.70    8.80 
   5  -2  -3   28.30    9.00 
   5   2  -3   13.70    5.70 
  -5   2   3   19.40    7.00 
  -4  -2   3  236.28   21.60 
   4   2  -3  316.97   21.50 
   4   2  -3  329.07   17.40 
  -4   2   3  304.07   24.90 
   4   2  -3  329.17   18.30 
  -4   2   3  304.37   24.30 
   3  -2  -3 4987.50  265.67 
   3  -2  -3 5234.68  265.57 
  -3  -2   3 4886.01  260.67 
   3   2  -3 4611.04  259.17 
  -3   2   3 4662.33  262.87 
   3   2  -3 4515.75  258.07 
  -3   2   3 4582.24  263.97 
  -3   2   3 4460.75  263.27 
  -2  -2   3 2324.17  131.69 
   2  -2  -3 2272.67  135.69 
  -2  -2   3 2260.77  133.09 
   2  -2  -3 2427.66  137.39 
   2   2  -3 2437.96  131.89 
  -2   2   3 2412.96  136.19 
  -2   2   3 2479.95  134.89 
  -2   2   3 2342.77  135.79 
   2   2  -3 2407.86  130.89 
   1  -2  -3  738.23   49.70 
  -1  -2   3  780.02   49.10 
   1  -2  -3  780.92   51.89 
  -1   2   3  865.91   51.99 
   1   2  -3  873.81   49.40 
  -1   2   3  845.22   50.19 
   1   2  -3  863.21   47.00 
  -1   2   3  823.62   51.79 
   1   2  -3  804.52   47.40 
   0  -2  -3  234.58   21.20 
   0  -2   3  252.07   18.10 
   0  -2   3  261.07   20.90 
   0  -2  -3  243.88   20.00 
   0   2   3  294.87   20.40 
   0   2   3  290.17   21.60 
   0   2   3  316.27   22.30 
   0   2   3  312.97   22.90 
   0   2  -3  294.57   18.00 
   0   2  -3  287.37   20.80 
   1  -2   3 1516.25   80.79 
  -1  -2  -3 1399.06   77.49 
   1  -2   3 1441.66   75.79 
  -1  -2  -3 1458.85   79.89 
  -1   2  -3 1266.67   75.99 
  -1   2  -3 1173.68   77.69 
   1   2   3 1241.88   76.09 
   1   2   3 1199.28   77.49 
   1   2   3 1196.38   79.19 
  -2  -2  -3 3320.27  191.38 
   2  -2   3 3281.37  195.08 
   2  -2   3 3402.46  190.58 
  -2  -2  -3 3371.56  193.48 
  -2   2  -3 3364.26  193.58 
   2   2   3 3579.34  190.38 
   2   2   3 3510.45  192.58 
   2   2   3 3502.55  195.08 
  -2   2  -3 3535.75  190.08 
  -3  -2  -3  835.52   51.89 
   3  -2   3  880.41   52.89 
  -3  -2  -3  784.52   53.59 
   3  -2   3  797.62   56.29 
   3   2   3  789.42   54.59 
  -3   2  -3  830.42   51.39 
   3   2   3  865.31   52.59 
  -3   2  -3  844.12   54.49 
   3   2   3  870.41   50.29 
   4  -2   3   26.30   10.20 
  -4  -2  -3   20.90    7.20 
   4  -2   3   21.20    8.60 
   4   2   3   22.70    5.80 
   4   2   3   26.00    7.80 
  -5  -2  -3  130.29   15.80 
   5  -2   3  118.59   18.10 
   5  -2   3  118.39   19.70 
   5   2   3  146.69   13.50 
   5   2   3  139.29   15.20 
   6  -2   3  569.74   49.80 
   6  -2   3  682.23   51.19 
   6   2   3  699.33   46.40 
   6   2   3  713.53   43.80 
   7  -2   3   45.20   15.00 
   7  -2   3   47.10   15.90 
   7   2   3   68.19   12.40 
   7   2   3   59.69   13.10 
   8  -2   3  126.69   22.70 
   8  -2   3  113.29   22.60 
   8   2   3   93.19   17.20 
   8   2   3  105.49   15.60 
   9  -2   3   26.70   14.50 
   9  -2   3   24.40   14.60 
   9   2   3   16.80   10.50 
   9   2   3   20.10   10.60 
  10  -2   3   24.80   16.80 
  10  -2   3    9.50   19.80 
  10   2   3    2.90    9.80 
  10   2   3    9.30   10.80 
  10  -3  -3   56.69   18.90 
  10  -3  -3   29.20   15.20 
  10   3  -3   44.60   14.60 
   9  -3  -3   90.39   23.10 
   9  -3  -3  100.39   21.60 
   9   3  -3  121.69   19.40 
   8  -3  -3  120.69   23.10 
   8  -3  -3  111.79   23.80 
   8   3  -3  110.09    9.10 
   8   3  -3  117.29   18.60 
   7  -3  -3  191.38   27.80 
   7  -3  -3  202.28   25.10 
   7   3  -3  190.48   13.90 
   7   3  -3  194.58   13.30 
   7   3  -3  198.58   19.90 
   6  -3  -3  331.07   32.50 
   6  -3  -3  392.56   33.00 
   6   3  -3  304.87   19.10 
   6   3  -3  305.27   25.10 
   6   3  -3  302.97   20.60 
   5  -3  -3  944.61   61.69 
   5  -3  -3  902.81   61.29 
  -5  -3   3  870.51   56.39 
   5   3  -3  834.62   50.89 
   5   3  -3  835.82   48.50 
   5   3  -3  831.52   53.09 
  -4  -3   3 1828.32  105.49 
   4  -3  -3 1813.12  110.69 
   4  -3  -3 1895.61  111.19 
   4   3  -3 1771.12  102.79 
   4   3  -3 1796.52  101.99 
  -4   3   3 1827.42  108.29 
   4   3  -3 1833.62  100.29 
   4   3  -3 1667.43  105.59 
   3  -3  -3  358.06   31.70 
  -3  -3   3  342.97   27.30 
   3  -3  -3  368.06   32.20 
  -3   3   3  394.56   30.60 
  -3   3   3  416.56   35.30 
  -3   3   3  388.96   33.20 
   3   3  -3  406.26   29.00 
   3   3  -3  419.66   25.80 
   3   3  -3  437.86   27.30 
   3   3  -3  420.36   26.70 
  -2  -3   3 1845.12  100.79 
   2  -3  -3 1835.52  106.39 
   2  -3  -3 1803.32  105.29 
  -2   3   3 1726.13  104.69 
   2   3  -3 1669.53   98.69 
   2   3  -3 1781.12   99.29 
   2   3  -3 1753.22  101.09 
  -2   3   3 1717.03  102.89 
   2   3  -3 1629.34  100.09 
  -2   3   3 1672.33  103.79 
  -1  -3   3  899.71   59.69 
  -1  -3   3  922.91   57.99 
   1  -3  -3  941.71   63.39 
  -1   3   3 1015.20   60.99 
  -1   3   3 1036.30   63.49 
  -1   3   3 1000.60   63.29 
   1   3  -3 1014.30   57.79 
   1   3  -3  956.60   59.99 
   1   3  -3  991.50   58.69 
   0  -3  -3 2092.59  117.79 
   0  -3   3 2070.69  115.89 
   0  -3  -3 1968.30  114.49 
   0  -3   3 2091.19  112.69 
   0   3   3 1888.81  116.99 
   0   3  -3 1927.11  114.59 
   0   3   3 1882.91  113.49 
   0   3   3 1959.70  116.09 
   0   3   3 1914.11  116.29 
   0   3  -3 1879.41  111.39 
  -1  -3  -3  670.93   51.49 
  -1  -3  -3  645.74   49.00 
   1  -3   3  739.03   48.90 
   1  -3   3  708.73   51.89 
   1   3   3  811.72   52.09 
   1   3   3  866.21   52.39 
  -1   3  -3  791.12   51.59 
   1   3   3  849.22   49.70 
  -1   3  -3  861.11   48.10 
   1   3   3  880.11   54.99 
  -2  -3  -3  491.35   35.80 
   2  -3   3  506.65   35.40 
   2  -3   3  547.65   40.20 
   2   3   3  533.45   37.20 
  -2   3  -3  539.05   34.10 
   2   3   3  547.45   34.80 
  -2   3  -3  498.55   37.90 
   2   3   3  447.56   36.10 
   3  -3   3  215.18   23.50 
   3  -3   3  216.88   19.70 
  -3  -3  -3  219.08   19.70 
   3   3   3  227.38   20.30 
  -3   3  -3  180.98   17.90 
   3   3   3  206.98   17.40 
   4  -3   3  293.67   28.00 
   4  -3   3  330.87   32.40 
   4   3   3  368.06   25.70 
   4   3   3  339.47   28.00 
  -4   3  -3  372.26   27.60 
   5  -3   3  259.77   25.60 
   5  -3   3  255.47   28.50 
   5   3   3  191.18   20.90 
   5   3   3  188.68   17.80 
   6  -3   3   31.00   13.70 
   6  -3   3   24.30   12.90 
   6   3   3   41.30   11.80 
   6   3   3   29.80    8.10 
   7  -3   3   63.49   17.30 
   7  -3   3   36.60   16.30 
   7   3   3   63.69   11.40 
   7   3   3   23.20   11.00 
   8  -3   3   39.80   17.50 
   8  -3   3   42.70   16.20 
   8   3   3   59.39   14.60 
   8   3   3   64.59   13.10 
   9  -3   3   33.50   18.90 
   9   3   3   49.20   13.10 
   9   3   3   67.69   16.40 
   9  -4  -3   52.49   18.00 
   9  -4  -3   90.79   31.50 
   9   4  -3   58.59   15.50 
   8  -4  -3   33.60   18.70 
   8  -4  -3   21.80   15.10 
   8   4  -3   24.90   10.40 
   7  -4  -3  119.29   23.50 
   7  -4  -3  141.69   27.40 
   7   4  -3  121.59   10.00 
   7   4  -3  132.89   12.40 
   6  -4  -3  282.87   30.90 
   6  -4  -3  284.07   31.80 
   6   4  -3  203.58   18.20 
   6   4  -3  209.08   15.20 
   6   4  -3  245.48   21.60 
   5  -4  -3  122.59   22.40 
   5  -4  -3  137.69   24.10 
  -5   4   3  142.39   21.20 
   5   4  -3  140.89   14.70 
   5   4  -3  150.58   12.00 
   5   4  -3  144.69   15.50 
   4  -4  -3  264.77   29.80 
   4  -4  -3  288.97   30.50 
  -4   4   3  308.37   29.10 
   4   4  -3  280.97   26.30 
   4   4  -3  330.67   24.00 
   4   4  -3  314.17   24.00 
   4   4  -3  295.37   21.40 
   3  -4  -3  238.58   24.20 
   3   4  -3  165.38   16.00 
   3   4  -3  164.08   15.20 
   3   4  -3  152.58   17.70 
  -3   4   3  162.28   19.60 
   3   4  -3  139.19   16.10 
  -2  -4   3  899.41   57.79 
   2  -4  -3  843.12   62.09 
   2  -4  -3  915.81   63.49 
  -2   4   3  899.71   60.59 
   2   4  -3  917.31   56.89 
   2   4  -3  906.81   55.79 
   2   4  -3  924.11   58.49 
   2   4  -3  899.51   60.89 
  -1  -4   3  791.32   55.29 
   1  -4  -3  848.62   59.29 
  -1  -4   3  824.22   53.49 
  -1   4   3  833.92   55.89 
   1   4  -3  871.71   55.89 
   1   4  -3  877.21   53.09 
   1   4  -3  828.12   53.89 
   0  -4   3  448.56   33.20 
   0  -4  -3  451.75   37.20 
   0  -4   3  436.66   34.90 
   0   4  -3  454.25   45.80 
   0   4   3  412.86   33.20 
   0   4  -3  487.95   33.00 
   0   4  -3  431.36   31.80 
   0   4   3  468.75   36.70 
  -1  -4  -3  632.04   46.10 
   1  -4   3  584.24   45.20 
   1  -4   3  665.83   43.10 
  -1   4  -3  543.65   39.30 
   1   4   3  579.24   41.30 
   1   4   3  584.44   43.90 
   2  -4   3  529.65   39.90 
   2  -4   3  469.15   42.40 
   2   4   3  578.84   38.60 
   2   4   3  611.24   42.50 
  -2   4  -3  543.15   37.60 
   3  -4   3   59.39   12.60 
   3  -4   3   67.39   17.40 
   3   4   3   26.70    8.40 
   3   4   3   41.00   11.00 
  -3   4  -3   55.19   10.80 
   4  -4   3   34.20   11.30 
   4   4   3   30.30    8.50 
   4   4   3   42.90   13.00 
   5  -4   3   37.50   13.10 
   5  -4   3   36.40   15.90 
   5   4   3   34.10    9.10 
   5   4   3   30.40   11.10 
   6  -4   3   48.30   17.00 
   6  -4   3   51.19   17.60 
   6   4   3   34.20    9.40 
   6   4   3   40.30   11.80 
   7  -4   3  -12.40   11.10 
   7  -4   3   -7.30   11.60 
   7   4   3   26.80   10.60 
   8  -4   3   18.30   16.00 
   8  -4   3   -8.60   13.10 
   8   4   3   -5.50    7.50 
   8   4   3   14.70   10.20 
   8  -5  -3   15.30   16.00 
   8  -5  -3   37.10   17.10 
   8   5  -3    5.60    9.70 
  -8   5   3   26.00   15.90 
   7  -5  -3    7.20   12.20 
   7  -5  -3   15.40   13.70 
   7   5  -3   13.20    9.50 
  -7   5   3  -15.00    9.20 
   7   5  -3    7.40    4.00 
   6  -5  -3    8.10   13.30 
   6  -5  -3   10.90   13.40 
   6   5  -3    8.90    7.80 
  -6   5   3   -7.40   10.70 
   6   5  -3   -2.70    3.90 
   5  -5  -3  203.98   28.20 
   5  -5  -3  205.28   29.50 
  -5   5   3  235.78   28.30 
   5   5  -3  243.58   22.10 
   5   5  -3  237.78   22.10 
   5   5  -3  230.38   18.40 
   4  -5  -3  214.08   28.50 
   4  -5  -3  194.78   26.00 
   4   5  -3  174.88   16.70 
  -4   5   3  187.58   25.50 
   4   5  -3  163.88   19.00 
   4   5  -3  162.48   18.60 
   3  -5  -3   44.60   15.30 
   3  -5  -3   51.09   16.90 
   3   5  -3   55.29   11.40 
  -3   5   3   64.99   15.90 
   3   5  -3   70.59   12.00 
  -2  -5   3   38.10   11.70 
   2  -5  -3   37.60   23.50 
  -2   5   3   49.40   13.50 
   2   5  -3   40.50   10.90 
   2   5  -3   40.50   10.10 
   1  -5  -3  608.74   56.39 
  -1  -5   3  584.04   47.70 
   1   5  -3  712.83   46.40 
   1   5  -3  715.53   47.80 
  -1   5   3  672.63   62.79 
   0  -5   3   75.69   16.90 
   0  -5   3  119.99   16.30 
   0  -5  -3  114.29   24.10 
   0   5  -3  140.19   16.90 
   0   5   3   87.49   16.30 
   1  -5   3    5.40    7.40 
  -1  -5  -3   13.90   10.40 
   1  -5   3   -4.50    8.30 
   1   5   3    3.40    9.00 
   1   5   3    6.70    8.30 
   2  -5   3  103.29   17.50 
   2  -5   3   80.29   18.20 
   2   5   3   94.19   18.40 
   2   5   3   73.69   14.60 
   3  -5   3  109.09   23.20 
   3  -5   3   88.99   16.80 
   3   5   3   67.49   15.50 
   3   5   3   68.69   15.30 
   4  -5   3   58.59   18.70 
   4  -5   3   61.69   15.80 
   4   5   3   79.79   16.70 
   4   5   3   56.89   13.10 
   5  -5   3    9.90   13.80 
   5  -5   3   14.20   10.40 
   5   5   3    4.60    8.10 
   5   5   3    7.90    8.70 
   6  -5   3   26.20   14.40 
   6   5   3    2.90    9.30 
   6   5   3    2.30    7.40 
   7  -5   3    8.60   15.00 
   7  -5   3   40.10   18.00 
   7   5   3   11.90    7.70 
   7   5   3    2.90    9.10 
   6  -6  -3   60.89   21.70 
   6  -6  -3   65.59   20.90 
   6   6  -3   66.99   14.20 
  -6   6   3   64.39   19.60 
   5  -6  -3   47.10   17.10 
   5  -6  -3   47.50   19.50 
  -5   6   3   81.09   21.30 
   5   6  -3   61.89   13.30 
   5   6  -3   74.39   11.90 
   4  -6  -3   97.89   22.20 
   4  -6  -3   88.39   22.20 
   4   6  -3   96.29   16.30 
   4   6  -3   94.99   14.70 
  -4   6   3   58.69   18.80 
   3  -6  -3   57.09   20.00 
   3  -6  -3   39.90   16.70 
   3   6  -3   61.19   13.60 
   3   6  -3   82.69   14.90 
  -3   6   3   80.09   18.10 
   2  -6  -3    3.60   12.20 
  -2   6   3   26.00   13.80 
   2   6  -3    7.90    9.00 
   2   6  -3   31.10   10.80 
  -2   6   3   -1.30    9.70 
   1  -6  -3   -8.00   10.00 
  -1  -6   3   -2.70    9.40 
  -1   6   3    0.90    8.70 
  -1   6   3    9.50   11.80 
   1   6  -3  -11.70    7.50 
   1   6  -3    8.10    8.70 
   0  -6  -3   -8.50    9.90 
   0  -6   3    3.40    9.30 
   0  -6   3   -5.00    9.60 
   0   6  -3    1.30    9.20 
   0   6   3    4.40   10.90 
   0   6   3   19.20   11.80 
   0   6  -3    5.60    8.70 
   1  -6   3   -1.40    9.70 
   1  -6   3    0.00    9.70 
   1   6   3    7.70   10.10 
   1   6   3    4.70   12.10 
  -1   6  -3    0.20    8.60 
  -1   6  -3   10.30   10.70 
   2  -6   3  104.29   20.20 
   2  -6   3  132.49   25.40 
   2   6   3  120.79   22.10 
   2   6   3  116.59   19.60 
   3  -6   3   23.50   16.20 
   3  -6   3   25.10   13.40 
   3   6   3    5.90   10.10 
   3   6   3   21.50   10.70 
   4  -6   3   13.20   13.90 
   4  -6   3    8.60   11.30 
   4   6   3    0.10    8.20 
   5  -6   3   17.70   17.70 
   5  -6   3    6.70   13.40 
   5   6   3   -1.90    8.40 
   5   6   3   -1.30   10.30 
  11   0  -4   23.90   13.40 
  11   0  -4   34.00   10.40 
  10   0  -4  375.36   36.70 
 -10   0   4  415.06   28.10 
  10   0  -4  367.56   30.60 
   9   0  -4  516.55   41.70 
  -9   0   4  523.95   33.00 
   9   0  -4  433.16   34.70 
   8   0  -4  307.07   28.60 
   8   0  -4  245.68   22.40 
  -8   0   4  298.67   21.60 
  -7   0   4  187.28   15.50 
   7   0  -4  191.38   20.60 
   7   0  -4  185.88   16.70 
  -6   0   4  923.21   54.29 
   6   0  -4  897.71   55.09 
   6   0  -4  925.01   59.69 
  -6   0   4  924.61   58.59 
   5   0  -4 6791.52  363.26 
  -5   0   4 6552.14  362.26 
   5   0  -4 6781.72  367.56 
  -5   0   4 6709.13  362.76 
  -5   0   4 6400.86  366.06 
   4   0  -4 5047.69  278.87 
  -4   0   4 5049.49  275.57 
  -4   0   4 4992.50  277.97 
  -4   0   4 5081.49  275.07 
  -3   0   4   21.50    4.60 
  -3   0   4   26.10    3.80 
   3   0  -4   32.30    6.00 
  -3   0   4   31.90    4.60 
   2   0  -4  846.42   46.90 
  -2   0   4  801.32   47.30 
  -2   0   4  793.82   46.50 
   2   0  -4  836.62   48.10 
   0   0   4 2928.11  161.98 
   0   0  -4 2961.20  162.28 
   0   0   4 2923.91  162.38 
   0   0   4 2977.60  161.88 
   1   0   4 1516.45   85.39 
   1   0   4 1473.35   84.59 
  -1   0  -4 1551.44   85.59 
  -1   0  -4 1513.85   85.59 
   2   0   4   19.20    4.10 
  -2   0  -4   23.80    5.40 
  -2   0  -4   22.90    5.30 
   2   0   4   24.90    5.50 
  -3   0  -4 2817.12  163.28 
   3   0   4 2930.61  163.68 
  -3   0  -4 2885.31  163.28 
   3   0   4 3014.90  162.48 
  -4   0  -4 2142.99  119.69 
  -4   0  -4 1943.21  118.69 
   4   0   4 2148.39  119.79 
   4   0   4 2027.30  121.49 
   5   0   4  136.99   16.50 
   5   0   4  155.98   16.60 
   6   0   4   52.99   11.40 
   6   0   4   41.50   10.80 
   7   0   4    1.30    7.40 
   7   0   4    5.40    8.50 
   8   0   4  473.75   38.60 
   8   0   4  460.25   38.80 
   9   0   4    2.30    9.30 
   9   0   4   -1.70    8.80 
  10   0   4    2.40    9.10 
  10   0   4    7.50   10.70 
  11  -1  -4   91.19   18.00 
  11   1  -4   85.49   18.50 
  10  -1  -4  226.38   29.70 
 -10  -1   4  238.88   19.00 
  10  -1  -4  242.18   26.00 
  10   1  -4  277.57   20.50 
  10   1  -4  271.87   29.10 
   9  -1  -4   21.80   13.70 
  -9  -1   4   30.00    6.30 
   9  -1  -4   27.20   10.40 
   9   1  -4   57.89    8.40 
   9   1  -4   43.10   12.70 
   8  -1  -4  380.66   36.20 
   8  -1  -4  351.16   31.90 
  -8  -1   4  329.27   25.00 
   8   1  -4  454.65   27.10 
  -8   1   4  477.95   32.00 
   8   1  -4  488.45   35.00 
   7  -1  -4 4027.30  229.88 
   7  -1  -4 3994.30  230.38 
   7   1  -4 3963.10  218.08 
   7   1  -4 3947.30  225.38 
  -6  -1   4  522.75   39.30 
   6  -1  -4  543.65   41.90 
   6  -1  -4  540.75   39.10 
   6   1  -4  599.84   39.70 
  -6   1   4  580.24   38.50 
   6   1  -4  604.64   32.40 
   5  -1  -4   33.20    9.10 
   5  -1  -4   38.60    8.50 
  -5  -1   4   29.90    7.70 
  -5   1   4   25.70    6.60 
  -5   1   4   26.70    7.00 
  -5   1   4   32.10    7.20 
   5   1  -4   43.50    8.60 
   4  -1  -4 2130.49  133.89 
   4  -1  -4 2183.08  135.59 
   4   1  -4 2511.05  133.69 
  -4   1   4 2416.86  134.59 
  -4   1   4 2491.35  134.59 
  -4   1   4 2463.55  133.49 
  -3  -1   4 6465.45  413.76 
   3  -1  -4 8152.18  418.26 
  -3   1   4 7714.53  416.66 
   3   1  -4 7783.32  414.46 
  -3   1   4 7742.43  416.56 
  -3   1   4 7806.42  415.46 
   2  -1  -4 2690.93  126.19 
  -2  -1   4 2330.87  125.19 
   2   1  -4 2128.39  121.99 
   2   1  -4 2008.10  125.39 
  -2   1   4 2172.08  126.29 
  -2   1   4 2133.19  124.99 
  -2   1   4 2211.38  126.59 
   1  -1  -4  703.73   43.40 
   1  -1  -4  743.13   45.00 
   0  -1  -4   31.10    6.20 
   0  -1   4   44.90    7.40 
   0  -1  -4   38.50    5.50 
   0   1  -4   21.80    4.30 
   0   1   4   17.30    5.10 
   0   1  -4   25.20    2.50 
   0   1   4   21.60    5.00 
   0   1   4   23.40    4.60 
   1  -1   4 1935.81  111.39 
  -1  -1  -4 2156.08  113.29 
   1  -1   4 2173.38  115.79 
  -1  -1  -4 2242.28  114.69 
   1   1   4 1961.90  113.29 
  -1   1  -4 1910.91  110.09 
   1   1   4 1882.21  114.59 
  -1   1  -4 1823.52  112.29 
   1   1   4 1947.41  111.99 
   2  -1   4 6429.86  413.86 
   2  -1   4 7941.71  417.96 
  -2  -1  -4 7970.20  415.16 
  -2  -1  -4 7747.62  416.06 
  -2   1  -4 7662.73  412.76 
   2   1   4 7961.50  417.26 
   2   1   4 7696.13  414.66 
  -2   1  -4 7249.77  414.86 
   3  -1   4  830.32   65.49 
   3   1   4 1140.99   63.09 
   3   1   4 1156.28   64.09 
  -3   1  -4 1089.59   64.99 
  -3   1  -4 1106.59   63.19 
  -4  -1  -4  830.02   52.79 
   4  -1   4  831.82   54.39 
   4  -1   4  879.21   53.19 
  -4  -1  -4  811.42   51.69 
  -4   1  -4  768.82   50.19 
  -4   1  -4  754.72   53.39 
   4   1   4  785.92   49.80 
   4   1   4  766.42   48.90 
   5  -1   4  588.54   41.70 
   5  -1   4  551.24   42.50 
   5   1   4  545.25   38.00 
  -5   1  -4  599.14   41.80 
   5   1   4  552.94   38.30 
   6  -1   4 1824.62  104.49 
   6  -1   4 1671.53  104.39 
   6   1   4 1599.84  100.39 
   6   1   4 1652.03  100.19 
   7  -1   4   59.69   14.90 
   7  -1   4   48.90   15.90 
   7   1   4   81.59   13.80 
   7   1   4   85.49   15.30 
   8  -1   4   15.40   10.30 
   8  -1   4   21.10   13.00 
   8   1   4   13.30    9.50 
   8   1   4    0.00    7.60 
   9  -1   4   14.10   11.10 
   9  -1   4    1.60    9.80 
   9   1   4   47.20   14.50 
   9   1   4   30.10   11.70 
  10  -1   4   59.39   19.70 
  10  -1   4   37.50   14.70 
  10   1   4   25.70   13.00 
  10   1   4   29.20   13.20 
  11  -2  -4   37.10   17.30 
  11  -2  -4   22.30   13.30 
  10  -2  -4   98.09   23.90 
  10  -2  -4  130.69   21.10 
  10   2  -4   57.89   15.90 
   9  -2  -4  394.66   43.40 
   9  -2  -4  435.56   39.10 
   9   2  -4  483.75   38.00 
   8  -2  -4  467.45   39.50 
   8  -2  -4  440.26   43.00 
   8   2  -4  508.15   37.80 
   7  -2  -4  169.38   23.10 
   7  -2  -4  186.68   21.40 
   7   2  -4  147.39   18.10 
   6  -2  -4  791.82   53.99 
   6  -2  -4  689.83   50.69 
  -6  -2   4  671.03   49.00 
   6   2  -4  743.13   47.80 
  -6   2   4  742.33   49.80 
   5  -2  -4 1968.60  116.59 
   5  -2  -4 1961.10  118.09 
  -5  -2   4 1987.00  113.59 
  -5   2   4 1988.20  115.49 
  -5   2   4 1915.61  114.39 
   5   2  -4 1903.11  112.19 
   4  -2  -4 1747.63  100.19 
  -4  -2   4 1804.92   94.89 
   4  -2  -4 1607.04  102.49 
   4   2  -4 1591.94   93.49 
  -4   2   4 1559.44   96.89 
  -4   2   4 1540.35   96.99 
   3  -2  -4  104.29   14.20 
   3  -2  -4  106.59   13.40 
  -3  -2   4  101.19   10.20 
  -3  -2   4  110.19    9.20 
  -3   2   4  125.09   13.60 
  -3   2   4  147.09   13.60 
   3   2  -4  126.39   10.10 
   3   2  -4  133.59    8.60 
  -2   2   4  693.13   45.20 
  -2   2   4  662.03   44.70 
  -2   2   4  680.53   43.40 
   2   2  -4  700.13   39.00 
   2   2  -4  675.83   40.30 
   1  -2  -4 7639.94  384.16 
  -1  -2   4 7537.05  380.46 
   1  -2  -4 7504.05  381.46 
  -1   2   4 6734.13  382.36 
   1   2  -4 6128.19  378.56 
  -1   2   4 6754.82  380.36 
   1   2  -4 6773.42  376.16 
   1   2  -4 6914.51  375.66 
  -1   2   4 6459.25  382.26 
   0  -2  -4 5837.62  325.87 
   0  -2   4 5888.71  325.17 
   0  -2   4 6192.98  320.37 
   0  -2  -4 5760.22  323.77 
   0   2  -4 5376.46  322.97 
   0   2   4 5778.32  326.17 
   0   2  -4 6108.59  319.27 
   0   2   4 6101.49  323.47 
   0   2   4 5839.52  324.97 
  -1  -2  -4  532.45   41.20 
   1  -2   4  516.65   43.40 
   1   2   4  735.53   45.90 
   1   2   4  706.83   43.60 
  -1   2  -4  674.83   43.00 
   1   2   4  714.93   41.70 
  -1   2  -4  734.93   39.40 
   2  -2   4  314.57   22.70 
  -2  -2  -4  320.37   24.50 
  -2  -2  -4  302.57   25.50 
   2  -2   4  312.87   28.50 
   2   2   4  339.07   25.20 
  -2   2  -4  337.17   22.60 
   2   2   4  342.57   27.60 
  -2   2  -4  340.67   25.80 
  -3  -2  -4 1218.78   66.19 
  -3  -2  -4 1172.68   68.09 
   3  -2   4 1212.88   71.29 
   3   2   4  940.51   67.09 
  -3   2  -4  990.60   62.79 
  -3   2  -4  937.71   65.69 
   3   2   4 1004.20   64.59 
   3   2   4 1023.80   62.59 
   4  -2   4 2142.79  129.09 
   4   2   4 2084.19  120.39 
  -4   2  -4 2146.39  124.79 
   4   2   4 2117.49  122.89 
   5  -2   4  201.08   25.80 
   5   2   4  264.57   21.10 
   5   2   4  308.17   23.70 
   6  -2   4   29.20   12.20 
   6  -2   4   46.70   13.90 
   6   2   4   45.60   11.60 
   6   2   4   53.39   10.50 
   7  -2   4   24.40   12.40 
   7  -2   4   40.00   14.20 
   7   2   4   44.40   11.60 
   7   2   4   47.10   11.50 
   8  -2   4  112.09   22.60 
   8  -2   4   81.59   19.90 
   8   2   4   62.39   13.90 
   8   2   4   57.99   14.00 
   9  -2   4    8.80   11.90 
   9  -2   4    4.90   12.30 
   9   2   4    8.60    9.40 
  10  -3  -4   91.49   21.10 
  10  -3  -4   91.19   26.70 
  10   3  -4   93.99   18.30 
   9  -3  -4   23.00   13.10 
   9  -3  -4   15.80   14.00 
   9   3  -4   25.30   11.70 
   8  -3  -4  213.68   33.70 
   8  -3  -4  196.78   26.50 
   8   3  -4  156.88   20.20 
   7  -3  -4  592.04   49.60 
   7  -3  -4  478.55   44.20 
   7   3  -4  580.74   40.40 
   6  -3  -4  407.96   38.70 
   6  -3  -4  416.46   38.20 
   6   3  -4  475.25   32.60 
  -6   3   4  464.95   36.90 
  -5  -3   4  462.15   32.40 
   5  -3  -4  424.46   36.10 
   5  -3  -4  405.16   36.30 
   5   3  -4  417.46   24.90 
   5   3  -4  414.76   29.60 
  -5   3   4  466.15   35.00 
   5   3  -4  425.26   24.20 
   4  -3  -4  807.42   56.59 
  -4  -3   4  784.62   51.09 
   4  -3  -4  825.52   57.79 
  -4   3   4  863.41   55.19 
   4   3  -4  833.92   47.80 
   4   3  -4  862.01   49.50 
   4   3  -4  761.42   51.49 
   4   3  -4  802.02   46.60 
   3  -3  -4 1377.96   81.49 
   3  -3  -4 1340.57   82.29 
  -3  -3   4 1371.96   73.99 
   3   3  -4 1239.28   72.89 
  -3   3   4 1248.78   78.39 
   3   3  -4 1170.78   75.19 
   3   3  -4 1227.28   73.69 
   3   3  -4 1246.78   72.79 
   2  -3  -4 1234.58   75.09 
  -2  -3   4 1218.28   68.99 
   2   3  -4 1130.09   68.29 
   2   3  -4 1128.89   65.79 
  -2   3   4 1096.49   75.59 
  -2   3   4 1131.69   73.59 
   2   3  -4 1133.29   67.69 
  -2   3   4 1121.49   70.79 
   1  -3  -4  535.65   41.10 
  -1  -3   4  547.75   38.00 
  -1   3   4  568.44   41.00 
   1   3  -4  574.74   34.40 
   1   3  -4  549.05   37.70 
   1   3  -4  568.84   35.10 
  -1   3   4  575.94   41.20 
   0  -3  -4  647.34   44.90 
   0  -3   4  644.94   45.60 
   0  -3   4  678.23   41.70 
   0  -3  -4  651.33   47.10 
   0   3  -4  685.63   40.90 
   0   3   4  683.23   48.10 
   0   3   4  713.73   47.10 
   0   3   4  658.73   46.70 
   0   3   4  707.43   44.50 
   0   3  -4  673.03   45.10 
   1   3   4  393.46   27.80 
   1   3   4  367.36   29.20 
  -1   3  -4  366.06   24.60 
  -1   3  -4  369.36   29.30 
   1   3   4  333.17   29.00 
   2  -3   4 2328.37  131.39 
   2  -3   4 2330.07  124.49 
   2   3   4 2042.80  123.49 
  -2   3  -4 2060.99  122.09 
   2   3   4 2050.79  126.19 
   3  -3   4 1146.09   83.49 
   3  -3   4 1180.48   77.79 
  -3   3  -4 1377.56   77.49 
   3   3   4 1351.96   76.99 
   3   3   4 1368.86   80.29 
   4  -3   4  151.98   22.40 
   4  -3   4  170.68   19.20 
   4   3   4  153.48   18.50 
  -4   3  -4  157.18   16.80 
   4   3   4  179.38   16.60 
   5  -3   4  243.48   26.20 
   5  -3   4  234.48   28.20 
   5   3   4  228.18   19.30 
   5   3   4  207.78   21.80 
   6  -3   4  106.59   21.80 
   6  -3   4  103.99   20.80 
   6   3   4  119.49   16.70 
   6   3   4   99.39   13.90 
   7  -3   4   40.20   16.70 
   7  -3   4   51.19   17.90 
   7   3   4   64.59   14.50 
   8  -3   4  -17.80    7.00 
   8  -3   4   -4.40   11.20 
   8   3   4    3.40    8.10 
   8   3   4   -1.30    8.60 
   9  -3   4    4.60   13.80 
   9  -3   4    0.60   11.50 
   9   3   4   21.10   12.60 
   9   3   4    9.60    9.10 
   9  -4  -4   46.30   19.10 
   9  -4  -4   69.09   20.60 
  -9   4   4   77.79   19.60 
   9   4  -4   66.09   15.60 
   8  -4  -4   76.89   21.20 
   8  -4  -4   44.80   17.80 
   8   4  -4   65.49   14.50 
  -8   4   4   65.99   18.30 
   7  -4  -4   12.90   13.70 
   7  -4  -4    3.40   10.40 
  -7   4   4    1.90   10.40 
   7   4  -4    7.10    7.30 
   6  -4  -4   37.10   14.30 
   6  -4  -4   20.80   12.80 
  -6   4   4   42.20   14.70 
   6   4  -4   50.69    5.20 
   6   4  -4   49.10    7.60 
   6   4  -4   62.99   11.10 
   5  -4  -4  314.57   39.20 
   5   4  -4  389.36   27.40 
   5   4  -4  353.66   22.90 
  -5   4   4  366.96   37.00 
   5   4  -4  364.26   25.10 
   4  -4  -4  969.70   64.39 
   4  -4  -4 1005.20   65.19 
  -4   4   4  820.32   59.69 
   4   4  -4  853.21   53.29 
   4   4  -4  807.02   56.39 
   4   4  -4  868.01   53.69 
   4   4  -4  824.72   51.59 
   3  -4  -4  314.47   31.50 
  -3  -4   4  268.47   24.10 
   3  -4  -4  315.87   30.90 
   3   4  -4  330.77   26.80 
  -3   4   4  356.16   30.00 
   3   4  -4  347.57   24.30 
   3   4  -4  327.37   25.40 
   3   4  -4  336.57   23.70 
   2  -4  -4 1053.99   75.49 
  -2  -4   4 1116.89   70.09 
   2   4  -4 1131.69   66.89 
   2   4  -4 1164.18   70.69 
   2   4  -4 1138.29   73.29 
  -2   4   4 1142.09   72.59 
   2   4  -4 1125.09   69.29 
  -1   4   4  452.45   34.00 
   1   4  -4  430.56   29.80 
   1   4  -4  359.56   31.40 
   1   4  -4  424.66   29.20 
   0  -4   4 1062.69   65.19 
   0  -4  -4 1044.20   67.79 
   0  -4   4 1062.49   60.79 
   0   4  -4  856.61   58.19 
   0   4   4  873.71   61.39 
   0   4  -4  925.21   59.19 
   0   4   4  971.40   65.69 
   1  -4   4  787.82   58.89 
   1  -4   4  818.82   54.29 
  -1  -4  -4  768.02   58.19 
  -1   4  -4  890.01   52.59 
   1   4   4  857.91   55.09 
   1   4   4  894.71   58.79 
   2  -4   4  598.84   41.40 
   2  -4   4  595.04   47.30 
   2   4   4  558.64   40.40 
   2   4   4  568.64   43.40 
   3  -4   4  156.08   25.40 
   3  -4   4  137.99   17.70 
   3   4   4  142.59   19.40 
  -3   4  -4  145.09   16.10 
   3   4   4  147.39   16.20 
   4  -4   4   40.20   11.90 
   4  -4   4   43.40   16.50 
   4   4   4   28.70   10.90 
   4   4   4   25.30    8.80 
   5  -4   4  107.09   19.00 
   5  -4   4   43.80   17.00 
   5   4   4   95.09   13.80 
   5   4   4  101.89   17.40 
   6  -4   4  -10.40   10.20 
   6  -4   4  -20.60   11.20 
   6   4   4    1.70    8.10 
   6   4   4    3.40    6.60 
   7  -4   4   10.30   14.70 
   7  -4   4   21.50   14.90 
   7   4   4   12.10    8.00 
   7   4   4    8.40   11.20 
   8  -4   4   38.50   17.10 
   8  -4   4   -1.50   14.80 
   8   4   4    9.80    8.70 
   8   4   4   10.60   10.60 
   8  -5  -4   23.70   16.40 
   8  -5  -4   39.10   19.10 
  -8   5   4   18.90   13.50 
   8   5  -4   31.70   11.70 
   7  -5  -4   52.49   18.50 
   7  -5  -4   68.79   21.90 
  -7   5   4   80.19   20.00 
   7   5  -4   54.79   13.00 
   6  -5  -4  160.08   27.90 
   6  -5  -4  194.08   27.70 
   6   5  -4  171.68   13.60 
  -6   5   4  180.78   28.80 
   6   5  -4  198.08   19.80 
   5  -5  -4   12.60   14.40 
   5  -5  -4   40.80   15.90 
   5   5  -4   41.00    9.70 
   5   5  -4   20.50    8.10 
  -5   5   4   39.40   15.30 
   5   5  -4   28.60    6.50 
   4  -5  -4   54.09   18.50 
   4  -5  -4   30.30   15.80 
  -4   5   4   59.29   16.30 
   4   5  -4   39.30    9.80 
   4   5  -4   56.79   11.10 
   4   5  -4   48.40    9.10 
   3  -5  -4  100.09   20.90 
   3   5  -4   76.29   15.60 
  -3   5   4   69.29   16.10 
   3   5  -4   78.99   12.40 
   3   5  -4   77.69   12.90 
  -2  -5   4  526.95   38.10 
   2  -5  -4  523.55   44.90 
   2   5  -4  459.45   36.00 
   2   5  -4  440.26   33.40 
  -2   5   4  419.26   38.20 
   2   5  -4  501.85   36.20 
   1  -5  -4  162.88   24.30 
  -1  -5   4  156.98   21.80 
   1   5  -4  188.08   19.60 
   1   5  -4  191.38   18.90 
  -1   5   4  196.18   24.90 
   1   5  -4  197.28   20.80 
  -1   5   4  207.88   22.90 
   0  -5   4  168.98   18.90 
   0  -5   4  146.89   21.40 
   0  -5  -4  197.58   26.10 
   0   5   4  151.58   20.40 
   0   5  -4  160.98   17.50 
   0   5  -4  113.89   16.00 
   0   5   4  153.48   24.40 
   1  -5   4  155.48   23.10 
   1  -5   4  151.48   19.30 
  -1  -5  -4  134.59   23.90 
   1   5   4  168.38   22.60 
  -1   5  -4  176.38   17.80 
   1   5   4  195.68   21.60 
   2  -5   4   26.60   13.00 
   2  -5   4   41.40   12.00 
   2   5   4   37.90   13.70 
   2   5   4   36.90   11.10 
   3  -5   4  159.38   20.90 
   3  -5   4  156.88   29.20 
   3   5   4  189.98   20.90 
   3   5   4  215.88   24.10 
   4  -5   4   22.60   11.50 
   4  -5   4   50.79   17.80 
   4   5   4   22.70    9.60 
   4   5   4   14.90   11.30 
   5  -5   4   42.70   18.60 
   5   5   4   29.70   11.90 
   5   5   4   26.10   10.30 
   6  -5   4   57.99   16.30 
   6  -5   4   18.10   16.50 
   6   5   4   22.10    9.60 
   6   5   4   30.90   13.80 
   6  -6  -4   13.20   16.40 
   6  -6  -4   52.99   18.30 
   6   6  -4   14.80    9.50 
  -6   6   4    9.60   12.40 
   5  -6  -4   25.70   15.90 
   5  -6  -4    1.70   15.40 
   5   6  -4   26.50    9.40 
   5   6  -4   21.50    7.40 
  -5   6   4   19.90   12.40 
   4  -6  -4  109.39   23.70 
   4   6  -4   92.59   15.10 
   4   6  -4  102.49   15.30 
   3  -6  -4  212.08   30.10 
   3   6  -4  228.78   22.90 
   3   6  -4  210.78   21.30 
  -3   6   4  213.38   28.40 
  -2  -6   4  190.08   23.20 
   2  -6  -4  134.29   26.20 
   2   6  -4  152.58   20.00 
  -2   6   4  147.49   24.70 
  -2   6   4  115.49   24.30 
   2   6  -4  118.29   17.20 
   1  -6  -4   66.39   18.40 
  -1  -6   4   49.80   14.80 
   1   6  -4   46.80   12.20 
  -1   6   4   21.90   15.20 
  -1   6   4   52.59   14.60 
   1   6  -4   40.20   12.80 
   0  -6   4   16.90    9.80 
   0  -6   4   32.90   13.00 
   0  -6  -4   29.40   15.60 
   0   6  -4   24.40   11.00 
   0   6  -4   34.70   10.80 
   0   6   4   17.30   13.50 
   0   6   4   25.30   11.70 
   1  -6   4  116.89   19.20 
   1  -6   4   89.09   21.20 
   1   6   4   65.89   19.90 
   1   6   4   78.19   17.30 
  -1   6  -4   88.59   17.00 
   2  -6   4   45.70   16.80 
   2  -6   4   35.20   13.30 
   2   6   4   40.30   13.10 
   2   6   4   27.50   14.40 
  -2   6  -4   52.79   13.80 
   3  -6   4   57.59   19.70 
   3  -6   4   41.90   14.20 
   3   6   4   47.20   13.40 
   4  -6   4   28.00   13.30 
   4  -6   4   53.09   21.50 
   4   6   4   36.50   15.60 
   4   6   4   47.00   12.30 
  11   0  -5   32.60   14.30 
 -11   0   5   27.10    8.40 
  11   0  -5   27.50    9.10 
  10   0  -5  197.08   25.70 
  10   0  -5  172.98   19.70 
 -10   0   5  186.28   18.30 
   9   0  -5   13.90    6.30 
  -9   0   5   24.80    6.60 
   9   0  -5   33.10   12.30 
  -9   0   5   27.70    7.20 
  -8   0   5  864.91   49.10 
   8   0  -5  755.22   50.19 
   8   0  -5  811.52   57.59 
  -8   0   5  775.32   49.30 
  -7   0   5 1613.84   89.99 
   7   0  -5 1541.95   90.99 
   7   0  -5 1569.64   97.39 
  -7   0   5 1558.04   89.99 
  -6   0   5 1707.33   99.69 
  -6   0   5 1638.44   94.59 
   6   0  -5 1679.73  100.89 
   6   0  -5 1719.93   95.69 
  -6   0   5 1627.34   94.69 
   5   0  -5  411.36   30.50 
  -5   0   5  419.36   26.50 
  -5   0   5  417.36   26.00 
  -5   0   5  404.36   29.20 
   4   0  -5 2649.03  147.89 
  -4   0   5 2558.84  146.49 
  -4   0   5 2643.44  148.99 
  -4   0   5 2597.14  143.99 
   3   0  -5 9912.81  535.85 
  -3   0   5 9999.00  534.55 
  -3   0   5 9643.44  534.55 
   3   0  -5 9763.92  533.75 
   2   0  -5 4340.87  239.28 
   2   0  -5 4526.85  240.58 
  -2   0   5 4297.17  238.78 
  -2   0   5 4324.57  239.58 
   1   0  -5   93.79    8.60 
  -1   0   5   94.39    8.70 
   1   0  -5   98.89    8.70 
  -1   0   5  100.79    8.50 
   0   0  -5  129.89   10.70 
   0   0   5  117.09   10.20 
   0   0   5  123.19    9.80 
  -1   0  -5 1702.13   98.19 
   1   0   5 1763.72   98.29 
   1   0   5 1638.34   96.99 
  -1   0  -5 1753.82   98.69 
   1   0   5 1829.42   99.39 
  -2   0  -5 1629.14   92.59 
   2   0   5 1576.44   90.69 
  -2   0  -5 1574.14   92.19 
   2   0   5 1644.64   92.39 
  -3   0  -5 2397.26  140.09 
   3   0   5 2601.14  140.59 
   3   0   5 2471.95  138.39 
  -3   0  -5 2382.46  139.69 
   4   0   5  194.28   17.30 
   4   0   5  185.98   18.20 
  -4   0  -5  192.58   18.30 
   5   0   5  729.23   50.39 
   5   0   5  762.12   49.60 
   6   0   5  713.73   48.40 
   6   0   5  673.63   49.30 
   7   0   5  154.98   21.00 
   7   0   5  126.79   22.30 
   8   0   5   57.59   14.70 
   8   0   5   47.80   14.90 
   9   0   5   47.20   14.00 
   9   0   5   44.90   15.70 
  11  -1  -5  119.19   19.60 
  11   1  -5   89.29   19.20 
  10  -1  -5   44.90   12.50 
 -10  -1   5   68.59    7.20 
  10  -1  -5   66.99   18.30 
  10   1  -5   56.69    7.50 
  10   1  -5   36.50   13.40 
   9  -1  -5  260.17   25.00 
  -9  -1   5  240.78   16.00 
   9  -1  -5  250.47   29.80 
   9   1  -5  301.57   28.70 
   8  -1  -5  749.62   50.99 
   8  -1  -5  757.52   56.79 
   8   1  -5  732.53   52.09 
  -8   1   5  740.53   49.30 
  -8   1   5  735.43   49.00 
   7  -1  -5   65.49   14.90 
   7  -1  -5   76.39   13.00 
   7   1  -5   76.79   14.10 
  -7   1   5   70.79   11.40 
  -7   1   5   54.69   10.70 
   6  -1  -5  360.26   27.20 
  -6  -1   5  376.46   27.80 
   6  -1  -5  328.67   30.00 
   6   1  -5  349.87   27.30 
  -6   1   5  329.87   25.50 
  -6   1   5  311.77   25.10 
   5  -1  -5 5022.00  281.77 
   5  -1  -5 5203.68  279.17 
  -5  -1   5 4931.11  278.77 
  -5   1   5 5020.70  277.47 
  -5   1   5 5074.29  278.57 
  -5   1   5 4837.42  278.77 
   5   1  -5 5077.29  278.57 
   4  -1  -5 1712.43  111.09 
   4   1  -5 2040.70  108.79 
  -4   1   5 1955.10  108.69 
  -4   1   5 1905.41  109.69 
  -4   1   5 1907.41  109.99 
   3  -1  -5  534.65   39.20 
   3  -1  -5  523.25   36.70 
  -3   1   5  636.74   37.60 
   3   1  -5  625.94   33.80 
  -3   1   5  603.14   38.70 
   3   1  -5  621.44   35.90 
  -3   1   5  597.04   38.60 
   2  -1  -5 1896.01  123.29 
   2  -1  -5 1891.31  121.59 
  -2   1   5 2283.67  123.99 
  -2   1   5 2304.67  123.99 
  -2   1   5 2199.38  121.89 
   2   1  -5 2307.57  119.09 
   2   1  -5 2275.07  119.39 
   1  -1  -5 5307.17  302.67 
   1  -1  -5 5337.57  304.07 
  -1   1   5 5647.24  302.37 
   1   1  -5 5629.94  300.47 
  -1   1   5 5648.03  304.37 
   0  -1  -5 4690.03  243.38 
   0  -1  -5 4985.00  245.38 
   0  -1   5 3719.23  239.18 
   0  -1   5 4769.22  245.08 
   0  -1   5 4994.90  239.48 
   0   1  -5 4098.19  241.28 
   0   1   5 4138.29  241.98 
   0   1   5 4156.98  243.18 
   0   1   5 4128.09  244.38 
   1  -1   5 1751.62   94.99 
  -1  -1  -5 1596.94   92.19 
  -1  -1  -5 1604.84   93.09 
   1   1   5 1529.95   90.79 
   1   1   5 1598.44   92.29 
  -1   1  -5 1600.04   89.09 
   1   1   5 1555.04   94.09 
  -1   1  -5 1564.74   91.29 
  -2  -1  -5  175.78   15.70 
   2  -1   5  166.58   14.40 
  -2  -1  -5  189.38   15.80 
   2   1   5  166.18   14.40 
  -2   1  -5  145.59   15.80 
   2   1   5  129.39   17.50 
   2   1   5  148.69   15.80 
  -2   1  -5  164.98   12.90 
  -3  -1  -5  662.23   40.90 
   3  -1   5  626.74   40.20 
  -3  -1  -5  590.64   40.80 
   3  -1   5  641.44   43.00 
  -3   1  -5  601.24   38.00 
   3   1   5  583.34   38.50 
   3   1   5  561.34   37.70 
  -3   1  -5  542.55   39.10 
   4  -1   5 2462.65  142.19 
   4  -1   5 2597.54  145.49 
  -4   1  -5 2301.27  137.29 
   4   1   5 2323.77  136.59 
   4   1   5 2389.96  137.09 
   5  -1   5  213.38   23.10 
   5  -1   5  198.18   21.50 
   5   1   5  223.88   20.30 
   5   1   5  225.48   19.90 
   6  -1   5   59.19   13.80 
   6  -1   5   66.89   14.90 
   6   1   5   59.29   12.30 
   6   1   5   46.00   11.30 
   7  -1   5  155.48   21.50 
   7  -1   5  159.78   20.60 
   7   1   5  117.09   21.80 
   7   1   5  114.29   18.60 
   8  -1   5  292.97   30.30 
   8  -1   5  305.27   32.90 
   8   1   5  294.57   29.40 
   8   1   5  304.47   30.00 
   9  -1   5   26.60   13.90 
   9   1   5   78.29   17.30 
   9   1   5   61.29   15.70 
  11  -2  -5   68.39   16.20 
  11  -2  -5   67.49   20.60 
  11   2  -5   80.49   18.20 
 -11   2   5   61.39   16.10 
  10  -2  -5    7.40   11.90 
  10  -2  -5   10.60   14.40 
 -10   2   5    6.80    9.40 
  10   2  -5    3.20    8.80 
   9  -2  -5   49.30   13.90 
   9  -2  -5   36.90   16.70 
   9   2  -5   46.40   13.50 
  -9   2   5   45.50   12.10 
   8  -2  -5  101.99   20.90 
  -8   2   5   37.00   11.60 
   8   2  -5   28.10   10.10 
   7  -2  -5  839.02   66.49 
   7  -2  -5  878.51   63.29 
  -7   2   5 1042.80   63.29 
   7   2  -5 1008.10   61.59 
  -6  -2   5 1710.83  111.19 
   6  -2  -5 1898.51  116.89 
   6  -2  -5 1922.71  114.19 
  -6   2   5 1948.21  112.19 
  -6   2   5 1839.42  116.59 
   6   2  -5 1987.70  110.59 
  -5  -2   5   74.49   10.90 
   5  -2  -5   87.79   15.70 
   5  -2  -5   89.49   14.60 
  -5   2   5   75.69   12.80 
  -5   2   5   76.79   13.10 
   5   2  -5   84.59   11.00 
   4  -2  -5  914.31   62.79 
  -4  -2   5  936.51   56.69 
   4  -2  -5  936.31   61.49 
  -4   2   5  978.80   61.29 
  -4   2   5  962.10   61.09 
   4   2  -5  946.31   56.79 
  -4   2   5 1028.50   60.49 
  -3  -2   5 3095.49  174.28 
   3  -2  -5 3098.89  182.28 
  -3  -2   5 3025.60  175.98 
   3   2  -5 3263.87  172.88 
  -3   2   5 3258.37  180.98 
  -3   2   5 3198.98  185.58 
  -3   2   5 3245.08  182.18 
   3   2  -5 3221.68  174.88 
   2  -2  -5 4142.39  229.68 
   2  -2  -5 4315.87  230.28 
  -2  -2   5 4297.57  224.48 
  -2   2   5 4129.59  232.78 
   2   2  -5 4016.70  221.48 
  -2   2   5 4156.28  226.78 
   2   2  -5 4009.40  222.48 
  -2   2   5 3724.93  230.98 
   2   2  -5 3821.52  221.08 
   1  -2  -5  132.29   15.20 
  -1  -2   5  145.39   14.00 
  -1   2   5  116.79   13.90 
   1   2  -5  130.39   11.80 
  -1   2   5  114.49   12.50 
   0  -2  -5  925.51   62.79 
   0  -2   5 1003.00   65.19 
   0  -2  -5  956.10   64.79 
   0  -2   5  961.50   57.59 
   0   2  -5 1079.59   62.69 
   0   2   5 1112.99   64.99 
   0   2   5 1148.09   69.19 
   0   2  -5 1156.08   57.29 
   0   2   5 1042.90   65.49 
   1  -2   5 2534.05  131.29 
   1  -2   5 2495.75  139.79 
  -1  -2  -5 2561.24  136.09 
  -1   2  -5 2250.87  130.19 
   1   2   5 2237.18  135.69 
   1   2   5 2329.67  133.79 
  -1   2  -5 2241.08  135.29 
   1   2   5 2291.77  138.39 
   2  -2   5 1481.55   79.19 
   2  -2   5 1390.56   86.29 
  -2  -2  -5 1376.46   83.59 
  -2  -2  -5 1394.86   81.89 
   2   2   5 1308.77   81.59 
  -2   2  -5 1328.37   77.59 
  -2   2  -5 1314.07   81.99 
   2   2   5 1327.57   79.59 
   2   2   5 1313.77   84.59 
   3  -2   5   88.09   17.50 
   3  -2   5   91.39   13.10 
   3   2   5  104.89   13.10 
   3   2   5  107.79   11.60 
  -3   2  -5  101.09   10.80 
   4  -2   5   44.10   11.50 
   4  -2   5   61.39   14.40 
   4   2   5   63.79   10.40 
  -4   2  -5   48.80    9.20 
   4   2   5   42.30    9.80 
   5  -2   5  172.78   20.70 
   5   2   5  130.19   16.00 
   5   2   5  141.09   15.00 
   6  -2   5  615.44   54.29 
   6  -2   5  761.02   57.99 
   6   2   5  831.32   52.39 
   6   2   5  808.32   50.69 
   7  -2   5  204.38   28.50 
   7   2   5  270.17   25.40 
   7   2   5  238.48   24.50 
   8  -2   5   17.30   11.70 
   8  -2   5   14.10   12.70 
   8   2   5    5.20    8.90 
   8   2   5   15.80    9.50 
   9  -2   5    6.90   12.60 
   9  -2   5    5.60   11.30 
   9   2   5    2.20    9.60 
   9   2   5   22.20   12.50 
  10  -3  -5   44.80   17.10 
  10  -3  -5   54.49   22.50 
  10   3  -5   68.39   15.90 
 -10   3   5   76.79   18.50 
   9  -3  -5  244.88   35.50 
   9  -3  -5  224.78   28.80 
  -9   3   5  232.08   28.10 
   9   3  -5  254.87   25.90 
   8  -3  -5   39.10   16.30 
   8  -3  -5   47.60   17.90 
   8   3  -5   28.40   10.20 
  -8   3   5   21.60   18.50 
   7  -3  -5   62.69   15.20 
   7  -3  -5   66.89   18.40 
  -7   3   5   61.29   14.90 
   7   3  -5   50.09   11.30 
  -6  -3   5  199.38   20.40 
   6  -3  -5  167.58   24.30 
   6  -3  -5  170.28   22.10 
  -5  -3   5  912.21   60.89 
   5  -3  -5  908.51   66.39 
   5  -3  -5  915.01   65.09 
  -5   3   5 1026.70   64.19 
   5   3  -5 1000.00   58.39 
   4  -3  -5  717.53   48.90 
   4  -3  -5  664.63   49.60 
  -4  -3   5  641.44   41.70 
   4   3  -5  646.04   37.80 
   4   3  -5  602.04   41.90 
   4   3  -5  668.33   38.00 
   4   3  -5  654.33   40.40 
  -4   3   5  676.93   46.30 
   3  -3  -5  718.13   51.69 
  -3  -3   5  738.43   44.10 
   3   3  -5  681.53   44.20 
   3   3  -5  724.23   42.20 
   3   3  -5  704.63   43.00 
  -3   3   5  718.93   48.60 
  -2  -3   5  351.86   25.80 
   2  -3  -5  361.76   31.20 
   2   3  -5  358.66   21.90 
   2   3  -5  360.06   26.80 
  -2   3   5  352.36   28.20 
   2   3  -5  331.37   24.80 
  -1  -3   5 1449.95   82.59 
   1  -3  -5 1446.26   86.59 
   1   3  -5 1349.96   75.99 
   1   3  -5 1274.27   80.49 
   1   3  -5 1321.57   76.49 
  -1   3   5 1332.27   82.09 
   0  -3   5 1159.28   71.79 
   0  -3  -5 1194.88   72.99 
   0  -3   5 1150.68   64.39 
   0   3  -5 1100.49   64.09 
   0   3   5 1113.59   71.09 
   0   3  -5 1033.20   68.49 
   0   3  -5 1113.29   63.89 
   0   3   5 1062.89   68.29 
   1  -3   5  706.23   51.09 
   1  -3   5  718.23   44.40 
  -1  -3  -5  746.63   50.89 
  -1   3  -5  751.92   43.20 
   1   3   5  729.63   46.70 
  -1   3  -5  635.74   47.60 
   1   3   5  708.83   49.00 
   2  -3   5  138.29   19.70 
   2  -3   5  107.49   12.70 
   2   3   5  122.49   13.60 
  -2   3  -5  103.09   11.70 
   2   3   5  103.69   14.80 
   3  -3   5  475.15   32.30 
   3  -3   5  494.15   40.40 
   3   3   5  418.26   31.10 
  -3   3  -5  416.26   30.30 
   3   3   5  381.26   33.20 
   4  -3   5  765.92   61.59 
   4  -3   5  860.81   55.69 
   4   3   5  830.32   54.79 
  -4   3  -5  801.92   51.89 
   4   3   5  785.82   51.19 
   5  -3   5  309.07   35.60 
   5  -3   5  321.77   32.90 
   5   3   5  379.56   27.60 
   5   3   5  397.36   31.70 
   6  -3   5   43.50   16.00 
   6  -3   5   56.19   16.40 
   6   3   5   57.19   13.60 
   6   3   5   69.59   13.00 
   7  -3   5   16.50   12.60 
   7  -3   5   -8.90    9.80 
   7   3   5   25.30   11.50 
   7   3   5   10.70    9.10 
   8  -3   5    9.60   12.40 
   8  -3   5   22.00   17.90 
   8   3   5   12.20    9.80 
   8   3   5   10.00    9.60 
   9  -4  -5    4.60   13.00 
   9  -4  -5    1.60   12.40 
   9   4  -5   -5.70    7.50 
  -9   4   5    8.50   12.10 
   8  -4  -5   63.69   19.60 
   8  -4  -5   82.99   21.30 
  -8   4   5   95.39   21.20 
   8   4  -5   66.39   13.90 
   7  -4  -5  318.67   37.70 
   7  -4  -5  353.26   37.40 
   7   4  -5  335.77   29.00 
  -7   4   5  378.26   36.10 
   6  -4  -5  119.69   23.70 
   6  -4  -5  121.89   21.80 
  -6   4   5   75.99   17.00 
   6   4  -5   85.59   13.60 
   5  -4  -5   38.80   15.20 
   5  -4  -5   43.10   14.80 
  -5  -4   5   28.00    9.20 
  -5   4   5   58.29   16.70 
   5   4  -5   45.00    5.50 
   5   4  -5   36.80    6.60 
   5   4  -5   49.50   10.20 
   5   4  -5   49.50    9.30 
   4  -4  -5   96.09   21.00 
   4   4  -5  166.38   14.50 
  -4   4   5  181.98   22.00 
   4   4  -5  145.89   13.10 
   4   4  -5  157.78   17.30 
   4   4  -5  164.98   14.50 
  -3  -4   5 1117.79   71.19 
   3  -4  -5 1088.49   79.49 
  -3   4   5 1211.58   76.69 
   3   4  -5 1208.28   68.89 
   3   4  -5 1249.57   70.89 
   3   4  -5 1205.18   71.49 
   3   4  -5 1163.88   71.89 
  -2  -4   5  819.42   60.19 
   2   4  -5  695.53   44.80 
   2   4  -5  678.83   42.60 
  -2   4   5  724.33   50.09 
   2   4  -5  642.14   49.40 
  -1  -4   5  168.28   19.30 
   1  -4  -5  154.08   22.50 
  -1   4   5  195.98   23.90 
  -1   4   5  170.68   20.40 
   1   4  -5  193.98   16.00 
   1   4  -5  182.48   15.10 
   1   4  -5  190.88   19.90 
   0  -4  -5  370.56   35.20 
   0  -4   5  341.67   32.20 
   0  -4   5  372.16   27.50 
   0   4   5  391.36   31.10 
   0   4  -5  387.46   26.60 
   0   4   5  437.76   35.90 
   0   4  -5  424.46   27.70 
   1  -4   5  204.28   23.40 
  -1  -4  -5  194.78   22.20 
   1   4   5  132.29   18.80 
   1   4   5  121.39   16.70 
  -1   4  -5  123.89   13.30 
   2  -4   5  667.53   51.19 
   2  -4   5  681.13   43.00 
  -2   4  -5  578.54   39.70 
   2   4   5  597.74   46.00 
   2   4   5  547.55   41.70 
   3  -4   5  495.85   38.10 
   3   4   5  537.95   37.60 
  -3   4  -5  514.45   36.40 
   3   4   5  540.75   41.20 
   4  -4   5   57.49   18.20 
   4  -4   5   75.99   14.70 
   4   4   5   55.09   13.60 
   5  -4   5   51.09   18.00 
   5  -4   5   52.49   15.10 
   5   4   5   69.09   13.10 
   5   4   5   53.59   13.80 
   6  -4   5   63.09   20.20 
   6  -4   5   92.29   23.80 
   6   4   5   77.19   13.10 
   6   4   5   56.09   14.20 
   7  -4   5   47.20   20.80 
   7  -4   5   64.89   20.00 
   7   4   5   38.00   11.10 
   7   4   5   36.10   13.40 
   8  -5  -5   -1.20   12.70 
   8  -5  -5    1.90   15.00 
  -8   5   5  -12.70   10.30 
   8   5  -5   -6.30    8.40 
   7  -5  -5    5.40   12.20 
   7   5  -5   -2.80    7.80 
  -7   5   5  -18.90    9.40 
   6  -5  -5   57.89   18.70 
   6  -5  -5   63.89   18.50 
   6   5  -5   85.29   13.50 
  -6   5   5   88.19   20.20 
   6   5  -5   85.39    7.70 
   5  -5  -5   54.99   16.90 
   5  -5  -5   91.39   21.70 
   5   5  -5   67.59    8.70 
   5   5  -5   57.29   11.40 
   5   5  -5   73.09   11.00 
  -5   5   5   84.99   18.60 
   4  -5  -5   35.70   14.90 
   4   5  -5   50.59    9.10 
   4   5  -5   44.30    8.90 
  -4   5   5   28.40   12.60 
   4   5  -5   15.30    8.30 
   3  -5  -5   11.00   11.80 
  -3  -5   5    7.50    7.50 
   3   5  -5    6.10    7.90 
   3   5  -5   22.10    9.50 
   3   5  -5   19.40    6.70 
  -3   5   5   28.80   11.90 
   3   5  -5   26.40    8.50 
  -2  -5   5   83.89   15.10 
   2  -5  -5   93.99   21.50 
   2   5  -5  117.39   15.80 
   2   5  -5  115.99   14.60 
   2   5  -5  120.09   13.30 
  -2   5   5   86.59   17.30 
  -1  -5   5   90.59   18.50 
   1  -5  -5  122.09   23.30 
  -1   5   5  166.68   23.40 
  -1   5   5  169.18   20.30 
   0  -5   5  614.44   50.99 
   0  -5  -5  608.74   49.99 
   0  -5   5  591.04   46.20 
   0   5   5  563.54   47.50 
   0   5   5  522.15   42.90 
   1  -5   5  143.19   17.90 
  -1   5  -5  153.08   16.10 
   1   5   5  145.99   21.50 
  -1   5  -5  164.58   17.50 
   1   5   5  137.19   20.60 
   2  -5   5   66.09   13.30 
   2  -5   5   47.50   16.00 
  -2   5  -5   51.69   10.60 
   2   5   5   58.09   14.00 
   2   5   5   33.90   13.00 
   3  -5   5   81.89   15.90 
   3  -5   5   98.49   23.50 
   3   5   5   90.09   15.70 
   3   5   5   93.59   17.80 
   4  -5   5   99.29   18.40 
   4  -5   5  128.49   26.70 
   4   5   5   95.79   16.20 
   4   5   5   70.99   17.80 
   5  -5   5   20.80   19.70 
   5  -5   5   34.10   13.60 
   5   5   5   54.39   13.20 
   6  -5   5    8.70   17.30 
   6  -5   5   37.50   14.20 
   6   5   5   28.60   12.60 
   6   5   5   45.90   11.60 
   5  -6  -5   92.49   23.90 
   5   6  -5   49.30   10.70 
  -5   6   5   60.89   18.50 
   5   6  -5   62.49   12.20 
   4   6  -5   38.30    9.80 
   4   6  -5   31.00    9.40 
  -4   6   5   22.80   14.60 
   3  -6  -5   91.29   21.90 
   3   6  -5  130.09   15.90 
   3   6  -5  149.19   18.40 
  -3   6   5   98.39   21.40 
   2  -6  -5   51.69   18.10 
  -2  -6   5   36.10   12.20 
   2   6  -5   26.30   10.30 
  -2   6   5   20.70   13.40 
   2   6  -5   29.40    9.30 
  -2   6   5   10.40   12.70 
   1  -6  -5  192.48   29.10 
  -1  -6   5  158.08   22.70 
  -1   6   5  200.18   25.70 
  -1   6   5  194.68   30.90 
   1   6  -5  180.18   18.90 
   1   6  -5  195.88   23.30 
   0  -6  -5   93.29   23.10 
   0  -6   5   93.99   21.30 
   0   6   5  108.79   23.20 
   0   6  -5  112.79   16.30 
   0   6   5  125.19   21.40 
   1  -6   5   41.40   12.10 
   1  -6   5   39.30   16.70 
   1   6   5   62.99   18.00 
   1   6   5   38.00   13.10 
  -1   6  -5   67.79   13.80 
   2  -6   5    9.60   12.90 
   2  -6   5    3.40    9.60 
  -2   6  -5   10.50    9.40 
   2   6   5   -0.30    8.40 
   3  -6   5   52.89   14.70 
   3   6   5   26.80   15.40 
   3   6   5   35.80   13.00 
 -11   0   6  186.68   18.10 
  11   0  -6  180.98   17.90 
  11   0  -6  220.48   28.40 
 -10   0   6  139.89   14.80 
  10   0  -6  129.59   14.60 
  10   0  -6  124.29   22.90 
 -10   0   6  142.49   12.90 
  -9   0   6  605.64   35.60 
   9   0  -6  541.75   36.80 
   9   0  -6  518.75   45.60 
  -9   0   6  525.35   35.90 
  -8   0   6  240.38   18.40 
   8   0  -6  255.47   26.30 
  -8   0   6  228.58   17.90 
   7   0  -6  209.78   23.20 
  -7   0   6  212.48   16.30 
  -7   0   6  214.48   16.50 
  -6   0   6 1152.68   65.69 
  -6   0   6 1136.19   70.29 
   6   0  -6 1094.89   71.69 
  -6   0   6 1162.18   66.29 
  -5   0   6 1068.69   61.99 
   5   0  -6 1115.49   67.29 
  -5   0   6 1100.19   63.19 
  -5   0   6 1042.50   65.19 
   4   0  -6 2889.31  161.28 
  -4   0   6 2785.62  159.38 
  -4   0   6 2874.91  158.68 
  -4   0   6 2858.21  157.38 
  -3   0   6  751.52   44.00 
  -3   0   6  721.63   44.90 
   3   0  -6  767.12   44.70 
   3   0  -6  768.72   46.70 
  -2   0   6 1636.94   92.09 
   2   0  -6 1595.54   92.59 
   2   0  -6 1628.64   91.99 
  -2   0   6 1642.74   91.39 
  -1   0   6 3852.81  212.88 
   1   0  -6 3940.31  213.58 
  -1   0   6 3963.70  213.78 
  -1   0   6 3720.93  212.78 
   1   0  -6 3887.61  213.48 
   0   0   6 4336.57  236.88 
   0   0   6 4303.97  236.08 
   0   0  -6 4245.18  237.18 
   0   0   6 4335.97  237.48 
   1   0   6  346.27   24.60 
  -1   0  -6  337.47   23.90 
  -1   0  -6  340.17   24.50 
   1   0   6  369.26   24.40 
   1   0   6  342.37   22.60 
  -2   0  -6  186.08   16.70 
  -2   0  -6  197.58   16.60 
   2   0   6  200.28   15.10 
   2   0   6  189.38   16.50 
  -3   0  -6  668.23   44.30 
   3   0   6  692.73   44.90 
   3   0   6  684.43   42.70 
  -4   0  -6  554.04   38.70 
   4   0   6  547.05   38.60 
   4   0   6  521.75   36.50 
   5   0   6  627.24   42.80 
   5   0   6  610.84   44.10 
   6   0   6   -3.10    6.30 
   7   0   6   78.09   15.30 
   7   0   6   82.09   16.50 
   8   0   6   21.60   11.90 
   8   0   6   -1.50    7.80 
   9   0   6   54.29   16.90 
   9   0   6   42.90   16.70 
  11  -1  -6   50.29   13.10 
  11   1  -6   36.90   15.10 
 -11   1   6   47.90   12.10 
  10  -1  -6  153.28   26.80 
  10  -1  -6  164.18   18.70 
  10   1  -6   93.09   19.00 
 -10   1   6  114.09   17.00 
   9  -1  -6  571.34   39.90 
   9  -1  -6  516.65   45.80 
  -9   1   6  504.75   37.60 
  -9   1   6  488.85   37.10 
   8  -1  -6  165.78   23.00 
   8  -1  -6  172.88   18.70 
  -8   1   6  158.88   17.00 
   8   1  -6  150.38   19.90 
  -8   1   6  151.38   16.50 
   7  -1  -6  672.83   57.59 
  -7   1   6  893.41   55.99 
   7   1  -6  898.21   56.69 
  -7   1   6  868.31   53.49 
  -6  -1   6 2371.16  124.29 
   6  -1  -6 2126.19  127.09 
  -6   1   6 1979.10  121.49 
  -6   1   6 2053.09  120.99 
   6   1  -6 2037.30  122.79 
  -5  -1   6  316.77   22.60 
   5  -1  -6  274.97   24.50 
  -5   1   6  277.97   21.00 
  -5   1   6  238.78   21.70 
  -5   1   6  254.77   21.50 
   5   1  -6  256.67   21.30 
  -4  -1   6  241.08   19.40 
  -4  -1   6  240.08   16.40 
   4  -1  -6  278.67   23.30 
  -4  -1   6  245.58   16.10 
  -4   1   6  248.28   20.60 
   4   1  -6  273.57   15.90 
  -4   1   6  259.87   20.90 
   4   1  -6  280.47   19.60 
  -4   1   6  276.07   20.00 
   3  -1  -6 4612.94  270.47 
   3  -1  -6 4501.35  267.57 
  -3   1   6 5077.99  269.77 
   3   1  -6 5007.00  264.57 
  -3   1   6 4991.20  269.67 
  -3   1   6 4883.61  267.57 
   3   1  -6 4903.31  265.77 
   2  -1  -6 3917.71  217.28 
   2  -1  -6 3900.71  215.38 
   2   1  -6 3810.52  212.18 
  -2   1   6 3895.41  216.78 
  -2   1   6 3923.61  214.78 
   2   1  -6 3828.92  211.18 
  -1  -1   6  975.90   59.39 
   1  -1  -6  972.10   59.99 
   1  -1  -6 1022.30   58.99 
  -1   1   6  948.01   59.89 
  -1   1   6  970.70   57.89 
   1   1  -6  979.30   56.39 
   0  -1  -6 2166.68  122.19 
   0  -1   6 2197.38  122.59 
   0  -1  -6 2075.49  120.59 
   0  -1   6 2042.10  116.59 
   0   1   6 2097.39  122.29 
   0   1  -6 2085.29  118.89 
   0   1   6 2155.08  121.09 
   0   1   6 2154.38  119.89 
   1  -1   6 1692.63  105.79 
  -1  -1  -6 1827.82  108.59 
   1  -1   6 1961.60  111.29 
   1   1   6 1940.11  111.09 
   1   1   6 2004.90  108.79 
   1   1   6 1918.61  107.29 
  -2  -1  -6 1470.85   73.99 
  -2   1  -6 1097.79   70.69 
  -2   1  -6 1148.39   69.09 
   2   1   6 1130.49   69.79 
   2   1   6 1155.28   71.29 
   3  -1   6  565.44   36.70 
  -3  -1  -6  507.05   37.20 
   3  -1   6  520.95   39.30 
   3   1   6  493.75   37.70 
  -3   1  -6  523.55   34.50 
   3   1   6  505.35   34.30 
   3   1   6  524.45   35.00 
   4  -1   6  333.97   28.50 
   4  -1   6  317.87   25.30 
  -4   1  -6  270.37   22.80 
   4   1   6  262.77   22.60 
   4   1   6  251.87   22.40 
   5  -1   6   15.70    8.70 
   5  -1   6    8.20    9.40 
   5   1   6   44.40    9.80 
   5   1   6   37.20    9.50 
   6  -1   6  173.98   23.10 
   6  -1   6  136.69   19.90 
   6   1   6  172.68   21.10 
   7  -1   6  211.58   25.20 
   7  -1   6  221.98   25.70 
   7   1   6  196.88   22.70 
   7   1   6  197.98   23.40 
   8  -1   6   36.10   13.80 
   8  -1   6   50.49   15.50 
   8   1   6   51.29   14.10 
   8   1   6   46.80   14.60 
   9  -1   6   23.10   12.50 
   9  -1   6   14.00   13.50 
   9   1   6   12.70   12.60 
   9   1   6    2.10    9.50 
  11  -2  -6   81.89   17.90 
  11  -2  -6    4.20   16.90 
  11   2  -6   48.20   14.90 
 -11   2   6   59.59   15.90 
  10  -2  -6   97.29   19.50 
  10  -2  -6   52.89   19.00 
 -10   2   6  122.39   20.10 
  10   2  -6   85.59   17.50 
   9  -2  -6  424.76   36.90 
   9  -2  -6  421.06   42.30 
   9   2  -6  410.46   35.20 
  -9   2   6  403.46   35.10 
   8  -2  -6  187.88   26.10 
   8  -2  -6  176.48   22.00 
  -8   2   6  158.68   20.10 
   8   2  -6  200.48   21.30 
   7  -2  -6  169.78   20.00 
   7  -2  -6  162.78   22.90 
   7   2  -6  133.99   17.60 
  -7   2   6  156.08   18.60 
   6  -2  -6  494.65   38.60 
   6  -2  -6  452.25   35.10 
  -6  -2   6  440.56   32.70 
  -6   2   6  378.46   32.10 
   6   2  -6  408.56   30.90 
   5  -2  -6 1783.82  118.29 
  -5  -2   6 1799.42  111.89 
   5   2  -6 2114.19  112.59 
  -5   2   6 1982.90  116.49 
  -5   2   6 2090.39  115.29 
   4  -2  -6 2091.59  124.69 
  -4  -2   6 2147.99  116.49 
   4   2  -6 2080.79  116.59 
  -4   2   6 2018.50  120.09 
  -4   2   6 2012.30  121.89 
  -3  -2   6  171.08   11.50 
   3  -2  -6  189.28   16.30 
  -3  -2   6  166.48   12.60 
   3  -2  -6  195.88   19.50 
  -3   2   6  155.78   16.60 
  -3   2   6  133.29   16.20 
   3   2  -6  124.19   12.60 
   3   2  -6  146.49   11.30 
  -3   2   6  167.58   16.30 
  -2  -2   6  867.51   50.19 
   2  -2  -6  880.81   54.99 
   2  -2  -6  834.02   51.69 
   2   2  -6  766.12   46.40 
  -2   2   6  753.02   50.29 
  -2   2   6  785.82   52.89 
  -2   2   6  759.32   52.49 
   1  -2  -6  934.41   59.29 
   1  -2  -6  951.00   61.49 
  -1  -2   6  970.40   60.19 
   0  -2  -6 2607.64  142.49 
   0  -2   6 2392.46  142.49 
   0  -2  -6 2436.56  139.79 
   0   2  -6 2367.96  137.29 
   0   2   6 2379.86  140.39 
   0   2   6 2495.65  138.79 
   0   2   6 2384.66  142.09 
   1  -2   6  701.13   41.00 
   1  -2   6  666.53   49.70 
   1   2   6  698.53   49.00 
  -1   2  -6  695.73   45.00 
  -1   2  -6  724.23   40.40 
   1   2   6  691.93   46.50 
   1   2   6  713.93   44.70 
   2  -2   6  197.68   22.80 
   2  -2   6  196.68   16.70 
   2   2   6  200.08   19.30 
  -2   2  -6  225.48   15.70 
   2   2   6  223.58   18.20 
   3  -2   6  527.25   40.30 
   3  -2   6  490.65   33.10 
   3   2   6  419.06   32.40 
   3   2   6  409.36   30.70 
  -3   2  -6  412.06   29.30 
   4  -2   6  676.83   48.60 
   4  -2   6  501.55   40.70 
  -4   2  -6  557.94   37.70 
   4   2   6  558.04   37.90 
   4   2   6  548.25   39.40 
   5  -2   6  301.87   37.20 
   5  -2   6  218.48   25.50 
   5   2   6  316.07   26.30 
   5   2   6  289.07   23.60 
   6  -2   6    3.30   10.30 
   6  -2   6    8.50    9.30 
   6   2   6    1.70    8.60 
   6   2   6    8.50    7.70 
   7  -2   6  103.89   20.60 
   7  -2   6  107.19   22.20 
   7   2   6   75.99   15.90 
   7   2   6   72.29   16.40 
   8  -2   6  170.98   27.50 
   8  -2   6  199.18   28.50 
   8   2   6  202.08   24.40 
   8   2   6  223.78   25.40 
  10  -3  -6   15.10   12.60 
  10  -3  -6   16.00   16.30 
 -10   3   6  -10.30   10.90 
  10   3  -6    7.00   10.30 
   9  -3  -6   39.10   14.70 
   9  -3  -6   30.70   16.30 
  -9   3   6   32.70   13.90 
   9   3  -6   21.40   11.00 
   8  -3  -6  195.18   31.90 
   8  -3  -6  225.68   27.00 
  -8   3   6  197.58   27.20 
   8   3  -6  187.98   21.20 
   7  -3  -6  527.55   46.00 
   7  -3  -6  534.65   43.30 
   7   3  -6  462.35   36.20 
  -7   3   6  469.35   39.90 
  -6   3   6  117.39   17.10 
   6   3  -6  121.49   14.60 
  -5  -3   6  317.37   23.80 
   5  -3  -6  294.47   30.40 
  -5   3   6  330.17   28.40 
   5   3  -6  291.77   22.90 
   4   3  -6  125.99    9.70 
   4   3  -6  125.99    8.80 
  -4   3   6  134.19   17.20 
   4   3  -6  122.99   11.70 
   4   3  -6  115.19   12.40 
  -3  -3   6 1950.20  121.89 
   3  -3  -6 1985.90  130.39 
   3   3  -6 2302.37  120.79 
   3   3  -6 2153.28  119.99 
   3   3  -6 2284.07  126.49 
  -3   3   6 2291.37  127.79 
  -2  -3   6  745.43   48.70 
   2  -3  -6  768.62   54.89 
   2   3  -6  755.02   43.70 
   2   3  -6  797.22   47.20 
  -2   3   6  760.22   50.79 
   1  -3  -6  160.78   19.80 
  -1  -3   6  146.19   17.30 
  -1   3   6  176.18   19.80 
  -1   3   6  178.48   17.60 
   1   3  -6  180.88   16.30 
   0  -3  -6  162.38   19.40 
   0  -3   6  144.19   18.40 
   0   3  -6  154.88   10.60 
   0   3   6  140.09   17.50 
   0   3  -6  144.89   16.20 
   0   3   6  169.18   16.60 
   1  -3   6  974.90   71.99 
   1  -3   6  987.80   62.79 
   1   3   6 1206.48   67.99 
   1   3   6 1139.69   70.29 
  -1   3  -6 1107.79   61.99 
   2  -3   6  366.86   37.10 
   2  -3   6  430.56   29.70 
   2   3   6  441.56   34.30 
  -2   3  -6  452.85   28.50 
   2   3   6  439.96   31.60 
   3  -3   6  443.86   40.30 
   3  -3   6  483.55   32.10 
   3   3   6  395.26   31.50 
   3   3   6  413.76   33.70 
  -3   3  -6  418.46   29.30 
   4  -3   6   55.39   20.40 
   4  -3   6   36.90   10.70 
   4   3   6   38.00   13.00 
  -4   3  -6   49.30    9.60 
   4   3   6   39.50    9.70 
   5  -3   6  138.29   26.70 
   5  -3   6  171.58   21.50 
   5   3   6   95.49   16.90 
   5   3   6  100.79   14.60 
   6  -3   6  118.09   22.40 
   6  -3   6  166.18   29.10 
   6   3   6  141.99   19.90 
   6   3   6  150.18   18.50 
   7  -3   6   -5.70   11.20 
   7  -3   6   -1.30    8.80 
   7   3   6    9.60    9.40 
   7   3   6   19.30   10.10 
   8  -3   6    1.10   13.90 
   8  -3   6    2.20   11.60 
   8   3   6    4.80   10.90 
   8   3   6    4.20    9.60 
   9  -4  -6   56.89   18.60 
   9  -4  -6   81.49   23.60 
   9   4  -6   38.80   12.90 
  -9   4   6   54.89   17.80 
   8  -4  -6   -0.50   14.00 
   8  -4  -6   10.30   12.40 
   8   4  -6    6.10   12.70 
  -8   4   6  -13.40    9.10 
   7  -4  -6    9.10   13.30 
   7  -4  -6    1.40   12.00 
   7   4  -6    8.40    8.10 
  -7   4   6    8.30   11.60 
   6  -4  -6  140.49   25.40 
   6  -4  -6  176.08   24.30 
  -6   4   6  130.59   22.00 
   6   4  -6  163.48   17.10 
   5  -4  -6  443.86   42.10 
  -5   4   6  424.96   38.10 
   5   4  -6  451.95   26.00 
   5   4  -6  445.56   26.10 
   5   4  -6  448.36   30.80 
   5   4  -6  425.76   33.20 
   4   4  -6   94.39   10.40 
   4   4  -6   86.69    9.80 
   4   4  -6   79.89    9.60 
   4   4  -6   85.29   12.60 
   3  -4  -6  193.98   25.90 
  -3  -4   6  223.78   19.80 
  -3   4   6  226.18   24.70 
   3   4  -6  211.18   16.20 
   3   4  -6  249.58   19.20 
   3   4  -6  228.98   18.80 
  -2  -4   6   29.60    9.50 
   2   4  -6   63.39   10.90 
  -2   4   6   58.49   12.70 
   2   4  -6   58.19    7.10 
   2   4  -6   51.59    7.90 
   1  -4  -6 1480.05  105.39 
  -1  -4   6 1491.95  100.69 
   1   4  -6 1707.03   93.99 
   1   4  -6 1710.83   93.59 
  -1   4   6 1754.42  101.89 
  -1   4   6 1828.72  107.19 
   0  -4   6  601.04   43.00 
   0  -4   6  618.94   33.80 
   0   4  -6  447.46   32.00 
   0   4   6  479.55   37.80 
   0   4  -6  484.45   31.90 
   0   4   6  484.85   41.20 
   1  -4   6   84.99   17.90 
   1  -4   6  108.99   12.20 
   1   4   6   98.19   20.80 
   1   4   6  100.39   14.80 
  -1   4  -6   96.89   10.70 
   2  -4   6   52.39   10.50 
   2  -4   6   38.00   14.60 
   2   4   6   74.59   16.00 
  -2   4  -6   69.49   10.00 
   3  -4   6  105.59   23.80 
   3  -4   6  125.69   16.30 
  -3   4  -6  149.79   15.80 
   3   4   6  149.88   20.00 
   3   4   6  169.78   19.10 
   4  -4   6  245.78   24.60 
   4  -4   6  222.18   33.50 
   4   4   6  270.27   24.40 
   4   4   6  249.18   27.00 
   5  -4   6   47.10   13.30 
   5  -4   6   31.00   17.90 
   5   4   6   19.60    9.80 
   5   4   6   32.10   11.90 
   6  -4   6   19.10   15.00 
   6  -4   6    5.10   13.70 
   6   4   6   10.60   10.50 
   6   4   6   16.00    8.70 
   7  -4   6    8.90   14.20 
   7  -4   6   24.90   16.50 
   7   4   6   19.10   10.00 
   7   4   6    6.50    9.20 
   7  -5  -6   17.70   15.40 
   7   5  -6   28.50   10.50 
  -7   5   6   38.20   27.70 
   6  -5  -6   -3.50   10.30 
   6   5  -6   11.40    7.50 
  -6   5   6    0.30   11.30 
   5  -5  -6   22.50   13.60 
  -5   5   6   53.69   15.60 
   5   5  -6   46.00    9.40 
   5   5  -6   39.20    6.80 
   4  -5  -6  123.99   25.90 
   4   5  -6  163.38   14.90 
   4   5  -6  144.99   18.70 
  -4   5   6  161.58   22.80 
   3  -5  -6  112.59   23.50 
  -3  -5   6  139.09   16.70 
   3   5  -6  119.29   12.30 
   3   5  -6  105.39   17.70 
  -3   5   6  109.29   19.60 
   3   5  -6  119.09   14.90 
   3   5  -6  119.09   14.60 
  -2  -5   6   31.10   11.10 
   2  -5  -6   20.10   12.40 
   2   5  -6   25.30    7.70 
  -2   5   6   31.60   13.60 
   2   5  -6   34.50    7.00 
  -2   5   6   38.00   12.80 
  -1  -5   6   63.09   14.80 
   1  -5  -6   77.09   19.40 
   1   5  -6   78.49   11.00 
   1   5  -6   80.29   10.40 
  -1   5   6   90.59   17.50 
  -1   5   6   90.39   19.50 
   0  -5   6   68.19   17.40 
   0  -5  -6   83.69   21.20 
   0   5   6   84.79   20.00 
   0   5  -6  103.79   12.10 
   0   5   6   93.09   16.60 
   0   5  -6   96.39   11.90 
   1  -5   6  211.88   20.50 
   1  -5   6  211.18   28.60 
   1   5   6  224.68   23.90 
  -1   5  -6  246.58   20.90 
   1   5   6  243.68   28.30 
  -1   5  -6  221.08   19.40 
   2  -5   6  176.68   19.00 
   2  -5   6  239.78   30.80 
  -2   5  -6  142.69   16.50 
   2   5   6  151.38   23.00 
   2   5   6  166.48   21.40 
   3  -5   6   18.10   15.40 
   3  -5   6   -8.60    6.40 
   3   5   6   -2.20   10.20 
   3   5   6  -11.20    7.60 
   4  -5   6    3.10    8.10 
   4  -5   6   14.10   13.70 
   4   5   6    3.10    7.90 
   4   5   6    4.00   10.60 
   5  -5   6   16.60   17.60 
   5  -5   6  -10.10    8.10 
   5   5   6   -2.40    8.40 
   5   5   6   -1.90   10.80 
   5  -6  -6   29.10   15.90 
   5   6  -6   40.20   10.50 
  -5   6   6   28.80   15.00 
   4  -6  -6   25.90   16.10 
   4   6  -6   23.50    7.80 
  -4   6   6   38.70   15.30 
   4   6  -6   29.30    9.10 
   3  -6  -6   26.80   18.70 
  -3  -6   6   28.00   10.20 
  -3   6   6   19.40   13.40 
   3   6  -6   28.80    7.70 
  -3   6   6    4.30   10.40 
   3   6  -6   20.90   10.10 
  -2  -6   6    3.30   10.30 
   2  -6  -6   26.80   24.00 
   2   6  -6   25.90    7.50 
  -1  -6   6   95.39   18.00 
   1  -6  -6   95.69   26.90 
  -1   6   6   64.39   21.60 
   1   6  -6   76.09   12.00 
   1   6  -6   55.79   14.50 
  -1   6   6   75.19   17.00 
   0  -6   6   87.69   19.80 
   0   6  -6   67.69   12.00 
   0   6   6   57.69   16.20 
   1  -6   6  119.59   24.10 
   1  -6   6  128.19   17.40 
   1   6   6  149.59   26.30 
   1   6   6  139.19   25.80 
  -1   6  -6  162.78   18.10 
   2  -6   6   96.79   23.90 
   2  -6   6   94.79   16.30 
   2   6   6   71.19   19.90 
  -2   6  -6  130.09   17.40 
  11   0  -7   41.30   15.50 
 -10   0   7  103.79   10.60 
  10   0  -7   98.99   20.90 
 -10   0   7  100.69   11.30 
  -9   0   7  335.37   22.10 
   9   0  -7  290.97   32.20 
  -9   0   7  298.07   22.00 
  -8   0   7  437.16   29.20 
  -8   0   7  442.06   29.00 
   8   0  -7  494.55   39.70 
  -7   0   7 1541.65   86.99 
  -7   0   7 1486.15   86.19 
   7   0  -7 1526.05   94.99 
  -6   0   7  557.14   34.40 
  -6   0   7  546.85   38.70 
  -6   0   7  566.74   35.50 
   6   0  -7  573.04   41.30 
   5   0  -7   19.90    7.50 
  -5   0   7   19.40    4.80 
  -5   0   7   21.80    6.60 
  -5   0   7   21.30    5.60 
  -4   0   7 1590.84   89.29 
  -4   0   7 1554.04   90.99 
   4   0  -7 1590.14   93.19 
  -4   0   7 1567.94   90.99 
   4   0  -7 1603.74   90.09 
  -3   0   7 3369.46  192.28 
  -3   0   7 3479.95  191.58 
   3   0  -7 3541.45  194.28 
   3   0  -7 3507.65  192.48 
   2   0  -7 2420.16  137.89 
  -2   0   7 2452.65  136.69 
   2   0  -7 2452.55  137.49 
  -2   0   7 2489.85  137.49 
  -1   0   7  393.86   25.70 
  -1   0   7  374.56   25.20 
   1   0  -7  417.36   26.50 
   1   0  -7  373.16   26.00 
  -1   0   7  377.46   26.10 
   0   0   7 1233.78   73.29 
   0   0   7 1242.78   71.69 
   0   0   7 1260.57   75.19 
   0   0  -7 1256.87   77.59 
   1   0   7 2718.03  147.29 
   1   0   7 2541.75  144.99 
   1   0   7 2651.93  148.09 
  -1   0  -7 2584.54  147.49 
  -1   0  -7 2543.85  146.79 
   2   0   7 1128.19   67.39 
   2   0   7 1096.69   66.19 
   2   0   7 1070.49   63.59 
  -2   0  -7 1056.09   65.89 
  -3   0  -7   47.20   10.20 
   3   0   7   50.89   10.70 
   3   0   7   53.19    9.10 
   4   0   7   19.80    7.50 
   4   0   7   10.70    7.80 
   5   0   7  211.78   24.40 
   5   0   7  196.28   19.80 
   6   0   7   62.99   15.10 
   6   0   7   32.60   11.30 
   7   0   7   37.30   13.60 
   7   0   7   43.30   12.30 
   8   0   7    2.90    9.70 
   8   0   7   13.80   11.00 
  11   1  -7   43.20   16.10 
 -11   1   7   53.09   12.90 
  10  -1  -7  404.06   42.50 
  10   1  -7  385.16   37.20 
 -10   1   7  402.16   31.70 
   9  -1  -7  184.18   28.10 
  -9   1   7  265.17   23.40 
  -9   1   7  294.67   23.40 
   8  -1  -7  725.13   54.09 
   8   1  -7  627.14   48.20 
  -8   1   7  665.93   44.70 
  -8   1   7  644.64   44.20 
   7  -1  -7  282.97   28.60 
   7   1  -7  283.57   26.10 
  -7   1   7  276.17   22.90 
   6  -1  -7 1338.17   82.99 
  -6  -1   7 1419.46   78.99 
  -6   1   7 1211.58   75.99 
   6   1  -7 1229.58   78.39 
  -6   1   7 1208.98   77.19 
  -5  -1   7 2193.18  117.09 
  -5  -1   7 2018.30  116.79 
   5  -1  -7 1933.91  125.89 
  -5  -1   7 2179.88  122.69 
  -5   1   7 2178.88  123.99 
   5   1  -7 2191.08  122.69 
  -5   1   7 2236.38  122.09 
  -5   1   7 2121.59  123.39 
   4  -1  -7 2760.42  149.19 
  -4  -1   7 2825.12  148.39 
  -4   1   7 2643.64  148.59 
   4   1  -7 2563.54  144.99 
  -4   1   7 2584.74  150.28 
   4   1  -7 2532.65  147.59 
  -4   1   7 2539.65  150.38 
   3  -1  -7  434.36   30.70 
   3  -1  -7  403.96   27.90 
  -3  -1   7  366.06   25.00 
  -3   1   7  376.66   26.90 
   3   1  -7  383.06   24.70 
   3   1  -7  391.96   25.10 
  -3   1   7  441.96   29.80 
  -3   1   7  365.46   28.80 
  -2  -1   7  793.12   39.80 
   2  -1  -7  758.02   46.40 
  -2  -1   7  794.92   39.40 
   2  -1  -7  770.62   44.80 
  -2  -1   7  698.83   44.00 
  -2   1   7  611.04   44.50 
   2   1  -7  589.94   40.80 
   2   1  -7  624.04   39.30 
  -2   1   7  600.74   42.60 
  -1  -1   7 3571.64  190.38 
   1  -1  -7 3421.66  197.58 
   1  -1  -7 3306.57  196.08 
  -1  -1   7 3315.27  190.48 
  -1  -1   7 3398.06  197.08 
  -1   1   7 3621.74  196.98 
  -1   1   7 3665.63  198.18 
   1   1  -7 3607.84  194.18 
  -1   1   7 3709.23  197.58 
   0  -1  -7  980.90   62.89 
   0  -1   7  967.70   58.69 
   0  -1   7 1054.79   64.89 
   0  -1   7  919.61   58.39 
   0   1   7 1121.29   63.59 
   0   1  -7 1105.59   63.69 
   0   1   7 1072.89   64.89 
   0   1   7 1122.09   62.29 
   1  -1   7  507.25   31.40 
   1  -1   7  498.05   31.40 
   1  -1   7  531.95   36.70 
   1   1   7  486.15   33.50 
  -1   1  -7  491.05   32.90 
   1   1   7  493.95   32.60 
   1   1   7  454.25   35.50 
  -1   1  -7  479.15   30.60 
   2  -1   7  295.07   21.60 
   2  -1   7  283.57   25.10 
  -2  -1  -7  253.07   23.20 
   2   1   7  268.67   21.50 
  -2   1  -7  269.37   20.30 
   2   1   7  280.77   24.80 
   2   1   7  265.67   21.00 
   3  -1   7  618.64   41.70 
   3  -1   7  586.44   44.80 
   3   1   7  630.74   41.10 
   3   1   7  602.14   40.80 
  -3   1  -7  646.74   40.90 
   4  -1   7  243.48   25.40 
   4  -1   7  242.58   22.90 
   4   1   7  242.88   21.30 
   4   1   7  231.18   21.10 
  -4   1  -7  253.57   22.20 
   5  -1   7  295.77   29.00 
   5  -1   7  299.27   26.60 
   5   1   7  247.98   23.80 
   6  -1   7    1.20    8.90 
   6  -1   7   -2.50    7.80 
   6   1   7    8.30    8.60 
   6   1   7    6.10    8.70 
   7  -1   7    7.50    9.90 
   7  -1   7    6.50   10.20 
   7   1   7    2.50    8.10 
   7   1   7   20.00   10.10 
   8  -1   7   45.90   14.70 
   8  -1   7   27.80   22.20 
   8   1   7   27.10   13.10 
   8   1   7   32.50   13.40 
  11  -2  -7   33.90   19.20 
  11  -2  -7   55.19   16.80 
 -11   2   7   51.79   16.30 
  11   2  -7   52.59   15.70 
  10  -2  -7  133.69   21.90 
  10  -2  -7  140.49   28.90 
 -10   2   7  161.08   22.00 
  10   2  -7  144.89   21.40 
   9  -2  -7  251.67   32.40 
   9  -2  -7  257.37   27.00 
   9   2  -7  231.08   29.10 
  -9   2   7  197.08   24.20 
   8  -2  -7  656.33   48.10 
   8  -2  -7  637.14   53.29 
  -8   2   7  586.84   45.50 
   8   2  -7  650.63   46.00 
   7  -2  -7  924.21   66.99 
  -7   2   7  885.21   60.09 
   7   2  -7  934.61   59.49 
   6  -2  -7  166.68   22.20 
   6   2  -7  184.18   17.80 
  -6   2   7  185.98   19.30 
   5  -2  -7  224.48   23.80 
  -5  -2   7  232.08   17.70 
  -5   2   7  190.58   19.40 
   5   2  -7  177.68   16.50 
  -4  -2   7  713.93   39.60 
  -4  -2   7  701.33   40.00 
   4  -2  -7  737.23   49.60 
  -4   2   7  629.24   43.80 
   4   2  -7  628.54   39.70 
  -4   2   7  597.64   48.00 
   4   2  -7  617.74   37.40 
   3  -2  -7 1179.38   81.49 
  -3  -2   7 1249.77   75.69 
  -3  -2   7 1188.08   71.69 
   3  -2  -7 1151.28   78.39 
   3   2  -7 1385.36   72.19 
   3   2  -7 1436.46   73.59 
  -3   2   7 1359.46   79.09 
  -3   2   7 1329.47   81.79 
  -3   2   7 1362.26   81.79 
   3   2  -7 1382.06   72.19 
  -2  -2   7 1527.35   86.89 
   2  -2  -7 1419.46   89.59 
   2  -2  -7 1453.85   87.59 
  -2   2   7 1435.36   86.29 
   2   2  -7 1434.46   81.89 
  -2   2   7 1476.45   93.59 
  -2   2   7 1410.36   88.69 
   1  -2  -7  143.49   18.40 
  -1  -2   7  155.28   18.00 
  -1   2   7  175.98   18.30 
  -1   2   7  164.68   16.60 
  -1   2   7  193.98   19.20 
   1   2  -7  189.38   14.50 
   0  -2  -7  276.47   23.70 
   0  -2   7  219.88   23.70 
   0   2  -7  223.98   18.20 
   0   2   7  240.98   20.20 
   0   2   7  220.18   21.40 
   0   2   7  247.88   22.80 
   1  -2   7  981.80   63.59 
   1  -2   7  932.91   73.19 
   1   2   7 1282.87   69.59 
  -1   2  -7 1246.48   63.89 
   1   2   7 1194.58   71.19 
   2  -2   7 1600.94  102.09 
   2  -2   7 1628.34   91.99 
   2   2   7 1551.24   93.39 
  -2   2  -7 1599.94   90.49 
   2   2   7 1596.84   95.89 
   3  -2   7  166.38   17.50 
   3  -2   7  202.28   25.00 
   3   2   7  174.28   18.20 
  -3   2  -7  182.68   15.60 
   3   2   7  151.88   16.90 
   4  -2   7  304.07   32.50 
   4   2   7  323.67   27.40 
   4   2   7  334.37   26.10 
  -4   2  -7  301.67   24.60 
   5  -2   7  195.68   26.10 
   5   2   7  201.88   20.00 
   5   2   7  178.58   21.00 
   6  -2   7    0.40    8.60 
   6  -2   7   15.30   12.60 
   6   2   7   12.50    9.90 
   6   2   7   16.20    9.30 
   7  -2   7    7.80   13.20 
   7  -2   7   10.60   10.80 
   7   2   7   17.10   11.20 
   7   2   7   11.30    9.30 
   8  -2   7    3.80   12.30 
   8  -2   7    5.40   12.20 
   8   2   7    7.30   11.10 
   8   2   7   11.50   10.90 
  10  -3  -7  174.48   32.60 
  10  -3  -7  132.89   23.80 
 -10   3   7  125.29   22.60 
  10   3  -7   99.49   18.90 
   9  -3  -7  291.77   32.40 
   9  -3  -7  307.57   37.70 
   9   3  -7  278.67   27.80 
  -9   3   7  256.67   29.70 
   8  -3  -7   72.29   17.10 
   8  -3  -7   61.99   18.90 
  -8   3   7   73.39   17.30 
   8   3  -7   79.89   14.70 
   7  -3  -7  132.59   24.40 
  -7   3   7  108.99   19.00 
   7   3  -7  140.79   16.80 
   6  -3  -7  415.66   41.40 
  -6  -3   7  509.45   34.00 
  -6   3   7  438.56   36.60 
   6   3  -7  432.06   34.60 
  -5  -3   7 1037.10   64.69 
   5  -3  -7 1088.89   75.99 
   5   3  -7 1147.59   64.89 
   5   3  -7 1040.80   65.19 
  -5   3   7 1108.49   70.49 
   4  -3  -7  186.78   23.50 
   4   3  -7  139.09   12.20 
  -4   3   7  151.78   17.80 
   4   3  -7  132.19   12.60 
  -3  -3   7  103.89   11.60 
   3  -3  -7  107.59   19.00 
   3   3  -7  105.39    7.90 
  -3   3   7  109.99   14.60 
   3   3  -7   90.09    7.60 
   3   3  -7   97.59    9.20 
  -2  -3   7  180.18   18.90 
   2  -3  -7  165.68   22.50 
   2   3  -7  272.27   18.00 
  -2   3   7  254.87   22.00 
  -1  -3   7 1703.43   99.29 
   1  -3  -7 1528.85  101.29 
  -1   3   7 1669.33  101.19 
  -1   3   7 1620.14   97.49 
   1   3  -7 1613.44   94.69 
   0  -3   7  292.47   27.60 
   0  -3  -7  250.07   26.00 
   0   3   7  248.18   22.40 
   0   3   7  243.78   24.40 
   1  -3   7   34.30    5.50 
   1  -3   7   16.70   11.20 
   1   3   7   28.80    9.10 
   1   3   7   41.50   10.90 
  -1   3  -7   28.10    4.30 
   2  -3   7    7.10   10.70 
   2  -3   7    6.90    4.60 
   2   3   7   19.50    9.30 
   2   3   7   18.20    7.80 
  -2   3  -7   14.10    4.70 
   3  -3   7  207.28   28.40 
   3  -3   7  172.38   17.50 
  -3   3  -7  189.68   16.00 
   3   3   7  222.08   25.00 
   3   3   7  153.28   21.00 
   4  -3   7  198.58   21.80 
   4  -3   7  211.88   29.00 
  -4   3  -7  208.08   18.90 
   4   3   7  228.08   20.80 
   4   3   7  207.68   22.40 
   5  -3   7   84.19   17.10 
   5  -3   7   99.89   23.60 
   5   3   7   71.59   15.80 
   5   3   7   70.89   12.90 
   6  -3   7   -0.20    9.70 
   6  -3   7   10.40   12.30 
   6   3   7    8.00   10.10 
   6   3   7    4.60    7.90 
   7  -3   7   30.30   18.60 
   7  -3   7   -2.20    9.30 
   7   3   7   29.70   12.50 
   7   3   7   22.40   11.20 
   9  -4  -7   24.90   18.20 
   9  -4  -7   27.00   17.10 
  -9   4   7   30.50   14.60 
   9   4  -7   40.70   12.70 
   8  -4  -7   93.29   23.80 
  -8   4   7   87.69   20.20 
   8   4  -7  114.69   17.00 
   7  -4  -7  195.78   29.60 
   7   4  -7  196.08   20.10 
  -7   4   7  196.08   25.30 
  -6  -4   7   60.29   11.50 
   6  -4  -7   80.29   19.30 
   6   4  -7   46.20   10.80 
  -6   4   7   66.19   15.70 
   6   4  -7   49.80   10.00 
   5  -4  -7   61.49   17.50 
   5   4  -7   62.69    9.60 
   5   4  -7   73.29   12.00 
  -5   4   7   71.39   16.30 
   4  -4  -7  242.18   27.90 
   4   4  -7  200.28   15.70 
   4   4  -7  191.98   14.40 
   4   4  -7  195.68   17.10 
   4   4  -7  177.38   15.10 
  -4   4   7  157.48   22.40 
  -3  -4   7  510.15   37.70 
   3  -4  -7  557.54   47.50 
   3   4  -7  595.44   36.60 
   3   4  -7  555.14   33.40 
  -3   4   7  561.44   42.70 
   2  -4  -7   66.79   18.70 
  -2  -4   7   72.89   12.80 
   2   4  -7   28.60    4.20 
   2   4  -7   28.00    8.30 
  -2   4   7   29.20   10.50 
  -1  -4   7   19.20    9.20 
   1  -4  -7   28.60   19.90 
  -1   4   7   40.00   11.00 
  -1   4   7   45.50   22.90 
   0  -4  -7   -0.50    9.50 
   0  -4   7   -0.90    7.90 
   0   4  -7    5.00    2.90 
   0   4   7    1.90    7.10 
   0   4   7   11.10   10.50 
   0   4  -7    4.70    3.00 
   1  -4   7  559.64   48.70 
   1  -4   7  549.05   36.70 
  -1   4  -7  617.74   35.80 
   1   4   7  598.34   42.80 
   1   4   7  617.94   47.00 
   2  -4   7  192.88   30.40 
   2  -4   7  188.78   16.60 
   2   4   7  153.38   21.30 
  -2   4  -7  130.39   13.30 
   2   4   7  144.59   19.00 
   3  -4   7   27.60   15.20 
   3  -4   7   36.20    8.90 
  -3   4  -7   69.99   11.20 
   3   4   7   52.49   14.00 
   3   4   7   56.39   13.10 
   4  -4   7   21.00   14.80 
   4  -4   7    8.30    8.60 
   4   4   7   16.00   10.20 
   4   4   7   14.90    9.30 
   5  -4   7   37.10   17.10 
   5  -4   7   15.50   11.70 
   5   4   7   23.10   10.40 
   5   4   7   30.60   12.10 
   6  -4   7   33.40   17.50 
   6   4   7   40.10   13.30 
   6   4   7   42.70   12.30 
   7  -5  -7    8.10   15.00 
  -7   5   7   11.90   11.70 
   7   5  -7   33.40   10.30 
   6   5  -7   64.19   11.90 
  -6   5   7   81.49   20.20 
   5  -5  -7  140.09   27.10 
  -5   5   7  123.69   23.20 
   5   5  -7  122.49   11.10 
   5   5  -7  130.49   14.20 
   4  -5  -7  108.09   24.50 
   4   5  -7   62.39    9.30 
  -4   5   7   62.29   17.20 
  -3  -5   7   13.60    7.60 
   3  -5  -7    1.40   10.60 
   3   5  -7   -0.90    6.00 
  -3   5   7   20.80   11.90 
   3   5  -7    3.70    5.50 
   3   5  -7    3.80    4.00 
  -2  -5   7  180.28   21.10 
   2  -5  -7  214.88   30.00 
  -2   5   7  175.68   22.70 
  -2   5   7  185.08   27.10 
   2   5  -7  179.98   13.50 
   2   5  -7  160.78   14.20 
  -1  -5   7   59.39   14.20 
   1  -5  -7   57.19   17.30 
   1   5  -7   43.20    6.40 
  -1   5   7   33.90   13.10 
   1   5  -7   34.40    6.70 
  -1   5   7   24.50   13.30 
   0  -5   7    9.30   15.00 
   0  -5  -7    0.60   11.80 
   0   5  -7   24.00    5.80 
   0   5   7   22.70   11.30 
   0   5   7    4.80   11.80 
   1  -5   7  127.99   13.50 
   1  -5   7   99.09   22.50 
   1   5   7  123.39   19.40 
  -1   5  -7  127.39   13.20 
   1   5   7  137.59   23.50 
   2  -5   7   34.50   17.10 
   2  -5   7   37.70    9.40 
   2   5   7   41.10   12.50 
   2   5   7   28.30   13.30 
   3  -5   7   27.80   19.20 
   3  -5   7   22.10    9.20 
   3   5   7   35.40   12.10 
   3   5   7    8.30   11.60 
   4  -5   7   23.20   10.00 
   4   5   7   23.00   11.40 
   4   5   7   28.40   12.70 
   4  -6  -7   -4.20   11.70 
  -4   6   7    3.50   11.30 
   4   6  -7    9.80    7.90 
  -3  -6   7   36.80   11.80 
   3  -6  -7   34.70   16.10 
  -3   6   7   23.80   13.90 
  -3   6   7   29.00   13.90 
   3   6  -7   20.60    9.50 
   2  -6  -7   15.50   15.60 
   2   6  -7   11.00    9.70 
  -2   6   7    8.60   13.60 
  -2   6   7    2.40   11.40 
  -1  -6   7   16.10   12.20 
   1  -6  -7   21.70   13.90 
  -1   6   7   21.50   15.50 
  -1   6   7   14.20   13.00 
   0  -6   7   -4.60   10.30 
   0   6   7    7.40   12.20 
   0   6   7   -3.90    9.90 
   1  -6   7    4.40   13.00 
   1   6   7   10.60   13.50 
   1   6   7   32.40   13.60 
  11   0  -8   87.09   20.60 
  10   0  -8  161.78   27.00 
 -10   0   8  172.28   13.50 
  -9   0   8  328.37   22.10 
  -9   0   8  319.27   22.30 
   9   0  -8  360.66   35.30 
  -8   0   8  644.54   40.10 
  -8   0   8  627.64   39.30 
   8   0  -8  705.13   51.39 
  -7   0   8  333.37   23.10 
   7   0  -8  362.36   31.60 
  -7   0   8  353.56   24.20 
  -6   0   8  904.91   55.49 
  -6   0   8  985.70   57.59 
   6   0  -8 1006.30   63.29 
  -6   0   8  924.11   59.89 
   5   0  -8 3236.88  181.28 
  -5   0   8 3129.19  177.28 
  -5   0   8 3142.89  175.38 
  -5   0   8 3176.38  181.28 
   4   0  -8 1059.79   63.19 
  -4   0   8 1099.89   62.49 
  -4   0   8 1046.50   63.59 
   4   0  -8 1070.69   66.09 
  -4   0   8 1064.69   64.49 
  -3   0   8   27.50    6.10 
   3   0  -8   19.20    5.80 
   3   0  -8   25.60    6.90 
  -3   0   8   29.50    6.20 
  -2   0   8 1697.93   97.19 
   2   0  -8 1680.83   97.59 
  -2   0   8 1738.13   96.89 
  -2   0   8 1681.03   96.89 
   2   0  -8 1689.43   97.79 
  -1   0   8 5029.50  277.77 
   1   0  -8 4954.20  278.47 
  -1   0   8 4985.30  277.07 
  -1   0   8 5204.98  278.57 
   0   0   8  610.54   39.40 
   0   0   8  624.84   39.60 
   0   0  -8  603.04   39.70 
   0   0   8  597.74   37.50 
   1   0   8   90.29   11.80 
   1   0   8   98.69   10.20 
   1   0   8   93.19   11.90 
   2   0   8  106.79   13.80 
   2   0   8  114.39   14.00 
   2   0   8  106.19   11.60 
  -2   0  -8  104.99   13.20 
   3   0   8 1042.00   62.49 
   3   0   8 1095.99   66.49 
   3   0   8  988.50   65.79 
  -3   0  -8  991.40   64.99 
   4   0   8  284.57   24.10 
   4   0   8  302.57   27.90 
   5   0   8    4.10    7.90 
   5   0   8    8.20    7.90 
   6   0   8    7.80   10.30 
   6   0   8    5.80    8.40 
   7   0   8   48.80   14.70 
   7   0   8   35.00   12.50 
   8   0   8   41.60   16.00 
   8   0   8   11.70   11.40 
  11  -1  -8  106.39   23.50 
  11   1  -8   41.20   15.40 
 -11   1   8   68.39   13.30 
  10  -1  -8   99.19   23.60 
 -10   1   8  104.89   15.50 
  10   1  -8  105.29   20.90 
   9  -1  -8  110.59   21.70 
  -9   1   8   81.49   13.30 
   9   1  -8   57.99   16.60 
  -9   1   8   99.29   13.90 
   8  -1  -8 1100.59   79.99 
   8   1  -8 1038.60   70.09 
  -8   1   8 1025.90   66.09 
  -8   1   8 1061.79   65.39 
   7  -1  -8  561.04   48.00 
   7   1  -8  669.63   45.40 
  -7   1   8  625.14   41.80 
  -7   1   8  625.94   42.80 
  -6  -1   8 1378.56   76.49 
   6  -1  -8 1189.68   80.29 
  -6   1   8 1136.19   75.29 
   5  -1  -8   69.79   14.30 
  -5  -1   8   65.99    7.30 
  -5  -1   8   72.39    8.00 
  -5  -1   8   73.89   11.20 
   5   1  -8   61.49   10.30 
  -5   1   8   55.59   11.10 
  -5   1   8   52.59   11.70 
  -5   1   8   45.10   11.90 
   4  -1  -8 2426.86  132.09 
   4  -1  -8 2467.85  135.99 
  -4  -1   8 2582.74  129.99 
  -4   1   8 2132.39  131.99 
  -4   1   8 2159.78  132.69 
   4   1  -8 2147.49  127.39 
   4   1  -8 2159.88  129.29 
   3  -1  -8 2799.92  167.38 
   3  -1  -8 2689.63  169.28 
  -3  -1   8 2744.23  163.68 
  -3   1   8 3224.68  170.68 
  -3   1   8 3122.39  172.98 
   3   1  -8 3106.09  164.68 
  -3   1   8 3073.79  166.78 
   3   1  -8 2988.30  163.88 
   2  -1  -8 1393.06   85.19 
  -2  -1   8 1507.95   78.39 
  -2  -1   8 1301.87   83.49 
  -2  -1   8 1337.07   77.79 
   2  -1  -8 1371.46   83.79 
  -2   1   8 1493.15   82.99 
  -2   1   8 1466.15   85.39 
   2   1  -8 1428.96   81.19 
   1  -1  -8   73.49   12.00 
  -1  -1   8   64.39    5.20 
  -1  -1   8   65.19    5.10 
   1  -1  -8   82.79   10.40 
  -1  -1   8   82.29   12.90 
  -1   1   8   37.60    8.40 
  -1   1   8   53.79    9.10 
  -1   1   8   38.80    9.20 
   0  -1   8  128.69   10.90 
   0  -1   8  131.29   10.60 
   0  -1   8  129.79   16.40 
   0   1   8  150.88   14.90 
   0   1  -8  137.79   13.60 
   0   1   8  152.38   18.10 
   0   1   8  152.58   14.40 
   1  -1   8 2630.74  147.89 
   1  -1   8 2833.82  154.48 
   1  -1   8 2639.54  147.59 
   1   1   8 2608.84  153.38 
   1   1   8 2616.24  150.08 
  -1   1  -8 2580.84  147.19 
   1   1   8 2589.64  149.19 
   2  -1   8  480.95   33.50 
   2  -1   8  516.35   33.80 
   2  -1   8  523.95   39.20 
  -2  -1  -8  455.25   36.40 
   2   1   8  490.55   34.30 
   2   1   8  505.25   34.40 
   2   1   8  496.15   41.00 
  -2   1  -8  498.25   33.10 
   3  -1   8  279.07   22.90 
   3  -1   8  269.27   26.40 
   3   1   8  251.97   22.00 
   3   1   8  255.67   21.90 
  -3   1  -8  241.18   21.60 
   4  -1   8   30.60    9.80 
   4  -1   8   22.90   13.60 
   4   1   8   48.90   10.60 
   5  -1   8  424.36   37.80 
   5  -1   8  462.75   34.70 
   5   1   8  380.86   33.20 
   5   1   8  391.96   32.30 
   6  -1   8   29.00   11.40 
   6  -1   8   46.50   15.10 
   6   1   8   40.80   12.60 
   6   1   8   53.69   13.20 
   7  -1   8   -2.80   11.40 
   7  -1   8    6.80   10.00 
   7   1   8   16.50   10.40 
   7   1   8    9.40   10.80 
   8  -1   8   -8.90   10.00 
   8  -1   8   14.90   13.80 
   8   1   8    7.70   11.90 
   8   1   8   11.00   13.00 
  10  -2  -8  258.87   35.80 
 -10   2   8  268.97   27.60 
  10   2  -8  284.67   29.60 
   9  -2  -8   45.60   17.50 
   9   2  -8   32.90   12.00 
  -9   2   8   25.60   10.90 
   8  -2  -8  357.56   37.60 
  -8   2   8  334.27   29.20 
   8   2  -8  301.97   28.60 
  -7  -2   8    4.70    6.50 
   7   2  -8    9.20    7.20 
  -7   2   8   10.90    8.20 
   6  -2  -8  599.84   48.40 
  -6  -2   8  591.24   39.80 
  -6   2   8  582.34   42.00 
   6   2  -8  580.14   39.60 
  -5  -2   8 2123.49  116.49 
   5  -2  -8 2077.39  126.59 
  -5   2   8 2043.00  120.49 
   5   2  -8 1979.70  116.59 
   4  -2  -8  850.01   62.79 
  -4  -2   8  823.52   52.69 
  -4  -2   8  835.82   53.89 
  -4   2   8  991.80   59.69 
   4   2  -8 1009.70   53.99 
   4   2  -8 1052.29   53.99 
   3  -2  -8  126.69   17.60 
  -3  -2   8  138.99   14.50 
   3   2  -8  142.49   11.60 
  -3   2   8  158.98   16.00 
  -2  -2   8 1094.39   69.09 
   2  -2  -8 1110.09   71.09 
  -2   2   8 1109.79   67.49 
   2   2  -8 1051.89   62.99 
  -1  -2   8 1965.40  136.29 
   1  -2  -8 2364.06  137.29 
   1   2  -8 2411.56  130.79 
  -1   2   8 2429.46  133.69 
  -1   2   8 2411.86  136.29 
   0  -2  -8  519.35   40.00 
   0   2   8  521.05   38.70 
   0   2  -8  547.55   37.80 
   0   2   8  542.35   36.90 
   1  -2   8   15.30   10.20 
   1  -2   8   16.90    4.00 
   1  -2   8   16.30    4.10 
   1   2   8    3.90    6.50 
   1   2   8   14.60    7.70 
  -1   2  -8   13.40    3.60 
   2  -2   8  249.08   28.20 
   2  -2   8  259.37   19.50 
  -2   2  -8  254.07   18.60 
   2   2   8  241.48   21.40 
   2   2   8  249.18   23.30 
   3  -2   8  274.47   24.10 
   3  -2   8  327.07   32.70 
   3   2   8  278.97   25.50 
  -3   2  -8  287.57   22.10 
   3   2   8  286.17   24.50 
   4  -2   8   70.79   14.10 
   4  -2   8  105.19   20.70 
   4   2   8   90.39   21.50 
  -4   2  -8  101.89   13.40 
   4   2   8   73.89   13.80 
   5  -2   8   43.50   16.80 
   5   2   8   49.20   12.00 
   5   2   8   49.99   11.90 
   6  -2   8   20.50   10.60 
   6  -2   8   54.29   16.80 
   6   2   8   31.80   11.80 
   6   2   8   38.30   11.60 
   7  -2   8   22.60   14.40 
   7  -2   8   32.90   14.30 
   7   2   8   40.60   14.10 
   7   2   8   24.70   11.40 
  10  -3  -8   18.90   18.30 
  10   3  -8   15.50   10.70 
 -10   3   8   10.00   11.70 
   9  -3  -8   43.70   19.10 
  -9   3   8   70.99   17.00 
   9   3  -8   50.89   15.40 
   8  -3  -8  307.97   38.10 
  -8   3   8  272.67   29.30 
   8   3  -8  291.87   26.40 
   7  -3  -8  715.43   59.69 
  -7  -3   8  747.93   50.59 
   7   3  -8  725.03   48.80 
   6  -3  -8  194.58   26.50 
  -6  -3   8  162.58   17.20 
   6   3  -8  213.68   18.00 
  -6   3   8  199.48   22.80 
   5  -3  -8  303.97   32.70 
  -5  -3   8  311.37   22.20 
   5   3  -8  297.17   22.30 
  -5   3   8  336.07   29.20 
   5   3  -8  313.27   22.10 
   4  -3  -8  333.67   32.60 
  -4  -3   8  332.17   22.20 
   4   3  -8  315.27   20.10 
   4   3  -8  300.27   20.10 
  -4   3   8  345.77   28.50 
   3  -3  -8 1249.57   81.39 
  -3  -3   8 1212.08   71.69 
   3   3  -8 1147.99   67.99 
  -3   3   8 1176.58   75.19 
   2  -3  -8  429.66   36.40 
  -2  -3   8  429.46   31.90 
  -2   3   8  363.56   31.00 
  -1  -3   8   43.10   11.90 
   1  -3  -8   31.00   11.30 
   1   3  -8   38.40    8.30 
  -1   3   8   25.10   10.50 
  -1   3   8   36.60   10.90 
   0  -3   8   84.69   17.80 
   0  -3  -8   58.89   14.90 
   0   3   8  124.69   16.90 
   0   3   8  106.09   14.30 
   1  -3   8  679.93   53.19 
   1   3   8  647.74   44.50 
   1   3   8  615.24   46.90 
   2  -3   8  119.89   23.90 
   2  -3   8  163.58   14.00 
   2   3   8  144.69   19.30 
   2   3   8  183.88   18.80 
  -2   3  -8  172.48   13.30 
   3  -3   8  100.39   22.50 
   3  -3   8   62.29   10.90 
   3   3   8   96.99   14.70 
  -3   3  -8   83.29   11.10 
   3   3   8  107.39   17.50 
   4  -3   8   24.10    9.10 
   4  -3   8    5.10   13.00 
  -4   3  -8   51.69   10.30 
   4   3   8   52.79   13.00 
   4   3   8   51.19   12.00 
   5  -3   8  103.19   24.10 
   5  -3   8  108.29   18.40 
   5   3   8   80.59   14.60 
   5   3   8  100.49   17.10 
   6  -3   8   79.09   25.90 
   6  -3   8   60.49   16.30 
   6   3   8   93.79   16.90 
   6   3   8   80.89   16.70 
   8  -4  -8   43.80   20.20 
   8   4  -8   44.80   11.90 
  -8   4   8   42.10   15.60 
   7  -4  -8   81.49   21.60 
  -7   4   8   71.69   17.10 
   7   4  -8   53.79   10.90 
   6  -4  -8   69.59   19.70 
   6   4  -8  129.79   16.70 
   6   4  -8  131.49   19.80 
  -6   4   8  134.89   21.90 
   5  -4  -8  429.86   42.00 
  -5   4   8  442.66   37.90 
   5   4  -8  425.96   28.50 
   5   4  -8  426.26   29.90 
  -4  -4   8  223.58   19.40 
   4  -4  -8  201.38   29.80 
   4   4  -8  268.47   19.40 
   4   4  -8  252.27   17.20 
   4   4  -8  243.78   16.50 
  -4   4   8  259.87   26.60 
   4   4  -8  256.17   17.10 
  -3  -4   8  264.47   22.90 
   3  -4  -8  277.87   31.70 
  -3   4   8  245.68   25.90 
   2  -4  -8  185.28   26.40 
  -2  -4   8  196.68   20.50 
   2   4  -8  160.28   18.40 
  -2   4   8  155.78   20.00 
  -2   4   8  185.88   25.00 
  -1  -4   8  264.27   25.90 
   1  -4  -8  237.08   28.60 
  -1   4   8  228.58   23.90 
  -1   4   8  237.78   27.40 
   0  -4   8   90.69   18.50 
   0  -4  -8   73.39   17.50 
   0   4   8   83.89   15.00 
   0   4   8   63.19   15.90 
   1  -4   8    9.30   13.30 
   1   4   8    8.80    8.00 
   1   4   8    3.60    9.70 
   2  -4   8    9.50    5.10 
   2  -4   8   -1.70   11.30 
   2   4   8   13.10    9.10 
   2   4   8    6.60    9.20 
  -2   4  -8    0.60    3.80 
   3  -4   8   73.39   23.00 
   3  -4   8  101.19   13.20 
  -3   4  -8   89.59   13.00 
   3   4   8   70.29   14.70 
   3   4   8   72.69   16.70 
   4  -4   8   47.90   11.50 
   4  -4   8   34.80   20.00 
   4   4   8   51.59   13.80 
   4   4   8   25.00   10.30 
   5  -4   8   50.49   21.00 
   5  -4   8   41.90   12.30 
   5   4   8   53.79   13.50 
   5   4   8   61.39   15.20 
   7  -5  -8   89.39   25.20 
  -7   5   8   64.19   19.70 
   6  -5  -8   52.69   20.00 
   6   5  -8   51.19   10.30 
   5  -5  -8   24.20   15.30 
  -5   5   8   48.90   15.70 
   5   5  -8   46.80    8.40 
   4  -5  -8   91.49   22.20 
   4   5  -8  109.29   10.30 
  -4   5   8   99.09   19.70 
  -3  -5   8   33.80   10.50 
   3  -5  -8   65.49   19.20 
  -3   5   8   63.09   15.90 
   2  -5  -8   51.39   17.50 
  -2  -5   8   61.79   14.10 
  -2   5   8   33.10   14.20 
  -2   5   8   54.79   15.30 
   1  -5  -8   32.00   15.30 
  -1  -5   8    8.70   10.20 
  -1   5   8   19.20   12.30 
  -1   5   8    3.40    9.50 
   0  -5   8   98.09   20.70 
   0  -5  -8   80.89   20.50 
   0   5   8   76.69   15.70 
   0   5   8   75.19   19.30 
   1  -5   8   92.49   21.40 
   1   5   8   54.29   17.30 
  -1   5  -8   46.80    9.60 
   1   5   8   31.10   12.80 
   2  -5   8   56.19   21.80 
   2  -5   8   64.69   10.10 
   2   5   8   72.89   15.40 
   2   5   8   71.29   20.40 
   3  -5   8   41.80   20.20 
   3   5   8   82.29   18.80 
   4   5   8   70.59   14.70 
   4   5   8   74.79   18.30 
   3   6  -8   14.50   10.40 
  -3   6   8   14.40   13.10 
  -3   6   8   31.60   16.90 
   2  -6  -8  -10.60   11.90 
  -2  -6   8  -10.10    8.30 
  -2   6   8   18.00   11.70 
   2   6  -8    2.70    9.10 
  -2   6   8    8.10   14.00 
  -1  -6   8   24.50   12.30 
   1  -6  -8   12.70   15.60 
  -1   6   8    1.90   12.00 
  -1   6   8   44.50   15.90 
  11   0  -9   92.69   22.20 
  10   0  -9    9.60   12.10 
  -9   0   9  252.17   18.10 
  -9   0   9  275.57   19.00 
   9   0  -9  295.97   31.60 
  -8   0   9  265.97   19.30 
   8   0  -9  313.47   30.40 
  -8   0   9  286.17   20.50 
  -7   0   9  955.60   57.29 
  -7   0   9  975.10   58.99 
   7   0  -9 1030.40   67.49 
  -6   0   9  707.93   48.40 
   6   0  -9  770.82   52.29 
  -6   0   9  755.62   45.00 
  -6   0   9  732.33   46.60 
   5   0  -9  661.33   41.80 
  -5   0   9  631.44   45.20 
  -5   0   9  685.93   41.10 
  -5   0   9  678.53   43.30 
   4   0  -9   99.19   13.40 
  -4   0   9  108.69   11.40 
  -4   0   9  120.99   12.10 
   4   0  -9  104.29   11.90 
  -3   0   9 2701.33  148.99 
   3   0  -9 2630.74  150.58 
   3   0  -9 2688.93  153.08 
  -3   0   9 2598.04  148.99 
   2   0  -9 2662.53  147.79 
  -2   0   9 2664.83  147.29 
   2   0  -9 2512.85  147.79 
  -2   0   9 2505.35  146.49 
  -2   0   9 2714.13  147.19 
   1   0  -9   52.69   10.20 
  -1   0   9   60.69    9.70 
  -1   0   9   44.30    7.80 
  -1   0   9   39.50    8.60 
   0   0   9  632.84   39.80 
   0   0   9  584.44   39.30 
   0   0   9  570.14   37.00 
   1   0   9 2178.38  124.09 
   1   0   9 2167.78  127.69 
   1   0   9 2265.87  127.79 
  -2   0  -9  456.75   34.80 
   2   0   9  508.05   36.40 
   2   0   9  487.25   32.40 
   2   0   9  510.75   36.70 
   3   0   9   28.30    7.90 
   3   0   9   37.60   12.40 
   4   0   9    8.60    9.80 
   4   0   9    3.70    6.60 
   5   0   9  217.18   25.40 
   5   0   9  214.08   22.20 
   6   0   9   63.49   16.10 
   6   0   9   81.99   15.10 
   7   0   9   10.20   10.10 
   7   0   9    9.10   10.20 
  10  -1  -9  271.87   34.70 
 -10   1   9  245.88   22.30 
  10   1  -9  287.77   30.80 
   9  -1  -9  361.56   37.40 
  -9   1   9  298.37   24.60 
   9   1  -9  235.68   29.60 
  -9   1   9  315.07   25.90 
   8  -1  -9   19.10   15.50 
   8   1  -9   44.50   13.30 
  -8   1   9   24.10    8.60 
  -8   1   9   41.10    9.30 
   7  -1  -9  133.49   22.70 
   7   1  -9  129.49   17.40 
  -7   1   9  128.39   14.70 
  -7   1   9  134.79   16.30 
   6  -1  -9  618.64   49.40 
  -6  -1   9  664.73   38.70 
  -6   1   9  704.43   44.00 
  -6   1   9  683.33   45.60 
   6   1  -9  631.44   56.29 
   5  -1  -9  894.01   62.59 
  -5  -1   9  999.90   55.59 
  -5  -1   9 1017.80   57.69 
  -5  -1   9  851.61   54.39 
   5   1  -9  933.81   57.79 
  -5   1   9  919.61   57.49 
   5   1  -9  902.51   53.89 
  -5   1   9  894.01   59.79 
  -4  -1   9 1826.32   98.59 
   4  -1  -9 1758.32  101.49 
   4  -1  -9 1709.23  104.29 
   4   1  -9 1684.93   97.69 
  -4   1   9 1739.73  103.39 
   4   1  -9 1627.54   98.29 
  -4   1   9 1756.02  102.39 
  -4   1   9 1667.73   99.79 
  -3  -1   9   12.80    6.30 
  -3  -1   9    6.30    3.70 
   3  -1  -9    7.60    6.20 
   3  -1  -9    5.50    6.60 
  -3   1   9   18.40    7.70 
   3   1  -9    9.20    4.70 
   3   1  -9   10.10    4.10 
  -3   1   9   15.80    5.90 
  -2  -1   9  730.03   51.59 
  -2  -1   9  747.53   40.90 
  -2  -1   9  841.82   41.60 
   2   1  -9  655.63   46.80 
  -2   1   9  687.33   46.20 
  -2   1   9  646.64   48.20 
  -1  -1   9 2625.44  149.69 
  -1  -1   9 2436.46  140.89 
   1  -1  -9 2435.76  152.08 
  -1   1   9 2666.83  146.39 
   1   1  -9 2592.54  145.59 
  -1   1   9 2717.73  149.79 
   0  -1   9 2011.30  109.09 
   0  -1   9 1736.63   99.79 
   0   1   9 1699.93  106.59 
   0   1   9 1788.92  104.69 
   0   1   9 1727.93  103.59 
   1  -1   9   84.79    9.80 
   1  -1   9   77.99    9.60 
   1  -1   9   99.19   16.70 
   1   1   9   61.39   11.10 
   1   1   9   60.99   10.60 
   1   1   9   50.99   11.90 
   2  -1   9  152.08   19.60 
   2  -1   9  169.98   15.80 
   2  -1   9  155.18   15.80 
  -2   1  -9  158.58   15.10 
   2   1   9  140.89   15.80 
   2   1   9  143.89   16.20 
   3  -1   9 1107.49   67.49 
   3  -1   9 1060.29   67.09 
   3   1   9 1047.00   66.99 
   3   1   9 1069.59   66.19 
  -3   1  -9 1051.59   66.39 
   4  -1   9  106.29   20.30 
   4  -1   9  111.69   16.20 
   4   1   9  129.39   18.10 
   4   1   9  124.99   15.70 
   5  -1   9    2.10    7.60 
   5  -1   9   -0.20    8.90 
   5   1   9    4.80    8.80 
   5   1   9   11.80    9.10 
   6  -1   9   20.30   12.20 
   6  -1   9   -1.70    8.70 
   6   1   9    3.00    9.60 
   6   1   9    5.00    8.50 
   7  -1   9   33.70   14.80 
   7  -1   9   39.20   13.70 
   7   1   9   27.90   11.50 
   7   1   9   34.80   13.60 
 -10   2   9   49.80   13.50 
  10   2  -9   84.09   18.20 
   9  -2  -9   63.69   19.90 
   9   2  -9   76.59   16.50 
  -9   2   9   54.59   14.10 
   8  -2  -9  645.64   56.09 
  -8   2   9  662.03   47.50 
   8   2  -9  666.23   47.60 
  -7  -2   9  289.47   25.70 
   7   2  -9  297.87   25.40 
  -7   2   9  286.87   26.00 
  -6  -2   9  635.44   42.60 
   6  -2  -9  757.42   54.39 
  -6   2   9  632.04   45.50 
   6   2  -9  636.14   43.00 
   5  -2  -9   70.19   15.40 
  -5   2   9   38.30    9.90 
   5   2  -9   40.70    4.60 
   5   2  -9   26.40    6.60 
  -4  -2   9 1015.50   60.69 
   4  -2  -9  973.80   68.89 
  -4   2   9 1033.10   64.19 
   4   2  -9 1022.20   58.59 
  -3  -2   9 2701.03  145.29 
   3  -2  -9 2534.35  149.59 
  -3   2   9 2431.16  144.29 
   3   2  -9 2379.86  139.59 
   2  -2  -9  282.07   27.70 
  -2   2   9  300.17   27.00 
  -2   2   9  324.97   25.50 
   2   2  -9  324.87   22.50 
   1  -2  -9   18.90   10.20 
  -1  -2   9    5.10    8.30 
  -1   2   9   18.30    8.30 
  -1   2   9    8.80    7.20 
   1   2  -9    1.60    4.60 
   0  -2   9  101.89   19.20 
   0   2   9  143.19   16.40 
   0   2   9  124.89   16.00 
   1  -2   9  787.42   60.39 
   1  -2   9  796.42   46.20 
   1   2   9  827.02   54.69 
   1   2   9  828.62   52.49 
   2  -2   9  285.07   21.50 
   2  -2   9  315.07   33.10 
   2  -2   9  282.57   21.30 
   2   2   9  283.07   24.80 
   2   2   9  269.77   25.10 
  -2   2  -9  308.47   21.10 
   3  -2   9   70.79   12.40 
   3  -2   9   90.59   19.60 
  -3   2  -9   87.29   12.10 
   3   2   9  101.19   14.30 
   3   2   9   80.39   14.50 
   4  -2   9   19.50   13.10 
   4   2   9   46.70   11.50 
   4   2   9   46.70   11.90 
  -4   2  -9   35.40    9.80 
   5  -2   9   52.89   13.50 
   5  -2   9   93.59   22.20 
   5   2   9   89.99   15.50 
   5   2   9  118.99   17.30 
   6  -2   9   39.20   14.00 
   6   2   9   43.60   12.90 
   6   2   9   38.80   12.40 
   7  -2   9   37.50   15.50 
   7  -2   9   42.40   14.70 
   7   2   9   40.10   14.70 
   7   2   9   36.80   13.70 
  -9   3   9  130.09   21.80 
   9   3  -9  113.79   19.00 
   8  -3  -9  112.69   25.10 
   8   3  -9   94.19   15.20 
  -8   3   9   81.99   17.30 
   7  -3  -9   43.60   17.70 
  -7  -3   9   64.89   11.40 
  -7   3   9   81.89   17.40 
   7   3  -9   72.99   12.10 
  -6  -3   9  415.06   27.50 
   6  -3  -9  466.85   41.40 
   6   3  -9  377.46   27.00 
   6   3  -9  337.77   27.00 
   5  -3  -9  673.83   51.49 
   5   3  -9  575.64   37.10 
   5   3  -9  573.54   35.10 
  -5   3   9  548.15   43.20 
  -4  -3   9  239.38   19.50 
   4  -3  -9  253.27   30.00 
  -4   3   9  259.07   25.50 
   4   3  -9  273.67   17.70 
  -3  -3   9   15.50    6.20 
   3  -3  -9   10.50   11.40 
   3   3  -9    0.70    3.90 
  -3   3   9   13.30    8.60 
  -2  -3   9   86.69   15.90 
   2  -3  -9   71.89   16.90 
  -2   3   9  124.29   16.50 
  -2   3   9  122.09   17.80 
   2   3  -9  116.29   11.80 
  -1  -3   9 1233.88   79.09 
   1  -3  -9 1114.79   78.69 
  -1   3   9 1183.58   77.79 
   0  -3   9  483.75   42.60 
   0   3   9  460.05   36.20 
   0   3   9  489.95   39.20 
   1  -3   9   14.10   13.50 
   1   3   9   42.10   11.10 
   2  -3   9  178.98   14.80 
   2  -3   9  182.48   27.50 
   2   3   9  217.18   21.30 
   2   3   9  249.68   24.10 
   3  -3   9  223.58   35.50 
   3  -3   9  217.38   19.20 
   3   3   9  218.18   24.80 
  -3   3  -9  244.38   19.00 
   3   3   9  244.08   23.20 
   4  -3   9  102.59   24.00 
   4  -3   9  100.19   14.30 
   4   3   9   46.90   13.10 
   4   3   9   65.69   14.30 
   5  -3   9    8.10   12.50 
   5  -3   9   -1.40    8.40 
   5   3   9    6.60    8.90 
   5   3   9   12.60   10.20 
   6  -3   9   -9.40   13.00 
   6  -3   9   14.20   10.30 
   6   3   9    9.20   10.20 
   6   3   9   13.10   10.00 
   8  -4  -9  116.69   26.40 
  -8   4   9  106.99   21.80 
   8   4  -9  104.99   15.80 
   7  -4  -9  116.09   25.20 
   7   4  -9  159.78   16.50 
  -7   4   9  176.08   25.00 
   6  -4  -9   85.59   21.60 
   6   4  -9   64.99    9.60 
  -6   4   9   59.49   16.10 
   5  -4  -9   66.39   19.10 
  -5   4   9   68.89   15.70 
   5   4  -9   62.29    6.60 
   4  -4  -9  156.28   27.20 
  -4  -4   9  164.68   15.70 
  -4   4   9  155.08   21.90 
   4   4  -9  144.69   12.40 
  -3  -4   9  415.76   30.30 
   3  -4  -9  427.56   39.80 
  -3   4   9  346.07   32.30 
   3   4  -9  334.17   25.00 
   2  -4  -9  213.98   29.80 
  -2  -4   9  202.08   23.60 
  -2   4   9  311.37   27.30 
  -2   4   9  291.97   31.70 
  -1  -4   9   74.09   16.00 
   1  -4  -9   49.60   15.70 
  -1   4   9   53.19   12.90 
  -1   4   9   42.40   14.50 
   0  -4   9  124.79   23.30 
   0   4   9  104.89   17.20 
   0   4   9  113.39   21.00 
   1  -4   9  153.08   26.80 
   1   4   9  101.99   19.80 
   1   4   9  100.79   16.90 
   2  -4   9   28.90   15.10 
   2   4   9   19.80   10.40 
   2   4   9   40.20   13.10 
   3  -4   9   21.40    7.00 
   3  -4   9    7.50   15.10 
   3   4   9   17.80   10.40 
   3   4   9   44.30   14.30 
   4  -4   9   -1.50    6.80 
   4  -4   9   -4.60   23.00 
   4   4   9   11.60   17.80 
   6  -5  -9   79.99   22.20 
  -6   5   9   48.80   17.80 
   5  -5  -9   73.79   22.30 
  -5   5   9   29.50   15.20 
   4   5  -9  106.19   13.00 
  -4   5   9   83.19   19.60 
   3  -5  -9   37.10   16.40 
  -3  -5   9    9.10    8.40 
  -3   5   9   30.50   12.90 
  -3   5   9   34.60   14.00 
   2  -5  -9  128.89   25.30 
  -2  -5   9  131.99   19.30 
  -2   5   9  127.99   25.00 
  -2   5   9  102.89   20.30 
   1  -5  -9   88.19   22.70 
  -1   5   9   94.89   17.90 
  -1   5   9   70.09   20.30 
   0  -5   9   52.89   16.00 
   0   5   9   42.10   15.30 
   0   5   9   44.70   14.30 
   1  -5   9   43.00   18.90 
   1   5   9   27.70   16.10 
   1   5   9   37.50   15.10 
   2  -5   9   93.99   25.10 
   2   5   9   53.89   15.50 
   2   5   9   56.99   17.10 
  10   0 -10  303.87   34.60 
   9   0 -10  283.97   32.20 
  -9   0  10  303.67   19.50 
  -8   0  10   28.20    7.20 
  -8   0  10   36.30    6.20 
   8   0 -10   31.10   13.10 
  -7   0  10  472.45   30.70 
   7   0 -10  464.55   39.20 
  -7   0  10  496.45   33.00 
  -6   0  10  410.96   28.00 
  -6   0  10  412.36   29.90 
   6   0 -10  449.95   35.10 
   5   0 -10 1506.35   88.69 
  -5   0  10 1545.45   87.49 
  -5   0  10 1529.15   90.29 
   5   0 -10 1512.05   92.39 
  -5   0  10 1479.95   89.09 
   4   0 -10  727.33   47.80 
   4   0 -10  730.33   49.20 
  -4   0  10  739.93   47.00 
  -4   0  10  803.32   47.20 
   3   0 -10 1073.79   67.89 
  -3   0  10 1101.49   66.39 
   3   0 -10 1099.89   67.99 
  -3   0  10 1188.38   67.29 
  -2   0  10  126.59   14.20 
  -2   0  10  132.59   13.00 
  -2   0  10  117.99   13.00 
   2   0 -10  134.19   13.90 
  -1   0  10 1027.50   62.69 
  -1   0  10 1063.29   64.99 
  -1   0  10 1101.39   65.49 
   0   0  10 2681.63  149.39 
   0   0  10 2533.05  145.59 
   0   0  10 2597.64  148.99 
   1   0  10    4.80    4.70 
   1   0  10    3.60    9.60 
   1   0  10    5.60    7.10 
   2   0  10   97.89   15.10 
   2   0  10  117.79   12.90 
   3   0  10  294.77   28.50 
   3   0  10  320.77   24.90 
   4   0  10  325.27   27.10 
   4   0  10  305.67   30.20 
   5   0  10   19.60   11.40 
   6   0  10   23.30   12.90 
   6   0  10   29.00   10.70 
  10  -1 -10  -14.70   11.60 
  10   1 -10   -9.20   10.40 
 -10   1  10   -7.00    5.90 
   9  -1 -10  194.68   28.70 
  -9   1  10  222.28   20.00 
   9   1 -10  197.68   25.40 
   8  -1 -10  497.05   44.80 
   8   1 -10  518.45   40.40 
  -8   1  10  457.25   34.20 
   7  -1 -10 1125.39   71.89 
   7   1 -10  963.40   64.99 
  -7   1  10  917.91   61.09 
   6  -1 -10   26.30   12.00 
  -6  -1  10   53.09    7.80 
  -6   1  10   70.09   11.40 
   6   1 -10   60.99   11.70 
  -5  -1  10  263.97   21.60 
  -5  -1  10  282.37   22.00 
   5  -1 -10  294.47   27.60 
  -5  -1  10  258.97   20.70 
   5   1 -10  277.77   20.00 
   5   1 -10  276.07   22.30 
  -5   1  10  309.17   23.40 
   4  -1 -10  312.07   31.90 
  -4  -1  10  368.46   27.20 
  -4   1  10  463.25   31.00 
   4   1 -10  463.35   28.50 
   4   1 -10  482.15   29.20 
  -3  -1  10 1522.15   79.79 
  -3  -1  10 1482.85   79.09 
   3  -1 -10 1565.14   88.39 
   3   1 -10 1234.18   81.99 
  -3   1  10 1367.46   83.89 
  -3   1  10 1291.07   85.69 
  -2  -1  10 1432.26   75.19 
  -2  -1  10 1337.47   83.59 
  -2  -1  10 1355.06   74.79 
   2  -1 -10 1408.06   84.09 
   2   1 -10 1291.97   79.89 
  -2   1  10 1360.86   83.49 
  -2   1  10 1313.07   80.69 
  -2   1  10 1327.97   82.29 
  -1  -1  10  221.28   22.80 
  -1  -1  10  208.98   14.00 
  -1   1  10  204.48   19.70 
  -1   1  10  233.68   19.50 
  -1   1  10  224.88   21.40 
   0  -1  10  120.49   18.40 
   0  -1  10   86.89    8.80 
   0  -1  10   91.29    9.90 
   0   1  10   63.09   11.30 
   0   1  10   56.09   11.00 
   0   1  10   59.09   12.30 
   1  -1  10  661.53   45.60 
   1  -1  10  715.83   52.89 
   1  -1  10  658.13   45.00 
   1   1  10  822.42   48.90 
   1   1  10  846.22   49.60 
   2  -1  10  844.32   52.69 
   2  -1  10  820.22   53.29 
  -2   1 -10  810.72   52.39 
   2   1  10  821.12   54.69 
   2   1  10  863.31   53.69 
   3  -1  10   20.80   12.00 
   3  -1  10   32.00    9.10 
   3  -1  10   18.00    8.60 
  -3   1 -10   14.20    7.70 
   3   1  10   23.50    8.90 
   3   1  10   14.00    8.70 
   4  -1  10    8.40   10.60 
   4  -1  10   28.00    9.70 
   4   1  10   11.90    9.20 
   4   1  10   10.90   12.70 
   5  -1  10  128.89   22.40 
   5  -1  10   89.39   16.40 
   5   1  10  114.29   19.50 
   5   1  10  136.59   17.90 
   6  -1  10   12.70   10.90 
   6  -1  10   23.20   14.30 
   6   1  10   22.20   10.60 
   6   1  10   42.50   14.00 
  10  -2 -10  373.16   46.00 
  10   2 -10  451.25   39.80 
 -10   2  10  451.45   39.90 
   9  -2 -10  207.88   31.00 
   9   2 -10  214.48   25.40 
  -9   2  10  250.57   24.90 
   8  -2 -10   34.30   16.00 
  -8   2  10   34.10   11.20 
   8   2 -10   34.30   10.70 
   7  -2 -10  378.76   38.30 
  -7  -2  10  310.17   27.10 
   7   2 -10  341.27   27.90 
  -7   2  10  391.36   30.40 
   6  -2 -10  786.22   62.19 
  -6  -2  10  734.73   50.39 
  -6   2  10  931.21   56.69 
   6   2 -10  885.01   52.49 
  -5   2  10  318.97   27.00 
   5   2 -10  314.97   20.10 
   5   2 -10  293.37   20.80 
   4  -2 -10  434.96   36.50 
  -4  -2  10  456.75   30.10 
  -4   2  10  377.36   31.10 
   4   2 -10  361.56   26.20 
   3  -2 -10  193.78   22.90 
  -3  -2  10  217.48   21.10 
   3   2 -10  150.08   15.80 
  -3   2  10  161.28   18.50 
  -2   2  10  354.16   28.10 
   2   2 -10  345.77   25.30 
  -2   2  10  358.86   30.80 
   1  -2 -10 1029.70   68.49 
  -1   2  10 1025.70   66.99 
  -1   2  10 1019.20   65.09 
   0  -2  10  369.06   36.30 
   0   2  10  408.56   39.90 
   0   2  10  377.36   31.90 
   1  -2  10  191.98   26.30 
   1   2  10  231.88   23.00 
   1   2  10  245.18   22.60 
   2  -2  10   -0.80    9.80 
   2  -2  10    0.60    4.80 
   2  -2  10    0.60    4.60 
   2   2  10    4.40    7.10 
  -2   2 -10    9.80    4.80 
   2   2  10    3.70    7.10 
   3  -2  10  627.14   46.40 
   3  -2  10  736.83   59.49 
   3  -2  10  691.93   46.70 
   3   2  10  755.82   50.59 
  -3   2 -10  745.23   46.60 
   3   2  10  757.52   49.70 
   4  -2  10  249.18   32.00 
   4   2  10  199.98   23.30 
   4   2  10  223.88   23.30 
   5  -2  10    0.20    8.70 
   5  -2  10    1.50   11.90 
   5   2  10    4.70    8.50 
   5   2  10    6.60   10.10 
   6  -2  10   39.70   17.00 
   6  -2  10   31.80   12.10 
   6   2  10   27.40   18.40 
   6   2  10   37.40   13.60 
   9  -3 -10   77.99   22.30 
  -9   3  10   44.10   14.60 
   9   3 -10   37.10   12.10 
   8  -3 -10  308.77   42.40 
  -8   3  10  478.15   38.00 
   8   3 -10  418.76   32.60 
   7  -3 -10  302.87   34.90 
  -7   3  10  167.48   23.00 
   7   3 -10  195.18   18.60 
   6  -3 -10  191.28   30.20 
  -6  -3  10  152.98   13.60 
   6   3 -10  172.58   14.10 
  -6   3  10  162.98   21.40 
   6   3 -10  175.48   14.40 
   5  -3 -10   41.10   14.80 
   5   3 -10   30.60    4.20 
  -5   3  10   19.40   10.60 
  -4  -3  10  523.15   35.80 
   4  -3 -10  549.85   46.90 
   4   3 -10  547.45   33.70 
  -4   3  10  562.34   41.80 
  -3  -3  10  303.87   26.10 
   3  -3 -10  325.07   37.30 
   3   3 -10  305.87   22.10 
  -3   3  10  303.27   27.70 
  -2  -3  10  350.86   30.40 
  -2   3  10  289.77   27.30 
  -1  -3  10    6.00    9.60 
  -1   3  10   10.70    9.40 
   0  -3  10  102.69   22.50 
   0   3  10  139.69   19.10 
   0   3  10  144.79   18.30 
   1   3  10  531.75   39.50 
   1   3  10  528.95   41.80 
   2  -3  10  115.79   24.80 
   2   3  10   93.79   16.00 
   2   3  10  105.49   18.30 
   3  -3  10   32.30    7.40 
   3  -3  10   37.20   15.70 
   3   3  10   61.39   14.80 
   3   3  10   45.40   11.90 
   4  -3  10   15.10   15.30 
   4  -3  10   18.60    8.20 
   4   3  10   34.20   12.50 
   4   3  10   25.00   11.40 
   5  -3  10   61.19   20.20 
   5  -3  10   40.80   12.50 
   5   3  10   40.50   13.50 
   5   3  10   40.90   16.00 
   7  -4 -10   15.70   13.80 
  -7   4  10   16.20   11.90 
   6  -4 -10  251.77   32.80 
  -6   4  10  280.07   30.10 
   5  -4 -10  153.28   27.30 
  -5   4  10  129.19   21.90 
   4  -4 -10   79.29   20.20 
  -4  -4  10   89.79   12.30 
  -4   4  10  113.19   19.80 
   3  -4 -10   23.20   14.20 
  -3  -4  10   19.20    8.40 
   3   4 -10   29.20    7.60 
  -3   4  10   21.40   12.40 
  -3   4  10   26.30   14.90 
   2  -4 -10  205.78   28.80 
  -2  -4  10  173.48   21.40 
  -2   4  10  167.78   27.20 
  -2   4  10  190.48   22.40 
  -1  -4  10  204.68   26.20 
   1  -4 -10  252.37   30.20 
  -1   4  10  154.88   25.90 
  -1   4  10  143.99   20.20 
   0  -4  10   52.69   17.10 
   0   4  10   85.89   16.20 
   0   4  10   78.39   18.10 
   1  -4  10   18.10   14.80 
   1   4  10   16.80   10.00 
   1   4  10   18.20   11.20 
   2  -4  10   28.40   17.50 
   2   4  10   26.30   11.20 
   2   4  10   35.50   13.20 
   3  -4  10    4.80   15.00 
   3   4  10   58.19   13.70 
   5  -5 -10   69.99   21.10 
  -5   5  10   89.39   19.20 
  -4  -5  10  209.58   19.70 
   4  -5 -10  174.18   31.50 
  -4   5  10  140.19   23.70 
   3  -5 -10   79.49   22.80 
  -3  -5  10   98.19   16.60 
  -3   5  10  118.19   24.30 
  -3   5  10   76.69   18.90 
   2  -5 -10   18.40   14.30 
  -2  -5  10   10.10    9.90 
  -2   5  10   16.80   14.10 
  -2   5  10    1.70   11.00 
   1  -5 -10   -0.70   12.40 
  -1  -5  10   19.90   12.40 
  -1   5  10    1.70    9.00 
  -1   5  10   19.00   14.00 
   0  -5  10   63.09   19.10 
   0   5  10   69.59   16.50 
   0   5  10   59.29   18.50 
   1  -5  10   17.60   15.90 
   1   5  10   46.30   14.60 
   1   5  10   42.20   15.40 
  10   0 -11    4.50   12.30 
   9   0 -11  250.17   30.30 
  -9   0  11  253.27   17.20 
  -8   0  11  825.02   51.29 
   8   0 -11  803.62   61.09 
  -8   0  11  858.71   49.50 
   7   0 -11  495.55   40.10 
  -7   0  11  450.75   30.90 
  -7   0  11  488.25   33.50 
  -6   0  11  276.87   27.30 
   6   0 -11  276.57   26.50 
  -6   0  11  263.97   23.50 
   5   0 -11  643.94   41.30 
  -5   0  11  601.14   42.70 
  -5   0  11  562.34   40.50 
   5   0 -11  624.24   43.60 
  -5   0  11  649.34   40.20 
   4   0 -11  891.41   59.19 
  -4   0  11  947.81   57.49 
  -4   0  11  971.90   57.79 
   4   0 -11  931.61   62.29 
  -3   0  11  709.23   45.50 
  -3   0  11  749.23   46.50 
   3   0 -11  720.43   46.70 
  -3   0  11  682.53   44.90 
  -2   0  11  404.16   28.40 
  -2   0  11  402.36   30.50 
  -2   0  11  419.76   29.40 
  -1   0  11  375.36   26.00 
  -1   0  11  369.46   29.50 
  -1   0  11  378.66   28.30 
   0   0  11   49.20    8.10 
   0   0  11   48.00   10.30 
   0   0  11   68.69   13.30 
   1   0  11  403.46   33.00 
   1   0  11  425.76   28.30 
   1   0  11  382.56   31.30 
   2   0  11  751.12   48.60 
   2   0  11  794.92   55.39 
   3   0  11    1.40    8.80 
   3   0  11    7.30    6.70 
   4   0  11   -4.80    6.80 
   4   0  11   17.60   11.70 
   5   0  11   19.80    9.90 
   5   0  11   16.70   11.20 
  10  -1 -11  187.48   32.20 
  10   1 -11  180.58   26.30 
   9  -1 -11  349.77   38.10 
   9   1 -11  332.97   32.30 
  -9   1  11  306.27   25.00 
   8  -1 -11   60.99   17.10 
   8   1 -11   49.10   13.70 
  -8   1  11   43.30   10.20 
   7  -1 -11  418.36   38.30 
  -7   1  11  408.26   30.00 
   7   1 -11  370.56   31.90 
  -6  -1  11  973.10   55.89 
  -6  -1  11  818.02   52.59 
  -6  -1  11  915.81   53.49 
   6  -1 -11  853.71   62.39 
  -6   1  11  873.31   55.59 
   6   1 -11  823.32   56.09 
  -5  -1  11 1159.28   70.79 
  -5  -1  11 1235.78   70.09 
  -5  -1  11 1317.97   72.29 
   5  -1 -11 1213.98   77.59 
  -5   1  11 1129.89   71.59 
   5   1 -11 1093.79   70.09 
   5   1 -11 1098.29   69.19 
  -4  -1  11   93.19   14.20 
   4  -1 -11   73.09   14.80 
  -4  -1  11   68.19    9.00 
  -4  -1  11   74.69    8.50 
   3  -1 -11  367.66   29.00 
  -3  -1  11  253.57   25.90 
  -3  -1  11  291.37   19.50 
   3   1 -11  317.67   24.20 
  -3   1  11  318.57   26.70 
  -3   1  11  320.17   25.10 
  -2  -1  11  333.37   32.20 
   2  -1 -11  382.16   32.70 
  -2   1  11  477.45   31.80 
  -2   1  11  438.26   33.80 
  -2   1  11  438.96   32.20 
  -1  -1  11  644.24   44.80 
  -1  -1  11  606.64   33.00 
  -1   1  11  514.05   39.00 
  -1   1  11  507.75   39.30 
   0  -1  11  227.38   17.00 
   0  -1  11  238.38   17.50 
   0  -1  11  219.98   25.20 
   0   1  11  247.28   21.80 
   1  -1  11   52.69    8.80 
   1  -1  11   52.99    9.10 
   1  -1  11   52.49   14.50 
   1   1  11   71.69   13.40 
   1   1  11   56.49   11.10 
   2  -1  11   35.10   13.10 
   2  -1  11   26.50    8.30 
   2  -1  11   25.00    8.00 
   2   1  11   47.00   11.50 
   2   1  11   42.80   10.40 
   3  -1  11  121.89   16.10 
   3  -1  11  104.19   16.50 
   3  -1  11  118.49   22.00 
   3   1  11  166.88   19.20 
  -3   1 -11  126.59   16.50 
   3   1  11  139.39   16.40 
   4  -1  11  332.97   27.50 
   4  -1  11  300.27   32.50 
   4   1  11  248.98   28.50 
   4   1  11  285.27   26.20 
   5  -1  11   41.40   16.50 
   5  -1  11   15.10    9.80 
   5   1  11    8.20   10.80 
   5   1  11   37.70   11.70 
   9  -2 -11   71.59   20.30 
  -9   2  11   40.10   11.70 
   9   2 -11   22.50   11.00 
   8  -2 -11  496.95   48.70 
   8   2 -11  529.55   39.20 
  -8   2  11  511.95   39.50 
   7  -2 -11  307.67   34.70 
  -7  -2  11  266.77   24.60 
  -7   2  11  298.97   27.20 
   7   2 -11  293.57   24.50 
   6  -2 -11  129.99   23.50 
  -6  -2  11  129.29   11.90 
  -6   2  11  111.29   16.60 
   6   2 -11   98.09   12.00 
  -5  -2  11  159.68   13.70 
   5  -2 -11  138.09   23.40 
  -5   2  11  153.58   18.60 
   5   2 -11  118.09   11.70 
  -4  -2  11  586.74   40.10 
   4  -2 -11  502.75   44.70 
  -4   2  11  574.44   41.10 
   4   2 -11  572.24   36.30 
   3  -2 -11  560.84   43.90 
  -3  -2  11  578.34   42.60 
  -3   2  11  554.64   39.50 
   3   2 -11  482.75   35.30 
  -3   2  11  537.85   42.00 
  -2  -2  11  427.06   39.10 
   2  -2 -11  523.95   40.30 
  -2   2  11  460.85   37.50 
  -1  -2  11   22.30   11.90 
  -1   2  11   39.60   10.60 
  -1   2  11   57.29   13.40 
   0  -2  11  146.59   26.80 
   0   2  11  222.38   23.30 
   0   2  11  271.07   23.50 
   1  -2  11  415.76   40.70 
   1   2  11  352.96   31.70 
   1   2  11  444.56   33.30 
   2  -2  11   68.79    9.40 
   2  -2  11   67.99   19.10 
   2  -2  11   72.69    8.80 
   3  -2  11   50.69   10.00 
   3  -2  11   56.79   18.90 
   3  -2  11   65.99   12.40 
   3   2  11   72.79   14.30 
   3   2  11   63.29   14.00 
   4  -2  11   -5.90    6.40 
   4  -2  11   -8.20   13.30 
   4   2  11   -0.50    8.80 
   5  -2  11  111.19   23.20 
   5  -2  11   76.59   16.10 
   5   2  11  120.59   21.10 
   5   2  11  154.88   20.20 
   8  -3 -11   15.30   13.80 
  -8   3  11   34.80   13.00 
   7  -3 -11   33.00   15.80 
  -7   3  11   51.49   14.40 
   6  -3 -11  566.74   53.59 
  -6   3  11  681.43   48.70 
   5  -3 -11  329.97   35.00 
  -5  -3  11  362.06   21.70 
  -5   3  11  295.27   29.50 
   5   3 -11  258.47   20.20 
  -4  -3  11  206.68   18.60 
   4  -3 -11  193.28   27.90 
   4   3 -11  201.58   16.50 
  -4   3  11  215.48   23.50 
  -3  -3  11  141.29   17.90 
   3  -3 -11  122.89   23.20 
   3   3 -11  127.19   13.60 
  -3   3  11  123.59   18.00 
  -3   3  11  146.09   23.90 
  -2  -3  11  405.76   35.10 
   2  -3 -11  352.26   36.00 
  -2   3  11  328.97   33.60 
  -2   3  11  346.97   31.20 
   1  -3 -11   89.49   19.10 
  -1  -3  11   65.59   18.60 
  -1   3  11   85.19   17.70 
  -1   3  11   39.60   12.20 
   0  -3  11   89.09   25.00 
   0   3  11   95.99   16.30 
   0   3  11   87.59   17.00 
   1  -3  11    9.00   12.20 
   1   3  11   15.50   10.70 
   1   3  11    7.50    9.40 
   2  -3  11    3.20   14.20 
   2   3  11   23.80   10.60 
   2   3  11   32.50   12.50 
   3  -3  11   39.50   19.70 
   3   3  11   62.99   14.70 
   3   3  11   51.49   20.50 
   4  -3  11    2.40   11.10 
   4   3  11    0.70   10.20 
  -7   4  11   21.10   14.10 
  -6   4  11   33.60   12.90 
   5  -4 -11   27.20   16.30 
  -5   4  11    6.50   11.50 
   4  -4 -11  213.38   32.50 
  -4   4  11  233.28   27.00 
   3  -4 -11  127.59   25.40 
  -3  -4  11  128.99   17.30 
  -3   4  11  100.29   18.80 
  -3   4  11  124.99   23.60 
  -2  -4  11   55.49   14.40 
   2  -4 -11   40.70   17.10 
  -2   4  11   49.30   13.60 
  -2   4  11   41.70   16.10 
   1  -4 -11   -7.10   11.50 
  -1   4  11    2.30    9.10 
  -1   4  11    7.20   12.30 
   0  -4  11   78.89   21.30 
   0   4  11   48.30   14.50 
   0   4  11   74.49   18.20 
   1  -4  11   10.20   16.10 
   1   4  11   60.49   14.90 
   1   4  11   28.90   12.90 
   2  -4  11   12.40   15.80 
   2   4  11   40.60   14.40 
   2   4  11   49.00   13.60 
  -2   5  11   77.99   19.80 
  -2   5  11   65.99   16.20 
   9   0 -12  195.28   28.30 
   8   0 -12   12.40   11.50 
  -8   0  12   33.30    7.00 
  -7   0  12  171.48   18.30 
   7   0 -12  213.18   23.70 
  -6   0  12 1108.69   67.19 
   6   0 -12 1097.19   72.29 
  -6   0  12 1145.79   70.19 
  -5   0  12  404.36   28.30 
  -5   0  12  366.86   27.80 
   5   0 -12  349.96   29.80 
  -4   0  12  532.45   37.10 
   4   0 -12  524.65   38.40 
  -4   0  12  566.24   37.70 
   3   0 -12  177.68   17.30 
  -3   0  12  159.18   15.70 
  -3   0  12  171.58   16.20 
  -3   0  12  186.98   19.20 
  -2   0  12 1292.27   76.79 
  -2   0  12 1218.58   72.79 
  -2   0  12 1199.68   73.89 
  -1   0  12  383.36   27.20 
  -1   0  12  401.76   29.80 
  -1   0  12  414.76   32.70 
   0   0  12  121.29   17.00 
   0   0  12  158.38   18.60 
   1   0  12   53.99    9.40 
   1   0  12   62.29   11.80 
   1   0  12   43.20   12.50 
   2   0  12   19.20    7.50 
   2   0  12   26.10   11.90 
   3   0  12  129.39   16.40 
   3   0  12  120.29   20.50 
   4   0  12    6.40    9.30 
   4   0  12   14.10   12.00 
   9  -1 -12  238.38   32.00 
  -9   1  12  180.38   18.10 
   9   1 -12  177.98   25.20 
   8  -1 -12  523.95   47.50 
   8   1 -12  541.75   42.40 
  -8   1  12  524.55   37.10 
   7  -1 -12  413.26   42.20 
  -7  -1  12  438.66   31.20 
  -7  -1  12  404.56   25.80 
   7   1 -12  377.96   31.80 
  -7   1  12  385.06   30.20 
  -6  -1  12  108.79   13.60 
  -6  -1  12  106.59   12.50 
   6  -1 -12   76.49   17.10 
  -6  -1  12  127.79   13.90 
   6   1 -12  105.39   13.80 
  -6   1  12  129.29   15.80 
   5  -1 -12  305.37   29.70 
  -5  -1  12  351.56   29.80 
  -5  -1  12  316.97   22.10 
   5   1 -12  275.47   22.20 
   5   1 -12  295.87   23.30 
  -5   1  12  279.47   24.90 
  -4  -1  12  704.03   41.70 
   4  -1 -12  700.43   50.99 
  -4  -1  12  667.73   48.60 
  -4   1  12  773.02   47.90 
   3  -1 -12  733.13   48.90 
  -3  -1  12  635.14   48.30 
  -3   1  12  697.13   46.10 
  -3   1  12  651.13   47.00 
  -2  -1  12  202.88   23.90 
  -2   1  12  194.88   20.10 
  -2   1  12  191.68   20.30 
  -1  -1  12   73.59   16.50 
  -1   1  12   80.79   13.30 
  -1   1  12   65.29   12.30 
   0  -1  12  301.47   29.50 
   0  -1  12  228.08   18.50 
   0  -1  12  284.37   19.30 
   0   1  12  275.87   23.60 
   0   1  12  309.57   25.40 
   1  -1  12  371.36   26.60 
   1  -1  12  404.96   27.80 
   1  -1  12  434.36   37.40 
   1   1  12  326.87   28.40 
   1   1  12  363.56   31.00 
   2  -1  12   24.00    7.70 
   2  -1  12   23.00   12.90 
   2   1  12   45.50   10.90 
   2   1  12   53.09   12.30 
   3  -1  12   13.40   11.90 
   3  -1  12    8.10    7.70 
   3   1  12   15.40   10.20 
   3   1  12   13.00    8.20 
   4  -1  12   11.10   11.30 
   4  -1  12    2.60    8.00 
   4   1  12    9.80   10.50 
   4   1  12   17.30    9.70 
   8  -2 -12    8.20   13.70 
  -8   2  12   26.90   10.90 
   8   2 -12   24.40    8.80 
   7  -2 -12   49.10   17.00 
  -7   2  12   44.00   12.80 
   7   2 -12   54.39    9.60 
  -6  -2  12  655.23   40.60 
   6  -2 -12  693.43   54.89 
   6   2 -12  645.04   38.90 
  -6   2  12  659.63   50.29 
   5  -2 -12  489.75   49.10 
  -5  -2  12  537.75   36.10 
   5   2 -12  517.85   33.90 
  -5   2  12  550.34   40.00 
   4  -2 -12  264.77   28.20 
  -4  -2  12  251.87   24.40 
   4   2 -12  233.68   19.80 
  -4   2  12  222.08   23.80 
  -3  -2  12  170.98   22.30 
   3  -2 -12  166.18   21.80 
  -3   2  12  152.88   19.50 
  -3   2  12  130.29   19.40 
  -2  -2  12  417.46   42.40 
   2  -2 -12  604.94   44.10 
  -2   2  12  546.15   41.80 
  -2   2  12  512.35   38.50 
  -1   2  12  331.67   29.80 
  -1   2  12  386.46   32.60 
   0  -2  12   93.99   21.80 
   0   2  12   71.09   14.50 
   0   2  12   72.19   14.30 
   1  -2  12   59.69   18.50 
   1   2  12   50.89   12.90 
   1   2  12   57.19   13.00 
   2  -2  12   31.10   16.80 
   2  -2  12   26.00    5.10 
   2   2  12   11.80    9.30 
   2   2  12   27.40   10.60 
   3  -2  12   66.89   10.90 
   3  -2  12   90.09   21.60 
   3   2  12   63.59   13.80 
   3   2  12   54.89   13.90 
   4  -2  12   16.50   13.60 
   4  -2  12    7.90    9.50 
   4   2  12    4.10   10.70 
   4   2  12    9.30    9.50 
   7  -3 -12   68.19   19.60 
  -7   3  12   62.49   15.50 
   6  -3 -12  104.09   24.20 
  -6   3  12  128.59   20.20 
   5  -3 -12   78.89   19.70 
  -5  -3  12   78.29    9.90 
  -5   3  12   35.50   13.30 
   4  -3 -12  381.26   40.00 
  -4  -3  12  401.16   30.90 
  -4   3  12  416.56   39.40 
  -4   3  12  417.36   35.10 
   3  -3 -12  217.08   26.50 
  -3  -3  12  192.08   22.50 
  -3   3  12  152.78   23.20 
  -3   3  12  184.48   22.70 
   2  -3 -12  132.69   23.70 
  -2  -3  12  135.79   21.90 
  -2   3  12   96.39   19.20 
  -2   3  12  126.79   18.20 
  -1   3  12   42.40   13.40 
  -1   3  12   28.30   12.40 
   0  -3  12   69.29   21.10 
   0   3  12   95.19   16.30 
   0   3  12   92.39   18.30 
   1  -3  12   58.79   19.90 
   1   3  12   72.79   16.50 
   1   3  12   76.69   15.50 
   2  -3  12   28.20   18.10 
   2   3  12   91.99   17.50 
   2   3  12   65.09   14.50 
   3  -3  12   33.20   18.20 
   3   3  12   40.70   15.90 
   3   3  12   31.00   12.50 
   5  -4 -12   30.00   15.10 
  -5   4  12   31.70   15.50 
   4  -4 -12   17.40   16.40 
  -4  -4  12   29.90    9.70 
  -4   4  12   30.10   15.30 
  -3  -4  12   12.00    8.90 
   3  -4 -12    7.50   13.20 
  -3   4  12    5.90   12.70 
   2  -4 -12   92.79   23.30 
  -2  -4  12   98.09   19.30 
  -2   4  12  110.89   22.60 
  -2   4  12  104.79   18.60 
  -1  -4  12  125.59   24.50 
  -1   4  12  154.88   21.20 
  -1   4  12  148.09   25.70 
   0  -4  12   27.40   16.70 
   0   4  12   26.20   12.80 
   1   4  12   33.60   12.50 
   8   0 -13  387.36   39.50 
  -8   0  13  490.45   34.10 
   7   0 -13  470.15   39.90 
  -7   0  13  511.25   33.90 
  -6   0  13   52.49   10.50 
   5   0 -13   64.09   12.00 
  -5   0  13   55.89   10.20 
  -5   0  13   61.39   11.70 
  -4   0  13 1236.08   74.29 
  -4   0  13 1143.29   72.39 
  -3   0  13  462.25   35.00 
  -3   0  13  438.76   30.70 
  -3   0  13  442.76   31.10 
  -2   0  13   90.49   19.20 
  -2   0  13  130.09   13.90 
  -2   0  13  112.69   12.70 
  -1   0  13   36.50   12.40 
  -1   0  13   26.00    6.70 
   0   0  13  220.38   18.40 
   0   0  13  230.38   25.70 
   0   0  13  222.58   21.90 
   1   0  13  195.98   23.60 
   1   0  13  177.88   16.90 
   2   0  13   67.89   11.70 
   2   0  13   71.09   17.00 
   3   0  13    3.90    7.10 
   3   0  13    8.50   11.80 
   8  -1 -13   -9.90   10.60 
  -8   1  13   18.10    7.90 
   8   1 -13   11.30    9.30 
  -7  -1  13  125.89   12.90 
   7  -1 -13   92.39   19.60 
  -7   1  13  132.09   15.90 
   7   1 -13  131.39   16.10 
  -6  -1  13  657.13   48.80 
   6  -1 -13  579.24   48.70 
  -6   1  13  655.33   43.70 
   6   1 -13  633.44   42.00 
  -5  -1  13  465.25   31.00 
  -5  -1  13  495.15   31.30 
  -5  -1  13  541.65   38.20 
   5  -1 -13  514.35   41.20 
   5   1 -13  486.45   32.10 
  -5   1  13  504.65   36.60 
   4  -1 -13  101.99   17.40 
  -4  -1  13  104.99   17.40 
  -4   1  13   93.49   15.80 
  -4   1  13  101.89   17.60 
  -3  -1  13   52.89   14.10 
   3  -1 -13   59.89   13.50 
  -3   1  13   56.69   12.40 
  -3   1  13   85.19   14.20 
  -2  -1  13  253.27   29.10 
  -2   1  13  327.77   27.10 
  -2   1  13  330.07   27.00 
  -1  -1  13  700.83   51.19 
  -1   1  13  597.34   44.30 
  -1   1  13  610.44   43.40 
   0  -1  13   96.59   19.90 
   0  -1  13  113.59   10.50 
   0   1  13  153.38   16.90 
   0   1  13  169.78   20.20 
   1  -1  13   21.80   13.40 
   1  -1  13   21.90    6.30 
   1   1  13   13.90    8.20 
   1   1  13   15.00    9.80 
   2  -1  13   41.70   14.70 
   2  -1  13   67.69   14.70 
   2   1  13   76.19   18.70 
   3  -1  13  104.99   15.10 
   3  -1  13  107.59   22.60 
   3   1  13  101.79   18.70 
   3   1  13   93.69   15.50 
   7  -2 -13  298.37   35.40 
  -7   2  13  308.97   28.20 
  -6  -2  13   24.10    6.50 
   6  -2 -13   14.60   12.70 
  -6   2  13   -3.40    8.10 
   5  -2 -13  111.79   22.30 
  -5   2  13  167.18   19.90 
   4  -2 -13  315.97   32.90 
  -4  -2  13  352.96   30.80 
  -4   2  13  328.67   31.90 
  -4   2  13  303.97   29.00 
  -3  -2  13  312.67   31.50 
  -3   2  13  283.77   27.40 
  -2  -2  13   97.89   20.90 
  -2   2  13  156.78   19.90 
  -2   2  13  136.59   29.00 
  -1  -2  13   36.80   15.10 
  -1   2  13    9.00   10.40 
  -1   2  13   14.00    9.50 
   0  -2  13  106.19   23.70 
   0   2  13  102.19   17.20 
   0   2  13  101.19   16.80 
   1  -2  13  147.99   27.40 
   1   2  13  163.28   20.80 
   1   2  13  158.98   19.90 
   2  -2  13  103.99   22.80 
   2   2  13   88.09   16.70 
   2   2  13   72.59   14.90 
   6  -3 -13  177.38   30.20 
  -6   3  13  175.78   23.50 
   5  -3 -13   82.49   19.70 
  -5   3  13   86.09   17.40 
  -4  -3  13  134.59   17.20 
   4  -3 -13   98.79   22.10 
  -4   3  13  103.79   21.30 
  -4   3  13  110.69   19.00 
  -3  -3  13   10.00    9.70 
   3  -3 -13  -15.80   11.10 
  -3   3  13  -10.80    9.80 
  -3   3  13    6.60   10.30 
  -2  -3  13  265.57   36.60 
   2  -3 -13  245.58   30.30 
  -2   3  13  271.37   30.50 
  -2   3  13  314.77   28.70 
  -1  -3  13  138.79   26.50 
  -1   3  13  119.29   28.10 
  -1   3  13  104.79   20.20 
   0   3  13  115.99   20.40 
   0   3  13  120.29   20.10 
   1  -3  13   11.70   15.20 
   1   3  13   27.10   12.20 
   1   3  13   34.00   12.30 
   7   0 -14   30.90   12.20 
  -7   0  14   35.70    9.80 
   6   0 -14  400.46   33.90 
  -6   0  14  452.65   32.90 
   5   0 -14  663.53   43.80 
  -5   0  14  583.14   41.60 
  -5   0  14  595.34   43.30 
  -4   0  14   16.30    9.40 
  -3   0  14   18.00   10.40 
  -3   0  14    5.90    5.50 
  -2   0  14  429.66   34.70 
  -2   0  14  360.76   26.40 
  -1   0  14  247.98   27.30 
   0   0  14    2.70    5.20 
   0   0  14   10.30   11.20 
   1   0  14    3.50    6.10 
   1   0  14   14.90   11.90 
   2   0  14   -0.60   11.20 
   2   0  14    0.50    6.80 
   7  -1 -14  315.97   34.40 
  -7   1  14  315.87   26.40 
  -6  -1  14    5.60    7.70 
   6  -1 -14   -7.60    9.60 
  -6   1  14   20.00    9.40 
  -5  -1  14   64.69   13.40 
   5  -1 -14   63.89   15.50 
  -5   1  14   51.19   12.00 
  -5   1  14   41.50   12.60 
  -4  -1  14  406.66   38.30 
   4  -1 -14  474.85   40.00 
  -4   1  14  525.05   38.60 
  -4   1  14  535.75   37.80 
  -3  -1  14  426.26   42.70 
  -3   1  14  450.15   35.90 
  -3   1  14  512.05   37.30 
  -2  -1  14   18.10   12.10 
  -2   1  14    7.70    8.70 
  -2   1  14   22.80   10.90 
  -1  -1  14   57.49   15.90 
  -1   1  14   58.19   13.30 
  -1   1  14   47.10   11.20 
   0  -1  14   21.30   14.30 
   0   1  14   52.49   13.90 
   0   1  14   68.69   12.70 
   1  -1  14  250.87   31.20 
   1   1  14  202.68   20.80 
   1   1  14  199.48   24.30 
   2  -1  14   28.20   14.70 
   2   1  14   37.60   13.90 
   6  -2 -14  222.48   30.60 
  -6   2  14  263.67   26.40 
  -5  -2  14  308.87   27.20 
   5  -2 -14  321.77   34.40 
  -5   2  14  300.37   28.60 
  -5   2  14  300.07   32.40 
   4  -2 -14   -4.90   10.30 
  -4  -2  14    5.90   10.20 
  -4   2  14   12.60    9.90 
  -4   2  14   15.60   11.70 
  -3  -2  14   56.29   17.00 
   3  -2 -14   81.19   17.30 
  -3   2  14   70.29   15.90 
  -3   2  14   88.19   16.30 
  -2  -2  14   64.69   19.20 
  -2   2  14  142.59   19.90 
  -2   2  14  117.49   19.50 
  -1  -2  14  172.28   29.50 
  -1   2  14  237.48   25.40 
  -1   2  14  245.88   25.20 
   0  -2  14   41.20   18.80 
   0   2  14   91.19   17.00 
   0   2  14  103.49   17.70 
   1   2  14   10.90   10.30 
   1   2  14   38.50   12.90 
  -3  -3  14  125.79   21.30 
   3  -3 -14  146.69   25.00 
  -3   3  14  107.29   21.40 
  -3   3  14   98.79   18.00 
  -2  -3  14   13.30   13.90 
  -2   3  14   42.70   14.80 
  -2   3  14   38.20   12.40 
  -5   0  15   -3.50    7.80 
  -5   0  15   17.00    9.70 
  -4   0  15  175.78   22.70 
  -3   0  15  611.14   45.50 
  -3   0  15  547.95   38.00 
  -2   0  15   21.10    7.90 
  -2   0  15   42.50   13.30 
  -1   0  15   -1.10   11.30 
   0   0  15  226.68   29.00 
  -5  -1  15  248.78   26.00 
   5  -1 -15  250.17   27.40 
  -5   1  15  237.98   24.80 
  -5   1  15  238.18   24.90 
  -4  -1  15    7.30   10.40 
  -4   1  15   12.80    9.30 
  -4   1  15   -3.90    8.30 
  -3  -1  15   37.50   14.50 
  -3   1  15   31.50   11.60 
  -3   1  15   27.80   10.40 
  -2  -1  15  186.08   27.00 
  -2   1  15  251.37   23.20 
  -2   1  15  266.17   26.70 
  -1  -1  15  148.99   25.30 
  -1   1  15  165.78   18.20 
   0   0   0    0.00    0.00 
  
  
_computing_structure_solution     'SHELXT 2014/5 (Sheldrick, 2014)' 
_computing_structure_solution     'SHELXT 2014/5 (Sheldrick, 2014)' 
;
_shelx_hkl_checksum              94526
loop_
_space_group_symop_operation_xyz
'x, y, z'
'-x, y+1/2, -z'
loop_
_atom_site_label
_atom_site_type_symbol
_atom_site_fract_x
_atom_site_fract_y
_atom_site_fract_z
_atom_site_U_iso_or_equiv
_atom_site_adp_type
_atom_site_occupancy
_atom_site_site_symmetry_order
_atom_site_calc_flag
_atom_site_refinement_flags_posn
_atom_site_refinement_flags_adp
_atom_site_refinement_flags_occupancy
_atom_site_disorder_assembly
_atom_site_disorder_group
Br1 Br 0.11276(4) 0.05196(10) 0.76093(3) 0.0629(2) Uani 1 1 d . . . . .
O1 O 0.4445(3) 0.9797(3) 0.0906(2) 0.0406(6) Uani 1 1 d . . . . .
H1 H 0.4125 1.1228 0.0803 0.061 Uiso 1 1 calc R U . . .
N1 N 0.3474(3) 0.4594(4) 0.0642(2) 0.0340(6) Uani 1 1 d . . . . .
C1 C 0.1926(3) 0.5616(9) 0.0318(2) 0.0482(7) Uani 1 1 d . . . . .
H1B H 0.1226 0.4516 0.0574 0.058 Uiso 1 1 calc R U . . .
H1C H 0.1578 0.5794 -0.0523 0.058 Uiso 1 1 calc R U . . .
C2 C 0.1968(3) 0.8107(6) 0.0896(3) 0.0413(8) Uani 1 1 d . . . . .
H2A H 0.1304 0.8118 0.1423 0.050 Uiso 1 1 calc R U . . .
H2B H 0.1637 0.9401 0.0318 0.050 Uiso 1 1 calc R U . . .
C3 C 0.3618(3) 0.8503(5) 0.1563(3) 0.0299(7) Uani 1 1 d . . . . .
H3 H 0.3693 0.9306 0.2317 0.036 Uiso 1 1 calc R U . . .
C4 C 0.4231(3) 0.5863(6) 0.1715(2) 0.0286(6) Uani 1 1 d . . . . .
H4 H 0.5344 0.5855 0.1823 0.034 Uiso 1 1 calc R U . . .
C5 C 0.3833(3) 0.4735(5) 0.2725(3) 0.0336(7) Uani 1 1 d . . . . .
C6 C 0.3412(4) 0.3983(6) 0.3514(2) 0.0334(7) Uani 1 1 d . . . . .
C7 C 0.2898(3) 0.3132(5) 0.4487(2) 0.0307(7) Uani 1 1 d . . . . .
C8 C 0.3235(4) 0.4454(6) 0.5512(2) 0.0355(7) Uani 1 1 d . . . . .
H8 H 0.3832 0.5880 0.5577 0.043 Uiso 1 1 calc R U . . .
C9 C 0.2703(4) 0.3701(6) 0.6446(3) 0.0389(7) Uani 1 1 d . . . . .
H9 H 0.2920 0.4614 0.7135 0.047 Uiso 1 1 calc R U . . .
C10 C 0.1852(3) 0.1590(6) 0.6337(2) 0.0364(8) Uani 1 1 d . . . . .
C11 C 0.1502(3) 0.0243(7) 0.5336(2) 0.0394(8) Uani 1 1 d . . . . .
H11 H 0.0907 -0.1184 0.5280 0.047 Uiso 1 1 calc R U . . .
C12 C 0.2033(3) 0.1002(6) 0.4412(2) 0.0377(8) Uani 1 1 d . . . . .
H12 H 0.1809 0.0074 0.3728 0.045 Uiso 1 1 calc R U . . .
H1A H 0.399(3) 0.490(5) 0.016(2) 0.032(9) Uiso 1 1 d . . . . .
loop_
_atom_site_aniso_label
_atom_site_aniso_U_11
_atom_site_aniso_U_22
_atom_site_aniso_U_33
_atom_site_aniso_U_23
_atom_site_aniso_U_13
_atom_site_aniso_U_12
Br1 0.0641(3) 0.0875(3) 0.0466(2) 0.0102(3) 0.03162(17) -0.0040(3)
O1 0.0517(15) 0.0221(11) 0.0598(14) 0.0074(9) 0.0356(12) 0.0012(9)
N1 0.0467(16) 0.0261(12) 0.0334(13) 0.0001(10) 0.0179(12) -0.0042(11)
C1 0.0455(17) 0.0472(17) 0.0455(16) 0.006(2) 0.0001(13) -0.009(2)
C2 0.0338(17) 0.0388(18) 0.053(2) 0.0131(16) 0.0138(15) 0.0063(15)
C3 0.0368(17) 0.0214(14) 0.0371(16) 0.0023(12) 0.0194(13) 0.0020(12)
C4 0.0289(13) 0.0236(16) 0.0352(13) 0.0022(14) 0.0116(11) -0.0004(15)
C5 0.0373(17) 0.0274(16) 0.0339(14) 0.0018(12) 0.0054(13) 0.0014(12)
C6 0.0410(18) 0.0272(15) 0.0312(16) 0.0051(14) 0.0077(14) 0.0034(14)
C7 0.0337(16) 0.0284(15) 0.0301(15) 0.0067(12) 0.0085(13) 0.0056(13)
C8 0.0388(18) 0.0301(15) 0.0358(16) 0.0009(13) 0.0064(14) -0.0006(13)
C9 0.0413(18) 0.0437(19) 0.0299(15) -0.0020(15) 0.0057(14) 0.0056(16)
C10 0.0351(17) 0.0453(19) 0.0310(16) 0.0086(14) 0.0124(13) 0.0092(14)
C11 0.0407(16) 0.036(2) 0.0439(16) 0.0050(17) 0.0145(13) -0.0045(17)
C12 0.0481(17) 0.033(2) 0.0326(14) -0.0027(14) 0.0119(13) 0.0016(15)
loop_
_atom_type_symbol
_atom_type_description
_atom_type_scat_dispersion_real
_atom_type_scat_dispersion_imag
_atom_type_scat_source
C C 0.0033 0.0016 'International Tables Vol C Tables 4.2.6.8 and 6.1.1.4'
H H 0.0000 0.0000 'International Tables Vol C Tables 4.2.6.8 and 6.1.1.4'
Br Br -0.2901 2.4595 'International Tables Vol C Tables 4.2.6.8 and 6.1.1.4'
N N 0.0061 0.0033 'International Tables Vol C Tables 4.2.6.8 and 6.1.1.4'
O O 0.0106 0.0060 'International Tables Vol C Tables 4.2.6.8 and 6.1.1.4'
loop_
_geom_angle_atom_site_label_1
_geom_angle_atom_site_label_2
_geom_angle_atom_site_label_3
_geom_angle
_geom_angle_site_symmetry_1
_geom_angle_site_symmetry_3
_geom_angle_publ_flag
C3 O1 H1 109.5 . . ?
C4 N1 C1 104.9(2) . . ?
C4 N1 H1A 106.5(19) . . ?
C1 N1 H1A 114.1(19) . . ?
N1 C1 C2 107.9(3) . . ?
N1 C1 H1B 110.1 . . ?
C2 C1 H1B 110.1 . . ?
N1 C1 H1C 110.1 . . ?
C2 C1 H1C 110.1 . . ?
H1B C1 H1C 108.4 . . ?
C1 C2 C3 105.7(2) . . ?
C1 C2 H2A 110.6 . . ?
C3 C2 H2A 110.6 . . ?
C1 C2 H2B 110.6 . . ?
C3 C2 H2B 110.6 . . ?
H2A C2 H2B 108.7 . . ?
O1 C3 C2 112.0(3) . . ?
O1 C3 C4 107.7(2) . . ?
C2 C3 C4 102.1(2) . . ?
O1 C3 H3 111.5 . . ?
C2 C3 H3 111.5 . . ?
C4 C3 H3 111.5 . . ?
N1 C4 C5 111.2(3) . . ?
N1 C4 C3 105.1(2) . . ?
C5 C4 C3 109.1(2) . . ?
N1 C4 H4 110.4 . . ?
C5 C4 H4 110.4 . . ?
C3 C4 H4 110.4 . . ?
C6 C5 C4 174.1(3) . . ?
C5 C6 C7 178.5(3) . . ?
C8 C7 C12 118.8(3) . . ?
C8 C7 C6 120.3(3) . . ?
C12 C7 C6 120.9(3) . . ?
C7 C8 C9 121.0(3) . . ?
C7 C8 H8 119.5 . . ?
C9 C8 H8 119.5 . . ?
C10 C9 C8 118.4(3) . . ?
C10 C9 H9 120.8 . . ?
C8 C9 H9 120.8 . . ?
C11 C10 C9 122.0(3) . . ?
C11 C10 Br1 119.1(2) . . ?
C9 C10 Br1 118.9(2) . . ?
C10 C11 C12 119.3(3) . . ?
C10 C11 H11 120.3 . . ?
C12 C11 H11 120.3 . . ?
C11 C12 C7 120.5(3) . . ?
C11 C12 H12 119.7 . . ?
C7 C12 H12 119.7 . . ?
loop_
_geom_bond_atom_site_label_1
_geom_bond_atom_site_label_2
_geom_bond_distance
_geom_bond_site_symmetry_2
_geom_bond_publ_flag
Br1 C10 1.902(3) . ?
O1 C3 1.410(3) . ?
O1 H1 0.8300 . ?
N1 C4 1.467(4) . ?
N1 C1 1.473(4) . ?
N1 H1A 0.85(3) . ?
C1 C2 1.519(6) . ?
C1 H1B 0.9800 . ?
C1 H1C 0.9800 . ?
C2 C3 1.528(4) . ?
C2 H2A 0.9800 . ?
C2 H2B 0.9800 . ?
C3 C4 1.535(4) . ?
C3 H3 0.9900 . ?
C4 C5 1.482(4) . ?
C4 H4 0.9900 . ?
C5 C6 1.181(4) . ?
C6 C7 1.439(4) . ?
C7 C8 1.389(4) . ?
C7 C12 1.392(5) . ?
C8 C9 1.389(4) . ?
C8 H8 0.9400 . ?
C9 C10 1.374(4) . ?
C9 H9 0.9400 . ?
C10 C11 1.371(4) . ?
C11 C12 1.380(4) . ?
C11 H11 0.9400 . ?
C12 H12 0.9400 . ?
loop_
_geom_hbond_atom_site_label_D
_geom_hbond_atom_site_label_H
_geom_hbond_atom_site_label_A
_geom_hbond_distance_DH
_geom_hbond_distance_HA
_geom_hbond_distance_DA
_geom_hbond_angle_DHA
_geom_hbond_site_symmetry_A
O1 H1 N1 0.83 1.92 2.749(3) 176.7 1_565
C2 H2A Br1 0.98 3.10 3.969(3) 149.2 2_556
C4 H4 Br1 0.99 3.12 4.105(3) 174.2 2_656
N1 H1A O1 0.85(3) 2.15(3) 2.976(3) 165(3) 2_645
loop_
_geom_torsion_atom_site_label_1
_geom_torsion_atom_site_label_2
_geom_torsion_atom_site_label_3
_geom_torsion_atom_site_label_4
_geom_torsion
_geom_torsion_site_symmetry_1
_geom_torsion_site_symmetry_2
_geom_torsion_site_symmetry_3
_geom_torsion_site_symmetry_4
_geom_torsion_publ_flag
C4 N1 C1 C2 22.4(3) . . . . ?
N1 C1 C2 C3 0.6(3) . . . . ?
C1 C2 C3 O1 92.8(3) . . . . ?
C1 C2 C3 C4 -22.1(3) . . . . ?
C1 N1 C4 C5 81.0(3) . . . . ?
C1 N1 C4 C3 -36.8(3) . . . . ?
O1 C3 C4 N1 -81.6(3) . . . . ?
C2 C3 C4 N1 36.5(3) . . . . ?
O1 C3 C4 C5 159.1(3) . . . . ?
C2 C3 C4 C5 -82.8(3) . . . . ?
C12 C7 C8 C9 -1.1(5) . . . . ?
C6 C7 C8 C9 177.8(3) . . . . ?
C7 C8 C9 C10 1.0(5) . . . . ?
C8 C9 C10 C11 -0.8(5) . . . . ?
C8 C9 C10 Br1 179.5(2) . . . . ?
C9 C10 C11 C12 0.8(5) . . . . ?
Br1 C10 C11 C12 -179.6(2) . . . . ?
C10 C11 C12 C7 -0.9(5) . . . . ?
C8 C7 C12 C11 1.0(5) . . . . ?
C6 C7 C12 C11 -177.8(3) . . . . ?
