#------------------------------------------------------------------------------
#$Date: 2022-08-18 00:56:30 +0300 (Thu, 18 Aug 2022) $
#$Revision: 277282 $
#$URL: file:///home/coder/svn-repositories/cod/cif/7/13/05/7130541.cif $
#------------------------------------------------------------------------------
#
# This file is available in the Crystallography Open Database (COD),
# http://www.crystallography.net/
#
# All data on this site have been placed in the public domain by the
# contributors.
#
data_7130541
loop_
_publ_author_name
'Soltau, Carl P.'
'Brown, Zachary'
'Brock, Aidan J.'
'Martyn, Alexander P.'
'Blinco, James P.'
'Miljevic, Branka'
'McMurtrie, John C.'
'Bottle, Steven E.'
_publ_section_title
;
 Reactions of Sulfoxides with Reactive Oxygen Species to Reveal the
 Radical Chemistry of Pollution-Derived Particulate Matter
;
_journal_name_full               'Chemical Communications'
_journal_paper_doi               10.1039/D2CC04024G
_journal_year                    2022
_chemical_formula_moiety         'C12 H13 N O2'
_chemical_formula_sum            'C12 H13 N O2'
_chemical_formula_weight         203.23
_space_group_crystal_system      monoclinic
_space_group_IT_number           11
_space_group_name_Hall           '-P 2yb'
_space_group_name_H-M_alt        'P 1 21/m 1'
_atom_sites_solution_hydrogens   geom
_audit_creation_date             2020-10-14
_audit_creation_method
;
Olex2 1.3
(compiled 2020.07.31 svn.rc2a77460 for OlexSys, GUI svn.r6145)
;
_audit_update_record
;
2022-06-16 deposited with the CCDC.	2022-08-16 downloaded from the CCDC.
;
_cell_angle_alpha                90
_cell_angle_beta                 100.86(3)
_cell_angle_gamma                90
_cell_formula_units_Z            2
_cell_length_a                   7.9850(16)
_cell_length_b                   6.6850(13)
_cell_length_c                   9.4400(19)
_cell_measurement_reflns_used    6912
_cell_measurement_temperature    100(2)
_cell_measurement_theta_max      29.328
_cell_measurement_theta_min      2.197
_cell_volume                     494.88(18)
_computing_molecular_graphics    'Olex2 1.3 (Dolomanov et al., 2009)'
_computing_publication_material  'Olex2 1.3 (Dolomanov et al., 2009)'
_computing_structure_refinement  'SHELXL 2018/3 (Sheldrick, 2015)'
_computing_structure_solution    'SHELXT 2018/2 (Sheldrick, 2018)'
_diffrn_ambient_temperature      100(2)
_diffrn_measured_fraction_theta_full 0.951
_diffrn_measured_fraction_theta_max 0.782
_diffrn_measurement_device_type  'Eiger 2 9M'
_diffrn_measurement_method       'Phi scans'
_diffrn_radiation_monochromator  'Silicon double crystal'
_diffrn_radiation_type           Synchrotron
_diffrn_radiation_wavelength     0.7108
_diffrn_reflns_av_R_equivalents  0.0418
_diffrn_reflns_av_unetI/netI     0.0282
_diffrn_reflns_Laue_measured_fraction_full 0.951
_diffrn_reflns_Laue_measured_fraction_max 0.782
_diffrn_reflns_limit_h_max       10
_diffrn_reflns_limit_h_min       -10
_diffrn_reflns_limit_k_max       8
_diffrn_reflns_limit_k_min       -8
_diffrn_reflns_limit_l_max       12
_diffrn_reflns_limit_l_min       -12
_diffrn_reflns_number            6912
_diffrn_reflns_point_group_measured_fraction_full 0.951
_diffrn_reflns_point_group_measured_fraction_max 0.782
_diffrn_reflns_theta_full        25.244
_diffrn_reflns_theta_max         29.328
_diffrn_reflns_theta_min         2.197
_diffrn_source                   'MX1 Beamline Australian Synchrotron'
_diffrn_standards_number         0
_exptl_absorpt_coefficient_mu    0.093
_exptl_absorpt_correction_type   none
_exptl_crystal_colour            colourless
_exptl_crystal_colour_primary    colourless
_exptl_crystal_density_diffrn    1.364
_exptl_crystal_description       block
_exptl_crystal_F_000             216
_exptl_crystal_size_max          0.1
_exptl_crystal_size_mid          0.1
_exptl_crystal_size_min          0.1
_refine_diff_density_max         0.333
_refine_diff_density_min         -0.208
_refine_diff_density_rms         0.046
_refine_ls_extinction_coef       0.017(9)
_refine_ls_extinction_expression Fc^*^=kFc[1+0.001xFc^2^\l^3^/sin(2\q)]^-1/4^
_refine_ls_extinction_method     'SHELXL-2018/3 (Sheldrick 2018)'
_refine_ls_goodness_of_fit_ref   1.103
_refine_ls_hydrogen_treatment    constr
_refine_ls_matrix_type           full
_refine_ls_number_parameters     91
_refine_ls_number_reflns         1144
_refine_ls_number_restraints     0
_refine_ls_restrained_S_all      1.103
_refine_ls_R_factor_all          0.0382
_refine_ls_R_factor_gt           0.0372
_refine_ls_shift/su_max          0.000
_refine_ls_shift/su_mean         0.000
_refine_ls_structure_factor_coef Fsqd
_refine_ls_weighting_details
'w=1/[\s^2^(Fo^2^)+(0.0660P)^2^+0.0938P] where P=(Fo^2^+2Fc^2^)/3'
_refine_ls_weighting_scheme      calc
_refine_ls_wR_factor_gt          0.1112
_refine_ls_wR_factor_ref         0.1126
_reflns_Friedel_coverage         0.000
_reflns_number_gt                1093
_reflns_number_total             1144
_reflns_threshold_expression     'I > 2\s(I)'
_cod_data_source_file            d2cc04024g2.cif
_cod_data_source_block           p21onm_a
_cod_database_code               7130541
_shelx_shelxl_version_number     2018/3
_shelx_space_group_comment
;
The symmetry employed for this shelxl refinement is uniquely defined
by the following loop, which should always be used as a source of
symmetry information in preference to the above space-group names.
They are only intended as comments.
;
_shelx_estimated_absorpt_t_max   0.991
_shelx_estimated_absorpt_t_min   0.991
_olex2_refinement_description
;
1. Fixed Uiso
 At 1.2 times of:
  All C(H) groups
 At 1.5 times of:
  All C(H,H,H) groups
2. Others
 Fixed Sof: H11A(0.5) H11B(0.5) H11C(0.5)
3.a Aromatic/amide H refined with riding coordinates:
 C5(H5), C2(H2), C3(H3), C4(H4)
3.b Idealised Me refined as rotating group:
 C11(H11A,H11B,H11C), C10(H10A,H10B,H10C)
;
_shelx_res_file
;
TITL p21onm_a.res in P2(1)/m
    p21onm_a.res
    created by SHELXL-2018/3 at 12:39:42 on 14-Oct-2020
REM Old TITL p21onm in P2(1)/m
REM SHELXT solution in P2(1)/m: R1 0.129, Rweak 0.003, Alpha 0.028
REM <I/s> 0.746 for 4 systematic absences, Orientation as input
REM Formula found by SHELXT: C12 N O2
CELL 0.7108 7.985 6.685 9.44 90 100.86 90
ZERR 2 0.0016 0.0013 0.0019 0 0.03 0
LATT 1
SYMM -X,0.5+Y,-Z
SFAC C H N O
UNIT 24 26 2 4

L.S. 10
PLAN  20
SIZE 0.1 0.1 0.1
TEMP -173(2)
CONF
BOND
LIST 6
MORE -1
BOND $H
fmap 2
acta
REM <olex2.extras>
REM <HklSrc "%.\\p21onm_a.hkl">
REM </olex2.extras>

WGHT    0.066000    0.093800
EXTI    0.017232
FVAR       1.02345
O2    4    0.261009    0.250000    0.566273    10.50000    0.01471    0.03186 =
         0.02671    0.00000    0.00231    0.00000
O1    4    0.484153    0.250000    0.384052    10.50000    0.02153    0.03917 =
         0.01556    0.00000    0.00220    0.00000
N1    3    0.705952    0.250000    0.572077    10.50000    0.01518    0.02164 =
         0.01451    0.00000    0.00529    0.00000
C8    1    0.538869    0.250000    0.515205    10.50000    0.01757    0.01781 =
         0.01645    0.00000    0.00339    0.00000
C1    1    0.480237    0.250000    0.773804    10.50000    0.01952    0.01501 =
         0.01830    0.00000    0.00703    0.00000
C9    1    0.412362    0.250000    0.618197    10.50000    0.01660    0.01679 =
         0.02075    0.00000    0.00521    0.00000
C7    1    0.785916    0.250000    0.726950    10.50000    0.01388    0.01908 =
         0.01542    0.00000    0.00221    0.00000
C6    1    0.655326    0.250000    0.824938    10.50000    0.02081    0.01358 =
         0.01621    0.00000    0.00504    0.00000
C5    1    0.712931    0.250000    0.974745    10.50000    0.02545    0.02001 =
         0.01701    0.00000    0.00207    0.00000
AFIX  43
H5    2    0.831957    0.250000    1.012446    10.50000   -1.20000
AFIX   0
C11   1    0.819942    0.250000    0.466450    10.50000    0.01957    0.02581 =
         0.01897    0.00000    0.00921    0.00000
PART -1
AFIX 137
H11A  2    0.789387    0.139114    0.398597    10.50000   -1.50000
H11B  2    0.938203    0.233992    0.516877    10.50000   -1.50000
H11C  2    0.808161    0.376894    0.413519    10.50000   -1.50000
AFIX   0
PART 0
C2    1    0.364884    0.250000    0.869549    10.50000    0.02251    0.01984 =
         0.02522    0.00000    0.01138    0.00000
AFIX  43
H2    2    0.245630    0.250000    0.832840    10.50000   -1.20000
AFIX   0
C3    1    0.424291    0.250000    1.016437    10.50000    0.03503    0.01879 =
         0.02365    0.00000    0.01674    0.00000
AFIX  43
H3    2    0.346520    0.250000    1.081202    10.50000   -1.20000
AFIX   0
C10   1    0.894701    0.441421    0.756715    11.00000    0.01911    0.02374 =
         0.02225   -0.00147    0.00324   -0.00497
AFIX 137
H10A  2    0.984707    0.439254    0.699056    11.00000   -1.50000
H10B  2    0.946411    0.447660    0.859362    11.00000   -1.50000
H10C  2    0.822104    0.558973    0.730638    11.00000   -1.50000
AFIX   0
C4    1    0.598540    0.250000    1.068777    10.50000    0.04048    0.01957 =
         0.01666    0.00000    0.00932    0.00000
AFIX  43
H4    2    0.640092    0.250000    1.169930    10.50000   -1.20000
AFIX   0
HKLF 4




REM  p21onm_a.res in P2(1)/m
REM wR2 = 0.1126, GooF = S = 1.103, Restrained GooF = 1.103 for all data
REM R1 = 0.0372 for 1093 Fo > 4sig(Fo) and 0.0382 for all 1144 data
REM 91 parameters refined using 0 restraints

END

WGHT      0.0660      0.0938

REM Highest difference peak  0.333,  deepest hole -0.208,  1-sigma level  0.046
Q1    1   0.7133  0.2500  0.7754  10.50000  0.05    0.33
Q2    1   0.4800  0.2500  0.5716  10.50000  0.05    0.33
Q3    1   0.4493  0.2500  0.6966  10.50000  0.05    0.33
Q4    1   0.6841  0.2500  0.8918  10.50000  0.05    0.32
Q5    1   0.8430  0.1599  0.7410  11.00000  0.05    0.27
Q6    1   0.7388  0.2500  0.6443  10.50000  0.05    0.26
Q7    1   0.4248  0.2500  0.8314  10.50000  0.05    0.26
Q8    1   0.6458  0.2500  1.0079  10.50000  0.05    0.25
Q9    1   0.7553  0.2500  0.5312  10.50000  0.05    0.23
Q10   1   0.3939  0.2500  0.9483  10.50000  0.05    0.23
Q11   1   0.5759  0.2500  0.8007  10.50000  0.05    0.21
Q12   1   0.4993  0.2500  0.4451  10.50000  0.05    0.15
Q13   1   0.6411  0.2500  0.5550  10.50000  0.05    0.14
Q14   1   0.5180  0.2500  1.0387  10.50000  0.05    0.13
Q15   1   0.4725  0.2500  0.9609  10.50000  0.05    0.13
Q16   1   0.2833  0.2500  0.4418  10.50000  0.05    0.12
Q17   1   0.2224  0.2204  0.6721  11.00000  0.05    0.12
Q18   1   0.9742  0.4140  0.8460  11.00000  0.05    0.11
Q19   1   0.5020  0.1724  0.2755  11.00000  0.05    0.10
Q20   1   0.5615  0.2500  0.3584  10.50000  0.05    0.10
;
_shelx_res_checksum              92740
_shelx_hkl_file
;
   0   0   1  416.07   21.37
   0   0   1  376.97   19.37
   0   0  -1  446.37   22.92
   0   0  -1  385.77   19.82
   0   0   2  225.18   11.65
   0   0   2  235.52   12.17
   0   0  -2  213.51   11.05
   0   0  -2  224.97   11.64
   0   0   3   71.15    3.82
   0   0   3   67.57    3.62
   0   0  -3   70.81    3.80
   0   0  -3   63.06    3.40
   0   0   4  246.16   12.84
   0   0   4  236.95   12.36
   0   0  -4  246.67   12.86
   0   0  -4  264.69   13.79
   0   0   5  403.58   20.96
   0   0   5  418.53   21.71
   0   0  -5  404.71   21.00
   0   0  -5  394.47   20.48
   0   0   6  205.94   10.88
   0   0   6  184.34    9.76
   0   0  -6  221.90   11.70
   0   0  -6  198.36   10.48
   0   0  -7   41.83    2.50
   0   0  -7   44.48    2.63
   0   0   8   74.42    4.22
   0   0   8   76.07    4.34
   0   0  -8   81.58    4.59
   0   0  -8   69.96    3.98
   0   0   9    7.09    0.74
   0   0   9    8.29    0.83
   0   0  -9    8.97    0.82
   0   0  -9    9.32    0.85
   0   0  10   11.73    1.08
   0   0  10   11.23    1.00
   0   0 -10   10.98    0.99
   0   0 -10   12.62    1.05
   0   0  11    0.17    0.17
   0   0 -11    0.27    0.16
   0   0  12    0.36    0.24
   0   0  12    0.66    0.25
   0   0 -12    0.19    0.15
   0   0 -12    0.59    0.24
   1   0 -12   95.37    5.46
   1   0 -12  103.28    5.85
  -1   0  12  107.06    6.06
  -1   0  12  106.86    6.11
   1   0 -11   -0.03    0.10
   1   0 -11   -0.12    0.10
  -1   0  11    0.18    0.16
  -1   0  11    0.16    0.13
   1   0 -10   23.71    1.68
  -1   0  10   23.85    1.71
  -1   0  10   23.55    1.70
   1   0  -9   76.52    4.39
   1   0  -9   71.44    4.11
  -1   0   9   71.00    4.10
  -1   0   9   72.92    4.24
   1   0  -8   31.46    2.02
   1   0  -8   31.40    2.03
  -1   0   8   31.62    2.03
  -1   0   8   33.80    2.16
   1   0  -7   22.33    1.50
   1   0  -7   18.79    1.31
  -1   0   7   22.99    1.56
  -1   0   7   20.20    1.40
   1   0  -6    1.76    0.30
  -1   0   6    1.58    0.29
   1   0  -5   60.90    3.42
   1   0  -5   56.55    3.19
  -1   0   5   68.17    3.81
  -1   0   5   61.94    3.47
   1   0  -4  615.76   31.80
   1   0  -4  698.67   36.05
  -1   0   4  707.78   36.51
  -1   0   4  754.66   38.92
   1   0  -3 1123.85   57.76
   1   0  -3 1180.15   60.63
  -1   0   3 1263.05   64.86
  -1   0   3 1225.18   62.96
   1   0  -2  531.22   27.36
   1   0  -2  600.62   30.91
  -1   0   2  670.83   34.51
  -1   0   2  667.86   34.36
   1   0  -1  272.67   14.06
   1   0  -1  251.59   12.99
  -1   0   1  244.32   12.62
  -1   0   1  264.18   13.62
   1   0   0 2474.93  126.82
   1   0   0 2510.75  128.66
  -1   0   0 2398.16  122.83
  -1   0   0 2461.62  126.10
   1   0   1  429.99   22.08
  -1   0  -1  414.84   21.30
   1   0   2 1195.50   61.30
   1   0   2 1102.36   56.54
  -1   0  -2 1215.97   62.36
  -1   0  -2 1160.70   59.54
   1   0   3  620.17   31.89
   1   0   3  569.60   29.30
  -1   0  -3  670.93   34.49
  -1   0  -3  562.44   28.94
   1   0   4   83.82    4.47
   1   0   4   77.49    4.16
  -1   0  -4   79.12    4.24
  -1   0  -4   85.95    4.59
   1   0   5  534.39   27.62
   1   0   5  597.03   30.81
  -1   0  -5  523.34   27.05
  -1   0  -5  545.45   28.19
   1   0   6   83.54    4.57
   1   0   6   92.85    5.06
  -1   0  -6   92.92    5.05
  -1   0  -6   85.63    4.67
   1   0   7   45.57    2.67
  -1   0  -7   41.48    2.46
   1   0   8  108.39    5.94
   1   0   8  111.98    6.15
  -1   0  -8  122.62    6.66
  -1   0  -8  108.29    5.93
   1   0   9    5.89    0.66
   1   0   9    6.45    0.73
  -1   0  -9    7.30    0.72
  -1   0  -9    6.97    0.70
   1   0  10   62.23    3.71
   1   0  10   59.38    3.52
  -1   0 -10   67.54    3.98
  -1   0 -10   62.90    3.69
   1   0  11    4.83    0.63
   1   0  11    2.93    0.52
  -1   0 -11    3.96    0.55
  -1   0 -11    3.81    0.55
   2   0 -12   69.92    4.12
   2   0 -12   62.27    3.75
  -2   0  12   67.75    4.02
  -2   0  12   69.58    4.18
   2   0 -11  136.95    7.58
   2   0 -11  121.39    6.75
  -2   0  11  120.88    6.75
  -2   0  11  126.41    7.06
   2   0 -10   32.54    2.24
   2   0 -10   34.39    2.22
  -2   0  10   35.49    2.35
  -2   0  10   33.90    2.23
   2   0  -9    4.73    0.58
   2   0  -9    3.47    0.50
  -2   0   9    4.24    0.56
  -2   0   9    5.36    0.67
   2   0  -8  150.26    8.17
   2   0  -8  134.70    7.36
  -2   0   8  169.40    9.16
  -2   0   8  155.17    8.40
   2   0  -7 1635.62   84.22
   2   0  -7 1899.70   97.71
  -2   0   7 1585.47   81.64
  -2   0   7 1770.73   91.13
   2   0  -6   33.16    2.07
   2   0  -6   36.22    2.21
  -2   0   6   35.45    2.19
  -2   0   6   40.74    2.46
   2   0  -5    9.88    0.79
  -2   0   5    9.81    0.81
   2   0  -4   69.82    3.87
   2   0  -4   70.43    3.90
  -2   0   4   73.56    4.07
  -2   0   4   70.73    3.91
   2   0  -3  116.07    6.19
   2   0  -3  119.14    6.35
  -2   0   3  136.13    7.22
  -2   0   3  129.48    6.89
   2   0  -2   15.41    0.97
   2   0  -2   16.82    1.04
  -2   0   2   20.99    1.26
  -2   0   2   17.78    1.11
   2   0  -1 1172.98   60.22
   2   0  -1 1222.11   62.73
  -2   0   1 1366.43   70.13
  -2   0   1 1169.91   60.06
   2   0   0   16.89    0.95
   2   0   0   16.93    0.95
  -2   0   0   16.81    0.95
  -2   0   0   16.04    0.91
   2   0   1  480.76   24.68
   2   0   1  442.68   22.73
  -2   0  -1  467.15   23.98
  -2   0  -1  405.63   20.83
   2   0   2  438.69   22.57
  -2   0  -2  439.31   22.60
   2   0   3  424.57   21.83
   2   0   3  406.86   20.92
  -2   0  -3  373.70   19.22
  -2   0  -3  413.61   21.27
   2   0   4  190.58    9.89
   2   0   4  179.43    9.31
   2   0   5    5.30    0.43
   2   0   5    5.83    0.46
  -2   0  -5    4.47    0.38
  -2   0  -5    5.38    0.43
   2   0   6   11.89    0.84
   2   0   6   11.21    0.79
  -2   0  -6   12.61    0.86
  -2   0  -6   12.01    0.82
   2   0   7    1.14    0.23
   2   0   7    1.26    0.25
  -2   0  -7    0.83    0.18
  -2   0  -7    0.85    0.18
   2   0   8  191.71   10.16
  -2   0  -8  199.59   10.57
   2   0   9   48.76    2.90
   2   0   9   51.40    3.03
  -2   0  -9   52.96    3.10
  -2   0  -9   48.69    2.87
   2   0  10   14.87    1.19
   2   0  10   16.18    1.26
  -2   0 -10   17.67    1.30
  -2   0 -10   17.48    1.29
   3   0 -11    0.91    0.28
   3   0 -11    0.69    0.26
  -3   0  11    0.73    0.27
  -3   0  11    0.63    0.25
   3   0 -10    2.87    0.48
   3   0 -10    2.37    0.42
  -3   0  10    3.04    0.49
  -3   0  10    2.24    0.45
   3   0  -9   50.61    3.09
  -3   0   9   51.06    3.13
   3   0  -8  315.25   16.63
   3   0  -8  276.36   14.64
  -3   0   8  319.14   16.83
  -3   0   8  294.37   15.59
   3   0  -7  217.61   11.61
   3   0  -7  194.06   10.38
  -3   0   7  197.65   10.59
  -3   0   7  182.80    9.82
   3   0  -6    5.81    0.59
   3   0  -6    6.02    0.61
  -3   0   6    6.34    0.62
  -3   0   6    5.78    0.61
   3   0  -5   64.85    3.71
   3   0  -4 1240.54   63.89
  -3   0   4 1229.28   63.31
   3   0  -3  167.76    8.87
   3   0  -3  156.19    8.29
  -3   0   3  169.60    8.97
  -3   0   3  172.98    9.16
   3   0  -2    4.54    0.42
   3   0  -2    4.60    0.42
  -3   0   2    5.38    0.47
  -3   0   2    5.46    0.48
   3   0  -1  775.13   39.89
   3   0  -1  782.91   40.28
  -3   0   1  745.45   38.38
  -3   0   1  803.58   41.34
   3   0   0  119.65    6.26
   3   0   0  118.32    6.20
  -3   0   0  114.84    6.02
  -3   0   0  117.91    6.17
   3   0   1  388.13   19.97
   3   0   1  441.66   22.71
  -3   0  -1  406.65   20.92
  -3   0  -1  421.29   21.66
   3   0   4    2.14    0.15
   3   0   4    1.87    0.14
  -3   0  -4    1.93    0.14
  -3   0  -4    1.92    0.14
   3   0   5   19.00    1.07
   3   0   5   17.92    1.02
  -3   0  -5   19.07    1.07
  -3   0  -5   18.52    1.05
   3   0   6   72.94    3.90
   3   0   6   72.37    3.87
  -3   0  -6   73.54    3.93
  -3   0  -6   71.10    3.80
   3   0   7   56.49    3.11
   3   0   7   61.00    3.34
  -3   0  -7   62.32    3.40
  -3   0  -7   55.03    3.03
   3   0   8   38.19    2.21
   3   0   8   40.07    2.33
  -3   0  -8   38.58    2.23
  -3   0  -8   40.20    2.31
   3   0   9    2.73    0.38
   3   0   9    1.71    0.29
  -3   0  -9    1.85    0.30
  -3   0  -9    1.98    0.31
   3   0  10    5.24    0.61
   4   0 -11   24.46    1.77
   4   0 -11   25.32    1.77
  -4   0  11   25.33    1.83
  -4   0  11   28.06    1.92
   4   0 -10   23.34    1.65
   4   0 -10   26.96    1.88
  -4   0  10   27.40    1.92
  -4   0  10   30.10    2.04
   4   0  -9    0.18    0.14
   4   0  -9    0.06    0.12
  -4   0   9   -0.08    0.12
  -4   0   9    0.10    0.14
   4   0  -8   47.27    2.90
   4   0  -8   44.54    2.74
  -4   0   8   46.94    2.88
  -4   0   8   42.23    2.66
  -4   0   7   39.71    2.48
  -4   0   7   33.25    2.16
   4   0  -6    2.17    0.38
   4   0  -6    1.36    0.29
  -4   0   6    1.29    0.30
  -4   0   6    1.60    0.32
   4   0  -5  191.91   10.23
   4   0  -5  174.00    9.32
  -4   0   5  164.79    8.84
  -4   0   5  184.34    9.87
   4   0  -4   78.18    4.37
   4   0  -4   86.99    4.81
  -4   0   4   76.07    4.25
  -4   0   4   81.80    4.57
   4   0  -3  220.37   11.62
  -4   0   3  211.26   11.17
   4   0  -2  180.96    9.55
   4   0  -2  183.73    9.68
  -4   0   2  167.55    8.85
  -4   0   2  176.87    9.36
   4   0  -1  186.39    9.79
   4   0  -1  185.77    9.74
  -4   0   1  201.23   10.55
  -4   0   1  189.36    9.93
   4   0   0   51.60    2.81
   4   0   0   51.83    2.84
  -4   0   0   56.02    3.06
  -4   0   0   51.33    2.80
   4   0   1 1196.52   61.43
   4   0   1 1352.10   69.39
  -4   0  -1 1311.16   67.32
  -4   0  -1 1300.92   66.76
   5   0 -10    3.45    0.54
   5   0 -10    2.77    0.46
  -5   0  10    2.79    0.48
  -5   0  10    2.27    0.47
   5   0  -9    6.66    0.73
   5   0  -9    5.51    0.67
  -5   0   9    4.99    0.66
  -5   0   9    6.43    0.77
   5   0  -8    1.38    0.33
   5   0  -8    1.62    0.34
  -5   0   8    0.94    0.28
  -5   0   8    0.94    0.28
   5   0  -7    8.99    0.83
   5   0  -7    9.44    0.88
  -5   0   7   10.75    0.97
  -5   0   7    9.61    0.87
   5   0  -6   10.89    0.94
   5   0  -6   11.82    0.97
  -5   0   6   11.58    0.99
  -5   0   6   12.59    1.01
  -5   0   5  226.00   12.01
  -5   0   5  207.78   11.10
   5   0  -4    7.44    0.70
   5   0  -4    7.33    0.68
  -5   0   4    6.63    0.63
  -5   0   4    7.10    0.69
   5   0  -3  102.26    5.61
   5   0  -3   99.90    5.47
  -5   0   3  113.10    6.22
  -5   0   3  109.42    5.96
   5   0  -2   29.54    1.80
   5   0  -2   32.79    2.00
  -5   0   2   31.79    1.94
  -5   0   2   31.02    1.89
   5   0  -1   23.46    1.46
   5   0  -1   23.58    1.45
  -5   0   1   22.40    1.41
  -5   0   1   26.35    1.61
   5   0   0   86.42    4.66
   5   0   0   78.73    4.24
  -5   0   0   84.38    4.53
  -5   0   0   84.55    4.55
   5   0   1  112.08    5.91
   5   0   1  113.00    5.95
  -5   0  -1  118.22    6.21
  -5   0  -1  111.46    5.88
   5   0   2    6.99    0.41
   5   0   2    6.90    0.40
  -5   0  -2    7.14    0.42
  -5   0  -2    7.40    0.43
   6   0 -10    3.19    0.52
  -6   0  10    3.01    0.55
   6   0  -9   76.70    4.43
   6   0  -9   75.56    4.42
  -6   0   9   80.76    4.66
  -6   0   9   83.22    4.83
   6   0  -8    0.48    0.21
   6   0  -8    0.30    0.17
  -6   0   8    0.09    0.14
  -6   0   8    0.25    0.17
   6   0  -7    0.96    0.27
  -6   0   7    1.94    0.39
   6   0  -6   24.74    1.71
   6   0  -6   22.01    1.55
  -6   0   6   21.04    1.50
  -6   0   6   18.85    1.41
   6   0  -5   54.61    3.25
   6   0  -5   49.50    2.96
  -6   0   5   57.38    3.42
  -6   0   5   53.57    3.19
   6   0  -4    2.36    0.38
   6   0  -4    3.28    0.46
  -6   0   4    3.08    0.44
  -6   0   4    1.97    0.37
   6   0  -3  415.87   21.72
   6   0  -3  431.32   22.48
  -6   0   3  404.20   21.10
  -6   0   3  415.46   21.70
   6   0  -2    4.06    0.45
  -6   0   2    3.74    0.44
   6   0  -1   54.42    3.11
   6   0  -1   48.67    2.78
  -6   0   1   51.39    2.93
  -6   0   1   48.84    2.82
   6   0   0   13.20    0.92
   6   0   0   12.23    0.85
  -6   0   0   12.56    0.88
  -6   0   0   12.64    0.88
   6   0   1    8.59    0.60
   6   0   1    8.82    0.63
  -6   0  -1    8.05    0.59
  -6   0  -1    9.02    0.63
   7   0  -9    2.90    0.50
  -7   0   9    3.06    0.52
   7   0  -8    2.76    0.46
   7   0  -8    3.28    0.52
  -7   0   8    3.17    0.52
  -7   0   8    3.83    0.56
   7   0  -7   21.29    1.58
   7   0  -7   19.07    1.41
   7   0  -6    0.33    0.17
  -7   0   6    0.30    0.17
   7   0  -5    0.56    0.23
   7   0  -5    0.18    0.15
  -7   0   5    0.44    0.20
  -7   0   5    0.47    0.20
   7   0  -4    3.91    0.51
   7   0  -4    3.41    0.49
  -7   0   4    3.83    0.51
  -7   0   4    3.98    0.55
   7   0  -3  536.44   27.92
   7   0  -3  544.42   28.31
  -7   0   3  583.42   30.35
  -7   0   3  550.56   28.63
   7   0  -2   99.76    5.52
   7   0  -2   92.05    5.10
  -7   0   2   93.51    5.21
  -7   0   2  102.66    5.64
   7   0  -1    0.33    0.13
  -7   0   1    0.68    0.19
   7   0   0    0.17    0.11
   7   0   0    0.33    0.13
  -7   0   0    0.18    0.12
  -7   0   0    0.36    0.13
   7   0   1    4.42    0.41
   7   0   1    4.23    0.42
  -7   0  -1    3.86    0.39
  -7   0  -1    4.07    0.39
   8   0  -8   10.32    0.97
   8   0  -8    9.04    0.94
  -8   0   8    9.48    1.02
   8   0  -7    5.28    0.67
   8   0  -7    5.01    0.62
  -8   0   7    3.58    0.55
  -8   0   7    4.99    0.68
   8   0  -6   36.45    2.40
   8   0  -6   42.94    2.69
  -8   0   6   40.90    2.64
  -8   0   6   39.53    2.53
   8   0  -5    0.30    0.16
  -8   0   5    0.04    0.14
   8   0  -4    6.59    0.70
   8   0  -4    7.73    0.79
  -8   0   4    7.79    0.80
  -8   0   4    6.86    0.72
   8   0  -3    1.18    0.30
   8   0  -3    0.57    0.21
  -8   0   3    0.58    0.23
  -8   0   3    0.74    0.26
   8   0  -2    7.46    0.72
   8   0  -2   10.09    0.90
  -8   0   2    7.89    0.76
  -8   0   2    7.62    0.76
   8   0  -1   56.63    3.33
   8   0  -1   54.80    3.19
  -8   0   1   55.91    3.25
  -8   0   1   54.33    3.20
   8   0   0    9.20    0.79
   8   0   0    8.90    0.75
  -8   0   0    9.77    0.81
   8   0   1   86.99    4.69
   8   0   1   88.18    4.77
  -8   0  -1   86.19    4.67
  -8   0  -1   87.37    4.71
   9   0  -7    1.32    0.34
  -9   0   7    1.17    0.36
   9   0  -6   29.56    2.05
   9   0  -6   23.10    1.67
  -9   0   6   30.50    2.12
  -9   0   6   27.64    1.92
   9   0  -5   98.73    5.58
   9   0  -5  102.46    5.82
  -9   0   5   91.43    5.26
  -9   0   5   95.55    5.45
   9   0  -4   62.78    3.72
  -9   0   4   60.79    3.64
   9   0  -3    1.49    0.34
   9   0  -3    1.46    0.36
  -9   0   3    1.80    0.39
  -9   0   3    1.42    0.34
   9   0  -2  192.12   10.36
   9   0  -2  184.34    9.93
  -9   0   2  196.62   10.60
  -9   0   2  177.28    9.57
   9   0  -1    0.20    0.13
   9   0  -1    0.11    0.11
  -9   0   1   -0.07    0.09
  -9   0   1    0.12    0.10
   9   0   0    2.03    0.36
  -9   0   0    1.73    0.32
  -9   0   0    1.51    0.34
   9   0   1   31.76    1.84
   9   0   1   32.06    1.85
  10   0  -6  188.74   10.29
 -10   0   6  187.00   10.19
  10   0  -5   67.59    4.02
  10   0  -5   75.83    4.48
 -10   0   5   73.95    4.34
 -10   0   5   72.36    4.30
  10   0  -4    0.83    0.30
  10   0  -4    1.14    0.32
 -10   0   4    1.21    0.32
 -10   0   4    0.35    0.20
  10   0  -3    2.04    0.42
 -10   0   3    2.27    0.43
  10   0  -2    2.07    0.42
  10   0  -2    1.93    0.39
  10  -1  -2   28.90    1.97
  10  -1  -2   28.56    1.95
 -10   1   3    7.46    0.82
  10  -1  -3    6.46    0.77
 -10   1   4   26.83    1.90
 -10   1   4   30.94    2.15
  10  -1  -4   26.85    1.90
  10  -1  -4   29.61    2.07
 -10   1   5    6.35    0.80
 -10   1   5    6.25    0.78
  10  -1  -5    6.66    0.78
  10  -1  -5    7.57    0.86
 -10   1   6   57.77    3.55
  10  -1  -6   56.17    3.55
  -9   1   0   66.99    3.79
  -9   1   0   61.21    3.48
   9  -1   0   64.73    3.65
   9  -1   0   68.64    3.86
  -9   1   1    1.49    0.34
  -9   1   1    1.63    0.35
   9  -1  -1    1.39    0.30
   9  -1  -1    1.47    0.31
  -9   1   2    0.51    0.24
  -9   1   2    0.30    0.16
   9  -1  -2    0.39    0.17
   9  -1  -2    0.51    0.19
  -9   1   3   38.50    2.47
  -9   1   3   37.22    2.43
   9  -1  -3   42.42    2.68
   9  -1  -3   34.08    2.23
  -9   1   4    0.18    0.16
   9  -1  -4    0.18    0.15
  -9   1   5    0.00    0.13
  -9   1   5    0.11    0.14
   9  -1  -5   -0.04    0.07
   9  -1  -5    0.02    0.10
  -9   1   6  119.75    6.68
  -9   1   6  123.44    6.93
   9  -1  -6  123.64    6.87
   9  -1  -6  136.95    7.59
  -9   1   7   14.81    1.30
   9  -1  -7   14.32    1.24
  -8   1  -1   24.65    1.44
  -8   1  -1   24.44    1.43
   8  -1   1   23.82    1.40
   8  -1   1   26.11    1.53
  -8   1   0    2.76    0.37
  -8   1   0    3.42    0.41
   8  -1   0    3.22    0.41
   8  -1   0    3.22    0.41
  -8   1   1    3.14    0.45
  -8   1   1    2.76    0.41
   8  -1  -1    3.59    0.47
   8  -1  -1    2.99    0.42
  -8   1   2   -0.01    0.10
  -8   1   2   -0.02    0.09
   8  -1  -2    0.06    0.10
   8  -1  -2   -0.03    0.08
  -8   1   3    6.06    0.68
  -8   1   3    6.72    0.75
   8  -1  -3    5.25    0.61
   8  -1  -3    6.03    0.69
  -8   1   4    0.14    0.13
  -8   1   4    0.02    0.11
   8  -1  -4    0.25    0.15
   8  -1  -4   -0.01    0.12
  -8   1   5    3.72    0.54
   8  -1  -5    4.09    0.56
  -8   1   6   -0.05    0.12
  -8   1   6    0.14    0.14
   8  -1  -6    0.01    0.10
   8  -1  -6   -0.05    0.11
  -8   1   7   20.38    1.53
  -8   1   7   21.70    1.64
   8  -1  -7   19.67    1.47
  -8   1   8    0.14    0.15
   8  -1  -8    0.14    0.15
  -7   1  -1  121.09    6.40
  -7   1  -1  121.80    6.43
   7  -1   1  120.16    6.35
   7  -1   1  122.11    6.45
  -7   1   0   54.41    3.09
  -7   1   0   54.57    3.07
   7  -1   0   56.03    3.15
   7  -1   0   53.87    3.05
  -7   1   1   44.88    2.63
  -7   1   1   42.53    2.63
   7  -1  -1   44.82    2.69
  -7   1   2  572.16   29.70
  -7   1   2  619.96   32.18
   7  -1  -2  698.47   36.21
   7  -1  -2  618.83   32.10
  -7   1   3  359.26   18.87
  -7   1   3  393.35   20.58
   7  -1  -3  414.74   21.69
   7  -1  -3  402.76   21.06
  -7   1   4   20.97    1.51
  -7   1   4   20.40    1.46
   7  -1  -4   20.06    1.43
   7  -1  -4   18.89    1.39
  -7   1   5    8.73    0.85
  -7   1   5    7.99    0.78
   7  -1  -5    8.17    0.82
   7  -1  -5    7.74    0.79
  -7   1   6    3.62    0.54
   7  -1  -6    2.94    0.47
  -7   1   7   62.14    3.69
  -7   1   7   55.92    3.41
  -7   1   8    5.35    0.70
  -7   1   8    6.55    0.78
   7  -1  -8    7.12    0.75
   7  -1  -8    6.26    0.74
  -7   1   9    5.78    0.74
   7  -1  -9    9.77    0.94
  -6   1  -1   21.00    1.24
  -6   1  -1   21.77    1.28
   6  -1   1   21.56    1.27
   6  -1   1   21.75    1.28
  -6   1   0    0.47    0.15
  -6   1   0    0.51    0.15
   6  -1   0    0.53    0.14
   6  -1   0    0.38    0.12
  -6   1   1    5.31    0.51
  -6   1   1    5.17    0.51
   6  -1  -1    4.97    0.51
   6  -1  -1    5.63    0.53
  -6   1   2  625.59   32.41
   6  -1  -2  605.32   31.37
  -6   1   3  139.00    7.53
  -6   1   3  138.69    7.51
   6  -1  -3  142.99    7.73
   6  -1  -3  141.45    7.67
  -6   1   4   32.93    2.11
  -6   1   4   35.40    2.24
   6  -1  -4   32.69    2.08
   6  -1  -4   39.21    2.44
  -6   1   5   16.17    1.25
  -6   1   5   16.59    1.25
   6  -1  -5   22.87    1.60
   6  -1  -5   18.35    1.34
  -6   1   6   24.41    1.69
  -6   1   6   28.31    1.92
   6  -1  -6   27.92    1.88
   6  -1  -6   26.41    1.80
  -6   1   8   10.55    0.97
  -6   1   8   10.71    1.03
   6  -1  -8   12.07    1.04
   6  -1  -8   11.10    1.00
  -6   1   9    0.44    0.20
  -6   1   9    0.18    0.15
   6  -1  -9    0.50    0.21
   6  -1  -9    0.41    0.19
  -5   1  -1    6.08    0.44
  -5   1  -1    6.07    0.44
   5  -1   1    6.65    0.47
   5  -1   1    7.00    0.49
  -5   1   0  121.80    6.46
  -5   1   0  122.42    6.50
   5  -1   0  119.04    6.33
   5  -1   0  114.64    6.09
  -5   1   1   48.40    2.76
  -5   1   1   43.25    2.49
   5  -1  -1   47.36    2.69
   5  -1  -1   50.45    2.87
  -5   1   2   39.88    2.36
   5  -1  -2   42.77    2.61
   5  -1  -2   42.40    2.50
  -5   1   3   16.05    1.16
  -5   1   3   14.05    1.03
   5  -1  -3   16.69    1.19
   5  -1  -3   15.56    1.13
  -5   1   4   27.34    1.78
  -5   1   4   26.83    1.75
   5  -1  -4   24.59    1.64
   5  -1  -4   26.18    1.72
  -5   1   5   23.34    1.60
  -5   1   5   21.44    1.50
   5  -1  -5   19.00    1.37
   5  -1  -5   18.83    1.35
  -5   1   6    1.82    0.36
  -5   1   6    0.86    0.27
   5  -1  -6    2.16    0.38
   5  -1  -6    1.26    0.30
  -5   1   7   97.66    5.49
  -5   1   7  104.30    5.85
   5  -1  -7  100.09    5.62
   5  -1  -7   83.64    4.77
  -5   1   8   -0.03    0.13
  -5   1   8   -0.07    0.10
   5  -1  -8   -0.03    0.09
   5  -1  -8    0.15    0.12
  -5   1   9    2.27    0.44
  -5   1   9    2.57    0.48
   5  -1  -9    3.97    0.55
   5  -1  -9    3.34    0.51
  -5   1  10   90.49    5.18
  -5   1  10  103.58    5.91
  -4   1  -1   48.54    2.60
  -4   1  -1   46.53    2.51
   4  -1   1   49.45    2.65
   4  -1   1   44.51    2.41
   4  -1   0  123.64    6.51
   4  -1   0  125.49    6.61
  -4   1   1   64.30    3.54
  -4   1   1   63.50    3.49
   4  -1  -1   60.82    3.36
   4  -1  -1   65.30    3.58
  -4   1   2    3.35    0.37
  -4   1   2    3.77    0.41
   4  -1  -2    3.17    0.38
   4  -1  -2    3.16    0.36
  -4   1   3   88.67    4.88
   4  -1  -3   94.69    5.19
  -4   1   4   26.15    1.69
  -4   1   4   23.22    1.54
   4  -1  -4   29.29    1.86
   4  -1  -4   24.33    1.59
  -4   1   5   -0.04    0.07
  -4   1   5    0.02    0.10
   4  -1  -5    0.05    0.07
   4  -1  -5    0.03    0.09
  -4   1   6   49.69    2.99
  -4   1   6   50.95    3.04
   4  -1  -6   43.37    2.65
   4  -1  -6   49.79    2.98
  -4   1   7   27.16    1.83
  -4   1   7   31.30    2.06
   4  -1  -7   31.03    2.03
   4  -1  -7   27.53    1.85
  -4   1   8   24.21    1.71
   4  -1  -8   26.15    1.79
  -4   1   9   35.32    2.30
  -4   1   9   36.41    2.38
   4  -1  -9   36.35    2.34
   4  -1  -9   42.42    2.68
  -4   1  10    5.74    0.71
  -4   1  10    5.23    0.70
   4  -1 -10    7.92    0.80
   4  -1 -10    6.35    0.71
  -4   1  11    5.60    0.73
  -4   1  11    4.73    0.70
   4  -1 -11    6.52    0.76
  -3   1  -9    1.46    0.26
  -3   1  -9    0.80    0.19
   3  -1   9    0.67    0.18
   3  -1   9    1.24    0.24
  -3   1  -8    1.70    0.25
  -3   1  -8    2.34    0.30
   3  -1   8    1.49    0.24
   3  -1   8    1.99    0.28
  -3   1  -7    5.29    0.44
  -3   1  -7    3.93    0.37
   3  -1   7    3.89    0.37
   3  -1   7    4.31    0.39
  -3   1  -6    3.31    0.29
  -3   1  -6    3.60    0.31
   3  -1   6    3.12    0.30
   3  -1   6    3.04    0.28
  -3   1  -5  214.94   11.11
  -3   1  -5  207.57   10.74
   3  -1   5  217.50   11.28
   3  -1   5  220.57   11.39
  -3   1  -1   13.33    0.78
  -3   1  -1   13.28    0.77
   3  -1   1   12.43    0.73
   3  -1   1   13.81    0.80
  -3   1   0  137.26    7.19
  -3   1   0  128.15    6.71
   3  -1   0  135.41    7.08
   3  -1   0  139.10    7.28
  -3   1   1  273.70   14.23
  -3   1   1  264.28   13.75
   3  -1  -1  275.64   14.33
   3  -1  -1  271.55   14.10
  -3   1   2  114.13    6.10
  -3   1   2  128.05    6.82
   3  -1  -2  124.57    6.63
   3  -1  -2  118.53    6.33
  -3   1   3 2135.11  109.62
  -3   1   3 2356.20  120.98
   3  -1  -3 2582.40  132.55
   3  -1  -3 2470.83  126.82
   3  -1  -4  281.99   14.81
   3  -1  -4  294.58   15.50
  -3   1   5   21.93    1.47
  -3   1   5   22.06    1.49
  -3   1   6    8.24    0.76
  -3   1   6    6.76    0.69
   3  -1  -6    8.53    0.77
   3  -1  -6    9.77    0.83
   3  -1  -7  161.72    8.75
   3  -1  -7  140.94    7.68
  -3   1   8  329.58   17.37
  -3   1   8  332.34   17.54
   3  -1  -8  320.68   16.93
   3  -1  -8  322.42   17.00
  -3   1   9    2.25    0.42
   3  -1  -9    2.05    0.39
  -3   1  10   14.53    1.23
  -3   1  10   16.46    1.31
   3  -1 -10   15.02    1.22
   3  -1 -10   12.89    1.12
  -3   1  11   18.06    1.41
  -3   1  11   16.79    1.38
   3  -1 -11   16.31    1.30
   3  -1 -11   14.72    1.25
  -2   1 -10    7.86    0.77
  -2   1 -10   10.10    0.90
   2  -1  10    9.54    0.91
   2  -1  10    8.74    0.84
  -2   1  -9   40.98    2.50
  -2   1  -9   41.17    2.47
   2  -1   9   44.77    2.73
   2  -1   9   44.62    2.67
  -2   1  -8    2.72    0.38
   2  -1   8    3.32    0.46
   2  -1   8    3.02    0.40
  -2   1  -7   16.23    1.10
  -2   1  -7   17.31    1.14
   2  -1   7   17.19    1.15
   2  -1   7   17.62    1.19
  -2   1  -6   28.75    1.70
  -2   1  -6   26.18    1.56
   2  -1   6   27.34    1.62
   2  -1   6   26.82    1.62
  -2   1  -5   15.73    0.98
  -2   1  -5   14.17    0.88
   2  -1   5   13.23    0.84
   2  -1   5   14.17    0.91
  -2   1  -4    8.73    0.57
  -2   1  -4    9.39    0.59
   2  -1   4    8.95    0.57
   2  -1   4    7.98    0.53
  -2   1  -3  264.38   13.63
  -2   1  -3  306.35   15.78
   2  -1   3  252.82   13.05
   2  -1   3  281.78   14.52
  -2   1  -2   93.68    4.86
  -2   1  -2   99.80    5.18
   2  -1   2   95.84    4.97
   2  -1   2   98.76    5.13
  -2   1  -1  492.12   25.29
  -2   1  -1  499.80   25.68
   2  -1   1  476.87   24.50
   2  -1   1  505.63   25.98
  -2   1   0  356.50   18.37
  -2   1   0  385.26   19.86
   2  -1   0  353.84   18.24
   2  -1   0  360.59   18.59
  -2   1   1   42.48    2.34
  -2   1   1   46.88    2.57
   2  -1  -1   41.55    2.29
   2  -1  -1   42.26    2.33
  -2   1   2  340.84   17.69
  -2   1   2  344.22   17.85
   2  -1  -2  338.28   17.54
   2  -1  -2  397.34   20.59
  -2   1   3 1023.24   52.68
  -2   1   3  954.97   49.18
   2  -1  -3 1019.65   52.49
   2  -1  -3 1050.16   54.04
  -2   1   4    1.12    0.21
  -2   1   4    1.11    0.24
   2  -1  -4    1.11    0.23
   2  -1  -4    0.88    0.19
  -2   1   5   53.59    3.09
   2  -1  -5   48.58    2.84
  -2   1   6    0.15    0.13
  -2   1   6    0.06    0.09
   2  -1  -6    0.06    0.09
   2  -1  -6    0.05    0.10
  -2   1   7   13.50    1.08
  -2   1   7   11.63    0.96
   2  -1  -7   15.38    1.16
   2  -1  -7   12.01    0.97
  -2   1   8  980.25   50.71
  -2   1   8  970.52   50.18
   2  -1  -8  952.82   49.28
   2  -1  -8  962.54   49.79
  -2   1   9    0.12    0.14
  -2   1   9   -0.04    0.09
   2  -1  -9    0.00    0.10
   2  -1  -9    0.02    0.12
  -2   1  10    6.19    0.76
  -2   1  10    5.29    0.68
   2  -1 -10    5.31    0.66
   2  -1 -10    5.91    0.70
  -2   1  11    9.36    0.98
  -2   1  11   11.42    1.07
   2  -1 -11   12.33    1.06
   2  -1 -11   11.53    1.04
  -2   1  12   13.99    1.25
  -2   1  12   15.30    1.28
   2  -1 -12   18.53    1.44
   2  -1 -12   16.00    1.33
  -1   1 -11    3.27    0.50
  -1   1 -11    2.46    0.45
   1  -1  11    2.10    0.44
   1  -1  11    3.53    0.53
  -1   1 -10   15.24    1.18
  -1   1 -10   17.54    1.34
   1  -1  10   16.53    1.29
   1  -1  10   13.34    1.19
  -1   1  -9   40.72    2.48
  -1   1  -9   45.99    2.79
   1  -1   9   39.92    2.50
   1  -1   9   36.44    2.29
  -1   1  -8    3.12    0.41
  -1   1  -8    3.40    0.44
   1  -1   8    3.46    0.45
   1  -1   8    3.13    0.45
  -1   1  -7   33.01    2.02
   1  -1   7   31.99    1.98
  -1   1  -6   66.71    3.68
  -1   1  -6   70.05    3.88
   1  -1   6   68.39    3.80
   1  -1   6   68.15    3.77
  -1   1  -5    1.30    0.20
  -1   1  -5    1.72    0.25
   1  -1   5    1.70    0.25
   1  -1   5    1.83    0.25
  -1   1  -4 1325.49   68.07
  -1   1  -4 1274.31   65.46
   1  -1   4 1287.62   66.13
   1  -1   4 1300.92   66.82
  -1   1  -3    1.43    0.17
  -1   1  -3    1.67    0.19
   1  -1   3    1.14    0.15
   1  -1   3    1.54    0.17
  -1   1  -2    4.79    0.34
  -1   1  -2    4.34    0.31
   1  -1   2    4.58    0.33
   1  -1   2    4.72    0.33
  -1   1  -1    7.21    0.45
  -1   1  -1    7.07    0.44
   1  -1   1    6.80    0.43
   1  -1   1    7.58    0.47
  -1   1   0  862.85   44.29
  -1   1   0 1000.51   51.34
   1  -1   0  817.30   41.96
   1  -1   0  842.17   43.22
  -1   1   1   58.84    3.15
  -1   1   1   54.48    2.93
   1  -1  -1   51.65    2.77
   1  -1  -1   57.07    3.06
  -1   1   2   32.65    1.85
  -1   1   2   37.22    2.09
   1  -1  -2   32.70    1.85
   1  -1  -2   34.28    1.93
  -1   1   3   32.68    1.90
  -1   1   3   30.54    1.79
   1  -1  -3   31.19    1.82
   1  -1  -3   28.85    1.71
  -1   1   4    0.03    0.07
  -1   1   4    0.08    0.09
   1  -1  -4    0.08    0.08
   1  -1  -4    0.00    0.09
  -1   1   5   11.62    0.89
   1  -1  -5   11.39    0.86
  -1   1   6   68.60    3.89
  -1   1   6   60.23    3.46
  -1   1   7   26.57    1.76
  -1   1   7   23.41    1.58
   1  -1  -7   26.87    1.76
   1  -1  -7   25.84    1.70
  -1   1   8   80.59    4.57
  -1   1   8   90.58    5.11
   1  -1  -8   90.10    5.08
   1  -1  -8   86.16    4.86
  -1   1   9    9.19    0.88
  -1   1   9   10.51    0.94
   1  -1  -9   10.43    0.92
   1  -1  -9    9.89    0.89
  -1   1  10    0.17    0.14
   1  -1 -10    0.11    0.15
   1  -1 -10    0.08    0.10
  -1   1  11   37.64    2.50
  -1   1  11   38.26    2.48
   1  -1 -11   39.04    2.52
   1  -1 -11   43.85    2.76
  -1   1  12    1.62    0.40
  -1   1  12    1.35    0.35
   1  -1 -12    1.70    0.37
   1  -1 -12    1.39    0.35
   0   1 -12   24.34    1.76
   0   1 -12   25.09    1.79
   0  -1  12   23.19    1.74
   0  -1  12   22.07    1.76
   0   1 -11    8.01    0.95
   0   1 -11    8.69    0.86
   0  -1  11    8.26    1.04
   0   1 -10   65.29    3.81
   0   1 -10   57.40    3.45
   0  -1  10   60.51    3.59
   0  -1  10   70.10    4.14
   0   1  -9    1.88    0.36
   0   1  -9    1.79    0.34
   0  -1   9    1.79    0.35
   0  -1   9    1.73    0.37
   0   1  -8   26.97    1.75
   0   1  -8   26.41    1.74
   0  -1   8   26.22    1.76
   0  -1   8   26.39    1.73
   0   1  -7    0.95    0.23
   0   1  -7    0.94    0.23
   0  -1   7    0.74    0.24
   0  -1   7    0.80    0.23
   0  -1   6  108.91    5.92
   0  -1   6  107.17    5.81
   0   1  -5  111.16    5.96
   0   1  -5  122.83    6.57
   0  -1   5  106.96    5.76
   0  -1   5  110.75    5.94
   0   1  -4  713.61   36.78
   0   1  -4  702.46   36.19
   0  -1   4  727.53   37.49
   0  -1   4  706.35   36.40
   0   1  -3   97.62    5.18
   0   1  -3   89.80    4.77
   0  -1   3   85.07    4.53
   0  -1   3   90.05    4.79
   0   1  -2    0.05    0.07
   0   1  -2    0.16    0.07
   0  -1   2    0.03    0.06
   0  -1   2    0.14    0.07
   0   1  -1 2244.63  115.05
   0   1  -1 2408.40  123.44
   0  -1   1 2028.66  103.99
   0  -1   1 2262.03  115.97
   0   1   0   -0.02    0.04
   0   1   0    0.04    0.05
   0  -1   0    0.00    0.05
   0  -1   0    0.07    0.05
   0  -1  -1 2240.54  114.84
   0  -1  -1 1979.53  101.47
   0   1   2    0.14    0.08
   0   1   2    0.08    0.08
   0  -1  -2    0.17    0.08
   0  -1  -2    0.14    0.07
   0   1   3   93.94    5.02
   0   1   3   91.53    4.89
   0  -1  -3  100.74    5.36
   0  -1  -3   84.88    4.55
   0   1   4  703.79   36.31
   0   1   4  708.91   36.56
   0  -1  -4  686.29   35.41
   0  -1  -4  715.46   36.89
   0   1   5  102.18    5.54
   0   1   5  106.45    5.76
   0  -1  -5  111.98    6.03
   0  -1  -5  106.14    5.74
   0   1   6  109.31    5.96
   0  -1  -6  102.02    5.56
   0   1   7    0.63    0.21
   0   1   7    1.18    0.27
   0  -1  -7    0.69    0.20
   0  -1  -7    0.74    0.21
   0   1   8   23.96    1.66
   0   1   8   22.51    1.55
   0   1   9    1.99    0.38
   0   1   9    2.00    0.40
   0  -1  -9    1.69    0.34
   0  -1  -9    1.98    0.38
   0   1  10   57.86    3.48
   0   1  10   64.64    3.86
   0  -1 -10   64.15    3.78
   0  -1 -10   57.05    3.42
   0   1  11   10.24    0.97
   0   1  11    9.63    0.97
   0  -1 -11    9.62    0.95
   0  -1 -11   10.96    1.02
   0   1  12   19.56    1.56
   0   1  12   23.08    1.75
   0  -1 -12   25.26    1.81
   0  -1 -12   24.30    1.74
   1   1 -12    1.46    0.35
   1   1 -12    1.90    0.40
  -1  -1  12    1.89    0.44
  -1  -1  12    1.02    0.32
   1   1 -11   36.69    2.42
   1   1 -11   37.90    2.45
  -1  -1  11   42.41    2.75
  -1  -1  11   41.12    2.63
   1   1 -10    0.08    0.14
  -1  -1  10    0.21    0.15
  -1  -1  10   -0.09    0.12
   1   1  -9   11.31    0.95
   1   1  -9   10.29    0.91
  -1  -1   9   10.01    0.93
  -1  -1   9   10.68    0.94
   1   1  -8   87.10    4.90
   1   1  -8   90.51    5.06
  -1  -1   8   84.25    4.74
   1   1  -7   27.28    1.75
   1   1  -7   25.56    1.68
  -1  -1   7   28.81    1.84
  -1  -1   7   25.21    1.68
   1   1  -6   64.24    3.62
  -1  -1   6   59.82    3.41
   1   1  -5   10.00    0.77
   1   1  -5   11.65    0.86
  -1  -1   5   10.90    0.84
  -1  -1   5   10.91    0.82
   1   1  -4    0.09    0.08
   1   1  -4    0.15    0.10
  -1  -1   4    0.07    0.08
  -1  -1   4   -0.05    0.05
   1   1  -3   30.45    1.77
   1   1  -3   28.74    1.69
  -1  -1   3   29.56    1.72
  -1  -1   3   29.72    1.73
   1   1  -2   33.58    1.89
   1   1  -2   31.53    1.78
  -1  -1   2   32.07    1.81
  -1  -1   2   34.63    1.94
   1   1  -1   48.16    2.61
   1   1  -1   55.04    2.96
  -1  -1   1   56.97    3.06
  -1  -1   1   54.65    2.94
   1   1   0  852.20   43.77
   1   1   0  871.55   44.75
  -1  -1   0  861.82   44.26
  -1  -1   0  837.87   43.03
   1   1   1    6.68    0.45
   1   1   1    7.65    0.50
  -1  -1  -1    6.84    0.45
  -1  -1  -1    6.00    0.42
   1   1   2    4.74    0.36
   1   1   2    4.84    0.37
   1   1   3    1.41    0.19
   1   1   3    1.47    0.19
  -1  -1  -3    1.69    0.21
  -1  -1  -3    1.58    0.20
   1   1   4 1414.54   72.64
   1   1   4 1386.90   71.24
  -1  -1  -4 1353.12   69.52
  -1  -1  -4 1353.12   69.53
   1   1   5    1.76    0.26
   1   1   5    1.37    0.24
  -1  -1  -5    1.58    0.26
  -1  -1  -5    1.89    0.27
  -1  -1  -6   68.93    3.85
  -1  -1  -6   66.00    3.68
   1   1   7   32.17    2.00
  -1  -1  -7   31.47    1.95
   1   1   8    2.66    0.41
   1   1   8    2.85    0.43
  -1  -1  -8    3.43    0.45
  -1  -1  -8    2.78    0.40
   1   1   9   36.83    2.33
   1   1   9   36.00    2.26
  -1  -1  -9   33.92    2.17
  -1  -1  -9   42.44    2.59
   1   1  10   14.65    1.22
   1   1  10   14.42    1.17
  -1  -1 -10   15.81    1.23
  -1  -1 -10   14.89    1.20
   1   1  11    2.75    0.49
  -1  -1 -11    2.17    0.41
   2   1 -12   16.39    1.33
   2   1 -12   15.63    1.30
  -2  -1  12   15.51    1.34
  -2  -1  12   16.41    1.34
   2   1 -11   11.42    1.01
   2   1 -11   12.24    1.10
  -2  -1  11   12.96    1.16
  -2  -1  11   11.15    1.04
   2   1 -10    4.80    0.60
   2   1 -10    5.91    0.73
  -2  -1  10    5.82    0.72
  -2  -1  10    5.80    0.70
   2   1  -9   -0.06    0.07
   2   1  -9    0.06    0.10
  -2  -1   9    0.09    0.16
   2   1  -8 1046.06   54.05
   2   1  -8  965.20   49.89
  -2  -1   8 1001.33   51.78
  -2  -1   8  931.73   48.17
   2   1  -7   10.14    0.87
   2   1  -7   11.49    0.93
  -2  -1   7   13.56    1.05
  -2  -1   7   11.24    0.94
   2   1  -6    0.01    0.08
   2   1  -6    0.02    0.10
  -2  -1   6   -0.01    0.09
  -2  -1   6    0.13    0.12
   2   1  -5   48.78    2.81
  -2  -1   5   44.79    2.62
   2   1  -4    0.71    0.17
   2   1  -4    1.16    0.23
  -2  -1   4    1.26    0.24
  -2  -1   4    1.45    0.25
   2   1  -3 1209.83   62.21
   2   1  -3 1115.66   57.38
  -2  -1   3 1136.13   58.42
  -2  -1   3 1096.22   56.39
  -2  -1   2  334.80   17.36
  -2  -1   2  362.33   18.77
   2   1  -1   48.19    2.64
   2   1  -1   41.22    2.28
  -2  -1   1   46.11    2.54
  -2  -1   1   43.51    2.41
   2   1   0  370.22   19.10
   2   1   0  403.69   20.82
  -2  -1   0  386.49   19.95
  -2  -1   0  367.76   18.99
   2   1   1  498.16   25.64
   2   1   1  538.18   27.71
   2   1   2   90.10    4.75
   2   1   2   94.80    4.98
  -2  -1  -2   90.98    4.79
  -2  -1  -2   93.51    4.92
   2   1   3  267.14   13.84
   2   1   3  311.16   16.09
  -2  -1  -3  272.26   14.11
  -2  -1  -3  253.22   13.12
   2   1   4    9.09    0.64
   2   1   4    8.64    0.61
  -2  -1  -4    8.22    0.60
  -2  -1  -4    9.52    0.66
   2   1   5   14.16    0.95
   2   1   5   13.87    0.92
  -2  -1  -5   13.83    0.91
  -2  -1  -5   13.44    0.91
   2   1   6   28.15    1.72
   2   1   6   23.80    1.48
  -2  -1  -6   24.04    1.50
  -2  -1  -6   23.38    1.44
   2   1   7   17.13    1.19
   2   1   7   14.83    1.04
  -2  -1  -7   17.62    1.19
   2   1   8    2.44    0.38
   2   1   8    3.28    0.45
  -2  -1  -8    2.74    0.40
  -2  -1  -8    3.61    0.47
   2   1   9   43.43    2.66
   2   1   9   43.40    2.64
  -2  -1  -9   43.43    2.63
  -2  -1  -9   44.90    2.70
   2   1  10    6.98    0.75
   2   1  10    8.65    0.88
  -2  -1 -10    7.28    0.74
  -2  -1 -10    7.57    0.77
   2   1  11    3.82    0.57
   3   1 -11   18.75    1.48
   3   1 -11   17.89    1.37
  -3  -1  11   18.51    1.45
  -3  -1  11   17.38    1.37
   3   1 -10   16.95    1.30
   3   1 -10   15.24    1.25
  -3  -1  10   15.10    1.27
   3   1  -9    2.60    0.43
   3   1  -9    1.75    0.40
  -3  -1   9    2.26    0.45
  -3  -1   9    1.76    0.50
   3   1  -8  367.86   19.34
   3   1  -8  347.70   18.29
   3   1  -7  152.92    8.26
   3   1  -7  145.75    7.92
  -3  -1   7  151.28    8.22
  -3  -1   7  147.90    8.01
   3   1  -6    8.23    0.75
   3   1  -6    7.18    0.68
  -3  -1   6    6.93    0.67
  -3  -1   6    8.44    0.78
   3   1  -5   23.72    1.57
   3   1  -5   23.73    1.55
  -3  -1   5   23.22    1.54
  -3  -1   5   22.54    1.50
   3   1  -4  280.76   14.71
  -3  -1   4  287.41   15.05
   3   1  -3 2445.25  125.49
   3   1  -3 2345.96  120.47
  -3  -1   3 2396.12  123.03
  -3  -1   3 2395.09  122.93
   3   1  -2  134.60    7.14
   3   1  -2  144.83    7.67
  -3  -1   2  108.09    5.79
  -3  -1   2  112.08    6.00
   3   1  -1  268.58   13.97
   3   1  -1  297.65   15.46
  -3  -1   1  298.47   15.50
  -3  -1   1  270.83   14.09
   3   1   0  134.60    7.07
   3   1   0  130.50    6.87
  -3  -1   0  136.75    7.19
  -3  -1   0  130.40    6.87
   3   1   1   12.70    0.80
   3   1   1   13.46    0.83
  -3  -1  -1   13.87    0.86
  -3  -1  -1   12.72    0.80
   3   1   2   81.93    4.33
   3   1   2   88.71    4.70
  -3  -1  -2   81.73    4.33
  -3  -1  -2   83.58    4.42
   3   1   3   74.94    3.98
   3   1   3   83.26    4.42
  -3  -1  -3   78.95    4.19
   3   1   4   78.33    4.19
   3   1   4   71.32    3.82
  -3  -1  -4   71.04    3.82
  -3  -1  -4   70.64    3.78
   3   1   5  213.41   11.14
   3   1   5  214.74   11.21
  -3  -1  -5  210.65   11.00
  -3  -1  -5  232.14   12.08
   3   1   6    2.81    0.32
   3   1   6    2.95    0.35
  -3  -1  -6    2.81    0.32
  -3  -1  -6    2.34    0.31
   3   1   7    4.72    0.47
   3   1   7    4.18    0.45
  -3  -1  -7    5.11    0.50
  -3  -1  -7    4.55    0.45
   3   1   8    2.33    0.35
   3   1   8    1.95    0.33
  -3  -1  -8    2.11    0.32
  -3  -1  -8    1.94    0.31
   3   1   9    1.08    0.26
  -3  -1  -9    1.15    0.26
   3   1  10    5.42    0.62
   3   1  10    6.57    0.70
   4   1 -11    5.96    0.74
   4   1 -11    5.18    0.66
  -4  -1  11    5.15    0.76
   4   1 -10    6.54    0.76
   4   1 -10    7.57    0.77
  -4  -1  10    6.19    0.73
  -4  -1  10    5.35    0.70
   4   1  -9   41.99    2.66
   4   1  -9   37.90    2.41
  -4  -1   9   37.78    2.43
  -4  -1   9   45.68    2.87
   4   1  -8   29.90    2.00
  -4  -1   8   28.74    1.95
   4   1  -7   28.33    1.89
   4   1  -7   28.43    1.87
  -4  -1   6   41.27    2.52
  -4  -1   6   45.67    2.77
   4   1  -5    0.25    0.13
   4   1  -5    0.02    0.08
  -4  -1   5    0.16    0.12
  -4  -1   5    0.18    0.12
   4   1  -4   27.47    1.76
   4   1  -4   30.02    1.87
  -4  -1   4   25.13    1.64
  -4  -1   4   25.63    1.65
   4   1  -3   83.10    4.60
  -4  -1   3   83.60    4.63
   4   1  -2    2.86    0.34
   4   1  -2    3.19    0.37
  -4  -1   2    2.36    0.31
  -4  -1   2    3.22    0.38
   4   1  -1   63.24    3.50
   4   1  -1   60.86    3.36
  -4  -1   1   62.21    3.44
  -4  -1   1   64.00    3.54
   4   1   0  127.23    6.72
   4   1   0  115.56    6.14
  -4  -1   0  126.82    6.71
  -4  -1   0  123.54    6.56
   4   1   1   53.65    2.93
   4   1   1   56.12    3.07
  -4  -1  -1   51.43    2.82
  -4  -1  -1   52.41    2.87
   4   1   2   12.99    0.81
   4   1   2   11.75    0.75
  -4  -1  -2   12.12    0.77
  -4  -1  -2   12.23    0.78
   4   1   3  108.70    5.71
   4   1   3  108.29    5.69
  -4  -1  -3   99.25    5.22
  -4  -1  -3  107.68    5.65
   4   1   4   30.16    1.68
   4   1   4   31.12    1.73
  -4  -1  -4   31.47    1.74
  -4  -1  -4   27.54    1.55
   4   1   5 1290.69   66.31
   4   1   5 1155.58   59.36
  -4  -1  -5 1274.31   65.47
  -4  -1  -5 1264.08   64.95
   4   1   6   20.26    1.21
   4   1   6   23.01    1.34
  -4  -1  -6   23.45    1.37
  -4  -1  -6   22.70    1.32
   4   1   7   88.45    4.74
   4   1   7   91.50    4.88
  -4  -1  -7   86.06    4.61
  -4  -1  -7   83.34    4.47
   4   1   8    0.57    0.14
   4   1   8    0.80    0.17
  -4  -1  -8    0.47    0.13
  -4  -1  -8    0.50    0.12
   4   1   9    0.32    0.12
   4   1   9    0.24    0.10
   5   1 -10  103.68    5.82
   5   1 -10  107.47    6.07
  -5  -1  10   96.91    5.55
  -5  -1  10   88.32    5.06
   5   1  -9    2.27    0.42
   5   1  -9    3.25    0.48
  -5  -1   9    2.86    0.50
  -5  -1   9    2.26    0.43
   5   1  -8    0.09    0.11
   5   1  -8   -0.03    0.08
  -5  -1   8   -0.07    0.10
  -5  -1   8    0.06    0.12
   5   1  -7   99.98    5.61
   5   1  -7   84.51    4.80
  -5  -1   7   91.60    5.17
  -5  -1   7  105.94    5.95
   5   1  -6    1.62    0.33
   5   1  -6    0.98    0.28
  -5  -1   6    1.44    0.34
  -5  -1   6    1.41    0.31
   5   1  -5   23.34    1.60
   5   1  -5   20.34    1.41
  -5  -1   5   21.70    1.50
  -5  -1   5   22.00    1.54
   5   1  -4   24.42    1.61
   5   1  -4   24.29    1.63
  -5  -1   4   24.87    1.64
  -5  -1   4   23.07    1.57
   5   1  -3   17.36    1.24
   5   1  -3   16.59    1.17
  -5  -1   3   16.44    1.19
  -5  -1   3   15.94    1.14
   5   1  -2   39.36    2.35
  -5  -1   2   39.83    2.37
   5   1  -1   49.87    2.84
   5   1  -1   47.10    2.71
  -5  -1   1   50.29    2.92
  -5  -1   1   47.32    2.72
  -5  -1   0  126.51    6.73
  -5  -1   0  113.61    6.09
   5   1   1    6.90    0.53
   5   1   1    5.54    0.47
  -5  -1  -1    6.15    0.50
  -5  -1  -1    6.78    0.53
   5   1   2   32.16    1.82
   5   1   2   33.31    1.87
  -5  -1  -2   30.13    1.72
  -5  -1  -2   33.12    1.86
   5   1   3   17.12    1.00
   5   1   3   17.12    1.00
  -5  -1  -3   16.94    0.99
  -5  -1  -3   17.13    1.00
   6   1  -9    0.66    0.24
   6   1  -9    0.23    0.16
  -6  -1   9    0.43    0.20
  -6  -1   9    0.21    0.20
   6   1  -8   11.91    1.05
   6   1  -8   11.01    0.97
  -6  -1   8   12.28    1.10
  -6  -1   8   15.35    1.22
   6   1  -7   52.91    3.21
   6   1  -7   55.77    3.33
  -6  -1   7   53.54    3.23
  -6  -1   7   57.32    3.47
  -6  -1   6   27.72    1.86
  -6  -1   6   25.72    1.79
   6   1  -5   17.92    1.31
   6   1  -5   19.32    1.41
  -6  -1   5   18.45    1.38
  -6  -1   5   17.36    1.29
   6   1  -4   32.16    2.07
   6   1  -4   34.87    2.18
  -6  -1   4   35.53    2.23
  -6  -1   4   35.67    2.28
   6   1  -3  131.73    7.14
   6   1  -3  143.09    7.76
   6   1  -2  642.79   33.35
  -6  -1   2  617.09   32.01
  -6  -1   2  671.55   34.77
   6   1  -1    4.45    0.48
  -6  -1   1    5.01    0.51
   6   1   0    0.64    0.17
   6   1   0    0.72    0.18
  -6  -1   0    0.72    0.18
  -6  -1   0    0.60    0.18
   6   1   1   21.00    1.33
   6   1   1   24.17    1.47
  -6  -1  -1   20.02    1.28
  -6  -1  -1   23.79    1.45
   6   1   2   71.85    3.87
   6   1   2   68.45    3.72
  -6  -1  -2   65.49    3.56
  -6  -1  -2   69.37    3.74
   6   1   3   20.97    1.18
   6   1   3   22.18    1.24
  -6  -1  -3   22.88    1.28
  -6  -1  -3   21.00    1.17
   7   1  -9   10.09    0.96
  -7  -1   9    6.02    0.75
  -7  -1   8    6.53    0.75
  -7  -1   8    7.43    0.84
  -7  -1   7   61.09    3.63
  -7  -1   7   65.11    3.89
   7   1  -6    3.41    0.49
   7   1  -6    3.77    0.54
  -7  -1   6    3.51    0.54
  -7  -1   6    4.27    0.58
   7   1  -5    9.52    0.89
   7   1  -5    8.42    0.80
  -7  -1   5    9.77    0.93
  -7  -1   4   20.10    1.44
  -7  -1   4   19.58    1.44
   7   1  -3  405.02   21.18
   7   1  -3  373.90   19.61
  -7  -1   3  391.30   20.53
  -7  -1   3  367.25   19.25
   7   1  -2  607.06   31.53
   7   1  -2  659.47   34.19
  -7  -1   2  634.90   32.94
  -7  -1   2  601.54   31.26
   7   1  -1   47.97    2.81
   7   1  -1   45.42    2.70
  -7  -1   1   46.68    2.75
  -7  -1   1   48.98    2.91
   7   1   0   52.38    3.03
  -7  -1   0   54.50    3.15
   7   1   1  131.53    7.01
   7   1   1  116.99    6.31
  -7  -1  -1  118.53    6.38
  -7  -1  -1  122.93    6.58
   7   1   2    3.36    0.34
   7   1   2    3.59    0.37
  -7  -1  -2    3.43    0.34
  -7  -1  -2    3.59    0.37
   8   1  -8    0.08    0.12
  -8  -1   8    0.28    0.19
   8   1  -7   23.40    1.69
   8   1  -7   19.68    1.45
  -8  -1   7   22.43    1.63
  -8  -1   7   19.27    1.50
   8   1  -6    0.39    0.19
   8   1  -6    0.04    0.10
  -8  -1   6    0.08    0.15
  -8  -1   6    0.06    0.13
   8   1  -5    3.66    0.54
   8   1  -5    3.72    0.53
  -8  -1   5    4.15    0.57
  -8  -1   5    3.61    0.56
   8   1  -4    0.07    0.12
   8   1  -4   -0.11    0.08
  -8  -1   4    0.11    0.12
  -8  -1   4   -0.09    0.11
   8   1  -3    5.67    0.63
   8   1  -3    5.18    0.63
  -8  -1   3    6.19    0.70
  -8  -1   3    5.94    0.70
   8   1  -2   -0.05    0.05
   8   1  -2   -0.02    0.09
  -8  -1   2   -0.11    0.08
  -8  -1   2    0.06    0.13
   8   1  -1    3.79    0.51
   8   1  -1    3.94    0.50
  -8  -1   1    2.59    0.42
  -8  -1   1    2.94    0.46
   8   1   0    3.30    0.43
   8   1   0    3.31    0.52
  -8  -1   0    2.81    0.41
   8   1   1   23.43    1.48
   8   1   1   23.20    1.51
  -8  -1  -1   23.89    1.55
  -8  -1  -1   21.96    1.41
   8   1   2   41.88    2.35
   8   1   2   40.84    2.27
  -8  -1  -2   40.35    2.27
  -8  -1  -2   40.37    2.25
   9   1  -7   12.75    1.33
  -9  -1   7   15.54    1.38
   9   1  -6  127.12    7.09
   9   1  -6  123.64    6.86
  -9  -1   6  126.51    7.02
  -9  -1   6  132.45    7.41
   9   1  -5    0.01    0.11
   9   1  -5   -0.02    0.09
  -9  -1   5    0.15    0.17
  -9  -1   5    0.05    0.12
   9   1  -4    0.33    0.17
   9   1  -4    0.31    0.17
  -9  -1   4    0.31    0.23
  -9  -1   4    0.26    0.18
   9   1  -3   40.53    2.56
   9   1  -3   37.08    2.43
  -9  -1   3   34.93    2.31
   9   1  -2    0.17    0.14
   9   1  -2    0.28    0.16
  -9  -1   2    0.51    0.21
  -9  -1   2    0.44    0.21
   9   1  -1    1.77    0.35
   9   1  -1    1.44    0.34
  -9  -1   1    1.22    0.30
  -9  -1   1    1.21    0.31
   9   1   0   69.69    3.96
   9   1   0   69.61    4.01
  -9  -1   0   67.06    3.89
  -9  -1   0   69.37    3.96
   9   1   1   32.04    1.94
   9   1   1   31.99    2.00
  10   1  -5    7.02    0.80
  10   1  -5    6.37    0.78
 -10  -1   5    6.15    0.78
 -10  -1   5    6.36    0.77
  10   1  -4   27.31    1.97
  10   1  -4   28.33    1.97
 -10  -1   4   28.76    2.00
 -10  -1   4   28.96    2.04
  10   1  -3    8.21    0.91
  10   1  -3    7.19    0.81
 -10  -1   3    6.93    0.80
 -10  -1   3    6.57    0.80
  10   1  -2   30.38    2.08
  10   1  -2   33.18    2.26
 -10  -1   2   34.20    2.31
 -10  -1   2   30.73    2.10
  10  -2  -3   17.06    1.38
  10  -2  -3   13.99    1.24
 -10   2   4   11.46    1.12
 -10   2   4   14.12    1.21
  10  -2  -4   12.46    1.15
  10  -2  -4   12.08    1.11
 -10   2   5   21.26    1.62
 -10   2   5   24.25    1.81
  10  -2  -5   24.62    1.79
  10  -2  -5   24.64    1.80
   9  -2   0   53.73    3.09
   9  -2   0   48.05    2.93
  -9   2   1    2.37    0.41
  -9   2   1    1.51    0.33
   9  -2  -1    1.93    0.36
   9  -2  -1    2.10    0.37
  -9   2   2   34.55    2.24
  -9   2   2   30.89    2.06
   9  -2  -2   33.44    2.17
   9  -2  -2   31.66    2.09
  -9   2   3    0.26    0.16
   9  -2  -3    0.11    0.12
   9  -2  -3   -0.08    0.12
  -9   2   4    1.02    0.31
  -9   2   4    1.14    0.31
   9  -2  -4    0.61    0.23
   9  -2  -4    0.74    0.25
  -9   2   5   77.20    4.53
  -9   2   5   81.22    4.72
   9  -2  -5   72.02    4.23
   9  -2  -5   66.01    3.94
  -9   2   6  124.77    6.98
  -9   2   6  122.52    6.84
   9  -2  -6  137.46    7.62
   9  -2  -6  114.94    6.45
  -8   2  -1    9.98    0.72
  -8   2  -1   10.00    0.72
   8  -2   1    8.44    0.63
   8  -2   1    9.11    0.67
  -8   2   0    1.57    0.28
   8  -2   0    1.58    0.28
   8  -2   0    1.43    0.28
  -8   2   1    1.35    0.29
  -8   2   1    0.77    0.23
   8  -2  -1    1.07    0.26
   8  -2  -1    0.87    0.24
  -8   2   2    5.03    0.60
  -8   2   2    3.93    0.52
   8  -2  -2    3.79    0.52
   8  -2  -2    5.28    0.61
  -8   2   3   43.49    2.71
  -8   2   3   50.23    3.07
   8  -2  -3   41.01    2.58
   8  -2  -3   48.96    2.98
  -8   2   4   69.04    4.07
  -8   2   4   62.42    3.71
   8  -2  -4   59.38    3.55
   8  -2  -4   63.07    3.74
  -8   2   5   25.99    1.81
  -8   2   5   24.26    1.75
   8  -2  -5   25.56    1.79
   8  -2  -5   25.44    1.79
  -8   2   6    0.20    0.16
  -8   2   6    0.21    0.18
   8  -2  -6    0.26    0.18
   8  -2  -6    0.38    0.19
  -8   2   7    1.60    0.37
  -8   2   7    1.31    0.38
   8  -2  -7    2.05    0.41
   8  -2  -7    1.84    0.39
  -7   2  -1   94.16    5.08
  -7   2  -1   87.54    4.71
   7  -2   1   85.42    4.61
   7  -2   1   86.95    4.67
  -7   2   0    0.00    0.09
  -7   2   0    0.02    0.07
   7  -2   0   -0.08    0.05
   7  -2   0    0.08    0.08
  -7   2   1   47.21    2.77
  -7   2   1   45.27    2.69
   7  -2  -1   49.01    2.89
   7  -2  -1   50.50    2.95
  -7   2   2   99.61    5.52
  -7   2   2  102.87    5.71
   7  -2  -2  103.79    5.74
   7  -2  -2   94.76    5.26
  -7   2   3  189.77   10.18
  -7   2   3  184.54    9.93
   7  -2  -3  173.80    9.38
   7  -2  -3  152.00    8.24
  -7   2   4   -0.01    0.11
  -7   2   4   -0.01    0.12
   7  -2  -4    0.11    0.11
   7  -2  -4    0.18    0.14
  -7   2   5   59.36    3.55
   7  -2  -5   55.83    3.38
   7  -2  -5   55.25    3.36
  -7   2   6    2.11    0.40
  -7   2   6    2.14    0.43
   7  -2  -6    2.68    0.46
   7  -2  -6    2.72    0.46
  -7   2   7    5.13    0.68
  -7   2   7    5.89    0.71
   7  -2  -7    4.78    0.63
   7  -2  -7    4.73    0.61
  -7   2   8   -0.12    0.14
  -7   2   8   -0.12    0.09
   7  -2  -8   -0.06    0.08
   7  -2  -8   -0.08    0.10
  -6   2  -2   86.85    4.54
  -6   2  -2   92.46    4.83
   6  -2   2   88.57    4.64
   6  -2   2   92.56    4.84
  -6   2  -1    9.88    0.70
  -6   2  -1    9.11    0.66
   6  -2   1   10.53    0.73
   6  -2   1   10.11    0.73
  -6   2   0    4.80    0.47
  -6   2   0    4.57    0.45
   6  -2   0    4.54    0.47
   6  -2   0    4.50    0.45
  -6   2   1    1.31    0.26
   6  -2  -1    1.40    0.27
  -6   2   2   61.78    3.55
  -6   2   2   60.22    3.47
   6  -2  -2   61.56    3.54
   6  -2  -2   59.96    3.45
  -6   2   3  838.90   43.41
  -6   2   3  788.33   40.82
  -6   2   4    3.39    0.54
   6  -2  -4    3.37    0.48
   6  -2  -4    2.81    0.44
  -6   2   5    3.25    0.48
  -6   2   5    4.21    0.57
   6  -2  -5    5.29    0.60
   6  -2  -5    4.34    0.54
  -6   2   6    4.94    0.64
   6  -2  -6    4.48    0.58
  -6   2   7  102.31    5.76
  -6   2   7   91.92    5.25
   6  -2  -7   77.35    4.48
   6  -2  -7   90.33    5.15
  -6   2   8    2.22    0.42
  -6   2   8    2.69    0.50
   6  -2  -8    2.93    0.48
   6  -2  -8    2.69    0.47
  -6   2   9    5.72    0.71
  -6   2   9    4.17    0.61
   6  -2  -9    4.87    0.63
   6  -2  -9    5.57    0.69
  -5   2  -2   36.26    1.99
  -5   2  -2   39.41    2.14
   5  -2   2   39.93    2.17
   5  -2   2   39.36    2.15
  -5   2  -1   84.00    4.49
  -5   2  -1   81.13    4.37
   5  -2   1   84.03    4.49
   5  -2   1   81.92    4.41
  -5   2   0    3.29    0.36
  -5   2   0    3.79    0.40
   5  -2   0    3.28    0.36
   5  -2   0    2.45    0.32
  -5   2   1   56.74    3.21
  -5   2   1   52.42    2.98
  -5   2   2   39.59    2.44
   5  -2  -2   40.92    2.46
  -5   2   3    8.16    0.73
  -5   2   3    9.84    0.83
   5  -2  -3    8.49    0.75
   5  -2  -3    8.56    0.77
  -5   2   4  139.41    7.58
  -5   2   4  150.05    8.13
   5  -2  -4  146.47    7.93
   5  -2  -4  151.59    8.21
  -5   2   5   43.09    2.65
  -5   2   5   51.76    3.11
  -5   2   6   23.16    1.64
  -5   2   6   24.60    1.69
   5  -2  -6   19.55    1.44
   5  -2  -6   18.59    1.37
  -5   2   7    6.46    0.75
  -5   2   7    5.06    0.73
   5  -2  -7    5.13    0.61
  -5   2   8   32.08    2.14
  -5   2   8   31.49    2.14
   5  -2  -8   31.12    2.09
   5  -2  -8   33.34    2.19
  -5   2   9   37.68    2.45
  -5   2   9   36.03    2.38
   5  -2  -9   39.19    2.52
   5  -2  -9   32.09    2.15
  -5   2  10    9.77    0.99
  -5   2  10   10.47    1.04
   5  -2 -10   12.77    1.15
   5  -2 -10   14.10    1.18
  -4   2  -3   55.03    2.91
  -4   2  -3   53.81    2.85
   4  -2   3   53.60    2.84
   4  -2   3   52.84    2.78
  -4   2  -2    3.85    0.32
  -4   2  -2    3.66    0.31
   4  -2   2    4.20    0.35
   4  -2   2    3.79    0.31
  -4   2  -1  490.07   25.28
  -4   2  -1  481.17   24.84
   4  -2   1  463.05   23.90
   4  -2   1  453.02   23.40
  -4   2   0  301.74   15.70
  -4   2   0  314.02   16.32
   4  -2   0  302.87   15.76
   4  -2   0  328.76   17.08
  -4   2   1  331.01   17.23
  -4   2   1  353.43   18.39
   4  -2  -1  354.96   18.47
   4  -2  -1  347.29   18.06
  -4   2   2   10.10    0.80
  -4   2   2    9.91    0.79
   4  -2  -2    9.94    0.78
   4  -2  -2   11.77    0.89
  -4   2   3  170.11    9.09
   4  -2  -3  181.47    9.67
  -4   2   4   49.39    2.92
  -4   2   4   43.72    2.64
   4  -2  -4   44.05    2.65
   4  -2  -4   43.12    2.60
  -4   2   5  151.28    8.20
  -4   2   5  161.82    8.73
   4  -2  -5  133.57    7.29
   4  -2  -5  141.56    7.69
  -4   2   6   78.37    4.48
  -4   2   6   74.31    4.27
   4  -2  -6   73.55    4.22
   4  -2  -6   72.60    4.19
  -4   2   7   36.66    2.33
  -4   2   7   39.53    2.51
   4  -2  -7   35.15    2.25
   4  -2  -7   37.76    2.41
  -4   2   8    1.60    0.37
   4  -2  -8    2.75    0.45
  -4   2   9    0.48    0.25
  -4   2   9    0.63    0.24
   4  -2  -9    0.37    0.19
   4  -2  -9    0.72    0.25
  -4   2  10    3.60    0.56
  -4   2  10    3.41    0.56
   4  -2 -10    3.18    0.50
   4  -2 -10    4.22    0.59
  -3   2  -9   22.50    1.43
  -3   2  -9   24.62    1.57
   3  -2   9   20.42    1.40
   3  -2   9   20.54    1.36
  -3   2  -8   19.62    1.27
  -3   2  -8   19.93    1.26
   3  -2   8   18.44    1.26
   3  -2   8   19.81    1.27
  -3   2  -7    1.36    0.21
  -3   2  -7    1.63    0.25
   3  -2   7    1.49    0.23
   3  -2   7    1.31    0.24
  -3   2  -6   18.37    1.12
  -3   2  -6   17.76    1.10
   3  -2   6   18.25    1.14
   3  -2   6   18.05    1.11
  -3   2  -5   51.14    2.77
  -3   2  -5   48.18    2.63
   3  -2   5   49.94    2.71
   3  -2   5   48.95    2.68
  -3   2  -4    5.71    0.42
  -3   2  -4    6.27    0.44
   3  -2   4    6.07    0.43
   3  -2   4    5.94    0.43
  -3   2  -3  111.16    5.82
  -3   2  -3  111.57    5.85
   3  -2   3  112.59    5.91
   3  -2   3  111.57    5.85
  -3   2  -2   37.52    2.07
  -3   2  -2   39.97    2.20
   3  -2   2   36.32    2.01
   3  -2   2   39.54    2.17
  -3   2  -1 1277.38   65.62
  -3   2  -1 1277.38   65.63
   3  -2   1 1168.89   60.05
   3  -2   1 1237.46   63.55
  -3   2   0    1.27    0.19
  -3   2   0    1.61    0.21
   3  -2   0    1.29    0.19
   3  -2   0    0.97    0.18
  -3   2   1    0.09    0.08
  -3   2   1    0.10    0.09
   3  -2  -1    0.07    0.08
   3  -2  -1    0.09    0.10
  -3   2   2   64.87    3.60
  -3   2   2   68.98    3.82
   3  -2  -2   65.15    3.61
   3  -2  -2   61.81    3.49
  -3   2   3    6.35    0.59
   3  -2  -3    6.04    0.56
   3  -2  -4  307.68   16.14
   3  -2  -4  341.04   17.85
  -3   2   5    0.39    0.18
  -3   2   5    0.36    0.16
   3  -2  -5    0.45    0.18
   3  -2  -5    0.63    0.20
  -3   2   6   31.44    2.03
  -3   2   6   39.20    2.44
   3  -2  -6   27.20    1.79
   3  -2  -6   29.88    1.95
  -3   2   7  393.04   20.62
  -3   2   7  408.80   21.43
  -3   2   8   95.11    5.39
  -3   2   8  106.24    5.95
   3  -2  -8   94.69    5.36
   3  -2  -8   96.07    5.41
  -3   2   9    0.58    0.24
  -3   2   9    0.75    0.27
   3  -2  -9    0.81    0.26
   3  -2  -9    0.90    0.28
  -3   2  10    9.98    0.94
  -3   2  10   13.04    1.16
  -3   2  11    7.75    0.88
  -3   2  11    7.30    0.83
   3  -2 -11   10.27    0.96
   3  -2 -11    7.74    0.84
  -2   2 -10   50.13    3.05
  -2   2 -10   55.97    3.29
   2  -2  10   55.42    3.35
   2  -2  10   61.88    3.61
  -2   2  -9    0.33    0.15
  -2   2  -9    0.41    0.18
   2  -2   9   -0.02    0.11
   2  -2   9    0.29    0.14
  -2   2  -8  100.34    5.52
  -2   2  -8   96.64    5.32
   2  -2   8   96.77    5.38
  -2   2  -7   92.32    5.03
  -2   2  -7   90.03    4.92
   2  -2   7   86.40    4.77
   2  -2   7   85.27    4.68
  -2   2  -6   24.58    1.50
  -2   2  -6   22.03    1.38
   2  -2   6   21.56    1.37
   2  -2   6   24.07    1.48
  -2   2  -5  122.21    6.48
  -2   2  -5  110.85    5.91
   2  -2   5  111.36    5.95
   2  -2   5  122.42    6.50
  -2   2  -4  236.95   12.32
  -2   2  -4  216.07   11.27
   2  -2   4  228.35   11.89
   2  -2   4  245.34   12.76
  -2   2  -3    1.37    0.19
  -2   2  -3    1.38    0.19
   2  -2   3    1.49    0.19
   2  -2   3    1.46    0.19
  -2   2  -2   46.88    2.57
  -2   2  -2   46.75    2.55
   2  -2   2   48.16    2.63
   2  -2   2   43.95    2.42
  -2   2  -1   65.41    3.52
  -2   2  -1   64.82    3.49
   2  -2   1   76.69    4.12
   2  -2   1   63.18    3.41
  -2   2   0  146.57    7.70
  -2   2   0  146.98    7.73
   2  -2   0  145.75    7.66
   2  -2   0  152.20    7.98
  -2   2   1   17.82    1.13
  -2   2   1   18.64    1.17
   2  -2  -1   17.65    1.13
   2  -2  -1   18.84    1.17
  -2   2   2    0.11    0.09
  -2   2   2    0.08    0.09
   2  -2  -2   -0.06    0.06
   2  -2  -2    0.23    0.11
  -2   2   3  194.37   10.27
  -2   2   3  184.14    9.73
   2  -2  -3  207.68   10.93
   2  -2  -3  204.20   10.78
  -2   2   4   40.84    2.43
   2  -2  -4   41.29    2.47
  -2   2   5   70.35    3.99
  -2   2   5   78.39    4.40
   2  -2  -5   83.33    4.66
   2  -2  -5   82.22    4.60
  -2   2   6   23.91    1.62
  -2   2   6   23.09    1.58
   2  -2  -6   18.18    1.30
   2  -2  -6   20.11    1.42
   2  -2  -7  732.24   37.98
   2  -2  -7  754.56   39.10
  -2   2   8  132.04    7.26
  -2   2   8  136.23    7.49
   2  -2  -8  156.40    8.49
   2  -2  -8  151.38    8.26
  -2   2   9   87.34    5.01
   2  -2  -9  103.79    5.89
  -2   2  10   19.93    1.56
  -2   2  10   16.65    1.34
   2  -2 -10   18.56    1.41
   2  -2 -10   18.16    1.39
  -2   2  11   18.20    1.44
  -2   2  11   21.97    1.60
   2  -2 -11   20.76    1.55
   2  -2 -11   19.14    1.49
  -1   2 -11    1.53    0.36
  -1   2 -11    1.06    0.29
   1  -2  11    0.51    0.26
   1  -2  11    0.64    0.25
  -1   2 -10    2.26    0.40
  -1   2 -10    2.30    0.42
   1  -2  10    2.17    0.41
   1  -2  10    1.73    0.39
  -1   2  -9   31.68    2.03
  -1   2  -9   32.08    2.08
   1  -2   9   38.65    2.56
   1  -2   9   30.64    2.01
  -1   2  -8  302.76   15.93
  -1   2  -8  309.21   16.22
   1  -2   8  327.12   17.15
   1  -2   8  318.94   16.78
  -1   2  -7   -0.01    0.07
   1  -2   7    0.04    0.09
  -1   2  -6    0.09    0.10
  -1   2  -6    0.07    0.08
   1  -2   6    0.00    0.07
   1  -2   6    0.21    0.11
  -1   2  -5  137.46    7.30
  -1   2  -5  114.02    6.12
   1  -2   5  120.16    6.44
   1  -2   5  129.48    6.90
  -1   2  -4   23.40    1.41
  -1   2  -4   20.01    1.25
   1  -2   4   19.51    1.22
   1  -2   4   21.59    1.32
  -1   2  -3   34.50    1.95
  -1   2  -3   31.98    1.84
   1  -2   3   33.74    1.92
   1  -2   3   35.44    2.02
  -1   2  -2    0.38    0.11
  -1   2  -2    0.55    0.12
   1  -2   2    0.51    0.12
   1  -2   2    0.54    0.12
  -1   2  -1   19.07    1.15
  -1   2  -1   20.80    1.24
   1  -2   1   18.03    1.10
   1  -2   1   20.55    1.22
  -1   2   0 5483.12  280.96
  -1   2   0 5134.10  263.15
   1  -2   0 5569.10  285.36
   1  -2   0 5241.57  268.68
  -1   2   1   95.54    5.11
  -1   2   1  108.29    5.75
  -1   2   2    4.97    0.45
  -1   2   2    4.24    0.40
   1  -2  -2    5.61    0.49
   1  -2  -2    4.71    0.43
  -1   2   3   77.31    4.23
  -1   2   3   83.50    4.55
   1  -2  -3   71.82    3.95
   1  -2  -3   78.73    4.32
  -1   2   4   68.62    3.82
   1  -2  -4   74.32    4.11
  -1   2   5  226.41   11.95
  -1   2   5  214.02   11.34
   1  -2  -5  232.96   12.29
   1  -2  -5  242.89   12.81
  -1   2   6   93.66    5.21
  -1   2   6   85.95    4.81
   1  -2  -6   96.26    5.31
   1  -2  -6   88.18    4.92
  -1   2   7  142.78    7.77
  -1   2   7  121.29    6.66
   1  -2  -7  108.29    5.98
   1  -2  -7  123.34    6.78
  -1   2   8    0.09    0.11
  -1   2   8   -0.04    0.10
   1  -2  -8   -0.05    0.06
   1  -2  -8   -0.05    0.09
  -1   2   9    1.74    0.38
  -1   2   9    0.95    0.29
   1  -2  -9    1.59    0.34
   1  -2  -9    1.06    0.29
  -1   2  10    0.55    0.25
  -1   2  10    0.79    0.27
   1  -2 -10    1.29    0.32
   1  -2 -10    0.57    0.21
  -1   2  11   29.48    2.02
  -1   2  11   31.04    2.13
   1  -2 -11   38.27    2.47
   1  -2 -11   31.27    2.12
  -1   2  12   54.38    3.36
  -1   2  12   52.79    3.29
   1  -2 -12   59.19    3.61
   1  -2 -12   56.16    3.41
   0  -2  12   10.18    1.08
   0  -2  12   10.98    1.08
   0   2 -11    7.80    0.82
   0  -2  11    6.07    0.93
   0  -2  11    7.21    0.81
   0   2 -10    6.05    0.69
   0   2 -10    6.37    0.74
   0  -2  10    5.69    0.73
   0  -2  10    6.63    0.76
   0   2  -9   23.53    1.62
   0   2  -9   22.75    1.60
   0  -2   9   20.93    1.53
   0  -2   9   24.09    1.67
   0   2  -8    0.25    0.13
   0   2  -8    0.32    0.15
   0  -2   8    0.27    0.16
   0  -2   8    0.30    0.17
   0   2  -7   33.66    2.08
   0   2  -7   31.62    2.00
   0  -2   7   33.44    2.08
   0  -2   7   31.16    1.99
   0   2  -6   -0.04    0.06
   0  -2   6   -0.05    0.06
   0   2  -5  301.33   15.75
   0   2  -5  263.15   13.78
   0  -2   5  286.18   14.97
   0  -2   5  298.87   15.62
   0   2  -4   16.70    1.10
   0   2  -4   16.33    1.08
   0  -2   4   17.24    1.13
   0  -2   4   15.30    1.02
   0   2  -3   27.73    1.65
   0   2  -3   26.36    1.57
   0  -2   3   26.81    1.60
   0  -2   3   24.36    1.46
   0   2  -2 1991.82  102.23
   0   2  -2 1980.56  101.62
   0  -2   2 2071.65  106.35
   0  -2   2 1995.91  102.46
   0   2  -1  282.81   14.68
   0   2  -1  304.91   15.81
   0  -2   1  281.17   14.60
   0  -2   1  301.95   15.66
   0   2   0 9999.00  512.28
   0  -2  -1  292.02   15.16
   0  -2  -1  305.02   15.83
   0   2   2 1851.59   95.04
   0   2   2 1777.90   91.29
   0  -2  -2 1858.76   95.40
   0  -2  -2 1732.86   88.96
   0   2   3   30.42    1.82
   0   2   3   30.59    1.82
   0   2   4   15.28    1.04
   0   2   4   16.29    1.11
   0  -2  -4   14.10    1.00
   0  -2  -4   17.52    1.16
   0   2   5  283.21   14.85
   0  -2  -5  260.59   13.67
   0  -2  -5  283.73   14.90
   0   2   6    0.01    0.09
   0   2   6   -0.03    0.06
   0  -2  -6    0.02    0.09
   0  -2  -6   -0.01    0.10
   0   2   7   31.34    1.99
   0   2   7   34.69    2.19
   0  -2  -7   32.99    2.10
   0  -2  -7   34.42    2.15
   0   2   8    0.09    0.12
   0   2   8    0.51    0.19
   0  -2  -8    0.45    0.18
   0  -2  -8    0.10    0.13
   0   2   9   20.70    1.51
   0   2   9   21.45    1.53
   0  -2  -9   22.45    1.61
   0  -2  -9   20.13    1.45
   0   2  10    6.53    0.87
   0  -2 -10    4.79    0.67
   0  -2 -10    6.77    0.76
   0   2  11    7.57    0.86
   0   2  11    8.26    0.88
   0  -2 -11    7.31    0.82
   0  -2 -11    7.96    0.84
   0   2  12   12.45    1.19
   0   2  12   11.12    1.13
   0  -2 -12   12.36    1.15
   0  -2 -12   11.60    1.07
   1   2 -12   58.82    3.57
   1   2 -12   60.17    3.64
  -1  -2  12   55.42    3.41
  -1  -2  12   58.44    3.63
   1   2 -11   37.47    2.48
   1   2 -11   31.22    2.09
  -1  -2  11   31.42    2.19
  -1  -2  11   33.30    2.21
   1   2 -10    0.98    0.30
   1   2 -10    0.92    0.27
  -1  -2  10    0.75    0.30
   1   2  -9    1.04    0.28
   1   2  -9    1.60    0.33
  -1  -2   9    1.04    0.29
  -1  -2   9    1.67    0.37
   1   2  -8    0.18    0.15
   1   2  -8    0.01    0.08
  -1  -2   8    0.01    0.09
  -1  -2   8    0.10    0.14
   1   2  -7  121.29    6.61
   1   2  -7  124.26    6.79
  -1  -2   7  126.51    6.89
  -1  -2   7  125.59    6.87
   1   2  -6   82.46    4.58
   1   2  -6   90.81    5.04
  -1  -2   6   88.97    4.93
  -1  -2   6   82.19    4.60
   1   2  -5  265.40   13.92
  -1  -2   5  230.71   12.16
   1   2  -4   74.68    4.12
   1   2  -4   70.92    3.92
  -1  -2   4   69.46    3.86
  -1  -2   4   70.58    3.91
   1   2  -3   79.97    4.35
   1   2  -3   75.91    4.16
  -1  -2   3   68.49    3.77
  -1  -2   3   73.17    4.01
   1   2  -2    5.21    0.46
   1   2  -2    5.19    0.45
  -1  -2   2    4.92    0.44
  -1  -2   2    4.58    0.42
   1   2  -1   90.97    4.87
   1   2  -1   96.01    5.13
  -1  -2   1   92.90    4.97
  -1  -2   1   97.86    5.23
   1   2   0 5281.49  270.62
   1   2   0 5273.30  270.22
  -1  -2   0 5218.03  267.45
  -1  -2   0 5475.96  280.66
   1   2   1   18.12    1.13
   1   2   1   17.35    1.08
  -1  -2  -1   17.18    1.07
  -1  -2  -1   19.42    1.19
   1   2   2    0.54    0.14
   1   2   2    0.28    0.11
  -1  -2  -2    0.49    0.14
  -1  -2  -2    0.37    0.12
   1   2   3   30.58    1.80
   1   2   3   34.48    2.01
  -1  -2  -3   34.66    2.02
  -1  -2  -3   30.72    1.80
   1   2   4   20.82    1.34
   1   2   4   20.04    1.29
  -1  -2  -4   21.61    1.38
  -1  -2  -4   17.05    1.12
   1   2   5  119.24    6.43
   1   2   5  124.97    6.77
  -1  -2  -5  125.38    6.72
  -1  -2  -6    0.13    0.11
   1   2   7    0.11    0.12
   1   2   7    0.05    0.13
  -1  -2  -7   -0.03    0.07
  -1  -2  -7    0.06    0.10
   1   2   8  312.08   16.46
   1   2   8  295.80   15.59
  -1  -2  -8  329.27   17.34
  -1  -2  -8  328.97   17.27
  -1  -2  -9   25.99    1.75
  -1  -2  -9   26.00    1.79
   1   2  10    1.75    0.38
   1   2  10    1.48    0.36
  -1  -2 -10    1.75    0.36
  -1  -2 -10    1.76    0.38
   1   2  11    0.90    0.30
   1   2  11    0.60    0.24
  -1  -2 -11    1.14    0.30
  -1  -2 -11    1.27    0.33
   2   2 -12   37.37    2.45
  -2  -2  12   36.46    2.43
  -2  -2  12   35.79    2.43
   2   2 -11   18.87    1.47
   2   2 -11   21.15    1.57
  -2  -2  11   20.44    1.60
  -2  -2  11   23.80    1.71
   2   2 -10   17.84    1.36
   2   2 -10   16.58    1.33
  -2  -2  10   20.73    1.58
  -2  -2  10   18.37    1.40
   2   2  -9   96.05    5.44
  -2  -2   9   97.84    5.55
  -2  -2   9   97.25    5.50
  -2  -2   8  138.69    7.63
  -2  -2   8  143.60    7.82
   2   2  -7  754.25   39.09
   2   2  -7  790.69   40.93
  -2  -2   7  747.60   38.72
  -2  -2   7  680.25   35.30
   2   2  -6   20.77    1.41
   2   2  -6   21.65    1.48
  -2  -2   6   19.28    1.36
  -2  -2   6   22.01    1.48
   2   2  -5   73.52    4.14
   2   2  -5   78.09    4.35
  -2  -2   5   78.70    4.39
  -2  -2   5   76.06    4.27
   2   2  -4   40.38    2.40
   2   2  -4   42.86    2.53
  -2  -2   4   40.33    2.40
  -2  -2   3  208.70   10.98
  -2  -2   3  207.98   10.95
   2   2  -2    0.08    0.09
   2   2  -2   -0.01    0.07
  -2  -2   2    0.00    0.09
  -2  -2   2    0.14    0.09
   2   2  -1   18.31    1.17
   2   2  -1   14.93    0.98
  -2  -2   1   15.94    1.04
  -2  -2   1   16.76    1.08
   2   2   0  148.21    7.82
   2   2   0  133.37    7.05
  -2  -2   0  147.90    7.80
  -2  -2   0  156.60    8.25
   2   2   1   65.04    3.55
   2   2   1   67.73    3.68
  -2  -2  -1   67.97    3.71
  -2  -2  -1   64.54    3.52
   2   2   2   41.72    2.35
   2   2   2   45.10    2.53
  -2  -2  -2   46.78    2.62
  -2  -2  -2   47.15    2.63
   2   2   3    1.36    0.21
   2   2   3    1.50    0.24
  -2  -2  -3    1.88    0.26
  -2  -2  -3    1.56    0.24
   2   2   4  237.67   12.44
   2   2   4  196.52   10.35
  -2  -2  -4  211.77   11.11
  -2  -2  -4  240.74   12.61
   2   2   5  113.82    6.15
   2   2   5  112.18    6.05
  -2  -2  -5  128.35    6.86
  -2  -2  -5  114.33    6.17
   2   2   6   22.62    1.46
  -2  -2  -6   23.20    1.48
   2   2   7   86.07    4.78
   2   2   7   86.65    4.83
  -2  -2  -7   87.48    4.88
  -2  -2  -7   97.24    5.33
   2   2   8   95.80    5.31
   2   2   8   82.26    4.66
  -2  -2  -8   92.50    5.19
  -2  -2  -8   94.13    5.22
   2   2   9    0.08    0.13
   2   2   9    0.16    0.15
  -2  -2  -9    0.28    0.17
  -2  -2  -9    0.36    0.17
   2   2  10   57.53    3.48
   2   2  10   57.10    3.40
  -2  -2 -10   49.56    3.02
  -2  -2 -10   55.49    3.35
   3   2 -11    9.20    0.93
   3   2 -11    7.67    0.82
  -3  -2  11    8.15    0.90
  -3  -2  11    8.79    0.91
   3   2 -10   11.64    1.02
   3   2 -10   11.34    1.03
  -3  -2  10   11.24    1.05
  -3  -2  10   13.48    1.14
   3   2  -9    1.01    0.29
   3   2  -9    1.01    0.27
  -3  -2   9    0.72    0.25
  -3  -2   9    0.52    0.24
   3   2  -8   94.33    5.29
   3   2  -8  106.24    5.96
  -3  -2   8  106.96    5.96
  -3  -2   8   99.72    5.63
   3   2  -7  379.12   19.90
   3   2  -7  380.25   19.92
  -3  -2   7  449.23   23.47
  -3  -2   7  370.93   19.49
   3   2  -6   32.72    2.07
   3   2  -6   35.36    2.22
  -3  -2   6   33.46    2.12
  -3  -2   6   34.22    2.17
   3   2  -5    0.71    0.20
   3   2  -5    0.61    0.19
  -3  -2   5    0.31    0.15
  -3  -2   5    0.39    0.16
   3   2  -4  331.83   17.35
   3   2  -4  319.65   16.75
  -3  -2   4  324.26   16.98
  -3  -2   4  330.91   17.31
   3   2  -3    6.52    0.61
   3   2  -3    6.68    0.61
  -3  -2   3    5.86    0.57
  -3  -2   3    5.18    0.52
   3   2  -2   62.13    3.47
   3   2  -2   65.68    3.66
  -3  -2   2   68.60    3.81
  -3  -2   2   64.73    3.61
   3   2  -1    0.02    0.09
   3   2  -1   -0.02    0.06
  -3  -2   1   -0.02    0.07
  -3  -2   1   -0.04    0.06
   3   2   0    1.47    0.23
   3   2   0    1.20    0.21
  -3  -2   0    1.16    0.20
  -3  -2   0    1.16    0.20
   3   2   1 1431.94   73.56
   3   2   1 1286.59   66.16
  -3  -2  -1 1263.05   64.93
  -3  -2  -1 1335.72   68.64
   3   2   2   40.31    2.30
   3   2   2   36.85    2.11
  -3  -2  -2   41.31    2.35
  -3  -2  -2   37.30    2.14
   3   2   3  120.27    6.41
   3   2   3  108.39    5.79
  -3  -2  -3  117.71    6.27
  -3  -2  -3  111.98    5.98
   3   2   4    6.92    0.57
   3   2   4    6.82    0.57
  -3  -2  -4    6.17    0.54
  -3  -2  -4    6.04    0.51
   3   2   5   51.87    2.96
   3   2   5   48.02    2.74
  -3  -2  -5   53.98    3.03
  -3  -2  -5   49.94    2.87
   3   2   6   18.39    1.25
   3   2   6   17.70    1.20
  -3  -2  -6   16.26    1.11
  -3  -2  -6   15.26    1.10
   3   2   7    1.38    0.29
  -3  -2  -7    1.56    0.30
   3   2   8   20.13    1.43
   3   2   8   17.62    1.27
  -3  -2  -8   20.14    1.41
  -3  -2  -8   19.21    1.34
   3   2   9   22.67    1.58
   3   2   9   22.20    1.58
  -3  -2  -9   19.54    1.41
  -3  -2  -9   19.69    1.39
   4   2 -11   23.02    1.69
  -4  -2  11   21.39    1.62
   4   2 -10    3.13    0.51
   4   2 -10    3.21    0.50
  -4  -2  10    3.01    0.49
  -4  -2  10    3.31    0.54
   4   2  -9    0.41    0.19
   4   2  -9    0.67    0.23
  -4  -2   9    0.35    0.20
  -4  -2   9    0.39    0.20
   4   2  -8    1.69    0.35
  -4  -2   8    1.77    0.37
   4   2  -7   36.38    2.31
   4   2  -7   36.67    2.31
  -4  -2   7   40.72    2.54
  -4  -2   7   37.84    2.42
   4   2  -6   76.58    4.38
   4   2  -6   74.06    4.22
  -4  -2   6   72.35    4.17
  -4  -2   6   76.57    4.36
   4   2  -5  156.60    8.42
   4   2  -5  132.45    7.22
  -4  -2   5  147.80    8.00
  -4  -2   5  139.51    7.56
   4   2  -4   48.96    2.88
   4   2  -4   45.01    2.69
  -4  -2   4   47.85    2.82
  -4  -2   4   44.74    2.68
   4   2  -3  172.47    9.19
   4   2  -3  182.70    9.73
  -4  -2   3  168.99    9.02
  -4  -2   3  171.55    9.17
   4   2  -2   11.08    0.85
  -4  -2   2   10.84    0.84
   4   2  -1  353.43   18.42
   4   2  -1  342.99   17.87
  -4  -2   1  371.44   19.33
  -4  -2   1  338.28   17.65
   4   2   0  307.17   16.03
   4   2   0  342.58   17.83
  -4  -2   0  323.54   16.86
  -4  -2   0  310.85   16.21
   4   2   1  486.59   25.20
   4   2   1  498.57   25.80
  -4  -2  -1  462.44   23.96
  -4  -2  -1  505.22   26.15
   4   2   2    5.07    0.46
   4   2   2    3.66    0.38
  -4  -2  -2    4.66    0.44
  -4  -2  -2    3.80    0.39
   4   2   3   55.10    3.07
   4   2   3   57.40    3.19
  -4  -2  -3   58.52    3.24
  -4  -2  -3   55.96    3.11
   4   2   4  236.13   12.36
   4   2   4  253.94   13.28
  -4  -2  -4  235.42   12.33
  -4  -2  -4  260.18   13.58
   4   2   5   30.43    1.83
   4   2   5   28.67    1.73
  -4  -2  -5   31.58    1.87
  -4  -2  -5   30.20    1.83
   4   2   6  197.24   10.43
   4   2   6  193.76   10.23
  -4  -2  -6  175.95    9.33
  -4  -2  -6  207.06   10.89
   4   2   7   12.45    0.93
   4   2   7   13.02    0.98
  -4  -2  -7   12.20    0.93
  -4  -2  -7   12.32    0.91
   4   2   8   19.93    1.36
  -4  -2  -8   21.51    1.42
   5   2 -10   14.06    1.15
   5   2 -10   12.06    1.08
  -5  -2  10   12.31    1.12
  -5  -2  10   11.67    1.02
   5   2  -9   36.62    2.40
   5   2  -9   34.32    2.24
  -5  -2   9   38.13    2.45
  -5  -2   9   34.02    2.28
   5   2  -8   27.30    1.88
   5   2  -8   29.08    1.95
  -5  -2   8   30.57    2.07
  -5  -2   8   31.88    2.12
   5   2  -7    5.42    0.75
   5   2  -7    6.12    0.66
  -5  -2   7    5.02    0.77
  -5  -2   7    4.78    0.61
   5   2  -6   20.44    1.45
   5   2  -6   20.69    1.48
  -5  -2   6   19.92    1.46
  -5  -2   6   19.93    1.43
   5   2  -5   50.91    3.03
   5   2  -5   51.93    3.10
  -5  -2   5   47.04    2.86
  -5  -2   5   48.05    2.90
   5   2  -4  139.20    7.57
   5   2  -4  143.71    7.78
  -5  -2   4  150.46    8.15
  -5  -2   4  137.56    7.46
   5   2  -3    7.27    0.69
   5   2  -3    9.48    0.80
  -5  -2   3    7.38    0.69
  -5  -2   3    8.72    0.77
   5   2  -2   42.92    2.57
   5   2  -2   39.66    2.37
  -5  -2   2   42.21    2.52
  -5  -2   2   38.90    2.35
   5   2  -1   58.80    3.34
   5   2   0    3.05    0.41
  -5  -2   0    3.21    0.40
   5   2   1   80.65    4.43
   5   2   1   84.79    4.63
  -5  -2  -1   84.52    4.62
  -5  -2  -1   85.82    4.69
   5   2   2   39.16    2.28
   5   2   2   40.28    2.32
  -5  -2  -2   40.39    2.33
  -5  -2  -2   41.99    2.42
   5   2   3   -0.03    0.05
   5   2   3    0.17    0.09
  -5  -2  -3    0.04    0.07
  -5  -2  -3    0.02    0.07
   5   2   4    1.30    0.21
   5   2   4    1.37    0.24
  -5  -2  -4    1.56    0.26
  -5  -2  -4    1.36    0.23
   5   2   5   96.88    5.21
   5   2   5  103.89    5.59
  -5  -2  -5   95.28    5.15
  -5  -2  -5   92.93    5.01
   5   2   6    0.48    0.14
   5   2   6    0.37    0.13
  -5  -2  -6    0.63    0.16
  -5  -2  -6    0.50    0.14
   5   2   7    0.72    0.16
   5   2   7    0.95    0.19
  -5  -2  -7    0.73    0.16
  -5  -2  -7    0.77    0.18
   6   2  -9    4.04    0.58
   6   2  -9    4.96    0.62
  -6  -2   9    4.04    0.59
  -6  -2   9    5.27    0.71
   6   2  -8    3.75    0.55
   6   2  -8    2.96    0.46
  -6  -2   8    2.93    0.51
  -6  -2   8    2.36    0.44
   6   2  -7   74.39    4.34
   6   2  -7   84.41    4.81
  -6  -2   7   94.71    5.40
  -6  -2   7   78.16    4.51
   6   2  -6    3.45    0.59
   6   2  -6    5.20    0.62
  -6  -2   6    3.98    0.58
  -6  -2   6    4.68    0.66
   6   2  -5    5.17    0.58
   6   2  -5    5.86    0.63
  -6  -2   5    4.95    0.61
  -6  -2   5    4.43    0.57
   6   2  -4    4.71    0.55
   6   2  -4    2.89    0.44
  -6  -2   4    3.60    0.49
  -6  -2   4    2.43    0.42
   6   2  -3  916.58   47.36
   6   2  -3  773.08   40.05
  -6  -2   3  752.10   38.99
  -6  -2   3  796.52   41.23
   6   2  -2   55.46    3.22
   6   2  -2   66.39    3.82
  -6  -2   2   58.32    3.38
  -6  -2   2   57.11    3.34
   6   2  -1    1.53    0.29
   6   2  -1    1.71    0.32
  -6  -2   1    0.99    0.24
  -6  -2   1    1.17    0.26
   6   2   0    4.39    0.48
  -6  -2   0    5.46    0.54
   6   2   1   10.72    0.84
   6   2   1   10.08    0.82
  -6  -2  -1    9.76    0.78
   6   2   2   91.18    4.97
   6   2   2  103.99    5.61
  -6  -2  -2   91.87    4.99
  -6  -2  -2   81.57    4.48
   6   2   3   57.10    3.18
   6   2   3   64.40    3.57
  -6  -2  -3   64.28    3.56
  -6  -2  -3   62.76    3.48
   6   2   4    0.74    0.16
   6   2   4    0.80    0.17
  -6  -2  -4    0.87    0.18
  -6  -2  -4    0.85    0.17
   6   2   5    2.02    0.25
   6   2   5    1.91    0.25
  -6  -2  -5    2.24    0.27
  -6  -2  -5    1.73    0.23
   7   2  -8   -0.06    0.06
   7   2  -8    0.08    0.10
  -7  -2   8   -0.08    0.13
  -7  -2   8    0.04    0.11
   7   2  -7    5.09    0.64
   7   2  -7    5.66    0.64
  -7  -2   7    4.14    0.57
  -7  -2   7    5.08    0.68
   7   2  -6    2.59    0.44
   7   2  -6    3.35    0.52
  -7  -2   6    2.25    0.42
  -7  -2   6    1.97    0.41
   7   2  -5   54.89    3.29
  -7  -2   5   55.14    3.38
   7   2  -4    0.02    0.11
  -7  -2   4    0.12    0.13
  -7  -2   4    0.16    0.13
   7   2  -3  180.66    9.73
   7   2  -3  175.33    9.43
  -7  -2   3  177.18    9.57
  -7  -2   3  194.47   10.42
   7   2  -2  113.00    6.21
   7   2  -2  105.73    5.88
  -7  -2   2   94.57    5.30
  -7  -2   2  105.12    5.81
   7   2  -1   49.38    2.95
   7   2  -1   51.71    3.04
  -7  -2   1   53.41    3.16
  -7  -2   1   51.19    3.02
   7   2   0    0.01    0.09
   7   2   0    0.08    0.09
  -7  -2   0   -0.04    0.10
  -7  -2   0   -0.01    0.10
   7   2   1   87.93    4.85
  -7  -2  -1   88.20    4.87
   7   2   2  215.76   11.36
   7   2   2  201.43   10.67
  -7  -2  -2  213.31   11.27
  -7  -2  -2  218.83   11.51
   7   2   3    0.57    0.16
   7   2   3    0.61    0.15
  -7  -2  -3    0.44    0.14
  -7  -2  -3    0.46    0.15
   7   2   4   19.41    1.18
   7   2   4   19.40    1.18
  -7  -2  -4   18.60    1.13
  -7  -2  -4   19.93    1.20
   8   2  -7    2.30    0.42
   8   2  -7    1.73    0.38
  -8  -2   7    1.99    0.44
  -8  -2   7    2.05    0.41
   8   2  -6    0.25    0.17
   8   2  -6    0.25    0.16
  -8  -2   6    0.33    0.19
  -8  -2   6    0.53    0.24
   8   2  -5   26.61    1.86
   8   2  -5   23.51    1.66
  -8  -2   5   25.42    1.78
  -8  -2   5   25.26    1.81
   8   2  -4   61.80    3.65
  -8  -2   4   62.97    3.73
   8   2  -3   41.61    2.59
   8   2  -3   41.62    2.63
  -8  -2   3   43.94    2.72
  -8  -2   3   46.75    2.91
   8   2  -2    5.17    0.61
   8   2  -2    4.52    0.58
  -8  -2   2    4.71    0.60
  -8  -2   2    4.41    0.57
   8   2  -1    1.24    0.29
   8   2  -1    1.19    0.30
  -8  -2   1    1.05    0.29
  -8  -2   1    1.63    0.35
   8   2   0    1.11    0.27
   8   2   0    1.44    0.32
  -8  -2   0    1.44    0.31
  -8  -2   0    1.12    0.29
   8   2   1    8.60    0.80
   8   2   1   11.27    0.91
  -8  -2  -1    9.65    0.86
  -8  -2  -1    9.02    0.80
   8   2   2   34.83    2.10
   8   2   2   31.98    2.00
  -8  -2  -2   35.10    2.12
  -8  -2  -2   33.30    2.06
   8   2   3   13.05    0.90
   8   2   3   12.17    0.88
   9   2  -6  115.25    6.50
   9   2  -6  110.24    6.18
  -9  -2   6  120.47    6.71
  -9  -2   6  109.62    6.24
   9   2  -5   82.16    4.73
   9   2  -5   71.56    4.24
  -9  -2   5   74.79    4.42
  -9  -2   5   76.64    4.46
   9   2  -4    1.15    0.32
   9   2  -4    0.95    0.28
  -9  -2   4    0.90    0.30
  -9  -2   4    1.31    0.35
   9   2  -3   -0.04    0.10
   9   2  -3   -0.03    0.09
  -9  -2   3    0.00    0.09
  -9  -2   3   -0.06    0.15
   9   2  -2   34.61    2.25
   9   2  -2   35.99    2.36
  -9  -2   2   38.52    2.46
  -9  -2   2   35.73    2.35
   9   2  -1    2.27    0.41
   9   2  -1    2.37    0.43
  -9  -2   1    1.73    0.36
  -9  -2   1    2.44    0.46
   9   2   0   51.51    3.13
   9   2   0   58.06    3.42
  -9  -2   0   51.91    3.17
  -9  -2   0   50.37    3.02
   9   2   1    9.89    0.87
   9   2   1    9.87    0.92
  10   2  -5   25.49    1.85
 -10  -2   5   24.85    1.84
  10   2  -4   11.68    1.07
  10   2  -4   11.77    1.13
 -10  -2   4   16.12    1.35
 -10  -2   4   13.88    1.20
  10   2  -3   16.49    1.35
  10   2  -3   14.31    1.28
 -10  -2   3   14.26    1.26
 -10  -2   3   15.68    1.30
  10   2  -2   45.37    2.91
  10   2  -2   44.93    2.86
 -10  -2   2   46.98    3.03
 -10  -2   2   45.59    3.04
  10  -3  -4   32.28    2.24
  10  -3  -4   33.96    2.28
 -10   3   5    0.39    0.23
  10  -3  -5    0.51    0.23
  -9   3   1    5.92    0.71
  -9   3   1    6.70    0.77
   9  -3  -1    5.97    0.67
   9  -3  -1    6.11    0.70
  -9   3   2    2.36    0.44
  -9   3   2    3.09    0.50
   9  -3  -2    2.50    0.45
   9  -3  -2    2.77    0.45
  -9   3   3    0.69    0.27
   9  -3  -3    0.86    0.30
  -9   3   4    0.16    0.18
  -9   3   4    0.16    0.16
   9  -3  -4    0.05    0.10
   9  -3  -4    0.33    0.17
  -9   3   5   17.07    1.37
  -9   3   5   18.30    1.45
   9  -3  -5   16.23    1.31
   9  -3  -5   20.83    1.60
  -9   3   6   74.74    4.38
   9  -3  -6   92.28    5.28
  -8   3  -1    4.40    0.46
  -8   3  -1    3.75    0.43
   8  -3   1    4.58    0.47
   8  -3   1    3.68    0.43
  -8   3   0    6.14    0.67
  -8   3   0    5.20    0.58
   8  -3   0    5.42    0.59
   8  -3   0    5.82    0.61
  -8   3   1   19.70    1.41
  -8   3   1   20.99    1.48
   8  -3  -1   23.10    1.63
   8  -3  -1   21.34    1.48
  -8   3   2   18.00    1.34
  -8   3   2   18.56    1.39
   8  -3  -2   18.32    1.40
   8  -3  -2   16.76    1.26
  -8   3   3    0.69    0.24
  -8   3   3    0.92    0.28
   8  -3  -3    1.63    0.36
   8  -3  -3    1.20    0.31
  -8   3   4   15.12    1.25
   8  -3  -4   15.15    1.25
  -8   3   5    3.34    0.53
  -8   3   5    2.86    0.49
   8  -3  -5    3.38    0.51
   8  -3  -5    2.86    0.50
   8  -3  -6    9.40    0.96
   8  -3  -6   10.28    0.99
  -8   3   7   54.96    3.42
   8  -3  -7   55.75    3.51
   8  -3  -7   51.59    3.17
  -7   3  -2   46.82    2.58
  -7   3  -2   43.49    2.41
   7  -3   2   44.93    2.49
   7  -3   2   49.65    2.72
  -7   3  -1   92.85    5.05
  -7   3  -1   87.68    4.81
   7  -3   1   90.24    4.95
   7  -3   1   89.72    4.88
  -7   3   0  144.73    7.80
   7  -3   0  137.56    7.45
  -7   3   1   33.74    2.14
  -7   3   1   34.64    2.15
   7  -3  -1   35.77    2.26
   7  -3  -1   31.38    1.98
  -7   3   2  203.99   10.88
  -7   3   2  204.50   10.95
   7  -3  -2  209.21   11.20
   7  -3  -2  227.33   12.08
  -7   3   3  257.22   13.67
  -7   3   3  270.62   14.32
   7  -3  -3  278.81   14.80
   7  -3  -3  280.55   14.84
  -7   3   4   88.29    4.99
  -7   3   4   93.32    5.29
   7  -3  -4   87.39    5.01
   7  -3  -4   95.94    5.40
  -7   3   5    2.52    0.52
  -7   3   5    3.95    0.56
   7  -3  -5    3.08    0.51
   7  -3  -5    3.57    0.54
  -7   3   6    8.28    0.84
  -7   3   6    7.34    0.82
   7  -3  -6    6.97    0.78
  -7   3   7   27.43    1.97
   7  -3  -7   32.33    2.17
   7  -3  -7   28.78    1.97
  -7   3   8    5.23    0.71
   7  -3  -8    7.23    0.80
  -6   3  -2    6.48    0.53
  -6   3  -2    7.34    0.58
   6  -3   2    7.31    0.59
   6  -3   2    7.59    0.58
  -6   3  -1    5.20    0.50
  -6   3  -1    4.99    0.49
   6  -3   1    5.10    0.49
   6  -3   1    4.71    0.50
  -6   3   0   17.35    1.19
   6  -3   0   16.76    1.15
  -6   3   1    8.81    0.76
  -6   3   1   10.04    0.83
   6  -3  -1    8.35    0.77
   6  -3  -1    8.97    0.76
  -6   3   2  736.44   38.16
  -6   3   2  710.75   36.81
   6  -3  -2  732.65   37.98
   6  -3  -2  682.70   35.37
  -6   3   3  177.79    9.54
  -6   3   3  174.51    9.40
   6  -3  -3  202.97   10.83
   6  -3  -3  177.89    9.60
  -6   3   4    4.31    0.56
  -6   3   4    3.41    0.50
   6  -3  -4    3.78    0.53
   6  -3  -4    3.75    0.50
  -6   3   5    0.26    0.15
  -6   3   5    0.08    0.14
   6  -3  -5    0.28    0.18
   6  -3  -5    0.00    0.08
  -6   3   6  104.50    5.88
  -6   3   6  116.79    6.52
   6  -3  -6  106.04    5.98
   6  -3  -6   96.52    5.46
  -6   3   7   22.35    1.63
  -6   3   7   24.25    1.75
   6  -3  -7   22.41    1.66
   6  -3  -7   24.26    1.72
  -6   3   8    0.97    0.33
  -6   3   8    0.92    0.30
   6  -3  -8    0.76    0.25
   6  -3  -8    0.86    0.27
  -6   3   9    3.65    0.72
  -5   3  -3   91.44    4.87
  -5   3  -3   95.41    5.08
   5  -3   3   96.64    5.16
   5  -3   3   94.61    5.04
  -5   3  -2   19.48    1.22
  -5   3  -2   20.05    1.27
   5  -3   2   19.51    1.25
   5  -3   2   20.51    1.27
  -5   3  -1   85.35    4.67
  -5   3  -1   82.60    4.50
   5  -3   1   83.11    4.57
   5  -3   1   87.69    4.76
  -5   3   0   72.17    4.06
  -5   3   0   70.88    3.94
   5  -3   0   69.63    3.91
   5  -3   0   69.90    3.88
  -5   3   1    9.53    0.79
   5  -3  -1    9.56    0.81
  -5   3   2   25.45    1.66
  -5   3   2   28.81    1.86
   5  -3  -2   29.97    1.92
   5  -3  -2   24.78    1.62
  -5   3   3   98.67    5.50
  -5   3   3   96.72    5.36
   5  -3  -3   97.85    5.46
   5  -3  -3  103.07    5.69
  -5   3   4    0.76    0.23
  -5   3   4    0.26    0.15
   5  -3  -4    0.55    0.20
   5  -3  -4    0.27    0.15
  -5   3   5    4.80    0.60
  -5   3   5    5.21    0.59
   5  -3  -5    6.32    0.66
   5  -3  -5    4.75    0.60
  -5   3   6    2.36    0.43
   5  -3  -6    1.70    0.36
  -5   3   7  235.82   12.63
  -5   3   7  227.33   12.18
   5  -3  -7  188.33   10.19
   5  -3  -7  205.43   11.03
  -5   3   8    3.08    0.50
  -5   3   8    3.35    0.54
   5  -3  -8    3.02    0.50
   5  -3  -8    2.90    0.47
  -5   3   9   28.27    1.94
  -5   3   9   24.46    1.78
   5  -3  -9   29.19    2.00
   5  -3  -9   29.58    2.00
   4  -3   8   13.66    0.81
   4  -3   8   15.47    0.89
  -4   3  -7   16.98    1.02
  -4   3  -7   17.09    1.01
   4  -3   7   17.51    1.06
   4  -3   7   16.46    0.99
  -4   3  -6    0.20    0.08
  -4   3  -6    0.21    0.08
   4  -3   6    0.24    0.09
   4  -3   6    0.11    0.06
  -4   3  -5 1211.88   62.30
  -4   3  -5 1266.12   65.07
   4  -3   5 1241.56   63.83
   4  -3   5 1257.94   64.69
  -4   3  -4   86.37    4.63
  -4   3  -4   86.89    4.65
   4  -3   4   87.81    4.70
   4  -3   4   86.47    4.63
  -4   3  -3   10.59    0.74
  -4   3  -3   10.82    0.76
   4  -3   3   10.30    0.73
   4  -3   3    9.55    0.73
  -4   3  -2   10.07    0.73
  -4   3  -2    9.43    0.70
   4  -3   2    9.91    0.72
   4  -3   2    9.00    0.69
  -4   3  -1  116.48    6.25
  -4   3  -1  124.87    6.66
   4  -3   1  117.40    6.27
   4  -3   1  121.70    6.52
  -4   3   0    4.17    0.44
  -4   3   0    4.55    0.46
   4  -3   0    3.72    0.40
   4  -3   0    3.53    0.41
  -4   3   1    4.43    0.46
   4  -3  -1    5.51    0.52
  -4   3   2   22.16    1.46
  -4   3   2   19.28    1.33
   4  -3  -2   21.16    1.40
   4  -3  -2   21.35    1.44
  -4   3   3  225.08   11.95
  -4   3   3  211.26   11.21
   4  -3  -3  276.36   14.54
   4  -3  -3  231.83   12.29
  -4   3   4   47.99    2.86
  -4   3   4   49.20    2.95
   4  -3  -4   55.35    3.28
   4  -3  -4   47.49    2.84
  -4   3   5   37.54    2.36
  -4   3   5   34.35    2.17
   4  -3  -5   31.81    2.08
   4  -3  -5   34.10    2.17
  -4   3   6   31.11    2.03
  -4   3   6   33.67    2.17
   4  -3  -6   28.73    1.94
   4  -3  -6   34.30    2.19
  -4   3   7    2.96    0.49
   4  -3  -7    3.39    0.50
   4  -3  -8   13.20    1.13
   4  -3  -8   12.07    1.04
  -4   3   9    0.27    0.17
  -4   3   9    0.47    0.20
   4  -3  -9    0.25    0.15
   4  -3  -9    0.30    0.16
  -4   3  10    2.59    0.49
  -4   3  10    2.53    0.46
   4  -3 -10    2.52    0.45
   4  -3 -10    3.38    0.56
   3  -3   9    0.81    0.24
  -3   3  -8   45.04    2.63
  -3   3  -8   42.31    2.52
   3  -3   8   43.48    2.61
   3  -3   8   46.72    2.71
  -3   3  -7    6.07    0.55
  -3   3  -7    4.99    0.52
   3  -3   7    5.54    0.57
   3  -3   7    6.09    0.56
  -3   3  -6   21.74    1.39
  -3   3  -6   22.54    1.40
   3  -3   6   24.50    1.51
   3  -3   6   20.71    1.34
  -3   3  -5  121.80    6.48
  -3   3  -5  119.75    6.40
   3  -3   5  124.26    6.62
   3  -3   5  113.00    6.06
  -3   3  -4  226.51   11.84
  -3   3  -4  212.08   11.12
   3  -3   4  212.69   11.14
   3  -3   4  209.83   11.00
  -3   3  -3   19.77    1.24
  -3   3  -3   20.47    1.28
   3  -3   3   20.80    1.29
   3  -3   3   18.71    1.19
  -3   3  -2   39.14    2.25
  -3   3  -2   36.19    2.10
   3  -3   2   40.69    2.35
   3  -3   2   35.42    2.06
  -3   3  -1    1.29    0.23
  -3   3  -1    1.46    0.24
   3  -3   1    1.24    0.23
   3  -3   1    1.48    0.25
  -3   3   0  388.95   20.20
  -3   3   0  431.73   22.42
   3  -3   0  413.72   21.46
   3  -3   0  404.71   21.03
  -3   3   1  156.19    8.34
  -3   3   1  185.77    9.83
   3  -3  -1  165.51    8.78
   3  -3  -1  176.77    9.40
  -3   3   2  259.57   13.65
   3  -3  -2  265.00   13.94
  -3   3   3  939.61   48.52
  -3   3   3  838.59   43.33
   3  -3  -3  841.66   43.50
   3  -3  -3  867.15   44.78
  -3   3   4   21.62    1.48
  -3   3   4   20.37    1.40
   3  -3  -4   19.39    1.35
   3  -3  -4   22.72    1.56
  -3   3   5   45.27    2.72
  -3   3   5   46.14    2.79
   3  -3  -5   46.49    2.78
   3  -3  -5   49.75    2.99
  -3   3   6    2.47    0.41
  -3   3   6    2.95    1.15
   3  -3  -6    2.90    0.41
   3  -3  -6    3.15    0.45
  -3   3   7   54.05    3.22
  -3   3   7   62.60    3.68
   3  -3  -7   63.65    3.73
   3  -3  -7   68.31    4.00
  -3   3   8  396.83   20.82
  -3   3   8  377.07   19.87
   3  -3  -8  357.83   18.87
   3  -3  -8  367.35   19.33
  -3   3   9   29.18    1.98
  -3   3   9   24.82    1.78
   3  -3  -9   27.34    1.88
   3  -3  -9   30.43    2.07
  -3   3  10    0.07    0.13
  -3   3  10    0.16    0.17
   3  -3 -10   -0.09    0.11
   2  -3  10    0.17    0.15
   2  -3  10    0.10    0.14
  -2   3  -9    9.87    0.92
  -2   3  -9   11.27    0.94
   2  -3   9   11.31    0.98
   2  -3   9    9.08    0.91
  -2   3  -8   39.60    2.44
  -2   3  -8   47.55    2.81
   2  -3   8   44.33    2.66
   2  -3   8   44.24    2.71
  -2   3  -7   42.72    2.52
   2  -3   7   43.80    2.59
  -2   3  -6    6.11    0.57
   2  -3   6    6.94    0.63
   2  -3   6    7.20    0.66
  -2   3  -5   43.07    2.50
  -2   3  -5   49.79    2.82
   2  -3   5   43.99    2.55
   2  -3   5   41.25    2.41
  -2   3  -4   30.80    1.84
  -2   3  -4   30.27    1.80
   2  -3   4   32.63    1.93
   2  -3   4   32.65    1.94
  -2   3  -3   44.46    2.54
  -2   3  -3   45.36    2.58
   2  -3   3   46.07    2.62
   2  -3   3   46.81    2.66
  -2   3  -2  287.92   15.02
  -2   3  -2  263.97   13.78
   2  -3   2  294.06   15.32
   2  -3   2  293.76   15.30
  -2   3  -1  513.51   26.56
  -2   3  -1  514.23   26.60
   2  -3   1  524.16   27.10
   2  -3   1  515.46   26.67
  -2   3   0    4.84    0.46
  -2   3   0    4.70    0.45
   2  -3   0    4.15    0.41
   2  -3   0    4.65    0.45
  -2   3   1  156.81    8.32
  -2   3   1  156.81    8.33
   2  -3  -1  147.39    7.85
   2  -3  -1  155.68    8.26
  -2   3   2    6.99    0.61
   2  -3  -2    7.15    0.61
  -2   3   3  466.02   24.24
  -2   3   3  446.27   23.21
   2  -3  -3  493.96   25.65
   2  -3  -3  462.13   24.04
  -2   3   4   79.27    4.44
  -2   3   4   67.22    3.84
   2  -3  -4   83.95    4.67
   2  -3  -4   79.61    4.47
  -2   3   5   24.64    1.64
  -2   3   5   27.96    1.84
   2  -3  -5   25.73    1.72
   2  -3  -5   26.54    1.73
  -2   3   6   35.98    2.25
  -2   3   6   36.16    2.30
   2  -3  -6   35.85    2.24
   2  -3  -6   32.01    2.08
  -2   3   7   11.65    0.98
  -2   3   7    9.71    0.88
   2  -3  -7   13.39    1.11
   2  -3  -7   13.35    1.06
  -2   3   8  472.06   24.68
   2  -3  -8  485.98   25.39
  -2   3   9    0.45    0.20
  -2   3   9    0.35    0.18
  -2   3  10   42.40    2.69
  -2   3  10   39.06    2.53
   2  -3 -10   45.73    2.87
   2  -3 -10   40.62    2.62
  -2   3  11    4.07    0.61
  -2   3  11    4.07    0.64
   2  -3 -11    5.35    0.69
   1  -3  11   17.57    1.64
  -1   3 -10    5.27    0.68
  -1   3 -10    5.39    0.64
   1  -3  10    5.02    0.69
   1  -3  10    6.33    0.74
  -1   3  -9  116.68    6.48
  -1   3  -9  121.60    6.68
   1  -3   9  115.76    6.42
   1  -3   9  116.17    6.49
  -1   3  -8    0.44    0.18
  -1   3  -8    0.76    0.21
   1  -3   8    0.79    0.25
   1  -3   8    0.67    0.24
  -1   3  -7    1.24    0.27
  -1   3  -7    0.92    0.24
   1  -3   7    0.95    0.26
   1  -3   7    1.48    0.30
  -1   3  -6  110.24    5.99
   1  -3   6  102.66    5.62
  -1   3  -5   72.93    4.06
   1  -3   5   75.09    4.18
  -1   3  -4  539.82   27.96
  -1   3  -4  516.99   26.78
   1  -3   4  536.03   27.77
   1  -3   4  567.04   29.36
  -1   3  -3  125.28    6.70
  -1   3  -3  123.64    6.61
   1  -3   3  128.35    6.86
   1  -3   3  125.18    6.69
  -1   3  -2    4.14    0.41
  -1   3  -2    3.58    0.39
   1  -3   2    3.27    0.37
   1  -3   2    3.66    0.39
  -1   3  -1  216.79   11.37
  -1   3  -1  207.47   10.89
   1  -3   1  223.54   11.72
   1  -3   1  207.27   10.88
  -1   3   0   41.25    2.37
  -1   3   0   47.01    2.67
   1  -3   0   46.40    2.64
   1  -3   0   52.27    2.94
  -1   3   1  404.40   21.00
  -1   3   1  388.43   20.18
   1  -3  -1  455.17   23.59
   1  -3  -1  430.09   22.32
  -1   3   2  129.58    6.95
   1  -3  -2  130.09    6.97
  -1   3   3  150.15    8.03
   1  -3  -3  142.48    7.66
  -1   3   4   20.73    1.39
  -1   3   4   25.13    1.64
  -1   3   5    0.08    0.11
  -1   3   5    0.16    0.13
   1  -3  -5   -0.03    0.09
   1  -3  -5    0.02    0.09
  -1   3   6    0.08    0.14
  -1   3   6    0.32    0.18
   1  -3  -6    0.74    0.23
   1  -3  -6    0.53    0.19
  -1   3   7    0.04    0.10
  -1   3   7   -0.08    0.80
   1  -3  -7    0.04    0.10
   1  -3  -7    0.13    0.12
  -1   3   8  169.29    9.16
  -1   3   8  177.89    9.63
   1  -3  -8  171.44    9.26
   1  -3  -8  172.77    9.37
  -1   3   9    0.01    0.12
  -1   3   9    0.00    0.11
   1  -3  -9   -0.01    0.11
   1  -3  -9    0.03    0.12
  -1   3  10   11.46    1.06
  -1   3  10   12.13    1.14
   1  -3 -10   15.77    1.27
   1  -3 -10   13.15    1.13
  -1   3  11   19.74    1.53
  -1   3  11   16.80    1.37
   1  -3 -11   20.41    1.49
   1  -3 -11   16.84    1.37
   0   3 -11    0.45    0.20
   0   3 -11    0.67    0.25
   0  -3  11    0.28    0.20
   0  -3  11    0.52    0.23
   0   3 -10   22.30    1.64
   0  -3  10   23.33    1.75
   0   3  -9    9.23    0.87
   0   3  -9    7.90    0.80
   0  -3   9    9.72    0.93
   0  -3   9    9.29    0.91
   0   3  -8   46.04    2.81
   0   3  -8   46.56    2.80
   0  -3   8   45.90    2.79
   0  -3   8   46.88    2.88
   0   3  -7   15.27    1.15
   0   3  -7   17.45    1.26
   0  -3   7   16.81    1.23
   0  -3   7   19.33    1.39
   0   3  -6   72.03    4.07
   0   3  -6   71.58    4.03
   0  -3   6   63.88    3.71
   0   3  -5    0.10    0.11
   0  -3   5    0.14    0.11
   0  -3   5    0.08    0.10
   0   3  -4  371.96   19.39
   0  -3   4  365.92   19.08
   0   3  -3   45.62    2.62
   0   3  -3   47.99    2.76
   0  -3   3   45.28    2.61
   0  -3   3   41.30    2.42
   0   3  -2   25.42    1.58
   0   3  -2   24.82    1.54
   0  -3   2   27.83    1.70
   0  -3   2   28.03    1.71
   0   3  -1  194.37   10.24
   0   3  -1  209.42   11.00
   0  -3   1  196.83   10.36
   0  -3   1  201.54   10.60
   0   3   0    0.02    0.08
   0   3   0    0.11    0.09
   0  -3   0    0.15    0.10
   0  -3   0   -0.01    0.07
   0  -3  -1  203.79   10.73
   0  -3  -1  204.71   10.77
   0   3   2   25.82    1.61
   0   3   2   26.72    1.65
   0  -3  -2   25.04    1.56
   0  -3  -2   24.15    1.53
   0   3   3   47.89    2.77
   0  -3  -3   57.69    3.27
   0   3   4  326.92   17.11
   0   3   4  321.39   16.83
   0   3   5    0.18    0.12
   0   3   5    0.17    0.12
   0  -3  -5   -0.02    0.08
   0  -3  -5    0.12    0.12
   0   3   6   65.14    3.74
   0   3   6   63.90    3.71
   0  -3  -6   72.93    4.12
   0  -3  -6   71.60    4.10
   0   3   7   18.68    1.35
   0   3   7   19.64    1.41
   0  -3  -7   17.08    1.26
   0  -3  -7   18.84    1.39
   0   3   8   40.34    2.52
   0   3   8   44.93    2.79
   0  -3  -8   47.79    2.94
   0  -3  -8   41.31    2.55
   0   3   9    9.64    0.91
   0  -3  -9    8.33    0.83
   0   3  10   21.33    1.61
   0   3  10   22.01    1.60
   0  -3 -10   24.17    1.70
   0  -3 -10   22.61    1.68
   0   3  11    0.55    0.24
   0   3  11    0.38    0.21
   0  -3 -11    0.39    0.21
   0  -3 -11    0.82    0.26
   0  -3 -12   39.49    2.63
   1   3 -12    5.18    0.69
   1   3 -12    5.21    0.70
  -1  -3  12    3.98    0.61
  -1  -3  12    4.60    0.70
   1   3 -11   17.70    1.41
   1   3 -11   17.46    1.40
  -1  -3  11   18.85    1.49
  -1  -3  11   16.92    1.42
   1   3 -10   14.39    1.21
   1   3 -10   13.02    1.11
  -1  -3  10   16.33    1.30
  -1  -3  10   12.14    1.12
   1   3  -9    0.07    0.12
   1   3  -9    0.23    0.14
  -1  -3   9   -0.06    0.09
  -1  -3   9    0.27    0.15
   1   3  -8  155.99    8.47
   1   3  -8  186.18   10.00
  -1  -3   8  174.41    9.44
  -1  -3   8  165.81    8.97
   1   3  -7    0.07    0.10
   1   3  -7   -0.02    0.07
  -1  -3   7    0.08    0.13
  -1  -3   7   -0.04    0.11
   1   3  -6    0.23    0.14
   1   3  -6    0.07    0.11
  -1  -3   6    0.59    0.20
  -1  -3   6    0.32    0.15
   1   3  -5   -0.01    0.08
   1   3  -5    0.06    0.11
  -1  -3   5   -0.07    0.09
  -1  -3   5    0.00    0.09
   1   3  -4   22.62    1.50
   1   3  -4   25.07    1.61
  -1  -3   4   23.11    1.51
  -1  -3   4   26.29    1.68
   1   3  -3  145.65    7.79
  -1  -3   3  142.27    7.62
   1   3  -2  124.16    6.67
   1   3  -2  128.15    6.86
  -1  -3   2  126.61    6.79
  -1  -3   2  127.64    6.85
   1   3  -1  404.20   21.00
   1   3  -1  399.28   20.74
  -1  -3   1  458.24   23.77
  -1  -3   1  461.21   23.92
   1   3   0   47.61    2.72
   1   3   0   47.18    2.69
  -1  -3   0   50.42    2.87
  -1  -3   0   46.04    2.64
   1   3   1  222.31   11.68
   1   3   1  219.55   11.54
  -1  -3  -1  199.49   10.51
  -1  -3  -1  197.85   10.42
   1   3   2    3.89    0.42
   1   3   2    4.30    0.45
  -1  -3  -2    3.71    0.40
  -1  -3  -2    3.11    0.37
   1   3   3  129.07    6.94
  -1  -3  -3  100.45    5.46
   1   3   4  558.45   28.97
  -1  -3  -4  563.36   29.22
   1   3   5   75.04    4.22
   1   3   5   79.15    4.44
   1   3   6  102.97    5.67
   1   3   6  114.64    6.33
  -1  -3  -6  100.61    5.54
  -1  -3  -6  117.91    6.48
   1   3   7    1.15    0.29
   1   3   7    1.47    0.31
  -1  -3  -7    1.49    0.31
  -1  -3  -7    0.85    0.26
   1   3   8    0.38    0.18
   1   3   8    0.15    0.15
  -1  -3  -8    0.68    0.21
  -1  -3  -8    0.42    0.20
   1   3   9  113.00    6.34
   1   3   9  116.48    6.47
  -1  -3  -9  105.02    5.86
  -1  -3  -9  115.25    6.45
   1   3  10    5.56    0.70
   1   3  10    4.48    0.64
   1   3  11   24.53    1.79
   1   3  11   22.28    1.70
  -1  -3 -11   21.77    1.64
  -1  -3 -11   18.80    1.44
   2   3 -11    4.46    0.61
   2   3 -11    5.30    0.68
  -2  -3  11    4.83    0.64
  -2  -3  11    4.89    0.71
  -2  -3  10   43.83    2.76
  -2  -3  10   44.84    2.86
   2   3  -9    0.34    0.25
   2   3  -9    0.49    0.20
  -2  -3   9    0.10    0.14
  -2  -3   9    0.46    0.21
   2   3  -8  501.33   26.19
   2   3  -8  503.89   26.28
  -2  -3   8  488.64   25.52
  -2  -3   8  532.75   27.81
   2   3  -7   11.18    0.96
   2   3  -7   12.38    1.01
  -2  -3   7   13.13    1.05
  -2  -3   7   11.79    0.99
   2   3  -6   34.59    2.19
   2   3  -6   35.75    2.22
  -2  -3   6   37.80    2.34
  -2  -3   6   37.49    2.34
   2   3  -5   26.48    1.74
   2   3  -5   29.86    1.89
  -2  -3   5   27.94    1.81
  -2  -3   5   27.48    1.79
   2   3  -4   67.99    3.86
   2   3  -4   70.54    3.97
  -2  -3   4   74.61    4.20
  -2  -3   4   66.17    3.77
   2   3  -3  468.58   24.37
   2   3  -3  470.32   24.43
  -2  -3   3  457.01   23.78
  -2  -3   3  478.51   24.86
   2   3  -2    8.00    0.68
  -2  -3   2    6.71    0.60
   2   3  -1  171.24    9.09
  -2  -3   1  172.16    9.14
   2   3   0    4.26    0.44
   2   3   0    3.83    0.41
  -2  -3   0    5.51    0.52
  -2  -3   0    5.33    0.51
   2   3   1  534.90   27.71
   2   3   1  554.66   28.71
   2   3   2  284.65   14.89
   2   3   2  265.40   13.91
  -2  -3  -2  305.43   15.95
  -2  -3  -2  275.64   14.48
   2   3   3   44.73    2.61
  -2  -3  -3   46.53    2.69
   2   3   4   37.27    2.25
   2   3   5   45.11    2.67
   2   3   5   46.84    2.77
  -2  -3  -5   47.18    2.75
  -2  -3  -5   43.98    2.63
   2   3   6    6.47    0.66
   2   3   6    7.10    0.68
  -2  -3  -6    7.56    0.72
  -2  -3  -6    8.21    0.72
   2   3   7   41.46    2.54
   2   3   7   41.19    2.56
  -2  -3  -7   39.44    2.42
  -2  -3  -7   35.30    2.25
   2   3   8   42.64    2.63
   2   3   8   40.34    2.55
  -2  -3  -8   43.18    2.64
  -2  -3  -8   41.76    2.63
   2   3   9   10.56    1.02
   2   3   9   11.02    0.98
  -2  -3  -9   11.62    1.02
  -2  -3  -9   10.20    0.93
  -2  -3 -10    0.08    0.15
  -2  -3 -10    0.04    0.15
   3   3 -11    0.23    0.16
  -3  -3  11    0.38    0.21
   3   3 -10   -0.03    0.12
   3   3 -10    0.14    0.14
  -3  -3  10    0.02    0.15
  -3  -3  10    0.04    0.14
   3   3  -9   26.46    1.81
   3   3  -9   25.10    1.78
  -3  -3   9   29.49    2.00
  -3  -3   9   28.72    2.00
   3   3  -8  368.78   19.38
  -3  -3   8  364.18   19.17
   3   3  -7   60.85    3.59
   3   3  -7   55.27    3.29
  -3  -3   7   58.85    3.48
  -3  -3   7   64.15    3.78
   3   3  -6    3.41    0.47
   3   3  -6    3.56    0.46
  -3  -3   6    4.38    0.55
  -3  -3   6    3.15    0.47
   3   3  -5   49.83    2.97
   3   3  -5   49.04    2.91
  -3  -3   5   44.11    2.68
  -3  -3   5   45.32    2.73
   3   3  -4   19.58    1.35
   3   3  -4   23.88    1.60
  -3  -3   4   21.97    1.49
  -3  -3   4   24.38    1.62
   3   3  -3  939.82   48.53
   3   3  -3  930.09   48.01
  -3  -3   3  872.98   45.09
  -3  -3   3  941.25   48.60
   3   3  -2  267.55   14.07
   3   3  -2  248.62   13.09
  -3  -3   2  265.20   13.94
  -3  -3   2  275.03   14.46
   3   3  -1  193.35   10.24
  -3  -3   1  167.86    8.94
   3   3   0  403.17   20.99
  -3  -3   0  491.92   25.54
   3   3   1    1.44    0.27
  -3  -3  -1    1.26    0.25
   3   3   2   37.43    2.23
  -3  -3  -2   41.86    2.46
   3   3   3   18.98    1.28
  -3  -3  -3   19.61    1.30
   3   3   4  214.94   11.36
  -3  -3  -4  209.01   11.05
   3   3   5  116.48    6.34
   3   3   5  120.37    6.55
  -3  -3  -5  127.33    6.92
  -3  -3  -5  124.67    6.73
   3   3   6   24.70    1.65
   3   3   6   22.96    1.54
  -3  -3  -6   23.18    1.58
  -3  -3  -6   21.98    1.47
   3   3   7    6.87    0.70
   3   3   7    5.48    0.66
  -3  -3  -7    5.80    0.61
  -3  -3  -7    5.49    0.63
   3   3   8   47.24    2.92
   3   3   8   44.52    2.73
  -3  -3  -8   39.98    2.47
  -3  -3  -8   47.65    2.93
   3   3   9    0.92    0.26
   3   3   9    0.74    0.27
  -3  -3  -9    0.62    0.24
  -3  -3  -9    0.52    0.21
   4   3 -10    2.50    0.46
   4   3 -10    2.37    0.42
  -4  -3  10    2.42    0.48
  -4  -3  10    2.80    0.48
   4   3  -9    0.69    0.23
   4   3  -9    0.59    0.24
  -4  -3   9    0.49    0.25
  -4  -3   9    0.44    0.20
   4   3  -8   14.40    1.19
   4   3  -8   12.08    1.02
  -4  -3   8   13.96    1.18
  -4  -3   8   13.34    1.13
   4   3  -7    2.69    0.44
  -4  -3   7    2.80    0.47
   4   3  -6   26.42    1.78
   4   3  -6   29.57    1.95
  -4  -3   6   32.03    2.08
  -4  -3   6   25.49    1.75
   4   3  -5   36.86    2.32
   4   3  -5   37.40    2.32
  -4  -3   5   31.55    2.04
  -4  -3   5   38.39    2.40
   4   3  -4   54.53    3.19
   4   3  -4   52.10    3.09
  -4  -3   4   48.95    2.92
  -4  -3   4   46.11    2.78
   4   3  -3  215.66   11.44
   4   3  -3  212.90   11.32
  -4  -3   3  227.94   12.09
  -4  -3   3  250.05   13.21
   4   3  -2   22.09    1.47
   4   3  -2   23.04    1.54
  -4  -3   2   23.12    1.55
  -4  -3   2   23.15    1.54
   4   3  -1    5.10    0.52
   4   3  -1    4.92    0.52
  -4  -3   1    6.24    0.60
  -4  -3   1    5.72    0.56
   4   3   0    3.88    0.44
   4   3   0    3.40    0.42
   4   3   1  123.54    6.67
  -4  -3  -1  126.51    6.83
   4   3   2    9.89    0.80
  -4  -3  -2    9.64    0.78
   4   3   3   11.26    0.86
  -4  -3  -3   10.28    0.81
   4   3   4   79.61    4.43
  -4  -3  -4   78.61    4.37
   4   3   5 1315.25   67.73
   4   3   5 1287.62   66.32
  -4  -3  -5 1221.09   62.95
  -4  -3  -5 1153.53   59.47
   4   3   6    0.24    0.14
   4   3   6    0.27    0.15
  -4  -3  -6    0.31    0.15
  -4  -3  -6    0.20    0.13
   4   3   7   16.22    1.26
   4   3   7   17.50    1.29
  -4  -3  -7   20.21    1.44
  -4  -3  -7   17.49    1.27
   4   3   8   19.67    1.41
   4   3   8   17.01    1.31
  -4  -3  -8   19.40    1.43
  -4  -3  -8   18.46    1.35
   5   3  -9   24.02    1.73
   5   3  -9   22.84    1.64
  -5  -3   9   28.22    1.99
  -5  -3   9   31.62    2.12
   5   3  -8    4.18    0.55
   5   3  -8    3.83    0.55
  -5  -3   8    3.39    0.52
  -5  -3   8    2.74    0.48
  -5  -3   7  212.79   11.45
  -5  -3   7  197.24   10.62
   5   3  -6    1.78    0.36
  -5  -3   6    1.93    0.39
   5   3  -5    5.34    0.60
   5   3  -5    5.60    0.61
  -5  -3   5    5.49    0.61
  -5  -3   5    5.93    0.68
   5   3  -4    0.35    0.16
   5   3  -4    0.28    0.15
  -5  -3   4    0.34    0.17
  -5  -3   4    0.43    0.18
   5   3  -3  102.46    5.69
   5   3  -3   94.75    5.27
  -5  -3   3  101.76    5.65
  -5  -3   3   98.63    5.49
   5   3  -2   27.03    1.76
   5   3  -2   28.14    1.83
  -5  -3   2   26.59    1.74
  -5  -3   2   23.84    1.61
   5   3  -1    8.47    0.75
   5   3  -1    9.51    0.80
  -5  -3   1   10.15    0.88
  -5  -3   1   10.08    0.84
   5   3   0   67.66    3.85
   5   3   0   59.63    3.46
  -5  -3   0   75.87    4.27
  -5  -3   0   71.40    4.03
   5   3   1   80.45    4.48
   5   3   1   92.32    5.15
  -5  -3  -1   91.40    5.06
  -5  -3  -1   88.56    4.89
   5   3   2   21.58    1.43
   5   3   2   19.91    1.36
  -5  -3  -2   19.53    1.32
   5   3   3   97.49    5.34
  -5  -3  -3   91.26    5.03
   5   3   4   30.86    1.92
  -5  -3  -4   31.00    1.92
   5   3   5  273.39   14.40
  -5  -3  -5  283.11   14.90
   5   3   6    6.56    0.68
  -5  -3  -6    8.51    0.79
   5   3   7  168.68    9.06
   5   3   7  169.09    9.10
  -5  -3  -7  172.06    9.28
  -5  -3  -7  161.41    8.68
   6   3  -8    1.18    0.30
   6   3  -8    0.97    0.28
  -6  -3   8    0.55    0.23
  -6  -3   8    0.86    1.89
   6   3  -7   21.36    1.58
   6   3  -7   27.12    1.84
  -6  -3   7   23.28    1.66
  -6  -3   7   25.09    1.79
   6   3  -6  107.06    5.98
   6   3  -6   95.14    5.39
  -6  -3   6  107.57    6.02
  -6  -3   6  108.70    6.11
   6   3  -5    0.00    0.08
  -6  -3   5   -0.08    0.07
  -6  -3   5    0.09    0.12
   6   3  -4    4.57    0.54
   6   3  -4    3.39    0.49
  -6  -3   4    3.51    0.49
  -6  -3   4    4.48    0.58
  -6  -3   3  193.86   10.40
  -6  -3   3  170.62    9.23
  -6  -3   2  728.35   37.78
  -6  -3   2  776.97   40.25
   6   3  -1    9.54    0.82
   6   3  -1    8.86    0.80
  -6  -3   1    8.30    0.76
  -6  -3   1    9.41    0.83
   6   3   0   16.75    1.23
   6   3   0   15.37    1.14
  -6  -3   0   16.98    1.23
  -6  -3   0   16.48    1.22
   6   3   1    5.19    0.57
   6   3   1    4.98    0.55
  -6  -3  -1    5.34    0.57
  -6  -3  -1    4.71    0.53
   6   3   2    7.20    0.67
   6   3   2    6.59    0.64
  -6  -3  -2    7.49    0.70
  -6  -3  -2    6.98    0.67
   6   3   3   61.72    3.52
   6   3   3   69.37    3.95
  -6  -3  -3   66.13    3.74
  -6  -3  -3   68.92    3.91
   6   3   4   44.50    2.64
  -6  -3  -4   45.18    2.67
   6   3   5    9.39    0.81
  -6  -3  -5   10.31    0.86
   6   3   6   16.45    1.22
   6   3   6   16.27    1.18
   7   3  -8    5.40    0.74
  -7  -3   8    3.93    0.62
   7   3  -7   36.46    2.40
   7   3  -7   38.32    2.45
  -7  -3   7   35.32    2.31
  -7  -3   7   32.17    2.17
   7   3  -6    8.67    0.83
   7   3  -6    7.27    0.80
  -7  -3   6    8.18    0.82
  -7  -3   6    7.33    0.82
   7   3  -5    3.32    0.51
   7   3  -5    3.37    0.50
  -7  -3   5    2.99    0.49
  -7  -3   5    3.47    0.55
   7   3  -4   94.51    5.34
  -7  -3   4  102.34    5.74
   7   3  -3  286.39   15.19
   7   3  -3  315.15   16.63
  -7  -3   3  297.34   15.73
  -7  -3   3  284.85   15.11
   7   3  -2  260.59   13.82
   7   3  -2  217.20   11.63
  -7  -3   2  236.13   12.58
  -7  -3   2  215.25   11.51
   7   3  -1   33.32    2.15
   7   3  -1   36.59    2.29
  -7  -3   1   32.63    2.12
  -7  -3   1   33.51    2.15
   7   3   0  133.06    7.29
   7   3   0  137.46    7.47
  -7  -3   0  133.67    7.29
  -7  -3   0  135.01    7.38
   7   3   1   95.45    5.30
   7   3   1   85.70    4.84
  -7  -3  -1   96.22    5.34
  -7  -3  -1   88.06    4.94
   7   3   2   50.07    2.96
   7   3   2   44.61    2.71
  -7  -3  -2   49.58    2.95
  -7  -3  -2   47.10    2.80
   7   3   3    6.77    0.69
   7   3   3    6.27    0.63
  -7  -3  -3    7.23    0.70
  -7  -3  -3    7.35    0.71
   7   3   4    2.95    0.45
  -7  -3  -4    2.85    0.44
  -7  -3  -4    4.03    0.48
   8   3  -6    9.91    0.92
  -8  -3   6   11.02    1.01
  -8  -3   6   10.44    1.00
   8   3  -5    3.77    0.55
   8   3  -5    3.39    0.50
  -8  -3   5    3.00    0.51
  -8  -3   5    3.61    0.56
   8   3  -4   16.69    1.32
   8   3  -4   15.42    1.23
  -8  -3   4   15.77    1.30
  -8  -3   4   16.20    1.29
   8   3  -3    1.05    0.30
   8   3  -3    0.78    0.26
  -8  -3   3    0.76    0.28
  -8  -3   3    1.05    0.31
   8   3  -2   17.88    1.38
   8   3  -2   18.17    1.37
  -8  -3   2   17.98    1.38
  -8  -3   1   21.01    1.54
  -8  -3   1   20.31    1.47
   8   3   0    5.26    0.66
   8   3   0    6.63    0.71
  -8  -3   0    6.48    0.71
  -8  -3   0    6.65    0.74
   8   3   1    4.08    0.55
   8   3   1    4.85    0.59
  -8  -3  -1    4.61    0.57
  -8  -3  -1    4.24    0.57
   8   3   2    2.25    0.38
   8   3   2    2.12    0.38
  -8  -3  -2    2.81    0.43
  -8  -3  -2    2.67    0.43
   9   3  -5   21.53    1.63
   9   3  -5   20.64    1.54
  -9  -3   5   17.28    1.41
  -9  -3   5   21.71    1.60
   9   3  -4    0.26    0.15
   9   3  -4    0.01    0.09
  -9  -3   4    0.04    0.15
  -9  -3   4    0.01    0.12
   9   3  -3    0.89    0.28
   9   3  -3    1.27    0.32
  -9  -3   3    1.28    0.34
  -9  -3   3    0.79    0.28
   9   3  -2    2.91    0.49
   9   3  -2    3.40    0.52
  -9  -3   2    3.08    0.53
  -9  -3   2    3.10    0.51
   9   3  -1    7.19    0.81
  -9  -3   1    6.21    0.76
   9   3   0   28.87    1.94
   9   3   0   25.81    1.83
  -9  -3   0   28.61    2.01
  -9  -3   0   29.94    2.02
   9   3   1    0.39    0.18
  10   3  -4   39.10    2.59
 -10  -3   4   35.76    2.41
  10   3  -3    2.05    0.42
  10   3  -3    1.48    0.37
 -10  -3   3    1.99    0.43
 -10  -3   3    2.13    0.46
  10   3  -2   15.16    1.28
  10   3  -2   11.93    1.11
  -9   4   3   -0.08    0.11
  -9   4   3   -0.04    0.08
   9  -4  -3   -0.11    0.09
   9  -4  -3   -0.02    0.13
  -9   4   4   11.46    1.08
  -9   4   4   10.36    1.03
   9  -4  -4   11.75    1.14
   9  -4  -4   12.26    1.12
  -9   4   5   44.76    2.96
  -9   4   5   44.71    2.85
   9  -4  -5   45.97    2.95
   9  -4  -5   54.77    3.35
   8  -4   1   23.55    1.62
  -8   4   0    0.75    0.23
  -8   4   0    0.71    0.24
   8  -4   0    0.31    0.15
   8  -4   0    0.69    0.23
  -8   4   1    7.39    0.80
  -8   4   1    6.83    0.75
   8  -4  -1    8.07    0.82
   8  -4  -1    7.53    0.83
  -8   4   2    0.83    0.27
  -8   4   2    1.15    0.32
   8  -4  -2    0.43    0.21
   8  -4  -2    0.93    0.27
  -8   4   3   10.78    1.03
   8  -4  -3   10.83    1.04
  -8   4   4   13.16    1.16
  -8   4   4   17.40    1.39
   8  -4  -4   13.70    1.15
   8  -4  -4   16.44    1.34
  -8   4   5    4.73    0.66
  -8   4   5    4.85    0.66
   8  -4  -5    5.65    0.69
   8  -4  -5    5.58    0.72
  -8   4   6    6.07    0.77
  -8   4   6    6.57    0.80
   8  -4  -6    6.69    0.76
   8  -4  -6    7.05    0.83
  -7   4  -2  155.89    8.31
  -7   4  -2  145.65    7.80
   7  -4   2  155.07    8.30
   7  -4   2  162.85    8.67
  -7   4  -1   20.48    1.42
  -7   4  -1   23.31    1.58
   7  -4   1   20.97    1.42
   7  -4   1   19.57    1.40
  -7   4   0    0.13    0.14
  -7   4   0    0.08    0.10
   7  -4   0    0.46    0.16
   7  -4   0    0.36    0.17
  -7   4   1    3.44    0.51
  -7   4   1    3.31    0.48
   7  -4  -1    2.68    0.42
   7  -4  -1    3.29    0.51
  -7   4   2   69.92    4.09
  -7   4   2   67.79    3.94
   7  -4  -2   68.24    3.95
   7  -4  -2   68.01    4.01
  -7   4   3  219.24   11.77
  -7   4   3  235.82   12.59
   7  -4  -3  235.42   12.62
   7  -4  -3  217.50   11.63
  -7   4   4    0.28    0.18
  -7   4   4    0.32    0.19
   7  -4  -4    0.87    0.26
   7  -4  -4    0.26    0.17
  -7   4   5    8.35    0.89
  -7   4   5   10.21    0.96
   7  -4  -5   10.21    0.97
   7  -4  -5    8.75    0.86
  -7   4   6    0.07    0.12
  -7   4   6    0.10    0.13
   7  -4  -6   -0.06    0.06
   7  -4  -6    0.23    0.17
  -7   4   7    0.52    0.23
   7  -4  -7    0.69    0.25
   7  -4  -7    0.29    0.20
  -6   4  -4    0.87    0.14
  -6   4  -4    0.74    0.13
  -6   4  -3   11.42    0.84
  -6   4  -3   14.50    1.03
   6  -4   3   11.58    0.85
   6  -4   3   10.43    0.83
  -6   4  -2   33.92    2.15
  -6   4  -2   34.88    2.11
   6  -4   2   33.23    2.07
   6  -4   2   34.65    2.10
  -6   4  -1    0.53    0.18
  -6   4  -1    0.30    0.16
   6  -4   1    0.40    0.16
   6  -4   1    0.25    0.13
  -6   4   0    0.19    0.14
  -6   4   0    0.25    0.14
   6  -4   0    0.28    0.15
   6  -4   0    0.18    0.14
  -6   4   1    2.44    0.40
  -6   4   1    3.86    0.51
   6  -4  -1    2.48    0.39
   6  -4  -1    2.90    0.45
  -6   4   2   26.32    1.76
  -6   4   2   23.70    1.65
   6  -4  -2   24.97    1.73
   6  -4  -2   26.21    1.75
  -6   4   3  393.04   20.60
  -6   4   3  398.06   20.90
   6  -4  -3  401.43   21.10
   6  -4  -3  388.54   20.37
  -6   4   4    0.03    0.11
   6  -4  -4    0.28    0.18
  -6   4   5    5.79    0.69
  -6   4   5    4.34    0.59
   6  -4  -5    5.49    0.66
   6  -4  -5    6.47    0.73
  -6   4   6   12.44    1.08
  -6   4   6   12.29    1.08
   6  -4  -6   12.89    1.08
   6  -4  -6   11.80    1.06
  -6   4   7   26.58    1.86
  -6   4   7   24.10    1.74
   6  -4  -7   24.11    1.74
   6  -4  -7   25.88    1.80
  -6   4   8    0.21    0.18
   6  -4  -8    0.32    0.20
  -5   4  -5   57.19    3.16
  -5   4  -5   59.75    3.30
   5  -4   5   54.79    3.05
   5  -4   5   58.18    3.24
  -5   4  -4   23.05    1.45
  -5   4  -4   23.02    1.44
   5  -4   4   23.20    1.49
   5  -4   4   22.78    1.43
  -5   4  -3    0.36    0.14
  -5   4  -3    0.35    0.15
   5  -4   3    0.49    0.16
   5  -4   3    0.43    0.14
  -5   4  -2    0.72    0.19
   5  -4   2    0.78    0.19
  -5   4  -1   47.34    2.78
   5  -4   1   47.04    2.79
  -5   4   0    3.72    0.47
  -5   4   0    3.61    0.45
   5  -4   0    3.22    0.42
   5  -4   0    3.04    0.44
  -5   4   1   15.59    1.15
  -5   4   1   17.19    1.27
   5  -4  -1   16.62    1.20
   5  -4  -1   15.48    1.18
  -5   4   2   -0.03    0.10
  -5   4   2    0.08    0.13
   5  -4  -2    0.07    0.12
   5  -4  -2    0.16    0.13
  -5   4   3   29.69    1.97
  -5   4   3   30.62    1.99
   5  -4  -3   27.95    1.88
   5  -4  -3   25.98    1.74
  -5   4   4   28.84    1.92
  -5   4   4   31.59    2.09
   5  -4  -4   29.33    1.98
   5  -4  -4   30.83    2.01
  -5   4   5   55.23    3.32
   5  -4  -5   55.95    3.34
  -5   4   6    2.90    0.49
  -5   4   6    2.80    0.47
   5  -4  -6    3.49    0.50
   5  -4  -6    3.08    0.50
  -5   4   7    0.13    0.14
  -5   4   7    0.14    0.12
   5  -4  -7   -0.03    0.11
   5  -4  -7   -0.02    0.10
  -5   4   8    5.37    0.69
  -5   4   8    5.53    0.69
  -4   4  -7    1.04    0.23
  -4   4  -7    1.00    0.20
   4  -4   7    1.23    0.26
   4  -4   7    1.34    0.25
  -4   4  -6   62.42    3.52
  -4   4  -6   62.68    3.50
   4  -4   6   64.35    3.61
   4  -4   6   62.21    3.52
  -4   4  -5    4.38    0.48
  -4   4  -5    3.99    0.44
   4  -4   5    3.73    0.43
   4  -4   5    3.86    0.45
  -4   4  -4   93.47    5.11
  -4   4  -4   94.92    5.17
   4  -4   4  100.29    5.46
   4  -4   4   91.25    4.99
  -4   4  -3   11.34    0.87
   4  -4   3   10.59    0.83
   4  -4   3   10.84    0.84
  -4   4  -2    1.65    0.29
   4  -4   2    2.03    0.33
  -4   4  -1  276.97   14.55
   4  -4   1  272.47   14.34
  -4   4   0   45.66    2.71
  -4   4   0   45.38    2.67
   4  -4   0   46.57    2.77
   4  -4   0   44.21    2.61
  -4   4   1   96.71    5.36
  -4   4   1   95.64    5.28
   4  -4  -1   92.61    5.12
   4  -4  -1   95.35    5.30
  -4   4   2    8.53    0.78
  -4   4   2    8.76    0.78
   4  -4  -2    8.31    0.77
   4  -4  -2    6.24    0.61
  -4   4   3   63.36    3.71
  -4   4   3   69.42    3.98
   4  -4  -3   67.49    3.91
   4  -4  -3   65.79    3.79
  -4   4   4    2.85    0.45
  -4   4   4    2.69    0.42
   4  -4  -4    2.61    0.41
   4  -4  -4    2.86    0.46
  -4   4   5   51.71    3.10
  -4   4   5   51.54    3.11
   4  -4  -5   51.94    3.11
   4  -4  -5   51.87    3.16
  -4   4   6    3.90    0.56
   4  -4  -6    4.80    0.61
  -4   4   7   19.41    1.47
  -4   4   7   18.90    1.41
   4  -4  -7   17.57    1.38
   4  -4  -7   19.41    1.43
  -4   4   8    4.06    0.59
  -4   4   8    2.95    0.50
   4  -4  -8    2.64    0.45
   4  -4  -8    4.33    0.59
  -4   4   9    0.01    0.11
  -4   4   9   -0.04    0.09
   4  -4  -9    0.03    0.10
   4  -4  -9    0.02    0.13
  -3   4  -8   16.63    1.21
  -3   4  -8   14.81    1.17
   3  -4   8   16.99    1.26
   3  -4   8   16.39    1.28
  -3   4  -7    3.31    0.46
  -3   4  -7    4.17    0.49
   3  -4   7    3.20    0.47
   3  -4   7    3.37    0.45
  -3   4  -6   25.17    1.61
   3  -4   6   23.91    1.56
  -3   4  -5    6.54    0.63
  -3   4  -5    7.82    0.70
  -3   4  -4    1.82    0.31
   3  -4   4    2.04    0.33
  -3   4  -3    2.04    0.32
   3  -4   3    2.13    0.33
  -3   4  -2   26.04    1.65
  -3   4  -2   21.14    1.41
   3  -4   2   26.29    1.76
  -3   4  -1  305.22   15.98
   3  -4   1  292.22   15.32
  -3   4   0    3.58    0.43
  -3   4   0    3.35    0.43
   3  -4   0    3.02    0.41
   3  -4   0    3.64    0.43
  -3   4   1   24.40    1.61
  -3   4   1   25.88    1.67
   3  -4  -1   24.22    1.58
   3  -4  -1   24.59    1.63
  -3   4   2    0.27    0.14
  -3   4   2    0.12    0.12
   3  -4  -2    0.31    0.15
   3  -4  -2    0.39    0.16
  -3   4   3    8.12    0.76
  -3   4   3    8.07    0.75
   3  -4  -3    7.52    0.73
   3  -4  -3    7.48    0.70
  -3   4   4  274.21   14.51
  -3   4   4  269.91   14.26
   3  -4  -4  270.93   14.31
   3  -4  -4  269.50   14.29
  -3   4   5    7.50    0.75
  -3   4   5    8.25    0.78
   3  -4  -5    7.96    0.79
   3  -4  -5    8.63    0.79
  -3   4   6    2.90    0.50
  -3   4   6    2.76    0.45
   3  -4  -6    3.06    0.45
   3  -4  -6    3.69    0.56
  -3   4   7  205.83   11.03
  -3   4   7  215.76   11.60
   3  -4  -7  205.53   11.06
   3  -4  -7  171.75    9.30
  -3   4   8  118.01    6.60
  -3   4   8  107.17    6.01
   3  -4  -8  105.73    5.93
   3  -4  -8  103.99    5.89
  -3   4   9    6.31    0.75
  -3   4   9    6.57    0.79
   3  -4  -9    6.43    0.73
   3  -4  -9    5.83    0.71
  -2   4  -9    5.99    0.68
  -2   4  -9    6.32    0.74
   2  -4   9    5.51    0.66
   2  -4   9    5.64    0.71
  -2   4  -8   83.74    4.72
  -2   4  -8   83.88    4.78
   2  -4   8   80.03    4.55
   2  -4   8   80.34    4.62
  -2   4  -7    8.82    0.81
  -2   4  -7    9.58    0.83
   2  -4   7    9.80    0.86
   2  -4   7   10.20    0.91
  -2   4  -6    5.79    0.61
  -2   4  -6    6.02    0.61
   2  -4   6    6.43    0.64
   2  -4   6    6.61    0.68
  -2   4  -5   14.30    1.04
  -2   4  -5   14.23    1.05
   2  -4   5   15.27    1.12
   2  -4   5   15.65    1.14
  -2   4  -4   95.90    5.25
   2  -4   4   91.23    5.03
  -2   4  -3    9.33    0.76
   2  -4   3    9.86    0.80
   2  -4   2   31.15    1.92
  -2   4  -1   12.33    0.93
   2  -4   1   12.60    0.94
  -2   4   0    9.44    0.77
  -2   4   0    9.90    0.80
   2  -4   0    9.63    0.78
   2  -4   0    8.83    0.75
  -2   4   2    1.98    0.33
  -2   4   2    1.95    0.35
   2  -4  -2    1.38    0.28
   2  -4  -2    1.81    0.31
  -2   4   3   10.13    0.86
  -2   4   3   11.01    0.90
   2  -4  -3   13.61    1.06
   2  -4  -3   10.56    0.86
  -2   4   4   14.32    1.10
  -2   4   4   14.36    1.12
   2  -4  -4   15.42    1.15
   2  -4  -4   14.45    1.14
  -2   4   5    3.12    0.48
  -2   4   5    2.07    0.38
   2  -4  -5    1.73    0.34
   2  -4  -5    2.41    0.39
  -2   4   6    7.51    0.76
  -2   4   6    8.73    0.81
   2  -4  -6    9.21    0.82
   2  -4  -6   10.13    0.92
  -2   4   7  644.63   33.56
   2  -4  -7  717.81   37.31
  -2   4   8   72.80    4.28
  -2   4   8   78.02    4.49
   2  -4  -8   79.14    4.54
   2  -4  -8   75.00    4.38
  -2   4   9   19.27    1.44
  -2   4   9   19.72    1.51
  -2   4  10   15.24    1.28
  -2   4  10   13.77    1.18
   2  -4 -10   19.53    1.51
   2  -4 -10   15.02    1.24
  -1   4 -10   12.08    1.08
  -1   4 -10   11.01    1.08
   1  -4  10    7.15    1.07
  -1   4  -9   10.46    1.00
  -1   4  -9    7.95    0.81
   1  -4   9   11.34    1.03
   1  -4   9    8.25    0.90
  -1   4  -8  165.71    8.96
  -1   4  -8  157.52    8.58
   1  -4   8  170.52    9.22
   1  -4   8  159.16    8.67
  -1   4  -7    3.79    0.50
  -1   4  -7    4.55    0.56
   1  -4   7    3.79    0.50
   1  -4   7    4.24    0.56
  -1   4  -6   14.08    1.06
  -1   4  -6   14.59    1.11
   1  -4   6   13.76    1.07
   1  -4   6   14.06    1.08
  -1   4  -5  115.56    6.29
  -1   4  -5  118.42    6.46
   1  -4   5  122.21    6.65
   1  -4   5  130.40    7.07
  -1   4  -4    1.26    0.27
  -1   4  -4    0.84    0.23
   1  -4   4    0.89    0.23
   1  -4   4    1.36    0.28
  -1   4  -3   50.99    2.95
  -1   4  -3   50.99    2.97
   1  -4   3   56.87    3.27
   1  -4   3   54.74    3.16
  -1   4  -2   60.00    3.41
   1  -4   2   59.57    3.51
   1  -4   2   52.65    3.04
  -1   4  -1   11.33    0.87
   1  -4   1   11.34    0.88
  -1   4   0 1162.75   59.89
  -1   4   0 1096.22   56.48
   1  -4   0  968.58   49.96
   1  -4   0 1100.31   56.69
  -1   4   1    4.93    0.52
  -1   4   1    4.59    0.49
   1  -4  -1    5.09    0.53
   1  -4  -1    6.14    0.58
  -1   4   2   40.49    2.44
  -1   4   2   36.16    2.21
   1  -4  -2   39.50    2.37
   1  -4  -2   37.26    2.27
  -1   4   3   90.91    5.06
  -1   4   3   91.68    5.09
   1  -4  -3   69.56    3.94
   1  -4  -3   77.40    4.36
  -1   4   4   52.53    3.11
  -1   4   4   56.55    3.30
   1  -4  -4   55.30    3.27
   1  -4  -4   49.25    2.91
  -1   4   5   52.34    3.10
  -1   4   5   47.82    2.91
   1  -4  -5   49.17    2.93
   1  -4  -5   49.52    2.99
  -1   4   6   16.53    1.27
  -1   4   6   14.07    1.11
   1  -4  -6   15.91    1.24
   1  -4  -6   14.99    1.16
  -1   4   7   40.62    2.54
  -1   4   7   47.67    3.02
   1  -4  -7   45.64    2.79
   1  -4  -8    7.97    0.79
   1  -4  -8    9.06    0.88
  -1   4   9    8.66    0.89
  -1   4   9   11.38    1.05
   1  -4  -9    9.30    0.90
   1  -4  -9    8.53    0.86
  -1   4  10    3.43    0.57
  -1   4  10    3.91    0.58
   1  -4 -10    4.22    0.61
   1  -4 -10    4.14    0.58
   0   4 -11    2.20    0.47
   0   4 -11    1.08    0.34
   0  -4  11    2.67    0.53
   0  -4  11    2.20    0.46
   0   4 -10    0.12    0.14
   0   4 -10    0.20    0.15
   0  -4  10    0.06    0.16
   0  -4  10    0.19    0.17
   0   4  -9    8.63    0.86
   0  -4   9   10.83    1.04
   0   4  -8   10.28    0.92
   0   4  -8    8.77    0.84
   0  -4   8    9.81    0.95
   0  -4   8   10.10    0.93
   0   4  -7   15.06    1.17
   0   4  -7   15.72    1.19
   0  -4   7   14.73    1.17
   0  -4   7   15.90    1.22
   0   4  -6    8.13    0.77
   0   4  -6    8.94    0.80
   0  -4   6   10.25    0.87
   0  -4   6    8.76    0.81
   0   4  -5  113.41    6.20
   0   4  -5  100.99    5.59
   0  -4   5  109.62    6.02
   0  -4   5  100.06    5.54
   0   4  -4   14.78    1.08
   0   4  -4   15.52    1.14
   0  -4   4   16.68    1.20
   0  -4   4   15.68    1.15
   0   4  -3   14.51    1.06
   0   4  -3   14.37    1.04
   0  -4   3   15.59    1.14
   0  -4   3   15.82    1.15
   0   4  -2  259.26   13.63
   0   4  -2  262.33   13.81
   0  -4   2  236.64   12.49
   0  -4   2  258.44   13.60
   0   4  -1   61.30    3.48
   0   4  -1   59.96    3.43
   0  -4   1   54.46    3.14
   0  -4   1   58.83    3.37
   0   4   1   52.73    3.05
   0   4   1   55.36    3.19
   0  -4  -1   55.76    3.20
   0  -4  -1   51.69    3.00
   0   4   2  237.46   12.54
   0   4   2  248.82   13.13
   0   4   3   16.49    1.19
   0   4   3   13.27    1.02
   0  -4  -3   17.50    1.23
   0  -4  -3   16.69    1.20
   0   4   4   15.01    1.13
   0   4   4   17.47    1.27
   0  -4  -4   14.36    1.08
   0  -4  -4   15.79    1.19
   0   4   5   96.02    5.34
   0   4   5  107.78    5.98
   0  -4  -5  100.46    5.61
   0  -4  -5   96.40    5.35
   0   4   6    8.40    0.81
   0   4   6    9.72    0.87
   0  -4  -6    9.50    0.84
   0  -4  -6    8.55    0.82
   0  -4  -7   12.92    1.08
   0  -4  -7   15.72    1.21
   0   4   8   11.78    1.06
   0  -4  -8    9.49    0.91
   0   4   9    9.30    0.92
   0   4   9    8.86    0.93
   0  -4  -9    8.62    0.87
   0  -4  -9    8.27    0.84
   0   4  10    0.03    0.15
   0   4  10    0.02    0.16
   0  -4 -10    0.13    0.15
   0  -4 -10    0.19    0.15
   0   4  11    2.10    0.45
   0  -4 -11    1.38    0.34
   1   4 -11    6.31    0.75
   1   4 -11    6.54    0.77
  -1  -4  11    5.44    0.72
  -1  -4  11    5.36    0.75
   1   4 -10    5.23    0.66
   1   4 -10    3.58    0.55
  -1  -4  10    4.14    0.63
  -1  -4  10    5.26    0.68
   1   4  -9   11.54    1.02
   1   4  -9    9.58    0.92
  -1  -4   9    9.97    0.96
  -1  -4   9    8.88    0.89
   1   4  -8   10.13    0.93
  -1  -4   8    7.85    0.83
   1   4  -7   45.49    2.79
   1   4  -7   41.69    2.57
  -1  -4   7   36.77    2.34
  -1  -4   7   44.84    2.75
  -1  -4   6   17.37    1.30
  -1  -4   6   14.67    1.13
   1   4  -5   57.38    3.36
   1   4  -5   54.54    3.20
  -1  -4   5   52.29    3.09
  -1  -4   5   55.64    3.27
   1   4  -4   58.99    3.43
   1   4  -4   51.53    3.04
  -1  -4   4   57.24    3.33
  -1  -4   4   59.07    3.43
   1   4  -3   87.45    4.85
   1   4  -3   90.26    5.02
  -1  -4   3   81.80    4.58
  -1  -4   3   84.14    4.70
   1   4  -2   40.80    2.46
   1   4  -2   35.77    2.18
   1   4  -1    5.83    0.57
   1   4  -1    5.79    0.58
  -1  -4   1    5.56    0.56
  -1  -4   1    7.07    0.66
   1   4   0 1034.80   53.36
   1   4   0 1085.98   56.01
  -1  -4   0 1121.80   57.82
  -1  -4   0 1120.78   57.79
   1   4   1   12.96    0.98
   1   4   1   11.33    0.89
  -1  -4  -1   11.14    0.88
  -1  -4  -1   13.48    1.01
   1   4   2   51.79    3.02
   1   4   2   42.52    2.54
  -1  -4  -2   50.83    2.96
  -1  -4  -2   47.42    2.79
   1   4   3   47.21    2.79
   1   4   3   42.72    2.57
  -1  -4  -3   61.10    3.50
  -1  -4  -3   52.53    3.07
   1   4   4    0.67    0.20
   1   4   4    0.78    0.21
  -1  -4  -4    0.94    0.25
  -1  -4  -4    1.34    0.28
   1   4   5  123.64    6.76
   1   4   5  133.57    7.29
  -1  -4  -5  109.83    6.09
  -1  -4  -5  102.35    5.66
   1   4   6   13.65    1.08
  -1  -4  -6   15.01    1.19
  -1  -4  -6   12.88    1.02
   1   4   7    4.74    0.62
   1   4   7    4.60    0.57
  -1  -4  -7    4.94    0.58
  -1  -4  -7    5.63    0.67
   1   4   8  154.25    8.40
  -1  -4  -8  153.94    8.38
   1   4   9   10.49    0.97
   1   4   9    9.04    0.94
  -1  -4  -9    9.96    0.97
  -1  -4  -9   10.38    0.95
   1   4  10   12.74    1.20
   1   4  10   10.05    1.02
  -1  -4 -10   12.18    1.11
  -1  -4 -10   10.40    0.95
   1   4  11    2.01    0.45
   1   4  11    1.98    0.45
  -1  -4 -11    2.47    0.48
  -1  -4 -11    2.40    0.44
   2   4 -11   36.94    2.43
  -2  -4  11   38.45    2.63
   2   4 -10   17.23    1.34
   2   4 -10   15.74    1.30
  -2  -4  10   15.04    1.29
  -2  -4  10   15.44    1.27
   2   4  -9   19.48    1.45
   2   4  -9   20.07    1.54
  -2  -4   9   19.82    1.51
  -2  -4   9   20.00    1.50
   2   4  -8   82.73    4.72
   2   4  -8   79.47    4.61
  -2  -4   8   78.96    4.55
   2   4  -7  626.92   32.59
   2   4  -7  575.54   29.99
  -2  -4   7  664.59   34.53
  -2  -4   7  625.90   32.57
   2   4  -6    8.61    0.81
   2   4  -6    9.28    0.85
  -2  -4   6    7.96    0.78
  -2  -4   6    9.22    0.85
   2   4  -5    1.95    0.35
   2   4  -5    2.49    0.40
  -2  -4   5    2.04    0.37
  -2  -4   5    1.83    0.35
   2   4  -4   15.76    1.17
   2   4  -4   14.24    1.11
  -2  -4   4   15.27    1.16
  -2  -4   4   14.60    1.12
   2   4  -3   10.77    0.87
   2   4  -3   12.59    0.99
  -2  -4   3   11.94    0.96
  -2  -4   3   11.48    0.93
   2   4  -2    1.48    0.30
   2   4  -2    1.95    0.34
  -2  -4   2    1.78    0.33
  -2  -4   2    2.00    0.34
   2   4  -1   32.61    2.03
   2   4  -1   31.42    1.99
  -2  -4   1   32.93    2.06
  -2  -4   1   37.02    2.26
   2   4   0    9.96    0.83
   2   4   0    8.50    0.74
  -2  -4   0    9.50    0.80
  -2  -4   0    9.31    0.79
   2   4   1   13.67    1.02
   2   4   1   15.35    1.13
   2   4   2   23.22    1.54
   2   4   2   28.39    1.82
   2   4   3    7.98    0.72
   2   4   3    9.52    0.81
  -2  -4  -3    8.08    0.73
  -2  -4  -3    8.58    0.75
   2   4   4   97.26    5.38
   2   4   4   96.94    5.38
  -2  -4  -4  113.82    6.36
   2   4   5   14.50    1.12
   2   4   5   14.17    1.11
  -2  -4  -5   16.58    1.21
  -2  -4  -5   14.18    1.13
   2   4   6    6.37    0.69
   2   4   6    6.83    0.74
  -2  -4  -6    6.67    0.67
  -2  -4  -6    7.52    0.75
   2   4   7   10.40    0.95
   2   4   7    9.10    0.88
  -2  -4  -7    8.50    0.84
  -2  -4  -7    8.42    0.79
   2   4   8   82.02    4.78
   2   4   8   79.71    4.60
  -2  -4  -8   73.02    4.23
   2   4   9    5.15    0.67
   2   4   9    4.80    0.68
  -2  -4  -9    4.30    0.62
  -2  -4  -9    5.02    0.63
   2   4  10   23.11    1.76
   2   4  10   25.36    1.85
  -2  -4 -10   25.11    1.79
  -2  -4 -10   22.62    1.72
   3   4 -10    0.39    0.19
   3   4 -10    0.36    0.19
  -3  -4  10    0.28    0.18
  -3  -4  10    0.49    0.21
   3   4  -9    6.09    0.71
   3   4  -9    5.67    0.71
  -3  -4   9    4.88    0.68
   3   4  -8  119.35    6.65
   3   4  -8  110.13    6.19
  -3  -4   8   99.35    5.64
  -3  -4   8  111.67    6.25
   3   4  -7  219.45   11.73
  -3  -4   7  213.20   11.43
   3   4  -6    3.09    0.47
   3   4  -6    3.05    0.45
  -3  -4   6    3.64    0.52
  -3  -4   6    3.10    0.48
   3   4  -5    9.97    0.88
   3   4  -5    9.99    0.86
  -3  -4   5    8.06    0.77
  -3  -4   5    9.03    0.83
   3   4  -4  284.44   15.03
   3   4  -4  251.48   13.32
  -3  -4   4  259.78   13.76
  -3  -4   4  278.51   14.72
   3   4  -3    7.83    0.73
   3   4  -3    8.52    0.78
  -3  -4   3    8.79    0.79
  -3  -4   3    7.60    0.73
   3   4  -2    0.46    0.18
   3   4  -2    0.34    0.14
  -3  -4   2    0.50    0.19
  -3  -4   2    0.33    0.15
   3   4  -1   23.32    1.58
   3   4  -1   26.29    1.71
  -3  -4   1   25.37    1.67
  -3  -4   1   20.52    1.42
   3   4   0    4.04    0.48
   3   4   0    4.27    0.50
  -3  -4   0    4.14    0.48
  -3  -4   0    3.97    0.47
  -3  -4  -1  310.34   16.29
  -3  -4  -1  285.16   15.01
   3   4   2   21.82    1.47
   3   4   2   27.45    1.78
  -3  -4  -2   22.68    1.53
  -3  -4  -2   23.08    1.55
   3   4   3    1.97    0.34
   3   4   3    2.08    0.36
  -3  -4  -3    1.95    0.35
  -3  -4  -3    2.88    0.41
   3   4   4    2.47    0.40
   3   4   4    1.79    0.34
  -3  -4  -4    2.28    0.37
  -3  -4  -4    1.67    0.33
   3   4   5    8.26    0.79
   3   4   5   10.07    0.88
  -3  -4  -5    8.60    0.82
  -3  -4  -5    8.98    0.80
   3   4   6   27.79    1.84
   3   4   6   27.66    1.86
  -3  -4  -6   20.50    1.44
  -3  -4  -6   23.07    1.64
   3   4   7    4.24    0.59
   3   4   7    3.43    0.51
  -3  -4  -7    4.10    0.54
  -3  -4  -7    3.71    0.53
   3   4   8   19.28    1.54
   3   4   8   15.82    1.31
  -3  -4  -8   17.12    1.36
  -3  -4  -8   16.03    1.27
   3   4   9    1.01    0.32
  -3  -4  -9    1.12    0.33
   4   4  -9    0.06    0.11
   4   4  -9    0.01    0.10
  -4  -4   9   -0.01    0.12
  -4  -4   9    0.31    0.17
   4   4  -8    2.95    0.48
   4   4  -8    3.63    0.52
  -4  -4   8    4.23    0.60
  -4  -4   8    2.84    0.48
   4   4  -7   18.31    1.37
   4   4  -7   22.10    1.62
  -4  -4   7   20.32    1.49
  -4  -4   7   19.79    1.48
   4   4  -6    4.10    0.54
  -4  -4   6    4.06    0.55
   4   4  -5   55.41    3.32
   4   4  -5   51.93    3.11
  -4  -4   5   54.15    3.25
  -4  -4   5   50.81    3.07
   4   4  -4    3.79    0.50
   4   4  -4    3.02    0.45
  -4  -4   4    2.95    0.45
  -4  -4   4    3.07    0.46
   4   4  -3   61.60    3.60
   4   4  -3   66.04    3.82
  -4  -4   3   59.75    3.50
  -4  -4   3   59.91    3.50
   4   4  -2    8.67    0.79
   4   4  -2    8.46    0.77
  -4  -4   2    9.20    0.82
  -4  -4   2    6.75    0.69
   4   4  -1  116.68    6.39
   4   4  -1   96.83    5.39
  -4  -4   1   97.89    5.44
  -4  -4   1   86.22    4.85
   4   4   0   48.16    2.87
   4   4   0   44.97    2.71
  -4  -4   0   47.79    2.85
  -4  -4   0   46.57    2.79
   4   4   1  280.76   14.79
   4   4   1  305.63   16.08
  -4  -4  -1  298.36   15.71
  -4  -4  -1  258.85   13.68
   4   4   2    1.72    0.33
   4   4   2    1.57    0.32
  -4  -4  -2    1.75    0.33
  -4  -4  -2    2.07    0.35
   4   4   3    9.37    0.82
   4   4   3   11.49    0.94
  -4  -4  -3   11.79    0.96
  -4  -4  -3   11.32    0.92
   4   4   4   94.08    5.25
   4   4   4  104.20    5.76
  -4  -4  -4   88.77    4.97
  -4  -4  -4   98.80    5.49
   4   4   5    4.06    0.53
   4   4   5    4.31    0.56
  -4  -4  -5    4.29    0.53
  -4  -4  -5    3.37    0.48
   4   4   6   65.82    3.84
   4   4   6   65.04    3.84
  -4  -4  -6   66.22    3.89
  -4  -4  -6   66.85    3.87
   4   4   7    0.68    0.27
   4   4   7    1.11    0.30
  -4  -4  -7    1.07    0.31
  -4  -4  -7    1.40    0.32
   4   4   8    2.36    0.47
   4   4   8    2.38    0.44
  -4  -4  -8    1.86    0.40
  -4  -4  -8    2.40    0.42
   5   4  -8    7.54    0.79
   5   4  -8    5.52    0.67
  -5  -4   8    5.25    0.67
  -5  -4   8    6.84    0.79
   5   4  -7    0.16    0.12
   5   4  -7    0.15    0.13
  -5  -4   7   -0.07    0.12
  -5  -4   7    0.07    0.14
   5   4  -6    2.99    0.46
   5   4  -6    2.91    0.46
  -5  -4   6    2.98    0.50
  -5  -4   6    3.51    0.52
   5   4  -5   66.46    3.87
  -5  -4   5   57.97    3.45
   5   4  -4   36.89    2.33
   5   4  -4   33.68    2.18
  -5  -4   4   32.74    2.15
  -5  -4   4   33.95    2.19
   5   4  -3   25.51    1.74
   5   4  -3   31.76    2.06
  -5  -4   3   27.31    1.84
  -5  -4   3   32.69    2.12
   5   4  -2    0.13    0.11
   5   4  -2    0.04    0.12
  -5  -4   2   -0.04    0.08
  -5  -4   2    0.12    0.11
   5   4  -1   15.24    1.17
   5   4  -1   14.45    1.12
  -5  -4   1   18.46    1.34
  -5  -4   1   15.22    1.18
   5   4   0    4.16    0.53
  -5  -4   0    3.69    0.49
  -5  -4   0    4.44    0.53
   5   4   1   44.93    2.73
   5   4   1   44.15    2.67
  -5  -4  -1   46.29    2.80
  -5  -4  -1   48.86    2.92
   5   4   2    0.90    0.25
   5   4   2    1.55    0.32
  -5  -4  -2    0.76    0.23
  -5  -4  -2    0.74    0.23
   5   4   3    0.24    0.13
   5   4   3    0.23    0.13
  -5  -4  -3    0.34    0.17
  -5  -4  -3    0.20    0.14
   5   4   4   25.19    1.70
   5   4   4   23.51    1.63
  -5  -4  -4   23.10    1.60
  -5  -4  -4   21.64    1.50
   5   4   5   67.93    3.96
   5   4   5   61.00    3.59
  -5  -4  -5   63.09    3.68
   5   4   6   18.97    1.42
   5   4   6   16.56    1.31
  -5  -4  -6   17.04    1.30
  -5  -4  -6   16.59    1.29
   5   4   7    0.55    0.21
   5   4   7    0.83    0.27
  -5  -4  -7    0.90    0.29
  -5  -4  -7    0.92    0.30
   6   4  -8    0.09    0.13
  -6  -4   8    0.14    0.17
   6   4  -7   26.29    1.85
   6   4  -7   25.20    1.75
  -6  -4   7   24.38    1.74
  -6  -4   7   28.82    2.00
   6   4  -6   10.98    1.00
   6   4  -6   11.81    1.02
  -6  -4   6   13.24    1.12
  -6  -4   6    9.71    0.93
   6   4  -5    3.55    0.51
   6   4  -5    4.50    0.60
  -6  -4   5    4.80    0.62
  -6  -4   5    4.24    0.59
   6   4  -4    0.43    0.18
   6   4  -4    0.32    0.17
  -6  -4   4    0.14    0.17
  -6  -4   4    0.21    0.18
   6   4  -3  363.26   19.13
  -6  -4   3  346.98   18.29
   6   4  -2   25.64    1.76
   6   4  -2   26.47    1.78
  -6  -4   2   27.07    1.84
  -6  -4   2   28.54    1.90
   6   4  -1    2.87    0.44
   6   4  -1    2.26    0.40
  -6  -4   1    3.09    0.46
  -6  -4   1    3.48    0.49
   6   4   0    0.07    0.10
   6   4   0    0.26    0.15
  -6  -4   0    0.08    0.11
  -6  -4   0    0.05    0.12
   6   4   1    0.12    0.12
   6   4   1    0.07    0.13
  -6  -4  -1    0.51    0.20
  -6  -4  -1    0.17    0.13
   6   4   2   38.31    2.38
   6   4   2   30.61    2.01
  -6  -4  -2   31.21    2.04
  -6  -4  -2   28.89    1.89
   6   4   3    9.97    0.89
   6   4   3   12.11    1.02
  -6  -4  -3   11.21    0.96
  -6  -4  -3   10.81    0.94
   6   4   4    0.86    0.26
   6   4   4    0.50    0.20
  -6  -4  -4    0.53    0.21
  -6  -4  -4    0.75    0.24
   6   4   5    0.50    0.19
   6   4   5    0.47    0.20
  -6  -4  -5    1.00    0.28
  -6  -4  -5    0.77    0.25
   6   4   6    8.10    0.90
   6   4   6   10.09    0.93
   7   4  -6    0.01    0.13
   7   4  -6    0.06    0.08
  -7  -4   6    0.06    0.13
  -7  -4   6    0.00    0.13
   7   4  -5   10.03    0.94
   7   4  -5   12.64    1.06
  -7  -4   5   10.78    0.98
  -7  -4   5   10.32    0.98
   7   4  -4    0.31    0.17
  -7  -4   4    0.62    0.24
  -7  -4   4    0.30    0.17
   7   4  -3  225.28   12.06
   7   4  -3  208.19   11.21
  -7  -4   3  229.68   12.28
  -7  -4   3  228.05   12.23
   7   4  -2   66.43    3.89
  -7  -4   2   63.92    3.77
   7   4  -1    3.80    0.54
   7   4  -1    4.27    0.56
  -7  -4   1    3.69    0.53
  -7  -4   1    2.80    0.46
   7   4   0    0.33    0.17
   7   4   0    0.34    0.17
  -7  -4   0    0.14    0.15
  -7  -4   0    0.68    0.24
   7   4   1   25.12    1.72
   7   4   1   21.13    1.54
  -7  -4  -1   21.35    1.54
  -7  -4  -1   21.48    1.55
   7   4   2  158.96    8.65
   7   4   2  136.34    7.46
  -7  -4  -2  155.68    8.46
  -7  -4  -2  146.78    8.01
   7   4   3    9.32    0.90
   7   4   3    7.82    0.80
  -7  -4  -3    8.69    0.84
  -7  -4  -3    9.96    0.94
   7   4   4    9.41    0.89
   7   4   4    9.76    0.92
  -7  -4  -4   10.93    0.97
  -7  -4  -4    9.04    0.89
   8   4  -5    5.95    0.73
   8   4  -5    5.24    0.64
  -8  -4   5    5.24    0.70
  -8  -4   5    4.30    0.61
   8   4  -4   17.69    1.36
   8   4  -4   14.84    1.24
  -8  -4   4   16.01    1.33
  -8  -4   4   13.31    1.13
   8   4  -3   12.41    1.07
   8   4  -3   11.43    1.03
  -8  -4   3   11.99    1.05
  -8  -4   3   13.56    1.18
   8   4  -2    0.41    0.20
   8   4  -2    0.61    0.23
  -8  -4   2    0.66    0.24
  -8  -4   2    0.73    0.26
   8   4  -1    7.67    0.83
   8   4  -1    7.41    0.78
  -8  -4   1    7.33    0.82
  -8  -4   1    7.13    0.80
   8   4   0    0.52    0.20
  -8  -4   0    0.39    0.20
   8   4   1   24.55    1.75
   8   4   1   23.94    1.70
  -8  -4  -1   26.55    1.86
  -8  -4  -1   25.20    1.76
   8   4   2   45.30    2.79
   8   4   2   50.16    3.07
  -8  -4  -2   46.79    2.93
  -8  -4  -2   51.05    3.12
   9   4  -4    9.90    0.99
  -9  -4   4    8.86    0.95
   9   4  -3    0.35    0.19
   9   4  -3    0.04    0.11
  -9  -4   3   -0.07    0.12
  -9  -4   3   -0.07    0.11
   9   4  -2   53.35    3.30
   9   4  -2   64.44    3.84
  -9  -4   2   53.32    3.30
  -9  -4   2   64.70    3.87
   9   4  -1    0.69    0.26
   9   4  -1    0.62    0.25
  -9  -4   1    0.53    0.25
  -9  -4   1    0.48    0.23
   9   4   0    8.78    0.94
   9   4   0    9.46    0.95
  -9  -4   0    8.49    1.00
  -9  -4   0    8.34    0.96
   9  -5  -3   36.94    2.44
   9  -5  -3   39.29    2.63
  -9   5   4    0.67    0.27
   9  -5  -4    1.13    0.32
   8  -5   0    8.55    0.85
   8  -5   0    7.34    0.88
  -8   5   1    0.01    0.12
   8  -5  -1   -0.05    0.07
  -8   5   2    3.15    0.53
  -8   5   2    2.06    0.42
   8  -5  -2    3.18    0.50
   8  -5  -2    2.19    0.45
  -8   5   3   10.33    1.03
  -8   5   3   10.12    0.99
   8  -5  -3   11.49    1.10
   8  -5  -3    9.77    0.95
  -8   5   4    1.63    0.38
  -8   5   4    2.06    0.43
   8  -5  -4    1.71    0.41
   8  -5  -4    1.42    0.34
  -8   5   5    5.35    0.70
   8  -5  -5    6.09    0.74
   7  -5   2    1.34    0.29
   7  -5   2    0.93    0.27
  -7   5  -1   89.05    5.04
  -7   5  -1   81.40    4.67
   7  -5   1   87.63    4.93
   7  -5   1   83.98    4.83
  -7   5   0    4.66    0.59
  -7   5   0    5.02    0.64
   7  -5   0    6.03    0.67
   7  -5   0    4.99    0.66
  -7   5   1   12.34    1.07
  -7   5   1   11.26    1.04
   7  -5  -1   12.11    1.04
   7  -5  -1   10.05    1.00
  -7   5   2  327.12   17.33
   7  -5  -2  359.47   19.00
  -7   5   3  170.32    9.30
  -7   5   3  155.78    8.52
   7  -5  -3  166.33    9.04
   7  -5  -3  152.41    8.40
  -7   5   4   -0.07    0.09
  -7   5   4    0.13    0.13
   7  -5  -4   -0.09    0.12
   7  -5  -4    0.08    0.12
  -7   5   5    5.62    0.71
  -7   5   5    4.67    0.66
   7  -5  -5    4.95    0.68
   7  -5  -5    5.46    0.67
  -7   5   6   16.32    1.35
   7  -5  -6   16.17    1.28
   6  -5   4    0.97    0.28
   6  -5   4    1.24    0.27
  -6   5  -3    0.47    0.19
  -6   5  -3    0.10    0.12
   6  -5   3    0.44    0.18
   6  -5   3    0.35    0.16
  -6   5  -2   38.41    2.38
  -6   5  -2   38.30    2.41
   6  -5   2   34.66    2.24
   6  -5   2   35.91    2.25
  -6   5  -1    6.33    0.69
  -6   5  -1    7.87    0.80
   6  -5   1    7.72    0.81
   6  -5   1    6.15    0.67
  -6   5   0    5.25    0.64
  -6   5   0    6.11    0.68
   6  -5   0    4.07    0.53
   6  -5   0    5.41    0.68
  -6   5   1   11.31    0.96
  -6   5   1    8.68    0.85
   6  -5  -1    8.79    0.87
   6  -5  -1   10.70    0.94
  -6   5   2  222.01   11.87
  -6   5   2  224.16   12.02
   6  -5  -2  200.31   10.75
   6  -5  -2  220.06   11.84
  -6   5   3   21.86    1.61
   6  -5  -3   23.58    1.73
  -6   5   4   16.52    1.32
  -6   5   4   16.13    1.28
   6  -5  -4   19.31    1.43
   6  -5  -4   20.63    1.56
  -6   5   5    9.45    0.92
  -6   5   5   10.03    0.97
   6  -5  -5   11.49    1.06
  -6   5   6    3.96    0.60
   6  -5  -6    3.72    0.57
   6  -5  -6    3.53    0.53
  -5   5  -5  397.75   20.77
   5  -5   5  403.69   21.13
  -5   5  -4   18.38    1.31
  -5   5  -4   19.81    1.39
   5  -5   4   18.20    1.31
   5  -5   4   20.03    1.44
  -5   5  -3    0.12    0.12
  -5   5  -3    0.12    0.11
   5  -5   3    0.06    0.10
   5  -5   3    0.18    0.13
  -5   5  -2   12.10    0.98
  -5   5  -2   10.51    0.90
   5  -5   2   12.04    0.98
   5  -5   2    9.79    0.91
  -5   5  -1    4.32    0.53
  -5   5  -1    4.49    0.56
   5  -5   1    3.51    0.51
   5  -5   1    5.42    0.60
  -5   5   0   23.22    1.62
  -5   5   0   25.83    1.72
   5  -5   0   26.28    1.74
   5  -5   0   21.91    1.58
  -5   5   1   40.41    2.50
  -5   5   1   40.46    2.54
   5  -5  -1   38.62    2.47
   5  -5  -1   38.73    2.41
   5  -5  -2   29.49    1.93
   5  -5  -2   27.23    1.87
  -5   5   3    0.55    0.23
   5  -5  -3    0.25    0.18
  -5   5   5   26.32    1.82
  -5   5   5   25.99    1.83
   5  -5  -5   26.52    1.82
   5  -5  -5   28.32    1.97
  -5   5   6    5.57    0.72
  -5   5   6    5.14    0.67
   5  -5  -6    6.65    0.72
   5  -5  -6    6.08    0.74
  -5   5   7   34.42    2.30
  -5   5   7   36.55    2.37
   5  -5  -7   36.93    2.37
   5  -5  -7   45.04    2.86
  -4   5  -6   12.54    1.02
  -4   5  -6   15.49    1.20
   4  -5   6   13.56    1.10
   4  -5   6   13.84    1.11
  -4   5  -5  457.11   23.83
  -4   5  -5  488.44   25.46
   4  -5   5  510.13   26.56
   4  -5   5  484.34   25.24
  -4   5  -4    0.48    0.18
  -4   5  -4    0.80    0.23
   4  -5   4    0.84    0.24
   4  -5   4    0.75    0.24
  -4   5  -3   78.54    4.44
  -4   5  -3   71.25    4.05
   4  -5   3   68.79    3.93
   4  -5   3   75.22    4.27
  -4   5  -2   22.11    1.51
  -4   5  -2   21.55    1.48
   4  -5   2   23.36    1.58
   4  -5   2   20.30    1.42
  -4   5  -1    2.69    0.40
  -4   5  -1    1.84    0.35
   4  -5   1    2.01    0.37
   4  -5   1    2.91    0.42
  -4   5   0   62.62    3.62
  -4   5   0   55.37    3.28
   4  -5   0   56.24    3.29
   4  -5   0   65.13    3.81
  -4   5   1   47.94    2.90
  -4   5   1   46.96    2.84
   4  -5  -1   45.42    2.85
   4  -5  -2    1.82    0.37
   4  -5  -2    1.65    0.34
  -4   5   3    8.31    0.81
  -4   5   3    8.37    0.81
   4  -5  -3    6.15    0.71
   4  -5  -3    8.09    0.77
  -4   5   4    9.18    0.86
   4  -5  -4    7.55    0.75
  -4   5   5   10.96    0.99
  -4   5   5   10.19    0.92
   4  -5  -5   10.99    1.00
   4  -5  -5    9.80    0.89
  -4   5   6    3.32    0.52
  -4   5   6    5.02    0.66
   4  -5  -6    3.92    0.54
   4  -5  -6    5.21    0.66
  -4   5   7   16.32    1.30
  -4   5   7   16.25    1.31
   4  -5  -7   16.48    1.29
   4  -5  -7   18.77    1.45
  -4   5   8   13.88    1.16
   4  -5  -8    8.94    0.87
   3  -5   8    0.96    0.30
  -3   5  -7    1.13    0.29
  -3   5  -7    0.61    0.23
   3  -5   7    0.82    0.25
   3  -5   7    0.73    0.24
  -3   5  -6   17.57    1.32
  -3   5  -6   16.42    1.23
   3  -5   6   19.52    1.41
   3  -5   6   16.02    1.25
  -3   5  -5  102.35    5.69
  -3   5  -5  109.31    6.01
   3  -5   5  106.86    5.91
   3  -5   5  110.65    6.11
  -3   5  -4    3.33    0.46
  -3   5  -4    2.64    0.40
   3  -5   4    2.87    0.43
   3  -5   4    3.04    0.44
  -3   5  -3   14.97    1.14
  -3   5  -3   12.55    0.99
   3  -5   3   13.91    1.06
   3  -5   3   13.33    1.04
  -3   5  -2   25.77    1.70
  -3   5  -2   30.18    1.93
   3  -5   2   24.77    1.66
   3  -5   2   26.45    1.74
  -3   5  -1    0.03    0.10
  -3   5  -1    0.08    0.10
   3  -5   1   -0.06    0.10
   3  -5   1   -0.09    0.11
  -3   5   0    4.87    0.55
  -3   5   0    5.38    0.58
   3  -5   0    4.36    0.52
   3  -5   0    4.53    0.52
  -3   5   1   31.81    2.04
  -3   5   1   32.05    2.07
   3  -5  -1   27.64    1.81
   3  -5  -1   28.01    1.83
  -3   5   2    0.59    0.21
  -3   5   2    0.28    0.16
   3  -5  -2    0.62    0.20
   3  -5  -2    0.51    0.20
  -3   5   3  528.97   27.58
  -3   5   3  517.61   26.98
   3  -5  -3  488.13   25.52
   3  -5  -3  538.49   28.03
  -3   5   4   81.07    4.63
  -3   5   4   88.54    5.03
   3  -5  -4   84.98    4.87
   3  -5  -4   91.28    5.14
  -3   5   5    0.32    0.18
   3  -5  -5    0.12    0.14
  -3   5   6    9.15    0.89
  -3   5   6   10.77    0.96
   3  -5  -6   13.17    1.13
   3  -5  -6   11.16    0.97
  -3   5   7  130.60    7.26
  -3   5   7  116.07    6.47
   3  -5  -7  125.79    7.01
   3  -5  -7  110.24    6.16
  -3   5   8  117.09    6.57
  -3   5   8  106.55    5.99
   3  -5  -8  109.72    6.19
   3  -5  -8  106.04    5.95
   2  -5   9   33.16    2.31
  -2   5  -8    0.10    0.12
  -2   5  -8    0.08    0.13
   2  -5   8    0.23    0.19
   2  -5   8    0.31    0.17
  -2   5  -7    0.84    0.25
  -2   5  -7    0.55    0.21
   2  -5   7    0.80    0.27
   2  -5   7    0.79    0.25
  -2   5  -6   20.45    1.44
  -2   5  -6   22.17    1.57
   2  -5   6   21.44    1.53
   2  -5   6   21.94    1.56
  -2   5  -5    0.44    0.18
  -2   5  -5    1.00    0.26
   2  -5   5    1.21    0.29
   2  -5   5    0.37    0.18
  -2   5  -4    8.97    0.81
  -2   5  -4    9.16    0.82
   2  -5   4    7.98    0.76
   2  -5   4    8.68    0.80
   2  -5   3   67.86    3.89
   2  -5   3   69.49    3.98
  -2   5  -2    0.38    0.17
  -2   5  -2    0.38    0.16
   2  -5   2    0.20    0.13
   2  -5   2    0.52    0.19
  -2   5  -1   38.39    2.36
  -2   5  -1   36.19    2.25
   2  -5   1   33.04    2.08
   2  -5   1   38.30    2.35
  -2   5   0   80.02    4.51
  -2   5   0   82.08    4.62
   2  -5   0   95.79    5.31
   2  -5   0   88.95    4.97
  -2   5   1    2.44    0.39
  -2   5   1    1.33    0.30
  -2   5   2  131.12    7.16
  -2   5   2  118.94    6.53
   2  -5  -2  111.87    6.17
   2  -5  -2  108.19    5.97
  -2   5   3  199.80   10.71
  -2   5   3  209.83   11.20
   2  -5  -3  190.58   10.21
   2  -5  -3  209.11   11.21
  -2   5   4   10.53    0.93
  -2   5   4   10.19    0.90
   2  -5  -4   11.13    0.98
   2  -5  -4   11.44    0.96
  -2   5   5   11.26    0.97
   2  -5  -5   10.59    0.92
  -2   5   6    6.72    0.71
  -2   5   6    7.25    0.76
   2  -5  -6    5.81    0.67
   2  -5  -6    6.86    0.76
  -2   5   7   11.34    1.03
  -2   5   7    9.90    0.91
   2  -5  -7    9.48    0.91
   2  -5  -7    7.32    0.78
  -2   5   8  480.96   25.21
  -2   5   8  531.01   27.73
   2  -5  -8  596.52   31.07
   2  -5  -8  520.78   27.25
  -2   5   9    0.09    0.18
   2  -5  -9    0.35    0.18
  -1   5  -9    9.89    0.99
  -1   5  -9    9.34    0.92
   1  -5   9    9.69    1.01
   1  -5   9   11.95    1.12
  -1   5  -8    1.12    0.30
   1  -5   8    0.80    0.28
  -1   5  -7   24.95    1.71
  -1   5  -7   23.70    1.67
   1  -5   7   25.63    1.78
   1  -5   7   24.67    1.72
  -1   5  -6    8.38    0.79
  -1   5  -6    7.77    0.78
   1  -5   6    8.32    0.83
   1  -5   6    8.64    0.83
  -1   5  -5    3.45    0.48
  -1   5  -5    3.66    0.48
   1  -5   5    3.41    0.48
   1  -5   5    2.93    0.45
  -1   5  -4  358.55   18.80
  -1   5  -4  384.44   20.14
   1  -5   4  374.00   19.60
   1  -5   4  384.65   20.15
  -1   5  -3   13.86    1.06
  -1   5  -3   11.45    0.94
   1  -5   3   14.18    1.10
   1  -5   3   11.36    0.93
  -1   5  -2    7.28    0.72
  -1   5  -2    6.29    0.63
   1  -5   2    6.90    0.67
   1  -5   2    7.07    0.69
  -1   5  -1    4.27    0.50
  -1   5  -1    5.07    0.55
   1  -5   1    4.90    0.55
   1  -5   1    6.07    0.62
  -1   5   0  121.29    6.63
  -1   5   0  107.17    5.91
   1  -5   0  113.82    6.25
   1  -5   0  127.94    6.96
  -1   5   1    3.12    0.44
  -1   5   1    2.35    0.39
   1  -5  -1    2.86    0.42
   1  -5  -1    2.80    0.41
  -1   5   2    1.19    0.28
  -1   5   2    1.61    0.32
   1  -5  -2    1.11    0.27
   1  -5  -2    0.85    0.24
  -1   5   3    0.02    0.10
  -1   5   3    0.10    0.12
   1  -5  -3    0.02    0.11
   1  -5  -3    0.26    0.15
   1  -5  -4    5.83    0.62
   1  -5  -4    4.72    0.58
  -1   5   5   29.36    1.97
  -1   5   5   26.96    1.82
   1  -5  -5   25.95    1.80
   1  -5  -5   21.46    1.51
  -1   5   6   33.39    2.21
   1  -5  -6   29.10    1.98
  -1   5   7   16.14    1.28
  -1   5   7   13.22    1.15
   1  -5  -7   15.01    1.24
   1  -5  -7   18.40    1.38
  -1   5   8   25.38    1.77
  -1   5   8   28.65    1.99
   1  -5  -8   27.77    1.90
   1  -5  -8   30.18    2.07
  -1   5   9    7.21    0.81
  -1   5   9    7.62    0.87
   1  -5  -9    7.54    0.84
   1  -5  -9    7.49    0.81
   0   5 -10   27.80    1.94
   0   5 -10   29.63    2.05
   0  -5  10   33.61    2.29
   0  -5  10   28.53    2.07
   0   5  -9   10.10    0.99
   0   5  -9   11.28    1.01
   0  -5   9   12.88    1.16
   0  -5   9   11.67    1.10
   0   5  -8   10.84    1.01
   0   5  -8   11.25    1.00
   0  -5   8   13.43    1.15
   0  -5   8   11.73    1.10
   0   5  -7   13.38    1.12
   0  -5   7   16.49    1.31
   0  -5   7   15.40    1.24
   0   5  -6   13.03    1.06
   0   5  -6   14.93    1.19
   0  -5   6   12.93    1.05
   0  -5   6   13.29    1.11
   0   5  -5   49.29    2.98
   0   5  -5   45.91    2.78
   0   5  -4  173.29    9.34
   0   5  -4  158.55    8.57
   0  -5   4  179.12    9.62
   0  -5   4  187.51   10.06
   0   5  -3   33.89    2.14
   0   5  -3   32.56    2.09
   0  -5   3   32.36    2.06
   0  -5   3   35.38    2.22
   0   5  -2    0.95    0.25
   0   5  -2    0.82    0.24
   0  -5   2    0.84    0.25
   0  -5   2    0.76    0.24
   0   5  -1  495.40   25.81
   0   5  -1  472.67   24.63
   0  -5   1  481.88   25.11
   0  -5   1  506.24   26.36
   0   5   0    0.01    0.08
   0   5   0    0.07    0.11
   0  -5   0    0.07    0.10
   0  -5   0    0.07    0.10
   0   5   1  432.55   22.58
   0   5   1  439.51   22.94
   0  -5  -1  419.96   21.93
   0  -5  -1  479.94   25.02
   0   5   2    0.73    0.21
   0   5   2    0.76    0.23
   0  -5  -2    0.72    0.23
   0  -5  -2    1.48    0.30
   0   5   3   35.15    2.21
   0   5   3   33.75    2.16
   0  -5  -3   28.43    1.87
   0  -5  -3   30.59    1.98
   0   5   4  149.34    8.14
   0   5   4  171.34    9.23
   0  -5  -4  155.48    8.43
   0  -5  -4  154.45    8.36
   0  -5  -5   49.63    3.03
   0  -5  -5   45.71    2.78
   0   5   6   13.01    1.12
   0  -5  -6   11.54    1.01
   0   5   7   16.69    1.33
   0   5   7   18.79    1.41
   0  -5  -7   16.53    1.31
   0  -5  -7   16.62    1.29
   0   5   8   13.58    1.18
   0   5   8   14.37    1.22
   0  -5  -8   13.55    1.17
   0  -5  -8   10.44    0.96
   0   5   9   12.15    1.12
   0   5   9   11.13    1.06
   0  -5  -9   11.15    1.01
   0  -5  -9   12.76    1.15
   1   5 -10    4.34    0.61
   1   5 -10    3.18    0.52
  -1  -5  10    4.43    0.64
  -1  -5  10    3.63    0.60
   1   5  -9    6.69    0.77
   1   5  -9    9.53    0.93
  -1  -5   9    7.20    0.83
  -1  -5   9    7.66    0.84
   1   5  -8   26.26    1.85
   1   5  -8   31.83    2.11
  -1  -5   8   29.62    2.03
  -1  -5   8   31.80    2.14
   1   5  -7   14.78    1.17
  -1  -5   7   15.20    1.22
   1   5  -6   29.75    1.97
   1   5  -6   28.28    1.91
  -1  -5   6   28.52    1.92
  -1  -5   6   29.77    1.99
   1   5  -5   29.63    1.94
   1   5  -5   25.36    1.74
  -1  -5   5   24.74    1.70
  -1  -5   5   24.06    1.67
   1   5  -4    5.10    0.58
   1   5  -4    4.27    0.53
  -1  -5   4    4.85    0.58
  -1  -5   4    4.29    0.55
   1   5  -3    0.09    0.10
   1   5  -3    0.18    0.12
  -1  -5   3    0.15    0.13
  -1  -5   3    0.17    0.12
   1   5  -2    1.18    0.28
   1   5  -2    1.56    0.31
  -1  -5   2    1.23    0.29
  -1  -5   2    1.63    0.33
   1   5  -1    1.93    0.35
   1   5  -1    2.06    0.35
  -1  -5   1    2.62    0.41
  -1  -5   1    1.99    0.35
  -1  -5   0  130.81    7.12
  -1  -5   0  115.35    6.34
   1   5   1    6.20    0.63
   1   5   1    4.83    0.54
  -1  -5  -1    4.17    0.51
  -1  -5  -1    5.27    0.57
   1   5   2    7.41    0.72
   1   5   2    7.62    0.73
  -1  -5  -2    6.05    0.63
  -1  -5  -2    7.10    0.70
   1   5   3   10.87    0.91
   1   5   3   10.67    0.91
  -1  -5  -3   11.02    0.93
  -1  -5  -3   11.61    0.96
   1   5   4  361.72   19.00
   1   5   4  360.59   18.95
  -1  -5  -4  341.25   17.93
  -1  -5  -4  350.67   18.43
   1   5   5    2.78    0.46
   1   5   5    4.09    0.55
  -1  -5  -5    3.88    0.52
  -1  -5  -5    3.59    0.52
  -1  -5  -6    9.03    0.85
  -1  -5  -6    7.30    0.79
   1   5   7   26.19    1.85
   1   5   7   22.35    1.61
  -1  -5  -7   23.73    1.72
  -1  -5  -7   23.54    1.66
   1   5   8    0.66    0.24
   1   5   8    0.86    0.30
  -1  -5  -8    1.03    0.29
  -1  -5  -8    0.67    0.26
   1   5   9    9.70    1.01
   1   5   9   10.68    1.04
  -1  -5  -9   11.04    1.07
  -1  -5  -9   12.37    1.05
   1   5  10    6.11    0.91
  -1  -5 -10    6.27    0.79
   2   5  -9    0.45    0.20
   2   5  -9    0.32    0.17
  -2  -5   9    0.21    0.16
  -2  -5   9    0.30    0.19
   2   5  -8  580.25   30.25
   2   5  -8  573.59   29.96
  -2  -5   8  575.23   30.01
  -2  -5   8  594.27   31.01
   2   5  -7   11.32    0.99
   2   5  -7    9.63    0.91
  -2  -5   7   11.73    1.04
  -2  -5   7    9.77    0.93
   2   5  -6    6.59    0.71
  -2  -5   6    7.42    0.77
   2   5  -5   13.83    1.10
   2   5  -5   13.96    1.13
  -2  -5   5   11.14    0.97
  -2  -5   5   13.96    1.13
   2   5  -4    9.96    0.88
   2   5  -4   11.41    0.96
  -2  -5   4   10.52    0.92
  -2  -5   4   11.20    0.96
  -2  -5   3  205.73   11.00
  -2  -5   3  230.60   12.27
   2   5  -2  112.28    6.19
   2   5  -2  117.91    6.50
  -2  -5   2  119.45    6.56
  -2  -5   2  124.05    6.81
   2   5  -1    2.84    0.43
   2   5  -1    1.86    0.33
  -2  -5   1    1.65    0.33
  -2  -5   1    2.88    0.43
   2   5   0   81.18    4.59
   2   5   0   82.09    4.65
  -2  -5   0   77.25    4.39
  -2  -5   0   88.67    4.98
   2   5   1   33.09    2.12
   2   5   1   33.08    2.11
  -2  -5  -1   38.74    2.41
  -2  -5  -1   33.39    2.12
   2   5   2    0.53    0.20
   2   5   2    0.28    0.16
  -2  -5  -2    0.46    0.19
  -2  -5  -2    0.39    0.16
   2   5   3   66.90    3.87
   2   5   3   64.68    3.76
  -2  -5  -3   75.76    4.33
  -2  -5  -3   62.83    3.67
   2   5   4    8.56    0.81
   2   5   4    9.21    0.84
  -2  -5  -4   10.40    0.89
  -2  -5  -4    8.35    0.83
   2   5   5    1.08    0.29
   2   5   5    0.30    0.17
  -2  -5  -5    0.86    0.25
   2   5   6   22.80    1.62
  -2  -5  -6   20.50    1.49
   2   5   7    0.68    0.25
   2   5   7    0.78    0.27
  -2  -5  -7    0.89    0.29
  -2  -5  -7    1.06    0.29
   2   5   8    0.10    0.15
   2   5   8    0.19    0.17
  -2  -5  -8    0.45    0.23
  -2  -5  -8    0.35    0.18
   2   5   9   36.32    2.44
   2   5   9   42.12    2.71
  -2  -5  -9   34.31    2.25
  -2  -5  -9   38.99    2.58
   2   5  10   12.64    1.20
   3   5  -9   -0.03    0.04
  -3  -5   9   -0.07    0.13
  -3  -5   9   -0.04    0.11
   3   5  -8  112.39    6.27
   3   5  -8  107.78    6.08
  -3  -5   8  117.71    6.58
  -3  -5   8  117.61    6.56
   3   5  -7  134.70    7.41
   3   5  -7  122.42    6.82
  -3  -5   7  130.50    7.22
  -3  -5   7  128.56    7.12
   3   5  -6   10.72    0.98
   3   5  -6    8.88    0.84
  -3  -5   6   10.88    0.97
  -3  -5   6   11.05    0.98
   3   5  -5    0.27    0.17
  -3  -5   5    0.30    0.17
  -3  -5   4   90.41    5.13
  -3  -5   4   90.78    5.13
   3   5  -3  480.45   25.08
   3   5  -3  524.26   27.35
  -3  -5   3  526.51   27.45
  -3  -5   3  499.49   26.08
   3   5  -2    0.53    0.20
   3   5  -2    0.57    0.20
  -3  -5   2    0.64    0.24
  -3  -5   2    0.71    0.24
   3   5  -1   29.99    1.95
   3   5  -1   28.44    1.88
  -3  -5   1   29.86    1.95
  -3  -5   1   30.00    1.95
   3   5   0    5.76    0.62
   3   5   0    5.11    0.57
  -3  -5   0    4.39    0.53
  -3  -5   0    5.61    0.61
   3   5   1   -0.03    0.10
   3   5   1    0.23    0.13
  -3  -5  -1   -0.08    0.10
  -3  -5  -1    0.04    0.10
   3   5   2   25.74    1.73
   3   5   2   25.25    1.72
  -3  -5  -2   25.82    1.75
  -3  -5  -2   22.37    1.57
   3   5   3   11.82    0.98
   3   5   3   13.75    1.11
  -3  -5  -3   13.13    1.06
  -3  -5  -3   13.52    1.08
   3   5   4    2.86    0.45
   3   5   4    2.38    0.42
  -3  -5  -4    2.04    0.37
  -3  -5  -4    3.33    0.49
   3   5   5   92.29    5.23
   3   5   5  105.32    5.89
  -3  -5  -5  113.61    6.31
  -3  -5  -5  104.20    5.82
   3   5   6   18.05    1.38
  -3  -5  -6   19.15    1.41
   3   5   7    0.61    0.25
   3   5   7    0.67    0.24
  -3  -5  -7    1.00    0.28
  -3  -5  -7    0.76    0.27
   3   5   8    1.20    0.33
   3   5   8    1.08    0.33
  -3  -5  -8    1.10    0.29
  -3  -5  -8    1.13    0.32
   3   5   9    0.10    0.13
   3   5   9    0.00    0.18
   4   5  -8   10.67    0.96
   4   5  -8   12.16    1.07
  -4  -5   8   13.37    1.18
  -4  -5   8    9.77    0.92
  -4  -5   7   19.40    1.45
  -4  -5   7   17.87    1.40
   4   5  -6    3.54    0.52
   4   5  -6    4.20    0.56
  -4  -5   6    3.28    0.53
  -4  -5   6    4.59    0.60
   4   5  -5   14.49    1.17
   4   5  -5   11.93    1.04
  -4  -5   5   12.01    1.05
  -4  -5   5   12.93    1.10
   4   5  -4   10.42    0.92
  -4  -5   4    7.81    0.78
   4   5  -3    7.39    0.75
  -4  -5   3    6.67    0.74
   4   5  -2    2.20    0.40
   4   5  -2    2.14    0.38
  -4  -5   2    1.44    0.34
  -4  -5   2    1.70    0.36
   4   5  -1   48.58    2.94
   4   5  -1   47.48    2.90
  -4  -5   1   47.00    2.88
  -4  -5   1   45.23    2.77
   4   5   0   68.14    3.94
   4   5   0   65.26    3.81
  -4  -5   0   67.02    3.90
  -4  -5   0   64.29    3.77
   4   5   1    2.27    0.41
   4   5   1    2.26    0.39
  -4  -5  -1    2.55    0.42
  -4  -5  -1    2.13    0.39
   4   5   2   19.16    1.39
   4   5   2   24.14    1.67
  -4  -5  -2   22.13    1.56
  -4  -5  -2   20.49    1.47
   4   5   3   74.40    4.28
   4   5   3   79.08    4.53
  -4  -5  -3   71.77    4.14
  -4  -5  -3   74.44    4.29
   4   5   4    0.88    0.27
   4   5   4    1.26    0.31
  -4  -5  -4    0.96    0.29
  -4  -5  -4    0.92    0.28
   4   5   5  495.09   25.89
   4   5   5  464.79   24.34
  -4  -5  -5  451.38   23.64
  -4  -5  -5  517.81   27.03
   4   5   6   12.74    1.14
  -4  -5  -6   14.68    1.21
  -4  -5  -6   16.20    1.34
   4   5   7   58.41    3.55
   4   5   7   50.52    3.17
  -4  -5  -7   57.23    3.45
  -4  -5  -7   54.91    3.39
   4   5   8    0.34    0.19
   4   5   8    0.16    0.18
   5   5  -7   39.33    2.51
   5   5  -7   37.25    2.43
  -5  -5   7   35.83    2.35
  -5  -5   7   35.23    2.32
   5   5  -6    6.51    0.72
   5   5  -6    5.32    0.66
  -5  -5   6    5.88    0.71
  -5  -5   6    5.65    0.71
   5   5  -5   29.52    2.01
   5   5  -5   29.97    2.01
  -5  -5   5   29.13    1.98
  -5  -5   5   24.98    1.77
   5   5  -4   11.97    1.04
   5   5  -4   12.74    1.05
  -5  -5   4   10.68    0.96
  -5  -5   4   11.53    1.03
   5   5  -3    0.40    0.19
   5   5  -3    0.23    0.15
  -5  -5   3    0.53    0.20
  -5  -5   3    0.35    0.19
   5   5  -2   35.53    2.27
  -5  -5   2   31.84    2.09
   5   5  -1   44.54    2.76
   5   5   0   25.62    1.88
  -5  -5   0   28.76    1.93
  -5  -5   0   24.44    1.69
   5   5   1    2.96    0.47
   5   5   1    3.87    0.53
  -5  -5  -1    4.58    0.59
  -5  -5  -1    5.76    0.63
   5   5   2   10.04    0.91
   5   5   2   11.17    0.97
  -5  -5  -2   10.17    0.91
  -5  -5  -2    9.19    0.87
   5   5   3    0.26    0.16
   5   5   3    0.13    0.13
  -5  -5  -3    0.02    0.10
  -5  -5  -3    0.20    0.14
   5   5   4   19.91    1.49
   5   5   4   23.86    1.69
  -5  -5  -4   18.83    1.42
  -5  -5  -4   20.46    1.50
   5   5   5  434.39   22.80
  -5  -5  -5  472.37   24.73
   5   5   6    0.73    0.28
  -5  -5  -6    1.27    0.34
   5   5   7   12.94    1.34
   6   5  -6    5.19    0.67
   6   5  -6    5.31    0.64
  -6  -5   6    5.75    0.71
  -6  -5   6    4.88    0.63
   6   5  -5   11.03    1.00
   6   5  -5   10.01    0.92
  -6  -5   5    9.10    0.92
  -6  -5   5    9.63    0.91
   6   5  -4   19.66    1.47
   6   5  -4   22.24    1.60
  -6  -5   4   14.57    1.21
  -6  -5   4   17.86    1.36
   6   5  -3   22.72    1.65
   6   5  -3   25.88    1.78
  -6  -5   3   21.28    1.58
  -6  -5   3   24.78    1.73
   6   5  -2  217.91   11.71
  -6  -5   2  210.95   11.35
  -6  -5   2  236.54   12.63
   6   5  -1    9.09    0.90
   6   5  -1    8.54    0.83
  -6  -5   1    8.95    0.86
  -6  -5   1    8.21    0.84
   6   5   0    6.56    0.72
  -6  -5   0    4.36    0.57
   6   5   1    7.25    0.78
  -6  -5  -1    6.66    0.75
   6   5   2   34.52    2.27
  -6  -5  -2   38.42    2.46
   6   5   3    0.16    0.15
  -6  -5  -3    0.25    0.16
   6   5   4    0.99    0.29
  -6  -5  -4    0.99    0.29
   6   5   5    6.23    0.75
  -6  -5  -5    6.15    0.74
   7   5  -5    8.25    0.86
   7   5  -4    0.01    0.12
  -7  -5   4    0.03    0.10
  -7  -5   4   -0.03    0.10
   7   5  -3  161.21    8.82
   7   5  -3  189.87   10.25
  -7  -5   3  145.04    8.00
  -7  -5   3  171.14    9.30
  -7  -5   2  363.67   19.21
  -7  -5   2  353.63   18.66
   7   5  -1   13.08    1.10
   7   5  -1   12.61    1.10
  -7  -5   1   11.29    1.05
  -7  -5   1   14.05    1.17
   7   5   0    4.70    0.60
   7   5   0    4.92    0.64
  -7  -5   0    5.76    0.70
  -7  -5   0    5.22    0.67
   7   5   1   78.15    4.57
   7   5   1   77.16    4.47
  -7  -5  -1   88.77    5.08
  -7  -5  -1   76.41    4.45
   7   5   2    0.69    0.25
   7   5   2    0.99    0.28
  -7  -5  -2    0.60    0.24
  -7  -5  -2    0.73    0.27
   7   5   3    8.56    0.89
  -7  -5  -3    9.82    0.97
   8   5  -3    9.41    0.92
   8   5  -3   11.99    1.05
  -8  -5   3   10.13    0.99
  -8  -5   3   10.66    1.01
   8   5  -2    2.99    0.51
   8   5  -2    3.08    0.50
  -8  -5   2    2.58    0.48
  -8  -5   2    2.76    0.48
   8   5  -1    0.07    0.13
   8   5  -1    0.01    0.13
  -8  -5   1   -0.10    0.11
  -8  -5   1    0.00    0.10
   8   5   0   11.20    1.04
   8   5   0   10.55    1.00
  -8  -5   0   12.35    1.14
  -8  -5   0    9.59    0.97
   8   5   1   25.83    1.85
   8   5   1   25.16    1.78
  -8  -5  -1   27.56    1.97
  -8  -5  -1   29.24    2.04
   8   5   2   40.72    2.66
   8   5   2   39.81    2.58
   9   5  -1   11.74    1.11
   9   5  -1   10.61    1.07
  -9  -5   1   11.13    1.13
  -9  -5   1   10.52    1.05
   8  -6  -2    1.49    0.39
   8  -6  -2    1.25    0.33
  -8   6   3    0.53    0.24
   8  -6  -3    0.74    0.30
   8  -6  -3    1.06    0.31
   7  -6   1    2.63    0.46
   7  -6   1    2.37    0.53
  -7   6   0    0.23    0.17
   7  -6   0    0.23    0.16
   7  -6   0    0.20    0.15
  -7   6   1    0.38    0.20
  -7   6   1    0.21    0.18
   7  -6  -1    0.21    0.17
   7  -6  -1    0.16    0.15
  -7   6   2   59.23    3.62
  -7   6   2   60.00    3.62
   7  -6  -2   66.49    3.92
   7  -6  -2   60.52    3.72
  -7   6   3  163.26    8.97
  -7   6   3  172.16    9.38
   7  -6  -3  167.66    9.12
   7  -6  -3  159.57    8.81
  -7   6   4   -0.02    0.11
   7  -6  -4   -0.07    0.13
   7  -6  -4    0.03    0.17
   6  -6   3    3.11    0.53
  -6   6  -2    5.84    0.72
  -6   6  -2    7.44    0.81
   6  -6   2    7.35    0.83
   6  -6   2    6.76    0.76
  -6   6  -1   -0.04    0.10
  -6   6  -1   -0.01    0.11
   6  -6   1   -0.02    0.11
   6  -6   1    0.08    0.15
  -6   6   0    3.04    0.52
  -6   6   0    3.72    0.55
  -6   6   1    3.74    0.54
  -6   6   1    3.49    0.55
   6  -6  -1    3.98    0.60
   6  -6  -1    3.05    0.48
  -6   6   2    4.64    0.64
  -6   6   2    3.96    0.57
   6  -6  -2    4.94    0.67
   6  -6  -2    4.41    0.59
  -6   6   3  204.91   11.04
  -6   6   3  227.12   12.22
   6  -6  -3  207.88   11.18
   6  -6  -3  226.41   12.20
  -6   6   4    0.80    0.27
  -6   6   4    0.34    0.21
   6  -6  -4    0.83    0.26
   6  -6  -4    0.49    0.24
  -6   6   5   10.73    1.01
   6  -6  -5    9.89    0.92
   5  -6   4   32.49    2.20
   5  -6   4   30.31    2.03
  -5   6  -3    0.14    0.15
  -5   6  -3    0.14    0.15
   5  -6   3    0.10    0.13
   5  -6   3    0.23    0.16
  -5   6  -2    2.65    0.45
  -5   6  -2    2.37    0.43
   5  -6   2    1.93    0.41
   5  -6   2    2.18    0.40
  -5   6  -1   13.90    1.15
  -5   6  -1   12.61    1.10
   5  -6   1   12.29    1.04
   5  -6   1   13.31    1.16
  -5   6   0    4.17    0.57
   5  -6   0    4.37    0.57
  -5   6   1    4.37    0.59
   5  -6  -1    3.22    0.53
  -5   6   2    4.00    0.57
  -5   6   2    3.11    0.50
   5  -6  -2    4.38    0.61
   5  -6  -2    4.66    0.59
  -5   6   3   23.24    1.69
  -5   6   3   23.47    1.68
   5  -6  -3   17.06    1.36
   5  -6  -3   22.16    1.60
  -5   6   4    1.33    0.33
  -5   6   4    0.72    0.26
   5  -6  -4    1.55    0.34
  -5   6   5   24.20    1.74
  -5   6   5   25.66    1.84
   5  -6  -5   20.25    1.50
   5  -6  -5   22.41    1.66
  -5   6   6    0.84    0.29
   5  -6  -6    0.26    0.17
   4  -6   6   23.48    1.87
  -4   6  -5    0.12    0.16
  -4   6  -5    0.32    0.18
   4  -6   5    0.11    0.13
   4  -6   5    0.27    0.16
  -4   6  -4   51.69    3.11
  -4   6  -4   54.22    3.28
   4  -6   4   52.89    3.20
   4  -6   4   50.15    3.06
  -4   6  -3    1.12    0.31
  -4   6  -3    1.02    0.29
   4  -6   3    1.48    0.34
   4  -6   3    0.73    0.25
  -4   6  -2    3.80    0.53
  -4   6  -2    4.53    0.58
   4  -6   2    4.77    0.59
   4  -6   2    4.23    0.57
  -4   6  -1  146.88    8.02
  -4   6  -1  151.59    8.26
  -4   6   0    5.13    0.62
  -4   6   0    3.72    0.53
   4  -6   0    4.20    0.59
   4  -6   0    4.32    0.55
  -4   6   1   12.45    1.04
   4  -6  -1   13.20    1.08
  -4   6   2    6.26    0.74
  -4   6   2    6.57    0.73
   4  -6  -2    5.62    0.68
  -4   6   3   22.27    1.61
  -4   6   3   19.89    1.48
   4  -6  -3   21.64    1.56
   4  -6  -3   21.50    1.60
  -4   6   4   -0.01    0.10
  -4   6   4    0.14    0.14
   4  -6  -4   -0.12    0.10
   4  -6  -4   -0.02    0.11
  -4   6   5   24.35    1.72
  -4   6   5   25.38    1.81
   4  -6  -5   27.74    1.93
   4  -6  -5   24.81    1.74
  -4   6   6    0.56    0.25
  -4   6   6    1.30    0.33
   4  -6  -6    0.96    0.28
   4  -6  -6    0.75    0.27
   3  -6   7    7.60    0.85
   3  -6   7    6.35    0.77
  -3   6  -6   10.90    1.01
  -3   6  -6   12.31    1.05
   3  -6   6   11.51    1.04
   3  -6   6   11.95    1.06
  -3   6  -5    0.66    0.24
  -3   6  -5    0.39    0.20
   3  -6   5    1.00    0.28
   3  -6   5    0.84    0.27
  -3   6  -4    3.08    0.48
  -3   6  -4    3.36    0.50
   3  -6   4    3.06    0.48
   3  -6   4    3.29    0.50
  -3   6  -3    3.57    0.52
  -3   6  -3    3.75    0.52
   3  -6   3    3.63    0.51
   3  -6   3    3.58    0.52
  -3   6  -2    7.68    0.76
  -3   6  -2    8.46    0.83
   3  -6   2    7.40    0.78
   3  -6   2    6.72    0.72
  -3   6  -1   93.74    5.27
  -3   6  -1   99.96    5.60
   3  -6   1   86.19    4.89
   3  -6   1  104.40    5.82
  -3   6   0    2.28    0.41
  -3   6   0    2.00    0.38
   3  -6   0    2.01    0.39
   3  -6  -1   24.47    1.69
   3  -6  -1   23.48    1.68
  -3   6   2    0.37    0.17
   3  -6  -2    0.36    0.18
  -3   6   3   14.33    1.15
  -3   6   3   16.68    1.30
   3  -6  -3   15.42    1.20
   3  -6  -3   16.11    1.29
  -3   6   4  151.48    8.28
  -3   6   4  156.70    8.57
   3  -6  -4  164.69    8.94
   3  -6  -4  150.36    8.27
  -3   6   5   15.37    1.24
  -3   6   5   15.33    1.26
   3  -6  -5   15.80    1.24
   3  -6  -5   16.37    1.32
  -3   6   6   -0.02    0.10
  -3   6   6    0.12    0.16
   3  -6  -6   -0.05    0.09
   3  -6  -6    0.21    0.17
  -3   6   7   83.52    4.80
   3  -6  -7   81.20    4.68
   2  -6   8   62.91    3.83
   2  -6   8   68.61    4.10
  -2   6  -7    0.15    0.14
   2  -6   7    0.43    0.21
  -2   6  -6    0.05    0.13
   2  -6   6    0.29    0.18
  -2   6  -5    0.46    0.21
  -2   6  -5    0.50    0.21
   2  -6   5    0.39    0.21
   2  -6   5    0.53    0.21
  -2   6  -4   27.92    1.86
  -2   6  -4   25.44    1.76
   2  -6   4   24.22    1.69
   2  -6   4   28.35    1.91
  -2   6  -3   10.56    0.92
  -2   6  -3   11.74    1.00
   2  -6   3    9.82    0.88
   2  -6   3    9.29    0.91
  -2   6  -2   18.65    1.38
  -2   6  -2   19.86    1.42
   2  -6   2   20.32    1.46
   2  -6   2   18.53    1.37
  -2   6  -1   13.39    1.07
  -2   6  -1   16.51    1.26
   2  -6   1   14.88    1.17
   2  -6   1   16.69    1.27
  -2   6   0    1.04    0.28
  -2   6   0    0.86    0.26
   2  -6   0    0.68    0.24
   2  -6   0    0.49    0.19
  -2   6   1   40.09    2.52
  -2   6   1   42.85    2.65
   2  -6  -1   41.14    2.58
   2  -6  -1   37.27    2.34
  -2   6   2    1.48    0.35
   2  -6  -2    1.74    0.36
  -2   6   3    0.27    0.15
   2  -6  -3    0.70    0.25
   2  -6  -3    0.74    0.27
  -2   6   4   16.70    1.31
  -2   6   4   16.64    1.28
   2  -6  -4   13.79    1.13
   2  -6  -4   15.25    1.24
  -2   6   5    0.89    0.28
  -2   6   5    0.49    0.23
   2  -6  -5    0.97    0.29
   2  -6  -5    0.83    0.26
  -2   6   6    4.68    0.63
  -2   6   6    4.08    0.60
   2  -6  -6    4.95    0.62
   2  -6  -6    3.07    0.51
  -2   6   7  438.79   23.02
  -2   6   7  442.38   23.24
   2  -6  -7  516.17   27.00
   2  -6  -7  482.09   25.28
   1  -6   9    5.10    0.71
   1  -6   9    4.41    0.68
  -1   6  -8   67.32    3.97
  -1   6  -8   68.50    4.07
   1  -6   8   75.04    4.44
   1  -6   8   75.68    4.45
  -1   6  -7    2.50    0.44
  -1   6  -7    1.81    0.38
   1  -6   7    2.24    0.43
   1  -6   7    1.67    0.38
  -1   6  -6   24.17    1.69
   1  -6   6   21.56    1.58
  -1   6  -5   69.80    4.09
   1  -6   5   65.55    3.87
  -1   6  -4    4.15    0.54
  -1   6  -4    3.56    0.52
   1  -6   4    3.93    0.54
   1  -6   4    4.04    0.55
  -1   6  -3   39.88    2.52
  -1   6  -3   46.82    2.85
  -1   6  -2   47.84    2.93
  -1   6  -2   44.41    2.72
   1  -6   2   48.44    2.94
   1  -6   2   49.19    2.98
  -1   6  -1   17.73    1.32
  -1   6  -1   18.98    1.40
   1  -6   1   17.20    1.29
   1  -6   1   18.40    1.36
  -1   6   0  251.08   13.34
  -1   6   0  276.56   14.65
   1  -6   0  251.59   13.37
   1  -6   0  274.62   14.55
  -1   6   1    5.08    0.60
  -1   6   1    6.03    0.66
   1  -6  -1    5.42    0.60
   1  -6  -1    5.79    0.64
  -1   6   2   29.09    1.94
   1  -6  -2   37.45    2.36
  -1   6   3   50.02    3.04
   1  -6  -3   50.94    3.09
  -1   6   4   19.43    1.45
  -1   6   4   23.80    1.66
   1  -6  -4   25.62    1.79
   1  -6  -4   22.68    1.61
  -1   6   5    5.76    0.69
  -1   6   5    5.92    0.71
   1  -6  -5    5.26    0.67
   1  -6  -5    7.44    0.76
  -1   6   6    0.93    0.29
  -1   6   6    0.63    0.25
   1  -6  -6    0.61    0.24
   1  -6  -6    0.87    0.28
  -1   6   7   16.93    1.35
  -1   6   7   17.91    1.37
   1  -6  -7   15.01    1.21
   1  -6  -7   17.83    1.41
   0   6  -9    2.89    0.50
   0   6  -9    2.66    0.47
   0  -6   9    3.10    0.53
   0  -6   9    2.89    0.53
   0  -6   8   15.30    1.29
   0  -6   8   16.18    1.34
   0   6  -7    3.81    0.56
   0   6  -7    4.26    0.59
   0  -6   7    4.06    0.58
   0  -6   7    4.26    0.59
   0  -6   6   12.38    1.08
   0  -6   6   15.55    1.25
   0   6  -5   47.88    2.93
   0  -6   5   44.19    2.76
   0   6  -4   33.16    2.18
   0  -6   4   30.90    2.06
   0   6  -3    8.15    0.79
   0   6  -3    8.35    0.80
   0  -6   3    8.84    0.84
   0  -6   3    7.92    0.79
   0   6  -2   36.13    2.31
   0   6  -2   35.41    2.25
   0  -6   2   34.87    2.24
   0  -6   2   33.65    2.18
   0   6  -1   14.37    1.13
   0   6  -1   12.75    1.05
   0  -6   1   11.84    1.00
   0  -6   1   12.09    1.01
   0  -6   0 1716.48   88.38
   0  -6   0 1735.93   89.40
   0   6   1   12.42    1.02
   0   6   1   11.29    0.97
   0  -6  -1   11.91    1.00
   0  -6  -1   12.94    1.06
   0   6   2   37.57    2.38
   0  -6  -2   38.56    2.43
   0   6   3    5.75    0.67
   0  -6  -3    7.56    0.77
   0   6   4   25.69    1.78
   0   6   4   29.50    1.97
   0  -6  -4   27.53    1.87
   0  -6  -4   24.62    1.71
   0   6   5   49.15    3.01
   0   6   5   55.53    3.37
   0  -6  -5   45.38    2.80
   0  -6  -5   43.21    2.73
   0   6   6   16.44    1.32
   0   6   6   12.36    1.08
   0  -6  -6   13.37    1.15
   0  -6  -6   14.20    1.16
   0   6   7    3.31    0.51
   0  -6  -7    4.37    0.59
   0  -6  -7    4.22    0.60
   0   6   8   14.76    1.24
   0  -6  -8   17.65    1.37
   1   6  -9   10.42    1.01
  -1  -6   9    8.06    0.92
   1   6  -8   13.10    1.13
   1   6  -8   10.85    1.03
  -1  -6   8   11.95    1.08
  -1  -6   8   11.97    1.08
   1   6  -7   15.07    1.22
   1   6  -7   18.39    1.43
  -1  -6   7   18.60    1.42
  -1  -6   7   16.71    1.34
   1   6  -6    0.92    0.28
   1   6  -6    0.90    0.28
  -1  -6   6    0.96    0.29
  -1  -6   6    0.62    0.25
   1   6  -5    4.54    0.66
   1   6  -5    4.86    0.63
  -1  -6   5    4.93    0.63
  -1  -6   5    5.83    0.69
   1   6  -4   26.57    1.80
  -1  -6   4   27.33    1.85
   1   6  -3   51.68    3.13
  -1  -6   3   48.29    2.95
   1   6  -2   30.99    2.05
  -1  -6   2   29.62    1.97
   1   6  -1    6.34    0.68
   1   6  -1    6.43    0.68
  -1  -6   1    7.16    0.73
  -1  -6   1    6.43    0.69
   1   6   0  279.43   14.79
   1   6   0  253.33   13.47
  -1  -6   0  275.95   14.63
  -1  -6   0  279.12   14.78
   1   6   1   18.41    1.37
  -1  -6  -1   17.74    1.34
   1   6   2   46.35    2.85
  -1  -6  -2   45.72    2.81
   1   6   3   39.77    2.51
  -1  -6  -3   37.70    2.41
   1   6   4    3.98    0.57
   1   6   4    3.13    0.49
  -1  -6  -4    3.89    0.53
  -1  -6  -4    3.92    0.52
   1   6   5   76.10    4.43
   1   6   5   66.11    3.89
  -1  -6  -5   62.34    3.73
  -1  -6  -5   67.37    3.95
   1   6   6   19.04    1.46
   1   6   6   22.01    1.60
  -1  -6  -6   21.05    1.54
  -1  -6  -6   19.57    1.49
   1   6   7    1.47    0.36
   1   6   7    2.25    0.46
  -1  -6  -7    2.12    0.41
  -1  -6  -7    1.45    0.37
   1   6   8   72.35    4.26
  -1  -6  -8   62.20    3.71
   2   6  -8   32.44    2.17
   2   6  -8   31.87    2.18
  -2  -6   8   33.40    2.23
  -2  -6   8   31.38    2.14
   2   6  -7  459.88   24.08
   2   6  -7  381.17   20.11
  -2  -6   7  442.07   23.18
  -2  -6   7  514.43   26.91
   2   6  -6    4.61    0.62
   2   6  -6    4.50    0.58
  -2  -6   6    4.98    0.66
  -2  -6   6    3.74    0.54
   2   6  -5    0.62    0.23
   2   6  -5    0.82    0.26
  -2  -6   5    0.60    0.24
  -2  -6   5    0.46    0.20
   2   6  -4   17.74    1.37
   2   6  -4   17.87    1.33
  -2  -6   4   16.94    1.31
  -2  -6   4   18.20    1.36
   2   6  -3    0.34    0.17
   2   6  -3    0.59    0.25
  -2  -6   3    0.69    0.27
  -2  -6   3    0.55    0.21
   2   6  -2    1.51    0.33
  -2  -6   2    2.18    0.41
   2   6  -1   34.24    2.22
  -2  -6   1   37.61    2.41
   2   6   0    0.58    0.23
  -2  -6   0    0.99    0.28
   2   6   1   14.69    1.18
  -2  -6  -1   14.16    1.15
   2   6   2   14.31    1.15
  -2  -6  -2   17.31    1.31
   2   6   3    9.57    0.89
   2   6   3   12.65    1.07
  -2  -6  -3   10.48    0.92
  -2  -6  -3   10.53    1.02
   2   6   4   22.66    1.63
   2   6   4   21.33    1.57
  -2  -6  -4   22.98    1.64
  -2  -6  -4   23.07    1.64
   2   6   5    0.52    0.21
   2   6   5    0.85    0.27
  -2  -6  -5    0.35    0.17
  -2  -6  -5    0.47    0.21
   2   6   6    0.36    0.19
   2   6   6    0.18    0.17
  -2  -6  -6    0.64    0.25
  -2  -6  -6    0.17    0.14
   2   6   7    0.20    0.20
   2   6   7    0.17    0.16
  -2  -6  -7    0.27    0.16
  -2  -6  -7    0.24    0.73
   2   6   8   59.50    3.61
   2   6   8   60.55    3.84
  -2  -6  -8   66.07    3.91
   3   6  -7   90.42    5.19
   3   6  -7  100.84    5.68
  -3  -6   7   83.14    4.80
  -3  -6   7   96.13    5.46
   3   6  -6   -0.04    0.10
   3   6  -6    0.11    0.12
  -3  -6   6    0.05    0.13
  -3  -6   6    0.04    0.11
   3   6  -5   21.02    1.53
   3   6  -5   16.46    1.30
  -3  -6   5   20.04    1.49
  -3  -6   5   15.54    1.25
   3   6  -4  185.47   10.00
   3   6  -4  158.34    8.66
  -3  -6   4  160.29    8.74
  -3  -6   4  173.29    9.40
   3   6  -3   14.57    1.20
   3   6  -3   13.82    1.13
  -3  -6   3   14.68    1.19
  -3  -6   3   15.53    1.22
   3   6  -2    0.44    0.19
   3   6  -2    0.31    0.17
  -3  -6   2    0.25    0.18
  -3  -6   2    0.04    0.11
  -3  -6   1   27.84    1.93
  -3  -6   1   27.92    1.88
   3   6   0    3.20    0.47
  -3  -6   0    2.38    0.41
   3   6   1   91.15    5.16
  -3  -6  -1   94.21    5.30
   3   6   2    9.57    0.91
   3   6   2    7.41    0.76
  -3  -6  -2    6.80    0.72
  -3  -6  -2    7.45    0.78
   3   6   3    3.34    0.54
  -3  -6  -3    3.13    0.49
  -3  -6  -3    3.49    0.51
   3   6   4    2.38    0.44
   3   6   4    3.91    0.56
  -3  -6  -4    4.40    0.58
  -3  -6  -4    3.53    0.53
   3   6   5    0.82    0.28
   3   6   5    0.85    0.28
  -3  -6  -5    0.70    0.25
  -3  -6  -5    0.84    0.27
   3   6   6   12.70    1.12
   3   6   6   10.32    1.03
  -3  -6  -6   14.33    1.19
  -3  -6  -6   14.24    1.23
   3   6   7    5.83    0.73
   3   6   7    6.33    0.80
  -3  -6  -7    7.09    0.78
  -3  -6  -7    7.86    0.89
   3   6   8    4.62    0.67
  -3  -6  -8    5.77    0.72
   4   6  -6    0.78    0.27
   4   6  -6    1.10    0.30
  -4  -6   6    0.68    0.26
  -4  -6   6    0.57    0.24
   4   6  -5   25.19    1.75
   4   6  -5   28.84    1.98
  -4  -6   5   27.52    1.91
  -4  -6   5   26.44    1.84
   4   6  -4    0.06    0.10
   4   6  -4    0.07    0.13
  -4  -6   4    0.00    0.14
  -4  -6   4    0.05    0.12
   4   6  -3   22.95    1.63
   4   6  -3   22.91    1.65
  -4  -6   3   24.87    1.76
  -4  -6   3   21.80    1.58
   4   6  -2    7.37    0.76
   4   6  -2    7.48    0.76
  -4  -6   2    7.04    0.76
  -4  -6   2    6.85    0.76
   4   6  -1   14.07    1.17
   4   6  -1   13.96    1.14
  -4  -6   1   13.93    1.13
  -4  -6   1   12.11    1.05
   4   6   0    5.13    0.62
   4   6   0    5.27    0.66
  -4  -6   0    6.51    0.72
  -4  -6   0    4.89    0.61
   4   6   1  143.50    7.86
   4   6   1  158.85    8.68
  -4  -6  -1  176.56    9.58
  -4  -6  -1  152.61    8.33
   4   6   2    4.74    0.61
   4   6   2    4.00    0.56
  -4  -6  -2    4.29    0.57
  -4  -6  -2    3.44    0.52
   4   6   3    0.82    0.27
   4   6   3    0.94    0.28
  -4  -6  -3    1.27    0.32
  -4  -6  -3    0.89    0.27
   4   6   4   52.17    3.18
   4   6   4   54.57    3.33
  -4  -6  -4   45.98    2.88
  -4  -6  -4   50.42    3.11
   4   6   5    0.09    0.18
   4   6   5    0.35    0.19
  -4  -6  -5    0.26    0.16
  -4  -6  -5    0.02    0.13
   4   6   6   29.27    2.06
   4   6   6   29.40    2.04
  -4  -6  -6   33.22    2.22
  -4  -6  -6   32.11    2.21
   4   6   7    0.32    0.19
   4   6   7    0.46    0.23
  -4  -6  -7    0.16    0.18
  -4  -6  -7    0.10    0.17
  -5  -6   5   27.30    1.88
  -5  -6   5   21.85    1.62
   5   6  -4    1.34    0.33
   5   6  -4    1.10    0.31
  -5  -6   4    1.70    0.38
  -5  -6   4    1.69    0.38
   5   6  -3   19.91    1.49
   5   6  -3   25.35    1.76
  -5  -6   3   19.34    1.45
  -5  -6   3   21.11    1.57
   5   6  -2    3.28    0.50
   5   6  -2    3.14    0.49
  -5  -6   2    4.37    0.58
  -5  -6   2    3.50    0.54
   5   6  -1    5.16    0.63
   5   6  -1    4.63    0.61
  -5  -6   1    4.73    0.68
   5   6   0    3.66    0.53
   5   6   0    3.81    0.55
  -5  -6   0    4.64    0.61
  -5  -6   0    4.94    0.62
   5   6   1   13.87    1.16
   5   6   1   11.59    1.02
  -5  -6  -1   11.47    1.02
  -5  -6  -1   11.22    1.03
   5   6   2    1.81    0.39
   5   6   2    1.89    0.40
  -5  -6  -2    2.30    0.42
  -5  -6  -2    2.45    0.45
   5   6   3    0.01    0.12
   5   6   3   -0.08    0.09
  -5  -6  -3    0.13    0.15
  -5  -6  -3    0.27    0.18
   5   6   4   34.20    2.26
   5   6   4   33.84    2.25
  -5  -6  -4   37.65    2.46
  -5  -6  -4   31.79    2.17
   5   6   5   52.11    3.22
   5   6   5   47.31    2.98
  -5  -6  -5   45.54    2.89
  -5  -6  -5   39.44    2.57
   5   6   6   23.38    1.76
   5   6   6   23.56    1.77
  -5  -6  -6   20.82    1.64
  -5  -6  -6   22.47    1.68
   6   6  -4    0.61    0.24
  -6  -6   4    0.45    0.24
   6   6  -3  178.51    9.66
   6   6  -3  204.91   11.05
   6   6  -2    4.43    0.58
  -6  -6   2    3.63    0.56
  -6  -6   2    3.38    0.52
   6   6  -1    3.48    0.52
   6   6  -1    3.71    0.55
  -6  -6   1    3.57    0.55
  -6  -6   1    4.18    0.58
   6   6   0    3.60    0.53
   6   6   0    3.76    0.55
  -6  -6   0    2.97    0.51
  -6  -6   0    2.78    0.47
   6   6   1   -0.02    0.11
   6   6   1    0.06    0.12
  -6  -6  -1    0.04    0.13
  -6  -6  -1   -0.08    0.11
   6   6   2    6.56    0.75
   6   6   2    6.03    0.73
  -6  -6  -2    5.50    0.70
  -6  -6  -2    7.51    0.83
   6   6   3    3.35    0.53
   6   6   3    3.07    0.52
  -6  -6  -3    2.85    0.50
  -6  -6  -3    2.51    0.47
   6   6   4    5.11    0.68
   6   6   4    5.03    0.69
  -6  -6  -4    4.27    0.63
  -6  -6  -4    4.63    0.64
   6   6   5    0.82    0.30
   7   6  -2   55.34    3.38
  -7  -6   2   55.05    3.41
   7   6  -1    0.52    0.21
   7   6  -1    0.07    0.14
  -7  -6   1   -0.10    0.10
  -7  -6   1    0.24    0.18
   7   6   0   -0.10    0.11
   7   6   0    0.27    0.17
  -7  -6   0    0.31    0.19
  -7  -6   0    0.58    0.23
   7   6   1    2.70    0.47
   7   6   1    2.40    0.46
  -7  -6  -1    3.52    0.56
  -7  -6  -1    4.12    0.60
   7   6   2  106.55    6.06
   7   6   2   94.44    5.40
  -7  -6  -2  113.00    6.39
  -7  -6  -2  107.88    6.11
   7   6   3    8.24    0.90
   7   6   3    8.39    0.94
   8   6   1   29.95    2.11
   7  -7  -1    3.48    0.56
   7  -7  -1    3.34    0.58
  -6   7  -1    3.33    0.54
  -6   7  -1    3.72    0.57
   6  -7   1    3.15    0.53
   6  -7   1    4.57    0.68
  -6   7   0    2.54    0.49
  -6   7   0    2.56    0.47
   6  -7   0    2.66    0.50
   6  -7   0    2.94    0.50
  -6   7   1    1.07    0.31
  -6   7   1    0.69    0.25
   6  -7  -1    0.64    0.25
   6  -7  -1    1.11    0.33
  -6   7   2  199.08   10.81
  -6   7   2  201.84   10.90
   6  -7  -2  212.08   11.41
   6  -7  -2  216.99   11.76
   5  -7   3   18.58    1.50
   5  -7   3   19.17    1.57
  -5   7  -2    4.17    0.59
  -5   7  -2    4.78    0.64
   5  -7   2    4.65    0.68
   5  -7   2    4.02    0.60
  -5   7  -1    6.23    0.76
  -5   7  -1    6.54    0.76
   5  -7   1    7.23    0.82
   5  -7   1    5.38    0.73
  -5   7   0    4.80    0.66
  -5   7   0    5.55    0.69
   5  -7   0    5.14    0.67
   5  -7   0    5.40    0.73
  -5   7   1    0.61    0.25
  -5   7   1    1.12    0.32
   5  -7  -1    0.94    0.31
   5  -7  -1    0.72    0.26
  -5   7   2    6.62    0.79
  -5   7   2    8.95    0.93
   5  -7  -2    5.77    0.69
   5  -7  -2    5.66    0.75
  -5   7   3   17.79    1.44
  -5   7   3   18.06    1.44
   5  -7  -3   21.10    1.62
   5  -7  -3   19.62    1.47
  -4   7  -4    7.19    0.80
  -4   7  -4    6.10    0.75
   4  -7   4    8.08    0.89
   4  -7   4    6.86    0.82
  -4   7  -3    1.93    0.40
  -4   7  -3    1.88    0.39
   4  -7   3    2.42    0.46
   4  -7   3    2.19    0.43
  -4   7  -2   -0.01    0.12
  -4   7  -2   -0.07    0.12
   4  -7   2   -0.01    0.11
   4  -7   2    0.17    0.15
  -4   7  -1   32.32    2.17
  -4   7  -1   30.00    2.05
   4  -7   1   30.96    2.09
   4  -7   1   33.15    2.20
  -4   7   0    3.16    0.50
  -4   7   0    3.19    0.51
   4  -7   0    2.88    0.50
   4  -7   0    2.69    0.46
  -4   7   1    0.04    0.14
  -4   7   1    0.36    0.19
   4  -7  -1    0.09    0.14
   4  -7  -1    0.14    0.15
  -4   7   2    2.01    0.42
  -4   7   2    2.14    0.42
   4  -7  -2    2.67    0.49
   4  -7  -2    2.56    0.46
  -4   7   3   40.25    2.59
  -4   7   3   43.79    2.76
   4  -7  -3   44.89    2.91
   4  -7  -3   43.56    2.72
  -4   7   4   15.11    1.23
   4  -7  -4   12.49    1.06
   3  -7   6    1.19    0.34
   3  -7   6    1.57    0.38
  -3   7  -5   36.91    2.40
  -3   7  -5   38.34    2.50
   3  -7   5   37.77    2.48
   3  -7   5   43.91    2.81
  -3   7  -4   38.10    2.45
  -3   7  -4   36.99    2.41
   3  -7   4   39.42    2.55
   3  -7   4   39.79    2.58
  -3   7  -3    1.27    0.33
  -3   7  -3    1.50    0.35
   3  -7   3    1.27    0.32
   3  -7   3    1.54    0.36
  -3   7  -2    6.10    0.71
  -3   7  -2    5.16    0.67
   3  -7   2    6.02    0.73
   3  -7   2    5.91    0.72
  -3   7  -1    1.50    0.35
  -3   7  -1    1.48    0.34
   3  -7   1    1.46    0.35
   3  -7   1    1.78    0.38
  -3   7   0   58.99    3.53
  -3   7   0   67.26    3.97
   3  -7   0   62.44    3.71
   3  -7   0   59.38    3.56
  -3   7   1   20.95    1.55
  -3   7   1   23.63    1.70
   3  -7  -1   19.21    1.50
  -3   7   2   14.85    1.22
  -3   7   2   11.60    1.04
   3  -7  -2   14.10    1.19
   3  -7  -2   11.37    0.99
  -3   7   3  142.99    7.87
  -3   7   3  149.44    8.19
   3  -7  -3  132.86    7.32
   3  -7  -3  148.52    8.19
  -3   7   4    4.17    0.59
  -3   7   4    5.26    0.68
   3  -7  -4    4.73    0.63
   3  -7  -4    4.47    0.59
   2  -7   7    4.94    0.70
   2  -7   7    3.67    0.59
  -2   7  -6    1.48    0.35
  -2   7  -6    0.44    0.20
   2  -7   6    0.99    0.31
   2  -7   6    0.68    0.26
  -2   7  -5    5.04    0.66
  -2   7  -5    5.07    0.64
   2  -7   5    4.37    0.61
   2  -7   5    4.89    0.67
  -2   7  -4   11.77    1.07
  -2   7  -4   12.01    1.05
   2  -7   4   11.34    1.03
   2  -7   4   10.51    1.00
  -2   7  -3    3.32    0.52
  -2   7  -3    3.35    0.50
   2  -7   3    4.12    0.58
   2  -7   3    2.91    0.48
  -2   7  -2   11.46    1.03
  -2   7  -2   10.92    0.98
   2  -7   2    9.58    0.93
   2  -7   2    8.61    0.88
  -2   7  -1   33.68    2.20
  -2   7  -1   33.42    2.22
   2  -7   1   30.33    2.05
   2  -7   1   34.61    2.26
  -2   7   0    0.28    0.18
  -2   7   0    0.05    0.12
   2  -7   0    0.40    0.19
   2  -7   0    0.11    0.12
  -2   7   1    3.65    0.54
  -2   7   1    3.30    0.50
   2  -7  -1    3.65    0.53
   2  -7  -1    3.05    0.48
  -2   7   2    0.30    0.19
  -2   7   2    0.12    0.14
   2  -7  -2    0.11    0.12
   2  -7  -2    0.09    0.12
  -2   7   3   60.97    3.64
  -2   7   3   53.09    3.23
   2  -7  -3   51.23    3.17
   2  -7  -3   57.55    3.45
  -2   7   4    1.43    0.35
  -2   7   4    1.83    0.39
   2  -7  -4    1.75    0.37
   2  -7  -4    2.25    0.44
  -2   7   5    5.59    0.70
   2  -7  -5    5.08    0.64
   1  -7   8    0.85    0.32
  -1   7  -7    1.51    0.36
  -1   7  -7    1.21    0.32
   1  -7   7    1.37    0.36
   1  -7   7    1.10    0.34
  -1   7  -6    9.37    0.92
  -1   7  -6    9.50    0.91
   1  -7   6    9.19    0.96
   1  -7   6   10.09    1.01
  -1   7  -5    4.07    0.58
  -1   7  -5    4.15    0.59
   1  -7   5    4.70    0.63
   1  -7   5    4.18    0.60
  -1   7  -4  103.58    5.81
  -1   7  -4  119.45    6.69
   1  -7   4  116.99    6.53
   1  -7   4  112.39    6.31
  -1   7  -3    3.80    0.54
  -1   7  -3    3.34    0.52
   1  -7   3    3.95    0.57
   1  -7   3    2.87    0.48
  -1   7  -2    3.09    0.48
  -1   7  -2    2.89    0.48
   1  -7   2    3.58    0.53
   1  -7   2    2.55    0.46
  -1   7  -1   31.69    2.09
  -1   7  -1   29.49    2.00
   1  -7   1   27.48    1.88
   1  -7   1   31.06    2.08
   1  -7   0   17.39    1.34
   1  -7   0   19.83    1.47
  -1   7   1   38.78    2.49
  -1   7   1   32.34    2.13
   1  -7  -1   39.14    2.50
   1  -7  -1   41.80    2.63
  -1   7   2    6.07    0.71
  -1   7   2    7.31    0.78
   1  -7  -2    6.87    0.72
   1  -7  -2    6.50    0.71
  -1   7   3   12.78    1.11
  -1   7   3   14.05    1.17
   1  -7  -3   11.00    0.97
   1  -7  -3   10.24    0.95
  -1   7   4    7.10    0.80
  -1   7   4    7.04    0.78
   1  -7  -4    6.71    0.74
   1  -7  -4    7.81    0.79
  -1   7   5    0.24    0.16
  -1   7   5    0.13    0.15
   1  -7  -5    0.21    0.16
   1  -7  -5    0.32    0.17
   0   7  -7    0.47    0.23
   0   7  -7    0.47    0.23
   0  -7   7    0.68    0.25
   0  -7   7    0.49    0.23
   0   7  -6    6.34    0.75
   0   7  -6    7.06    0.78
   0  -7   6    5.31    0.70
   0  -7   6    5.66    0.71
   0   7  -5    0.42    0.21
   0   7  -5    0.31    0.18
   0  -7   5    0.30    0.18
   0  -7   5    0.20    0.20
   0   7  -4   56.51    3.45
   0   7  -4   52.21    3.16
   0  -7   4   52.46    3.21
   0  -7   4   58.29    3.50
   0   7  -3    1.32    0.35
   0   7  -3    1.19    0.32
   0  -7   3    0.77    0.27
   0  -7   3    0.78    0.26
   0   7  -2    0.90    0.28
   0   7  -2    1.29    0.33
   0  -7   2    0.63    0.25
   0  -7   2    1.04    0.28
   0   7  -1   60.31    3.61
   0   7  -1   61.61    3.64
   0   7   0   -0.11    0.09
   0   7   0   -0.13    0.12
   0  -7   0   -0.07    0.09
   0  -7   0   -0.03    0.11
   0   7   1   53.13    3.23
   0   7   1   45.13    2.79
   0  -7  -1   52.34    3.17
   0  -7  -1   50.70    3.09
   0   7   2    0.55    0.23
   0   7   2    1.01    0.29
   0  -7  -2    0.55    0.23
   0  -7  -2    1.31    0.33
   0   7   3    1.61    0.36
   0   7   3    0.75    0.26
   0  -7  -3    1.12    0.31
   0  -7  -3    1.79    0.37
   0   7   4   56.51    3.42
   0   7   4   59.55    3.57
   0  -7  -4   50.32    3.09
   0  -7  -4   50.31    3.07
   0   7   5    0.03    0.12
   0   7   5    0.33    0.18
   0  -7  -5    0.39    0.19
   0  -7  -5    0.50    0.23
   1   7  -6    0.14    0.12
   1   7  -6    0.05    0.13
  -1  -7   6   -0.11    0.11
  -1  -7   6    0.25    0.17
   1   7  -5    0.34    0.18
   1   7  -5    0.48    0.20
  -1  -7   5    0.24    0.16
   1   7  -4    7.47    0.79
   1   7  -4    7.75    0.78
  -1  -7   4    7.04    0.78
  -1  -7   4    7.38    0.80
   1   7  -3   13.87    1.16
   1   7  -3   13.61    1.13
  -1  -7   3    9.69    0.95
  -1  -7   3   11.23    1.00
   1   7  -2    7.32    0.75
   1   7  -2    8.06    0.82
  -1  -7   2    6.81    0.74
  -1  -7   2    6.72    0.75
   1   7  -1   38.61    2.49
   1   7  -1   33.07    2.16
  -1  -7   1   37.13    2.40
  -1  -7   1   39.12    2.51
   1   7   0   18.44    1.39
   1   7   0   20.04    1.48
  -1  -7   0   16.24    1.28
  -1  -7   0   17.23    1.34
   1   7   1   30.45    2.05
   1   7   1   28.22    1.91
   1   7   2    2.41    0.43
   1   7   2    2.28    0.43
  -1  -7  -2    3.17    0.49
  -1  -7  -2    2.56    0.44
   1   7   3    4.26    0.58
   1   7   3    3.57    0.53
  -1  -7  -3    3.59    0.52
  -1  -7  -3    3.45    0.52
   1   7   4  113.72    6.36
   1   7   4  127.02    7.04
  -1  -7  -4   97.23    5.52
  -1  -7  -4   96.15    5.45
   1   7   5    4.42    0.60
   1   7   5    5.39    0.70
  -1  -7  -5    4.42    0.69
   2   7  -6    1.90    0.41
  -2  -7   6    1.59    0.39
   2   7  -5    6.87    0.75
   2   7  -5    6.44    0.73
  -2  -7   5    5.83    0.71
  -2  -7   5    5.94    0.73
   2   7  -4    2.17    0.41
   2   7  -4    2.38    0.42
  -2  -7   4    2.16    0.43
  -2  -7   4    2.15    0.42
   2   7  -3   51.64    3.14
   2   7  -3   54.42    3.32
  -2  -7   3   55.94    3.38
  -2  -7   3   53.66    3.27
   2   7  -2    0.50    0.20
   2   7  -2    0.06    0.11
  -2  -7   2    0.25    0.16
  -2  -7   2    0.33    0.17
   2   7  -1    3.04    0.48
   2   7  -1    2.97    0.47
  -2  -7   1    3.28    0.51
  -2  -7   1    3.45    0.52
   2   7   0   -0.09    0.08
   2   7   0    0.05    0.12
  -2  -7   0    0.04    0.17
  -2  -7   0    0.07    0.12
   2   7   1   34.19    2.25
   2   7   1   28.15    1.92
  -2  -7  -1   36.45    2.35
  -2  -7  -1   33.24    2.20
   2   7   2    9.83    0.91
   2   7   2    9.93    0.93
  -2  -7  -2   11.89    1.03
  -2  -7  -2    9.97    0.92
   2   7   3    3.25    0.52
   2   7   3    2.29    0.42
  -2  -7  -3    4.70    0.61
  -2  -7  -3    3.03    0.49
   2   7   5    4.61    0.63
   2   7   5    4.48    0.63
  -2  -7  -5    3.61    0.55
  -2  -7  -5    4.28    0.61
   3   7  -5   10.30    0.98
  -3  -7   5    8.57    0.91
   3   7  -4    4.29    0.59
   3   7  -4    6.28    0.71
  -3  -7   4    4.66    0.63
  -3  -7   4    5.39    0.68
  -3  -7   3  143.71    7.90
  -3  -7   3  145.75    8.02
   3   7  -2   11.53    1.03
   3   7  -2   12.28    1.04
  -3  -7   2   13.58    1.15
  -3  -7   2   13.23    1.13
   3   7  -1   22.17    1.62
   3   7  -1   25.31    1.76
  -3  -7   1   23.16    1.67
  -3  -7   1   23.16    1.67
   3   7   0   57.18    3.43
   3   7   0   60.75    3.64
  -3  -7   0   65.67    3.88
  -3  -7   0   67.76    4.00
   3   7   1    1.48    0.35
   3   7   1    1.26    0.32
  -3  -7  -1    1.66    0.37
  -3  -7  -1    1.69    0.38
   3   7   2    4.63    0.60
   3   7   2    6.16    0.73
  -3  -7  -2    5.17    0.68
   3   7   3    1.72    0.38
   3   7   3    1.34    0.34
  -3  -7  -3    1.29    0.33
  -3  -7  -3    1.16    0.31
   3   7   4   38.82    2.52
   3   7   4   41.53    2.64
  -3  -7  -4   38.93    2.54
  -3  -7  -4   33.48    2.23
   3   7   5   41.27    2.65
  -3  -7  -5   40.50    2.61
   4   7  -3   42.74    2.71
  -4  -7   3   52.71    3.22
   4   7  -2    2.54    0.44
   4   7  -2    2.37    0.44
  -4  -7   2    2.24    0.43
  -4  -7   2    1.89    0.40
   4   7  -1    0.26    0.16
   4   7  -1    0.45    0.20
  -4  -7   1    0.34    0.18
  -4  -7   1    0.14    0.14
   4   7   0    3.52    0.54
   4   7   0    3.63    0.52
  -4  -7   0    4.21    0.58
  -4  -7   0    2.80    0.47
   4   7   1   29.28    1.98
   4   7   1   31.60    2.12
  -4  -7  -1   36.48    2.40
  -4  -7  -1   33.93    2.24
   4   7   2   -0.05    0.12
   4   7   2   -0.02    0.12
  -4  -7  -2   -0.08    0.13
  -4  -7  -2   -0.02    0.13
   4   7   3    2.00    0.41
   4   7   3    1.88    0.39
  -4  -7  -3    2.40    0.45
  -4  -7  -3    2.92    0.50
   4   7   4    8.79    0.92
  -4  -7  -4    6.52    0.77
   5   7  -1    0.51    0.21
  -5  -7   1    0.55    0.24
   5   7   0    5.29    0.67
  -5  -7   0    6.08    0.75
   5   7   1    6.47    0.75
   5   7   1    4.83    0.66
  -5  -7  -1    6.60    0.78
   5   7   2    3.74    0.56
  -5  -7  -2    5.56    0.71
   5   7   3   18.60    1.46
  -5  -7  -3   19.30    1.49
  -4   8  -3   14.68    1.26
   4  -8   3   14.43    1.30
   4  -8   3   12.89    1.23
  -4   8  -2    2.80    0.49
   4  -8   2    3.87    0.68
   4  -8   2    3.73    0.58
  -4   8  -1   27.10    1.90
   4  -8   1   23.86    1.76
  -3   8  -4    1.28    0.35
   3  -8   4    1.38    0.36
  -3   8  -3    7.82    0.86
  -3   8  -3    7.13    0.98
   3  -8   3    5.28    0.72
   3  -8   3    6.79    0.81
  -3   8  -2    0.11    0.13
  -3   8  -2    0.49    0.24
   3  -8   2    0.50    0.24
   3  -8   2    0.39    0.19
  -3   8  -1  129.68    7.21
   3  -8   1  120.47    6.75
   3  -8   1  122.11    6.85
  -3   8   0    0.42    0.24
   3  -8   0    0.51    0.23
  -2   8  -4   27.76    1.94
   2  -8   4   26.03    1.89
  -2   8  -3    5.32    0.69
   2  -8   3    5.77    0.73
   2  -8   3    4.52    0.68
  -2   8  -2    0.05    0.13
  -2   8  -2   -0.04    0.11
   2  -8   2    0.52    0.24
   2  -8   2    0.39    0.20
  -2   8  -1    4.77    0.66
  -2   8  -1    4.12    0.59
   2  -8   1    4.00    0.59
   2  -8   1    4.74    0.63
  -2   8   0    4.30    0.61
   2  -8   0    5.19    0.67
   2  -8  -1    0.92    0.29
  -1   8  -3    4.75    0.64
   1  -8   3    3.47    0.55
  -1   8  -2   -0.03    0.10
   1  -8   2    0.05    0.11
   1  -8   2    0.06    0.14
  -1   8  -1    0.24    0.19
  -1   8  -1    0.24    0.16
   1  -8   1    0.15    0.15
   1  -8   1    0.29    0.18
  -1   8   0  210.75   11.36
   1  -8   0  219.35   11.78
  -1   8   1    3.85    0.56
   1  -8  -1    3.11    0.51
   0   8  -3    1.89    0.47
   0  -8   2  109.01    6.12
   0   8  -1    3.11    0.51
   0  -8   1    3.15    0.51
   0   8   1    2.98    0.51
   0  -8  -1    2.09    0.44
   1   8  -1    2.94    0.58
   0   0   0    0.00    0.00

_computing_structure_solution     'SHELXT 2018/2 (Sheldrick, 2018)'
;
_shelx_hkl_checksum              450
_olex2_submission_special_instructions 'No special instructions were received'
loop_
_space_group_symop_operation_xyz
'x, y, z'
'-x, y+1/2, -z'
'-x, -y, -z'
'x, -y-1/2, z'
loop_
_atom_site_label
_atom_site_type_symbol
_atom_site_fract_x
_atom_site_fract_y
_atom_site_fract_z
_atom_site_U_iso_or_equiv
_atom_site_adp_type
_atom_site_occupancy
_atom_site_site_symmetry_order
_atom_site_calc_flag
_atom_site_refinement_flags_posn
_atom_site_refinement_flags_adp
_atom_site_refinement_flags_occupancy
_atom_site_disorder_assembly
_atom_site_disorder_group
O2 O 0.26101(12) 0.250000 0.56627(11) 0.0246(3) Uani 1 2 d S T P . .
O1 O 0.48415(13) 0.250000 0.38405(10) 0.0256(3) Uani 1 2 d S T P . .
N1 N 0.70595(14) 0.250000 0.57208(11) 0.0168(3) Uani 1 2 d S T P . .
C8 C 0.53887(16) 0.250000 0.51521(13) 0.0173(3) Uani 1 2 d S T P . .
C1 C 0.48024(16) 0.250000 0.77380(13) 0.0172(3) Uani 1 2 d S T P . .
C9 C 0.41236(16) 0.250000 0.61820(14) 0.0178(3) Uani 1 2 d S T P . .
C7 C 0.78592(15) 0.250000 0.72695(13) 0.0162(3) Uani 1 2 d S T P . .
C6 C 0.65533(16) 0.250000 0.82494(13) 0.0167(3) Uani 1 2 d S T P . .
C5 C 0.71293(18) 0.250000 0.97475(14) 0.0211(3) Uani 1 2 d S T P . .
H5 H 0.831957 0.250000 1.012446 0.025 Uiso 1 2 calc R U P . .
C11 C 0.81994(16) 0.250000 0.46645(14) 0.0207(3) Uani 1 2 d S T P . .
H11A H 0.789387 0.139114 0.398597 0.031 Uiso 0.5 1 calc R U P A -1
H11B H 0.938203 0.233992 0.516877 0.031 Uiso 0.5 1 calc R U P A -1
H11C H 0.808161 0.376894 0.413519 0.031 Uiso 0.5 1 calc R U P A -1
C2 C 0.36488(18) 0.250000 0.86955(16) 0.0216(3) Uani 1 2 d S T P . .
H2 H 0.245630 0.250000 0.832840 0.026 Uiso 1 2 calc R U P . .
C3 C 0.42429(19) 0.250000 1.01644(15) 0.0244(3) Uani 1 2 d S T P . .
H3 H 0.346520 0.250000 1.081202 0.029 Uiso 1 2 calc R U P . .
C10 C 0.89470(11) 0.44142(14) 0.75671(10) 0.0218(3) Uani 1 1 d . . . . .
H10A H 0.984707 0.439254 0.699056 0.033 Uiso 1 1 calc R U . . .
H10B H 0.946411 0.447660 0.859362 0.033 Uiso 1 1 calc R U . . .
H10C H 0.822104 0.558973 0.730638 0.033 Uiso 1 1 calc R U . . .
C4 C 0.5985(2) 0.250000 1.06878(14) 0.0251(3) Uani 1 2 d S T P . .
H4 H 0.640092 0.250000 1.169930 0.030 Uiso 1 2 calc R U P . .
loop_
_atom_site_aniso_label
_atom_site_aniso_U_11
_atom_site_aniso_U_22
_atom_site_aniso_U_33
_atom_site_aniso_U_23
_atom_site_aniso_U_13
_atom_site_aniso_U_12
O2 0.0147(5) 0.0319(5) 0.0267(5) 0.000 0.0023(4) 0.000
O1 0.0215(5) 0.0392(6) 0.0156(5) 0.000 0.0022(4) 0.000
N1 0.0152(5) 0.0216(5) 0.0145(5) 0.000 0.0053(4) 0.000
C8 0.0176(7) 0.0178(6) 0.0164(6) 0.000 0.0034(5) 0.000
C1 0.0195(7) 0.0150(6) 0.0183(6) 0.000 0.0070(6) 0.000
C9 0.0166(6) 0.0168(6) 0.0208(6) 0.000 0.0052(6) 0.000
C7 0.0139(6) 0.0191(6) 0.0154(6) 0.000 0.0022(5) 0.000
C6 0.0208(7) 0.0136(6) 0.0162(6) 0.000 0.0050(5) 0.000
C5 0.0254(7) 0.0200(6) 0.0170(6) 0.000 0.0021(6) 0.000
C11 0.0196(7) 0.0258(7) 0.0190(6) 0.000 0.0092(5) 0.000
C2 0.0225(7) 0.0198(6) 0.0252(7) 0.000 0.0114(6) 0.000
C3 0.0350(8) 0.0188(6) 0.0237(7) 0.000 0.0167(6) 0.000
C10 0.0191(5) 0.0237(5) 0.0222(5) -0.0015(3) 0.0032(4) -0.0050(3)
C4 0.0405(8) 0.0196(6) 0.0167(6) 0.000 0.0093(6) 0.000
loop_
_atom_type_symbol
_atom_type_description
_atom_type_scat_dispersion_real
_atom_type_scat_dispersion_imag
_atom_type_scat_source
C C 0.0033 0.0016 'International Tables Vol C Tables 4.2.6.8 and 6.1.1.4'
H H 0.0000 0.0000 'International Tables Vol C Tables 4.2.6.8 and 6.1.1.4'
N N 0.0061 0.0033 'International Tables Vol C Tables 4.2.6.8 and 6.1.1.4'
O O 0.0106 0.0060 'International Tables Vol C Tables 4.2.6.8 and 6.1.1.4'
loop_
_geom_angle_atom_site_label_1
_geom_angle_atom_site_label_2
_geom_angle_atom_site_label_3
_geom_angle
_geom_angle_site_symmetry_1
_geom_angle_site_symmetry_3
_geom_angle_publ_flag
C8 N1 C7 127.34(10) . . ?
C8 N1 C11 115.12(10) . . ?
C11 N1 C7 117.54(10) . . ?
O1 C8 N1 122.66(11) . . ?
O1 C8 C9 119.16(12) . . ?
N1 C8 C9 118.18(11) . . ?
C6 C1 C9 120.35(11) . . ?
C6 C1 C2 120.94(13) . . ?
C2 C1 C9 118.70(13) . . ?
O2 C9 C8 118.01(12) . . ?
O2 C9 C1 123.75(12) . . ?
C1 C9 C8 118.25(12) . . ?
N1 C7 C6 112.55(10) . . ?
N1 C7 C10 107.64(6) . . ?
N1 C7 C10 107.64(6) . 4_565 ?
C6 C7 C10 108.47(6) . 4_565 ?
C6 C7 C10 108.47(6) . . ?
C10 C7 C10 112.12(10) . 4_565 ?
C1 C6 C7 123.33(12) . . ?
C1 C6 C5 117.87(12) . . ?
C5 C6 C7 118.81(12) . . ?
C6 C5 H5 119.5 . . ?
C4 C5 C6 120.96(13) . . ?
C4 C5 H5 119.5 . . ?
N1 C11 H11A 109.5 . . ?
N1 C11 H11B 109.5 . . ?
N1 C11 H11C 109.5 . . ?
H11A C11 H11B 109.5 . . ?
H11A C11 H11C 109.5 . . ?
H11B C11 H11C 109.5 . . ?
C1 C2 H2 119.9 . . ?
C3 C2 C1 120.23(14) . . ?
C3 C2 H2 119.9 . . ?
C2 C3 H3 120.3 . . ?
C2 C3 C4 119.39(12) . . ?
C4 C3 H3 120.3 . . ?
C7 C10 H10A 109.5 . . ?
C7 C10 H10B 109.5 . . ?
C7 C10 H10C 109.5 . . ?
H10A C10 H10B 109.5 . . ?
H10A C10 H10C 109.5 . . ?
H10B C10 H10C 109.5 . . ?
C5 C4 H4 119.7 . . ?
C3 C4 C5 120.61(13) . . ?
C3 C4 H4 119.7 . . ?
loop_
_geom_bond_atom_site_label_1
_geom_bond_atom_site_label_2
_geom_bond_distance
_geom_bond_site_symmetry_2
_geom_bond_publ_flag
O2 C9 1.2156(17) . ?
O1 C8 1.2328(16) . ?
N1 C8 1.3410(17) . ?
N1 C7 1.4810(16) . ?
N1 C11 1.4713(15) . ?
C8 C9 1.5283(17) . ?
C1 C9 1.4668(19) . ?
C1 C6 1.3904(19) . ?
C1 C2 1.4068(18) . ?
C7 C6 1.5187(16) . ?
C7 C10 1.5424(11) 4_565 ?
C7 C10 1.5424(11) . ?
C6 C5 1.4023(18) . ?
C5 H5 0.9500 . ?
C5 C4 1.3885(19) . ?
C11 H11A 0.9800 . ?
C11 H11B 0.9800 . ?
C11 H11C 0.9800 . ?
C2 H2 0.9500 . ?
C2 C3 1.378(2) . ?
C3 H3 0.9500 . ?
C3 C4 1.386(2) . ?
C10 H10A 0.9800 . ?
C10 H10B 0.9800 . ?
C10 H10C 0.9800 . ?
C4 H4 0.9500 . ?
loop_
_geom_torsion_atom_site_label_1
_geom_torsion_atom_site_label_2
_geom_torsion_atom_site_label_3
_geom_torsion_atom_site_label_4
_geom_torsion
_geom_torsion_site_symmetry_1
_geom_torsion_site_symmetry_2
_geom_torsion_site_symmetry_3
_geom_torsion_site_symmetry_4
_geom_torsion_publ_flag
O1 C8 C9 O2 0.000(0) . . . . ?
O1 C8 C9 C1 180.000(0) . . . . ?
N1 C8 C9 O2 180.000(0) . . . . ?
N1 C8 C9 C1 0.000(0) . . . . ?
N1 C7 C6 C1 0.000(1) . . . . ?
N1 C7 C6 C5 180.000(0) . . . . ?
C8 N1 C7 C6 0.000(0) . . . . ?
C8 N1 C7 C10 -119.47(6) . . . . ?
C8 N1 C7 C10 119.47(6) . . . 4_565 ?
C1 C6 C5 C4 0.000(1) . . . . ?
C1 C2 C3 C4 0.000(1) . . . . ?
C9 C1 C6 C7 0.000(1) . . . . ?
C9 C1 C6 C5 180.000(1) . . . . ?
C9 C1 C2 C3 180.000(1) . . . . ?
C7 N1 C8 O1 180.000(0) . . . . ?
C7 N1 C8 C9 0.000(0) . . . . ?
C7 C6 C5 C4 180.000(1) . . . . ?
C6 C1 C9 O2 180.000(0) . . . . ?
C6 C1 C9 C8 0.000(1) . . . . ?
C6 C1 C2 C3 0.000(1) . . . . ?
C6 C5 C4 C3 0.000(1) . . . . ?
C11 N1 C8 O1 0.000(0) . . . . ?
C11 N1 C8 C9 180.000(0) . . . . ?
C11 N1 C7 C6 180.000(0) . . . . ?
C11 N1 C7 C10 -60.53(6) . . . 4_565 ?
C11 N1 C7 C10 60.53(6) . . . . ?
C2 C1 C9 O2 0.000(1) . . . . ?
C2 C1 C9 C8 180.000(0) . . . . ?
C2 C1 C6 C7 180.000(0) . . . . ?
C2 C1 C6 C5 0.000(1) . . . . ?
C2 C3 C4 C5 0.000(1) . . . . ?
C10 C7 C6 C1 118.99(7) . . . . ?
C10 C7 C6 C1 -118.99(7) 4_565 . . . ?
C10 C7 C6 C5 61.01(7) 4_565 . . . ?
C10 C7 C6 C5 -61.01(7) . . . . ?
