#------------------------------------------------------------------------------
#$Date: 2022-10-07 03:39:25 +0300 (Fri, 07 Oct 2022) $
#$Revision: 278397 $
#$URL: file:///home/coder/svn-repositories/cod/cif/7/13/06/7130695.cif $
#------------------------------------------------------------------------------
#
# This file is available in the Crystallography Open Database (COD),
# http://www.crystallography.net/
#
# All data on this site have been placed in the public domain by the
# contributors.
#
data_7130695
loop_
_publ_author_name
'Sun, Mengran'
'Xing, Wenhao'
'Lee, Ming-Hsien'
'Yao, Jiyong'
_publ_section_title
;
 Bridging oxygen atoms in trigonal prism units driven strong
 second-harmonic-generation efficiency in
 Sr<sub>3</sub>Ge<sub>2</sub>O<sub>4</sub>Te<sub>3</sub>.
;
_journal_issue                   79
_journal_name_full               'Chemical communications (Cambridge, England)'
_journal_page_first              11167
_journal_page_last               11170
_journal_paper_doi               10.1039/d2cc03979f
_journal_volume                  58
_journal_year                    2022
_chemical_formula_sum            'Ge2 O4 Sr3 Te3'
_chemical_formula_weight         854.84
_space_group_crystal_system      trigonal
_space_group_IT_number           160
_space_group_name_Hall           'R 3 -2"'
_space_group_name_H-M_alt        'R 3 m :H'
_audit_creation_method           SHELXL-2014/7
_audit_update_record
;
2022-09-05 deposited with the CCDC.	2022-09-07 downloaded from the CCDC.
;
_cell_angle_alpha                90
_cell_angle_beta                 90
_cell_angle_gamma                120
_cell_formula_units_Z            3
_cell_length_a                   10.5223(18)
_cell_length_b                   10.5223(18)
_cell_length_c                   8.680(2)
_cell_measurement_reflns_used    1236
_cell_measurement_temperature    296(2)
_cell_measurement_theta_max      31.17
_cell_measurement_theta_min      3.24
_cell_volume                     832.3(3)
_computing_cell_refinement       'Bruker SMART'
_computing_data_collection       'Bruker SMART'
_computing_data_reduction        'Bruker SAINT'
_computing_molecular_graphics    'Olex2 1.3 (Dolomanov et al., 2009)'
_computing_publication_material  'Olex2 1.3 (Dolomanov et al., 2009)'
_computing_structure_refinement  'SHELXL-2014/7 (Sheldrick, 2014)'
_computing_structure_solution    'olex2.solve 1.3 (Bourhis et al., 2015)'
_diffrn_ambient_temperature      296(2)
_diffrn_measured_fraction_theta_full 1.000
_diffrn_measured_fraction_theta_max 0.995
_diffrn_measurement_device_type  'CCD area detector'
_diffrn_measurement_method       'phi and omega scans'
_diffrn_radiation_type           MoK\a
_diffrn_radiation_wavelength     0.71073
_diffrn_reflns_av_R_equivalents  0.0673
_diffrn_reflns_av_unetI/netI     0.0686
_diffrn_reflns_Laue_measured_fraction_full 1.000
_diffrn_reflns_Laue_measured_fraction_max 0.995
_diffrn_reflns_limit_h_max       16
_diffrn_reflns_limit_h_min       -15
_diffrn_reflns_limit_k_max       15
_diffrn_reflns_limit_k_min       -14
_diffrn_reflns_limit_l_max       13
_diffrn_reflns_limit_l_min       -6
_diffrn_reflns_number            3004
_diffrn_reflns_point_group_measured_fraction_full 0.820
_diffrn_reflns_point_group_measured_fraction_max 0.718
_diffrn_reflns_theta_full        25.242
_diffrn_reflns_theta_max         33.254
_diffrn_reflns_theta_min         3.241
_exptl_absorpt_coefficient_mu    27.385
_exptl_absorpt_correction_T_max  0.0689
_exptl_absorpt_correction_T_min  0.0238
_exptl_absorpt_correction_type   multi-scan
_exptl_crystal_colour            yellow
_exptl_crystal_density_diffrn    5.117
_exptl_crystal_description       block
_exptl_crystal_F_000             1098
_exptl_crystal_size_max          0.1
_exptl_crystal_size_mid          0.1
_exptl_crystal_size_min          0.1
_refine_diff_density_max         2.156
_refine_diff_density_min         -2.807
_refine_diff_density_rms         0.416
_refine_ls_abs_structure_details
;
 Flack x determined using 134 quotients [(I+)-(I-)]/[(I+)+(I-)]
 (Parsons, Flack and Wagner, Acta Cryst. B69 (2013) 249-259).
;
_refine_ls_abs_structure_Flack   0.032(19)
_refine_ls_extinction_coef       0.00059(9)
_refine_ls_extinction_expression Fc^*^=kFc[1+0.001xFc^2^\l^3^/sin(2\q)]^-1/4^
_refine_ls_extinction_method     'SHELXL-2014/7 (Sheldrick 2014'
_refine_ls_goodness_of_fit_ref   1.051
_refine_ls_hydrogen_treatment    undef
_refine_ls_matrix_type           full
_refine_ls_number_parameters     32
_refine_ls_number_reflns         587
_refine_ls_number_restraints     1
_refine_ls_restrained_S_all      1.050
_refine_ls_R_factor_all          0.0528
_refine_ls_R_factor_gt           0.0339
_refine_ls_shift/su_max          0.000
_refine_ls_shift/su_mean         0.000
_refine_ls_structure_factor_coef Fsqd
_refine_ls_weighting_details
'w=1/[\s^2^(Fo^2^)+0.0750P] where P=(Fo^2^+2Fc^2^)/3'
_refine_ls_weighting_scheme      calc
_refine_ls_wR_factor_gt          0.0476
_refine_ls_wR_factor_ref         0.0530
_reflns_Friedel_coverage         0.428
_reflns_Friedel_fraction_full    0.634
_reflns_Friedel_fraction_max     0.435
_reflns_number_gt                494
_reflns_number_total             587
_reflns_threshold_expression     'I > 2\s(I)'
_cod_data_source_file            d2cc03979f2.cif
_cod_data_source_block           aaa
_cod_depositor_comments          'Adding full bibliography for 7130695.cif.'
_cod_database_code               7130695
_shelx_shelxl_version_number     2014/7
_shelx_space_group_comment
;
The symmetry employed for this shelxl refinement is uniquely defined
by the following loop, which should always be used as a source of
symmetry information in preference to the above space-group names.
They are only intended as comments.
;
_shelx_res_file
;

    aaa.res created by SHELXL-2014/7

TITL aaa_a.res in R3m
REM Old TITL aaa in R3m #160
REM SHELXT solution in R3m
REM R1 0.053, Rweak 0.033, Alpha 0.002, Orientation as input
REM Flack x = 0.117 ( 0.019 ) from Parsons' quotients
REM Formula found by SHELXT: Ge O3 Sr4 Te3
CELL 0.71073 10.5223 10.5223 8.6797 90 90 120
ZERR 3 0.0018 0.0018 0.0021 0 0 0
LATT -3
SYMM -Y,+X-Y,+Z
SYMM +Y-X,-X,+Z
SYMM -Y,-X,+Z
SYMM +Y-X,+Y,+Z
SYMM +X,+X-Y,+Z
SFAC Ge O Sr Te
UNIT 6 12 9 9
L.S. 24
PLAN  21
TEMP 23
free sr1 ge1
eqiv $1 -0.333333+x, -0.666667+y, 0.333333+z
eqiv $2 1-y, x-y, z
eqiv $3 1.666667-y, 0.333333+x-y, 0.333333+z
eqiv $4 1-x+y, 1-x, z
eqiv $5 0.666667-x+y, 1.333333-x, 0.333333+z
eqiv $6 x+1/3, y+2/3, z-1/3
free ge1 sr1_$1
free ge1 sr1_$2
free ge1 sr1_$3
free ge1 sr1_$4
free ge1 sr1_$5
free ge1 sr1_$6
free sr1 ge1_$6
CONF
list 4
MORE -1
fmap 2 53
acta
REM <olex2.extras>
REM <HklSrc "%.\\aaa.hkl">
REM </olex2.extras>

WGHT    0.000000    0.075000
EXTI    0.000590
FVAR       0.18111
GE1   1    0.666667    0.333333    0.709117    10.16667    0.00890    0.00890 =
         0.00763    0.00000    0.00000    0.00445
GE2   1    0.666667    0.333333    0.309606    10.16667    0.02028    0.02028 =
         0.00740    0.00000    0.00000    0.01014
O1    2    0.754983    0.509967    0.782828    10.50000    0.01725    0.01358 =
         0.01520    0.00210    0.00105    0.00679
O2    2    0.690946    0.381893    0.508761    10.16667    0.03533    0.00711 =
         0.02622   -0.00299   -0.00149    0.00356
SR1   3    0.857592    0.715184    0.596150    10.50000    0.01387    0.01829 =
         0.01368    0.00685    0.00342    0.00914
TE1   4    0.403116    0.201558    0.212581    10.50000    0.01192    0.01368 =
         0.02476    0.00266    0.00532    0.00596
HKLF 4

REM  aaa_a.res in R3m
REM R1 =  0.0339 for     494 Fo > 4sig(Fo)  and  0.0528 for all     587 data
REM     32 parameters refined using      1 restraints

END

WGHT      0.0000      0.0818

REM Highest difference peak  2.156,  deepest hole -2.807,  1-sigma level  0.416
Q1    1   0.6667  0.3333  0.8431  10.16667  0.05    2.16
Q2    1   0.6943  0.3886  0.9256  10.50000  0.05    1.76
Q3    1   0.6667  0.3333  0.4425  10.16667  0.05    1.68
Q4    1   0.7485  0.7381  0.5412  11.00000  0.05    1.65
Q5    1   0.9449  0.7921  0.6653  11.00000  0.05    1.60
Q6    1   0.2777  0.1388  0.1605  10.50000  0.05    1.56
Q7    1   0.8276  0.6552  0.7216  10.50000  0.05    1.56
Q8    1   0.8473  0.6946  0.4649  10.50000  0.05    1.54
Q9    1   0.4129  0.1272  0.1290  11.00000  0.05    1.49
Q10   1   0.6667  0.3333  0.5838  10.16667  0.05    1.44
Q11   1   0.6879  0.2330  0.2313  11.00000  0.05    1.43
Q12   1   0.6336  0.3664  0.3733  10.50000  0.05    1.30
Q13   1   0.6032  0.3968  0.3035  10.50000  0.05    1.28
Q14   1   0.8205  0.8611  0.6704  11.00000  0.05    1.24
Q15   1   0.8646  0.4323  0.5722  10.50000  0.05    1.23
Q16   1   0.9203  0.8406  0.5875  10.50000  0.05    1.23
Q17   1   0.7326  0.4653  0.8702  10.50000  0.05    1.22
Q18   1   0.4142  0.2071  0.3464  10.50000  0.05    1.22
Q19   1   0.4645  0.1339  0.2037  11.00000  0.05    1.21
Q20   1   0.2983  0.2640  0.2677  11.00000  0.05    1.21
Q21   1   0.3785  0.1893  0.0884  10.50000  0.05    1.21
;
_shelx_res_checksum              88433
_shelx_hkl_file
;
  -3   0   0 1693.13   96.29
  -3   0   0 1327.67  107.39
   3   0   0 1327.17   91.49
   3   0   0 1433.26   94.49
   3   0   0 1392.76   92.19
  -6   0   0  997.00  108.39
   6   0   0  732.93   68.49
   6   0   0  880.51   76.49
   6   0   0  830.42   81.09
   9   0   0   57.29   39.70
   9   0   0   96.49   37.80
  12   0   0   33.50   51.19
  12   0   0   49.10   72.69
  14  -1   0  117.59   68.59
  14  -1   0    3.80   86.69
  11  -1   0  341.37   74.49
  11  -1   0  388.66   71.79
   8  -1   0 2201.18  159.98
   8  -1   0 2237.58  155.88
   5  -1   0  147.49   28.30
   5  -1   0  172.88   26.90
   5  -1   0  196.18   31.00
  -5   1   0  222.78   27.00
  -5   1   0  174.78   41.70
   2  -1   0  124.59   14.60
   2  -1   0  101.29   13.40
  -1  -1   0  120.89   12.80
  -1  -1   0   90.89   21.60
  -1  -1   0  111.79   15.00
   1   1   0  146.09   25.10
   1   1   0  103.19   15.30
   1   1   0   89.49   12.30
  -4  -1   0  268.97   32.90
  -4  -1   0  269.97   56.69
   4   1   0  202.38   27.60
   4   1   0  239.68   46.90
   4   1   0  163.58   34.20
   7   1   0 2285.57  157.08
   7   1   0 2234.18  166.48
  10   1   0  364.66   81.09
  10   1   0  373.66   68.69
  13  -2   0  447.96   80.19
  10  -2   0  206.78   47.90
  10  -2   0  212.18   50.59
   7  -2   0  115.39   31.60
   7  -2   0  142.69   30.10
  -7   2   0  273.17   64.19
   4  -2   0 7329.57  422.26
   4  -2   0 7814.02  427.26
   4  -2   0 7166.78  426.86
  -4   2   0 7089.19  434.56
  -4   2   0 7690.03  431.86
   1  -2   0   97.49   12.00
   1  -2   0  107.39   12.30
  -1   2   0   99.79   16.10
  -1   2   0  117.79   13.20
  -1   2   0  100.59   10.80
  -2  -2   0 8096.29  454.25
  -2  -2   0 7812.52  445.86
   2   2   0 7720.13  445.66
   2   2   0 7593.14  466.55
  -5  -2   0  246.98   65.79
   5   2   0  163.58   32.40
   5   2   0  185.88   42.10
   5   2   0  153.68   43.40
   8   2   0  206.18   50.79
   8   2   0  228.18   67.39
  15  -3   0  152.58   73.49
  15  -3   0  145.59   65.49
  12  -3   0 1180.98  115.79
  12  -3   0 1154.48  113.49
   9  -3   0  288.47   48.70
   9  -3   0  145.09   34.90
   6  -3   0 4064.09  236.68
   6  -3   0 4092.89  240.18
  -6   3   0 3495.65  253.07
  -6   3   0 4107.39  250.57
   3  -3   0 1608.54   90.89
   3  -3   0 1604.64   96.79
  -3   3   0 1458.75   98.59
  -3   3   0 1383.66   91.89
  -3   3   0 1396.76   89.79
   0  -3   0 1272.87  100.89
   0  -3   0 1444.76   91.09
   0  -3   0 1419.96   99.69
   0   3   0 1372.56  106.19
   0   3   0 1624.74   97.69
   0   3   0 1523.35   91.79
  -3  -3   0 3996.40  295.17
  -3  -3   0 4161.98  261.07
  -3  -3   0 4288.77  251.37
   3   3   0 4223.68  264.17
   3   3   0 4137.69  251.07
   3   3   0 4156.18  290.57
  -6  -3   0  221.68   78.39
   6   3   0  228.48   57.39
   6   3   0  182.08   41.10
   9   3   0 1314.77  118.09
  14  -4   0   32.90   51.89
  14  -4   0    8.60   45.10
  11  -4   0  166.38   43.70
  11  -4   0  164.18   45.50
   8  -4   0  251.77   36.10
   8  -4   0  279.27   36.50
  -8   4   0  337.07   60.49
   5  -4   0  229.68   24.50
   5  -4   0  241.08   28.80
  -5   4   0  157.38   28.80
  -5   4   0  181.18   35.60
   2  -4   0 7853.01  448.56
   2  -4   0 8014.80  452.75
   2  -4   0 8264.47  450.15
  -2   4   0 6953.80  456.35
  -2   4   0 7970.40  447.16
  -2   4   0 8013.30  451.15
  -1  -4   0  174.28   25.00
  -1  -4   0  282.37   51.09
  -1  -4   0  223.28   38.90
   1   4   0  287.37   30.00
   1   4   0  243.88   52.59
   1   4   0  249.28   35.20
  -4  -4   0  257.67   67.09
   4   4   0  323.47   42.30
   4   4   0  243.38   53.79
   7   4   0  172.28   46.40
  13  -5   0  511.35  111.19
  10  -5   0 4591.14  282.87
 -10   5   0 4449.55  308.67
   7  -5   0  290.87   34.10
   4  -5   0  229.78   23.60
  -4   5   0  160.18   28.20
  -4   5   0  153.38   18.80
  -4   5   0  192.48   33.30
   1  -5   0  231.18   42.00
   1  -5   0  212.98   30.60
  -1   5   0  224.88   28.80
  -1   5   0  148.69   37.30
  -2  -5   0  140.79   50.29
  -2  -5   0  171.38   39.20
   2   5   0  268.67   79.79
   2   5   0  288.37   38.70
  -5  -5   0 4831.22  345.57
   5   5   0 4703.03  320.17
   5   5   0 4551.94  294.37
   8   5   0  294.97   89.89
  15  -6   0  111.69   59.79
  15  -6   0   29.40   54.79
  12  -6   0   18.70   27.40
  -9   6   0  162.98   52.49
  -6   6   0  618.34   48.80
  -6   6   0  802.12   73.69
   3  -6   0 4350.36  259.37
   3  -6   0 4185.98  258.47
   3  -6   0 4664.93  264.67
  -3   6   0 4160.28  262.47
  -3   6   0 4144.19  253.87
   0  -6   0  841.02   76.69
   0  -6   0  763.92   66.79
   0  -6   0  773.92   82.39
   0   6   0  915.01   79.69
   0   6   0  919.51   69.69
  -3  -6   0  253.87   66.59
   3   6   0  195.38   39.10
   6   6   0   21.80   37.90
  14  -7   0  838.82  100.89
  14  -7   0 1063.39  114.29
  11  -7   0  147.29   38.30
 -11   7   0  114.89   61.39
   8  -7   0 2344.97  159.48
  -5   7   0  133.69   28.90
  -5   7   0  156.58   38.10
   2  -7   0  259.17   49.30
   2  -7   0  175.38   37.70
  -2   7   0  314.07   41.40
  -2   7   0  306.97   41.80
  -1  -7   0 2185.88  177.38
   1   7   0 2210.68  152.08
  -4  -7   0  163.28   73.59
   4   7   0   81.19   39.20
  16  -8   0  311.87   80.99
  16  -8   0  322.87  100.19
  13  -8   0  412.56   65.69
 -13   8   0  268.07   97.49
 -10   8   0  204.08   64.89
   7  -8   0 2549.54  159.98
  -7   8   0 2050.19  173.08
   4  -8   0  288.97   46.90
   4  -8   0  266.87   39.50
  -4   8   0  240.68   39.50
  -4   8   0  339.67   48.10
   1  -8   0 2356.56  176.18
  -1   8   0 2290.47  160.08
  -2  -8   0  256.27   80.49
   2   8   0  225.08   45.50
  15  -9   0   99.29   49.40
  12  -9   0 1333.57  112.19
 -12   9   0 1275.77  154.08
  -9   9   0   96.19   48.10
   3  -9   0  314.87   51.29
  -3   9   0  273.17   51.59
   0  -9   0   96.29   44.90
   0   9   0   28.70   28.60
  -3  -9   0 1556.94  195.48
  14 -10   0  -19.60   40.40
 -14  10   0   20.40   87.79
 -11  10   0  232.18   78.69
  -8  10   0  216.78   61.39
  -5  10   0 4492.55  296.07
   2 -10   0  241.18   57.19
  -2  10   0  150.08   41.80
  -1 -10   0  504.85   97.99
   1  10   0  211.78   55.29
 -13  11   0  618.24  127.89
 -10  11   0  179.08   71.19
  -7  11   0  170.38   58.69
   4 -11   0  148.69   51.29
  -4  11   0  113.79   45.90
   1 -11   0  305.97   73.49
  -1  11   0  297.17   62.79
  15 -12   0   95.39   99.19
 -15  12   0   44.40  120.49
 -12  12   0   84.19   75.99
  -9  12   0 1101.39  129.49
  -6  12   0   25.90   42.90
   3 -12   0 1352.06  134.69
  -3  12   0 1241.58  122.39
 -14  13   0  195.38  104.69
 -11  13   0  516.55  116.19
  -8  13   0  368.26   87.29
  -5  13   0  322.27   76.19
   2 -13   0  733.23  123.29
 -13  14   0   18.30   90.19
 -10  14   0    0.90   68.79
  -7  14   0  891.91  131.79
   1 -14   0  161.38   85.69
 -12  15   0  -64.99   87.49
  -9  15   0   -0.20   76.79
 -10  15  -1  508.15  123.29
   2 -14   1  508.05  106.49
  -8  14  -1   57.19   87.19
 -11  14  -1  207.28   97.39
   0 -13   1  506.35  106.69
   3 -13   1  249.48   66.89
  -6  13  -1  406.96   84.79
  -9  13  -1   24.10   66.29
 -12  13  -1   69.69  100.39
  -4  12  -1  598.74   85.39
   4 -12   1  600.14   85.59
  -7  12  -1  104.09   57.19
 -10  12  -1  246.18   84.69
 -13  12  -1  367.86  112.29
  -1 -11   1   62.59   62.29
  -2  11  -1  348.37   63.89
   2 -11   1  345.27   70.49
  -5  11  -1  163.08   51.39
   5 -11   1  160.78   45.40
  -8  11  -1  406.76   84.79
 -11  11  -1  343.67   93.29
 -14  11  -1  133.29   95.99
  14 -11   1  189.38   54.79
   0 -10   1 2601.34  209.58
  -3  10  -1  211.18   51.49
   3 -10   1  267.27   54.89
  -6  10  -1  176.58   51.99
  -9  10  -1   10.20   46.30
  15 -10   1  745.73   85.39
  -2  -9   1  426.26   95.69
  -1   9  -1   49.50   27.90
   1  -9   1   78.29   40.10
  -4   9  -1   16.40   26.50
   4  -9   1  151.38   38.60
  -7   9  -1 1937.61  158.48
 -10   9  -1   23.00   48.50
 -13   9  -1   23.00   65.29
  13  -9   1   17.80   30.30
  16  -9   1  109.19   54.09
  16  -9   1  -48.30   57.49
  -4  -8   1  714.33  149.99
   1   8  -1   -9.00   20.80
  -1  -8   1   86.69   45.00
  -2   8  -1 1357.36  104.29
   2  -8   1 1432.86  118.49
  -5   8  -1  891.71   83.29
   5  -8   1  835.22   67.79
   5  -8   1  749.03   70.49
  -8   8  -1 1468.45  142.69
   8  -8   1 1721.13  112.09
 -11   8  -1  558.94  101.29
  11  -8   1  568.84   59.79
  14  -8   1   35.60   36.30
  14  -8   1    6.90   42.70
  -3  -7   1   93.59   57.69
   0   7  -1  857.21   71.39
  -3   7  -1 3991.40  248.18
   3  -7   1 3972.90  248.48
  -6   7  -1  299.17   54.99
   6  -7   1  281.97   37.40
  -9   7  -1 1873.41  161.58
  12  -7   1   97.29   35.50
  15  -7   1  207.58   62.89
  15  -7   1  131.69   62.59
   5   6  -1  202.18   43.50
  -5  -6   1  154.08   72.79
   2   6  -1 1278.87   96.29
   2   6  -1 1182.08  111.29
  -2  -6   1 1595.34  137.19
  -1   6  -1  313.17   38.80
  -1   6  -1  269.57   34.80
   1  -6   1  310.77   33.80
   1  -6   1  296.67   38.00
   1  -6   1  447.06   50.99
  -4   6  -1  405.36   46.50
   4  -6   1  311.37   35.30
   4  -6   1  435.86   38.40
   4  -6   1  363.66   33.90
  -7   6  -1  210.08   49.20
 -10   6  -1  102.29   53.99
  10  -6   1  193.58   37.10
  13  -6   1  281.77   65.59
  13  -6   1  321.57   63.69
  16  -6   1   59.59   60.29
   4   5  -1   38.10   25.00
   4   5  -1   41.20   36.80
  -4  -5   1   58.89   46.60
   1   5  -1  240.28   31.60
   1   5  -1  227.98   38.60
  -1  -5   1  405.26   54.79
  -1  -5   1  332.27   32.60
  -1  -5   1  342.87   42.30
  -2   5  -1 2033.20  136.89
  -2   5  -1 1987.60  130.19
  -2   5  -1 1874.11  137.59
   2  -5   1 2315.57  141.29
   2  -5   1 2390.16  137.39
   2  -5   1 2331.17  135.09
  -5   5  -1 9025.10  535.15
   5  -5   1 9137.29  512.55
  -8   5  -1  867.01   88.39
   8  -5   1  699.23   59.49
   8  -5   1  727.03   59.39
  11  -5   1   53.19   34.70
  11  -5   1  125.29   34.20
  14  -5   1   -7.70   40.20
  14  -5   1   74.89   49.99
   6   4  -1  186.38   41.10
   6   4  -1  168.38   55.19
   3   4  -1 2646.14  183.78
   3   4  -1 2777.22  169.88
  -3  -4   1 2775.82  169.28
  -3  -4   1 2563.94  182.28
  -3  -4   1 2592.54  200.88
   0   4  -1   59.89   25.50
   0   4  -1  107.69   17.20
   0  -4   1   33.10   18.30
   0  -4   1   70.09   15.00
   0  -4   1   54.99   18.00
   3  -4   1   26.60   10.90
   3  -4   1   35.30    8.20
   3  -4   1   28.90    9.60
  -6   4  -1  356.26   46.40
   6  -4   1  279.37   29.80
   9  -4   1  110.09   29.50
  12  -4   1  513.25   74.89
  12  -4   1  589.94   76.79
  15  -4   1  112.49   68.19
  15  -4   1   48.10   57.09
   8   3  -1  580.04   69.99
   5   3  -1  900.41   86.59
   5   3  -1  813.62   69.69
  -5  -3   1  730.73  100.99
   2   3  -1 2027.50  136.89
   2   3  -1 2062.69  148.09
  -2  -3   1 2435.46  152.08
  -2  -3   1 2428.16  165.08
  -2  -3   1 2368.86  138.29
  -1   3  -1 4219.68  243.58
  -1   3  -1 4443.46  245.98
  -1   3  -1 4197.88  242.18
   1  -3   1 4230.28  244.08
   1  -3   1 4125.09  247.68
   1  -3   1 4106.49  242.08
  -4   3  -1   44.20   17.40
   4  -3   1   33.80   14.20
   4  -3   1   30.70    9.90
  -7   3  -1 2329.57  175.28
   7  -3   1 2748.93  171.28
   7  -3   1 2723.43  165.88
  10  -3   1  266.07   53.39
  10  -3   1  208.98   48.70
  13  -3   1  351.26   77.69
  13  -3   1  350.26   77.09
  10   2  -1  286.57   61.99
   7   2  -1 1885.51  132.99
   7   2  -1 1800.42  147.09
   4   2  -1  400.86   39.00
   4   2  -1  375.66   53.59
   4   2  -1  411.16   55.69
  -4  -2   1  395.66   47.40
  -4  -2   1  318.57   64.39
   1   2  -1 4446.56  255.27
   1   2  -1 4258.07  262.47
   1   2  -1 4453.55  246.38
  -1  -2   1 4255.67  245.68
  -1  -2   1 4168.88  261.27
  -1  -2   1 4324.07  256.37
   2  -2   1  476.05   35.40
  -5   2  -1 1861.91  146.59
   5  -2   1 2363.96  145.99
   5  -2   1 2388.46  147.79
   5  -2   1 2353.16  139.49
   8  -2   1 1339.07  111.99
   8  -2   1 1576.24  113.19
  11  -2   1  260.57   59.19
  11  -2   1  484.65   72.89
  14  -2   1  266.27   77.89
  14  -2   1  345.07   85.19
   9   1  -1   72.69   42.10
   9   1  -1   13.90   27.20
   6   1  -1  280.67   57.59
   6   1  -1  296.07   52.89
   6   1  -1  230.78   39.80
  -6  -1   1  253.67   62.69
   3   1  -1   28.20   14.70
   3   1  -1   13.90   15.70
   3   1  -1   31.90   11.20
   3   1  -1   14.50    9.00
  -3  -1   1   33.10   15.50
   0   1  -1  100.69   10.60
   0  -1   1  103.59   11.10
  -3   1  -1 4169.48  246.88
  -3   1  -1 4114.09  239.28
   3  -1   1 4140.69  241.58
   3  -1   1 4388.76  247.18
   3  -1   1 4123.49  246.38
  -6   1  -1  192.18   53.39
   6  -1   1  391.86   44.10
   6  -1   1  323.67   43.20
   6  -1   1  355.16   41.20
   9  -1   1   42.10   31.30
   9  -1   1   83.79   33.30
  12  -1   1  114.49   88.59
  11   0  -1  295.07   70.09
  11   0  -1  194.88   51.69
   8   0  -1 1516.75  111.79
   8   0  -1 1326.07  118.49
   5   0  -1 8947.60  502.95
   5   0  -1 8222.78  496.45
   5   0  -1 8850.42  496.25
   5   0  -1 8899.31  512.35
  -5   0   1 8212.68  522.65
  -5   0   1 8422.76  502.85
  -2   0   1  518.25   40.20
  -2   0   1  505.15   36.70
  -2   0   1  537.45   44.50
  -1   0  -1   99.59   10.80
  -1   0  -1   99.89   11.70
   1   0   1  109.79   13.50
  -4   0  -1  110.29   31.60
  -4   0  -1   86.59   18.90
   4   0   1   70.79   24.80
   4   0   1   59.99   18.60
   4   0   1   73.29   20.00
   7   0   1 1319.27  107.09
   7   0   1 1343.47  110.79
  10   0   1 2415.86  188.88
  10   0   1 2380.86  178.68
  13   0   1  271.27   84.09
  13   0   1  489.95   91.79
  13  -1  -1  124.49   68.19
  13  -1  -1  231.88   61.99
  10  -1  -1   31.70   31.70
  10  -1  -1   46.40   35.00
   7  -1  -1  250.37   39.10
   7  -1  -1  264.27   49.00
   7  -1  -1  235.68   35.80
  -7   1   1  178.78   55.89
   4  -1  -1   20.40   14.30
   4  -1  -1    7.30    9.90
   4  -1  -1   21.00    9.60
  -4   1   1   20.70   20.20
   1  -1  -1  100.09   11.10
   1  -1  -1  105.69   14.30
  -1   1   1  100.99   13.10
  -2  -1  -1 4293.57  245.88
  -2  -1  -1 4327.87  247.98
  -2  -1  -1 4312.07  259.07
   2   1   1 4218.58  250.07
   2   1   1 4069.29  245.58
   2   1   1 3942.01  255.67
   5   1   1  325.67   43.30
   5   1   1  475.55   60.39
   5   1   1  386.16   49.70
   8   1   1   53.79   31.40
   8   1   1   66.19   42.30
  11   1   1   49.90   51.19
  11   1   1   62.29   65.29
  12  -2  -1  376.56   68.89
  12  -2  -1  339.97   79.29
   9  -2  -1 1743.73  131.69
   9  -2  -1 1805.52  144.99
   6  -2  -1  344.37   39.40
   6  -2  -1  377.16   43.30
  -6   2   1  352.36   54.29
  -6   2   1  358.46   44.00
   3  -2  -1 4416.46  257.47
   3  -2  -1 4450.05  258.37
  -3   2   1 4565.14  260.37
  -3   2   1 4258.97  258.07
   0   2   1  531.45   44.70
   0   2   1  519.05   43.30
   0   2   1  592.34   50.89
  -3  -2  -1 1873.71  156.58
  -3  -2  -1 2011.60  135.59
  -3  -2  -1 1908.31  143.79
   3   2   1 2352.46  138.59
   3   2   1 2186.58  156.88
   3   2   1 2357.16  147.89
   6   2   1 1653.03  123.39
   6   2   1 1632.14  135.39
   9   2   1  461.65   86.39
   9   2   1  297.67   62.19
  12   2   1  413.76   87.29
  14  -3  -1  111.79   59.29
  14  -3  -1   82.99   59.69
  11  -3  -1  622.84   77.49
  11  -3  -1  604.94   72.99
   8  -3  -1  835.82   73.89
  -8   3   1  729.03   79.29
   5  -3  -1 1974.50  134.49
   5  -3  -1 1997.30  132.39
  -5   3   1 2306.97  142.19
  -5   3   1 2051.89  145.79
   2  -3  -1 4503.75  251.27
   2  -3  -1 4440.66  250.57
  -2   3   1 4209.38  255.17
  -2   3   1 4165.48  251.87
  -2   3   1 4078.79  249.58
  -1  -3  -1   26.00   14.10
  -1  -3  -1   30.70   11.80
  -1  -3  -1   14.60   16.70
   1   3   1   10.70   18.60
   1   3   1   29.60   14.30
  -4  -3  -1 2804.62  221.38
   4   3   1 2904.81  200.88
   4   3   1 2904.81  215.68
   4   3   1 2912.21  187.38
   7   3   1  286.27   56.79
   7   3   1  292.67   66.59
  10   3   1  278.47   76.79
  10  -4  -1  151.08   40.10
   7  -4  -1 2670.03  170.08
  -7   4   1 2895.81  186.68
  -7   4   1 2346.37  180.68
   4  -4  -1  119.19   21.10
   4  -4  -1  105.79   21.70
  -4   4   1   88.59   20.10
  -4   4   1   72.19   21.90
   1  -4  -1   14.70   11.00
   1  -4  -1   42.10   17.00
   1  -4  -1   36.60   18.00
  -1   4   1   44.20   22.80
  -1   4   1   33.30   15.80
  -1   4   1   33.20   13.60
  -2  -4  -1  323.47   38.80
  -2  -4  -1  361.36   56.39
  -2  -4  -1  352.76   43.70
   2   4   1  373.46   69.99
   2   4   1  336.07   49.50
   2   4   1  371.66   44.20
  -5  -4  -1   69.79   50.69
   5   4   1  125.29   38.70
   5   4   1  120.09   46.70
   8   4   1  577.94   80.19
  15  -5  -1  879.91  135.49
  15  -5  -1  765.72  105.69
  12  -5  -1  102.69   40.60
   9  -5  -1   67.79   26.90
  -9   5   1  188.98   54.19
   6  -5  -1  304.77   35.20
  -6   5   1  332.67   47.30
  -6   5   1  351.56   41.30
   3  -5  -1 2034.40  140.09
   3  -5  -1 2161.98  142.59
  -3   5   1 2340.37  153.38
  -3   5   1 2361.96  146.09
   0  -5  -1 9654.13  545.75
   0  -5  -1 9999.00  556.84
   0  -5  -1 9558.84  538.15
   0   5   1 8206.58  543.55
   0   5   1 9153.08  538.35
  -3  -5  -1  997.50  111.29
   3   5   1  735.33   86.79
   3   5   1  703.83   72.29
   6   5   1  171.68   47.50
   9   5   1   77.79   72.09
  14  -6  -1   97.99   49.50
  14  -6  -1   98.09   52.79
  11  -6  -1  205.88   47.90
 -11   6   1   74.09   54.69
  -8   6   1 1485.55  129.59
   5  -6  -1  299.77   35.00
  -5   6   1  363.56   47.70
  -5   6   1  325.27   35.50
   2  -6  -1  497.55   53.19
   2  -6  -1  405.26   49.80
  -2   6   1  338.37   42.90
  -1  -6  -1  232.28   45.90
  -1  -6  -1  309.87   62.99
   1   6   1  267.87   41.20
  -4  -6  -1  258.37   77.49
   4   6   1  173.58   46.00
   7   6   1  256.87   62.19
  16  -7  -1   34.10  103.19
  13  -7  -1  344.97   72.09
 -10   7   1  187.68   62.29
   7  -7  -1  923.31   79.09
  -7   7   1 1224.18  104.89
   4  -7  -1 2781.32  176.98
  -4   7   1 2688.83  174.38
  -4   7   1 2750.72  183.98
   1  -7  -1  281.07   54.89
   1  -7  -1  250.37   46.20
  -1   7   1  226.38   40.40
  -1   7   1  132.39   38.00
  -2  -7  -1 2107.59  172.88
   2   7   1 1817.22  143.29
   5   7   1  121.19   44.80
  15  -8  -1   49.50   52.49
  12  -8  -1  529.65   69.79
 -12   8   1  539.65  105.49
  -9   8   1    2.50   35.20
  -6   8   1 1546.05  127.49
  -3   8   1  680.63   68.89
   0  -8  -1 1617.44  139.89
   0   8   1 1511.55  122.69
   3   8   1  532.05   76.89
  14  -9  -1    6.00   38.50
 -14   9   1  104.89   94.79
 -11   9   1  371.86   93.39
  -8   9   1   44.40   36.10
   2  -9  -1 2137.29  165.78
  -1  -9  -1   73.19   56.29
   1   9   1   36.90   33.30
   4   9   1   -9.10   37.30
  16 -10  -1   53.39   60.49
  13 -10  -1  393.26   75.79
 -10  10   1 2169.58  190.68
  -7  10   1  204.48   56.39
  -4  10   1  158.48   46.60
   1 -10  -1   24.50   42.50
  -1  10   1   40.80   37.70
   2  10   1  397.76   74.99
  15 -11  -1  205.28   87.29
 -15  11   1  174.98  128.79
 -12  11   1   37.40   60.59
  -9  11   1  438.96   88.19
  -6  11   1  127.29   50.29
  -3  11   1  435.66   73.69
   0 -11  -1  360.96   87.09
   0  11   1  376.16   74.79
  14 -12  -1  586.04   87.69
 -14  12   1  302.57  122.29
 -11  12   1   67.89   72.69
  -8  12   1  595.14   99.79
  -5  12   1   84.59   51.89
   2 -12  -1  409.56   90.59
  -2  12   1  311.67   73.89
 -13  13   1  304.77  109.89
 -10  13   1  332.77   84.99
  -7  13   1  306.07   75.59
  -4  13   1   80.09   57.09
   1 -13  -1  322.77   94.39
 -12  14   1  399.36  116.79
  -9  14   1   60.49   69.89
  -6  14   1  134.09   69.09
 -11  15   1   96.59   90.09
  -8  15   1  119.09   75.89
   3 -14   2  444.76   91.89
  -9  14  -2  180.28   86.99
 -12  14  -2  298.17  113.79
   1 -13   2   21.50   59.59
   4 -13   2   31.20   43.70
  -7  13  -2  128.19   72.89
 -10  13  -2  333.37  126.19
 -13  13  -2  628.04  158.48
  -1 -12   2   94.69   75.39
  -5  12  -2 1197.78  151.58
   5 -12   2 1429.66  121.69
  -8  12  -2  313.37   87.79
 -11  12  -2  319.67  121.79
 -14  12  -2  228.08  115.79
  14 -12   2  310.07   57.49
   0 -11   2   38.20   50.79
   3 -11   2  126.79   47.50
  -6  11  -2  603.24   89.19
   6 -11   2  669.63   74.69
  -9  11  -2  275.77   86.99
 -12  11  -2  257.67  102.99
  -2 -10   2  363.16   93.29
   1 -10   2  402.06   81.09
  -4  10  -2  450.65   70.99
   4 -10   2  369.76   57.89
  -7  10  -2 1267.17  128.49
 -10  10  -2 1074.09  136.99
  13 -10   2  574.94   66.79
  -1  -9   2  368.66   80.29
  -2   9  -2  979.40   84.49
   2  -9   2  851.51   91.79
  -5   9  -2  167.98   46.70
   5  -9   2  108.09   31.60
  -8   9  -2  389.26   84.09
   8  -9   2  632.24   71.79
 -11   9  -2  264.37   87.19
  11  -9   2  301.27   42.90
  14  -9   2  306.87   56.09
  14  -9   2  245.78   67.19
  -3  -8   2  269.37   80.29
   0   8  -2 1709.83  119.49
   0  -8   2 1627.34  142.39
  -3   8  -2 2591.54  182.08
   3  -8   2 2534.55  177.18
   3  -8   2 3037.40  194.78
  -6   8  -2  473.65   67.49
   6  -8   2  376.06   39.00
  -9   8  -2  533.85   93.19
  12  -8   2  299.97   51.09
  15  -8   2  296.67   66.09
  15  -8   2  293.27   76.69
   2   7  -2  941.71   75.39
  -1   7  -2  590.44   54.29
   1  -7   2  525.95   57.19
   1  -7   2  503.55   48.50
   1  -7   2  591.34   68.09
  -4   7  -2 1014.50   88.69
   4  -7   2 1006.70   73.79
   4  -7   2  970.80   75.19
  -7   7  -2  747.83   85.89
   7  -7   2  582.34   45.50
 -10   7  -2 1221.58  140.59
  10  -7   2 1604.44  105.39
  13  -7   2  124.39   50.69
  13  -7   2  163.38   41.00
  16  -7   2  446.86   91.59
  -4  -6   2  386.66   85.29
   1   6  -2  560.44   48.50
  -1  -6   2  530.55   71.09
  -2   6  -2 1821.32  119.09
  -2   6  -2 1989.10  129.59
   2  -6   2 2036.40  123.69
   2  -6   2 1952.80  129.29
   2  -6   2 1943.21  133.69
  -5   6  -2  345.87   54.39
   5  -6   2  488.35   35.00
   5  -6   2  541.15   38.10
  -8   6  -2  384.16   69.99
   8  -6   2  299.67   32.20
  11  -6   2  621.24   61.09
  11  -6   2  451.05   69.29
  14  -6   2   26.80   42.80
  14  -6   2   81.29   46.20
   3   5  -2 2447.66  157.68
  -3  -5   2 2606.74  200.28
   0   5  -2 4767.22  264.87
   0   5  -2 4490.45  273.87
   0  -5   2 4317.37  284.47
   0  -5   2 4357.96  277.77
   0  -5   2 4680.43  263.77
   3  -5   2 1486.45   95.09
   3  -5   2 1506.55   97.59
   3  -5   2 1492.35   93.39
  -6   5  -2  341.87   53.19
   6  -5   2  502.35   35.20
   9  -5   2   71.39   22.50
  12  -5   2 1338.57  122.99
  12  -5   2 1342.17  116.09
  15  -5   2  533.45  100.09
  15  -5   2  454.95   91.39
   5   4  -2  171.98   48.60
   5   4  -2  180.88   33.10
  -5  -4   2  138.69   55.59
   2   4  -2 1892.51  135.19
   2   4  -2 1835.32  117.69
  -2  -4   2 1975.40  137.99
  -2  -4   2 1948.01  119.29
  -2  -4   2 1905.21  148.49
  -1   4  -2  703.43   51.19
  -1   4  -2  763.32   52.79
   1  -4   2  781.72   50.09
   1  -4   2  692.93   57.79
   1  -4   2  728.93   55.99
  -4   4  -2 1251.17   96.59
   4  -4   2 1421.66   91.99
   7  -4   2  908.41   69.19
   7  -4   2  886.81   65.29
  10  -4   2  321.07   57.49
  10  -4   2  314.97   48.20
  13  -4   2  172.58   61.29
  13  -4   2   81.69   50.99
   7   3  -2 1303.27  101.59
   4   3  -2  994.20   68.49
   4   3  -2  843.02   73.39
   4   3  -2  976.70   86.59
  -4  -3   2  958.40  100.39
  -4  -3   2  807.42   84.29
   1   3  -2  733.13   47.70
   1   3  -2  741.13   60.59
   1   3  -2  721.13   65.79
  -1  -3   2  801.22   48.50
  -1  -3   2  754.22   66.49
  -2   3  -2 1653.83  123.69
   2  -3   2 1877.41  107.59
   2  -3   2 1978.50  113.99
   2  -3   2 1907.01  106.79
   5  -3   2 1461.95   90.49
   5  -3   2 1443.06  102.49
   5  -3   2 1469.95   94.59
   8  -3   2 2794.02  178.28
   8  -3   2 2633.04  183.98
   8  -3   2 2520.15  217.88
  11  -3   2  106.99   43.10
  11  -3   2   72.39   41.90
  14  -3   2  288.27   78.49
   9   2  -2  236.48   52.79
   6   2  -2  447.56   48.40
   6   2  -2  431.46   61.59
   3   2  -2 1752.42  105.29
   3   2  -2 1768.32  104.19
   3   2  -2 1852.81  130.19
  -3  -2   2 1539.15  126.39
  -3  -2   2 1449.46  117.69
   0   2  -2 7705.73  450.35
   0   2  -2 6713.93  451.95
   0  -2   2 8533.55  452.55
   0  -2   2 8164.98  442.16
   0  -2   2 8591.64  453.75
   3  -2   2 1874.81  113.49
   3  -2   2 1993.10  121.89
   6  -2   2 2051.19  134.79
   6  -2   2 2063.39  139.59
   6  -2   2 1986.40  139.49
   9  -2   2  911.51   88.79
   9  -2   2  906.41   89.79
  12  -2   2  276.57   73.59
   8   1  -2  514.35   68.89
   8   1  -2  463.45   58.89
   5   1  -2  336.27   56.09
   5   1  -2  421.26   40.20
   5   1  -2  398.96   49.50
   5   1  -2  338.97   39.80
  -5  -1   2  503.65   67.09
  -5  -1   2  454.35   53.59
   2   1  -2 2044.50  118.79
   2   1  -2 2046.40  127.99
   2   1  -2 2041.30  131.69
  -2  -1   2 1971.20  132.29
  -2  -1   2 1976.00  129.59
  -1   1  -2 1179.28   71.29
  -1   1  -2 1127.79   68.59
  -1   1  -2 1142.59   67.99
   1  -1   2 1153.38   71.69
  -4   1  -2  704.83   52.49
   4  -1   2  762.62   62.19
   4  -1   2  777.62   59.59
   4  -1   2  791.22   63.69
   4  -1   2  851.01   63.29
   7  -1   2  435.96   66.59
   7  -1   2  556.74   61.59
   7  -1   2  636.54   64.59
  10  -1   2  489.25   84.19
  10  -1   2  350.76   65.79
  13  -1   2  151.98   62.59
  13  -1   2  -19.60   58.79
  10   0  -2  993.10  109.39
  10   0  -2 1135.69  102.99
   7   0  -2  834.02   68.09
   7   0  -2  679.23   73.69
   4   0  -2 1193.18   86.49
   4   0  -2 1223.88   92.99
   4   0  -2 1295.47   98.49
  -4   0   2 1434.76   89.89
  -4   0   2 1331.87  135.19
  -4   0   2 1427.76   96.69
   1   0  -2 1168.98   76.39
   1   0  -2 1192.68   70.19
  -1   0   2 1163.08   70.69
  -2   0  -2 7676.13  461.25
  -2   0  -2 7539.15  458.45
   2   0   2 8515.45  463.65
   2   0   2 8334.97  462.65
   2   0   2 8398.56  465.15
   5   0   2 4725.23  290.57
   5   0   2 4891.31  294.37
   5   0   2 4632.84  299.47
   8   0   2 1528.15  126.89
   8   0   2 1694.73  138.59
  11   0   2   34.50   43.80
  11   0   2    3.20   50.19
  12  -1  -2  432.46   78.59
  12  -1  -2  624.94  105.49
   6  -1  -2  286.37   56.09
   6  -1  -2  435.96   51.19
   6  -1  -2  388.16   46.30
  -6   1   2  418.66   62.29
  -6   1   2  452.15   47.60
   3  -1  -2 2144.99  131.89
   3  -1  -2 2123.99  126.89
  -3   1   2 2002.50  132.09
  -3   1   2 1940.71  125.99
   0  -1  -2 1243.78   77.29
   0  -1  -2 1185.18   79.59
  -3  -1  -2  737.43   59.59
  -3  -1  -2  846.62   73.59
  -3  -1  -2  812.82   61.29
   3   1   2  699.93   63.29
   3   1   2  785.12   71.89
   3   1   2  709.53   60.89
  -6  -1  -2  663.93   99.49
   6   1   2  547.75   63.89
   6   1   2  641.94   72.49
   9   1   2  487.25   91.59
   9   1   2  447.66   69.89
  12   1   2  113.09   73.09
  12   1   2   45.20   57.59
  11  -2  -2  279.87   64.89
  11  -2  -2  249.48   52.99
   8  -2  -2  348.07   49.60
   5  -2  -2 1762.42  117.79
   5  -2  -2 1883.01  115.19
   5  -2  -2 1825.72  115.69
  -5   2   2 1454.95  119.09
  -5   2   2 1513.55  114.69
   2  -2  -2 7732.23  466.55
   2  -2  -2 8069.29  469.75
  -2   2   2 8681.83  471.25
  -2   2   2 8345.37  468.45
  -1  -2  -2 2198.88  134.89
  -1  -2  -2 2140.79  130.19
   1   2   2 2009.30  136.29
   1   2   2 2038.00  141.39
   1   2   2 2002.80  131.69
  -4  -2  -2 1889.41  155.98
   4   2   2 1917.21  151.18
   4   2   2 1864.51  132.19
   4   2   2 1988.10  142.69
   7   2   2  862.91  100.89
   7   2   2  948.51   89.59
  10   2   2  227.18   62.09
  10   2   2  114.69   67.19
  10  -3  -2 1400.66  119.39
   7  -3  -2  928.91   74.59
   7  -3  -2  839.62   75.39
  -7   3   2  794.82   85.99
  -7   3   2  890.31   81.09
   4  -3  -2  798.02   62.19
   4  -3  -2  784.62   61.59
  -4   3   2  866.01   66.59
  -4   3   2  787.42   63.99
   1  -3  -2 2209.88  132.19
   1  -3  -2 2119.39  127.69
  -1   3   2 1933.31  127.59
  -1   3   2 1973.50  132.29
  -1   3   2 1889.61  135.59
  -2  -3  -2 1735.33  111.79
   2   3   2 1558.04  119.29
   2   3   2 1603.24  113.39
   2   3   2 1586.04  131.19
   5   3   2 2750.62  190.48
   5   3   2 2877.31  205.58
   8   3   2  160.48   51.39
   8   3   2  146.19   62.49
  11   3   2  452.65   94.59
  15  -4  -2  280.07   84.79
  15  -4  -2  131.39   66.69
  12  -4  -2  255.57   56.09
  12  -4  -2  338.47   69.49
   9  -4  -2  162.98   37.70
  -9   4   2   24.20   36.60
   6  -4  -2 1812.42  132.79
  -6   4   2 1995.10  137.49
   3  -4  -2  725.33   60.59
   3  -4  -2  731.33   59.09
  -3   4   2  738.83   61.09
  -3   4   2  862.11   64.39
   0  -4  -2 1373.16  118.29
   0  -4  -2 1390.56   97.79
   0  -4  -2 1370.66  101.29
   0   4   2 1441.46   99.49
   0   4   2 1456.45  117.09
  -3  -4  -2 1010.80  120.69
   3   4   2 1092.99  111.79
   3   4   2  972.20   86.79
   3   4   2  925.41   92.69
   6   4   2  307.37   72.99
   6   4   2  342.27   63.19
  14  -5  -2  328.97   80.29
  14  -5  -2  303.67   70.49
  11  -5  -2  566.84   71.69
 -11   5   2  529.05   97.29
  -8   5   2 2658.33  192.98
  -5   5   2 3779.42  244.48
  -5   5   2 4270.67  254.77
   2  -5  -2 1942.21  120.79
   2  -5  -2 1955.10  124.79
  -2   5   2 1654.33  120.29
  -2   5   2 1384.16  123.39
  -2   5   2 1559.04  115.69
  -1  -5  -2  435.96   63.69
   1   5   2  567.24   76.29
   1   5   2  454.45   52.69
   1   5   2  487.85   61.69
  -4  -5  -2  213.18   71.39
   4   5   2  113.59   47.00
   7   5   2 1320.27  130.79
  10   5   2  488.95  131.99
  10  -6  -2  395.56   56.99
 -10   6   2  368.76   76.49
  -7   6   2  404.26   59.59
   4  -6  -2 1936.81  160.08
  -4   6   2 1968.10  138.09
   1  -6  -2  360.46   48.50
   1  -6  -2  481.95   62.49
  -1   6   2  503.35   52.69
  -1   6   2  471.15   56.59
  -2  -6  -2  493.35   86.89
   2   6   2  324.37   55.89
   2   6   2  379.56   71.29
   5   6   2  601.64   79.69
   8   6   2  -31.30   50.29
  15  -7  -2  276.27   76.19
  15  -7  -2  295.07   76.69
  12  -7  -2 1309.27  120.19
 -12   7   2 1399.26  153.68
  -9   7   2  843.92  101.09
  -6   7   2  511.35   64.89
   3  -7  -2  918.61   78.59
  -3   7   2  896.01   79.19
  -3   7   2  858.11   79.49
   0  -7  -2  799.22   88.49
   0   7   2  562.64   67.09
  -3  -7  -2 1540.85  161.08
   3   7   2 1588.54  133.99
   6   7   2   44.80   43.70
  14  -8  -2   75.89   50.19
 -14   8   2    4.30   75.49
 -11   8   2   42.00   58.59
  -8   8   2 1491.55  134.69
  -5   8   2 2576.24  183.28
  -2   8   2  364.76   54.49
  -1  -8  -2  638.54   92.99
   1   8   2  501.35   68.19
   4   8   2  192.88   56.89
  16  -9  -2  322.87   89.19
  13  -9  -2   61.39   43.90
 -13   9   2   32.80   72.79
 -10   9   2  301.97   74.39
  -7   9   2  850.51   94.99
   1  -9  -2  506.55   82.69
  -1   9   2  441.56   65.99
   2   9   2  286.77   65.19
   5   9   2  348.27   82.09
  15 -10  -2  498.25   93.49
 -15  10   2  305.27  124.99
 -12  10   2  321.27   95.19
  -9  10   2  631.54  100.89
  -6  10   2  329.57   65.19
  -3  10   2 1666.93  139.49
   0 -10  -2 1169.18  133.29
   0  10   2 1052.29  116.59
   3  10   2  508.05  100.19
  14 -11  -2  563.94   91.89
 -14  11   2  348.97  133.59
 -11  11   2   41.10   56.29
  -8  11   2  159.38   55.29
  -5  11   2  558.24   82.09
  -2  11   2  268.07   66.59
   1  11   2  315.37   80.69
 -13  12   2   82.49   87.39
 -10  12   2  185.38   72.89
  -7  12   2 1173.18  127.19
  -4  12   2  306.57   74.49
  -1  12   2  257.97   72.69
 -12  13   2  105.09   83.89
  -9  13   2   67.39   62.19
  -3  13   2  519.95   96.59
 -11  14   2  280.47   93.89
  -8  14   2   20.90   59.19
  -5  14   2  312.97   89.59
 -10  15   2  234.98  102.09
  -7  15   2  305.07  101.59
   4 -14   3  233.18   70.69
 -13  14  -3   88.49  116.69
  -1 -13   3  116.49   81.59
   2 -13   3  228.68   73.29
   5 -13   3  696.13   89.79
 -11  13  -3    1.70   97.59
   0 -12   3  918.81  128.49
   3 -12   3  334.07   81.59
   6 -12   3  193.78   49.80
  -9  12  -3  183.58   93.59
 -12  12  -3   82.79   87.39
  -2 -11   3  206.18   84.19
   1 -11   3  300.97   76.79
   4 -11   3  108.49   43.30
  -7  11  -3  897.61  127.29
 -10  11  -3  138.69   81.19
  13 -11   3   47.90   29.50
  -1 -10   3  348.17   90.99
   2 -10   3 1176.28  114.09
  -5  10  -3 1715.13  144.89
   5 -10   3 1444.66  117.49
  -8  10  -3  839.12  121.99
 -11  10  -3  185.78   87.59
  11 -10   3  171.38   31.40
  14 -10   3   13.80   50.19
  14 -10   3   80.09   37.60
  -3  -9   3  376.66  106.89
   0  -9   3   16.40   33.90
  -3   9  -3 1212.68  105.19
   3  -9   3  999.30   95.69
  -6   9  -3  240.88   62.19
   6  -9   3  183.48   32.70
   6  -9   3  140.39   29.70
   9  -9   3  931.81   73.49
  15  -9   3   91.19   65.79
  15  -9   3   76.09   51.99
  -2  -8   3 1223.78  137.39
  -1   8  -3  717.63   66.39
   1  -8   3  508.95   70.69
  -4   8  -3  412.36   63.29
   4  -8   3  379.36   43.90
   4  -8   3  380.66   58.49
  -7   8  -3  758.12   95.29
   7  -8   3  623.24   47.40
 -10   8  -3  683.63  107.19
  10  -8   3  696.53   57.29
  13  -8   3  644.34   94.39
  13  -8   3  870.91   83.49
  -4  -7   3  179.98   71.89
  -1  -7   3  513.45   74.09
   2  -7   3  462.15   55.09
   2  -7   3  375.76   47.30
  -5   7  -3 3395.66  242.38
   5  -7   3 3695.23  214.28
   5  -7   3 3784.22  215.98
  -8   7  -3  617.64   85.59
   8  -7   3  570.94   42.70
  11  -7   3  831.22   93.29
  11  -7   3  857.71   74.59
  14  -7   3  265.67   70.29
  14  -7   3  145.09   52.79
  -3  -6   3  994.50  128.49
   0   6  -3  241.88   30.20
   0   6  -3  150.08   35.10
   0  -6   3  245.78   52.79
   0  -6   3  278.67   40.90
  -3   6  -3  593.64   56.49
   3  -6   3  449.36   42.60
   3  -6   3  496.25   45.50
  -6   6  -3  886.81   96.99
   6  -6   3 1261.57   67.19
   9  -6   3  132.69   28.10
   9  -6   3  202.58   30.10
  12  -6   3  139.29   43.50
  12  -6   3  167.68   51.99
  15  -6   3  201.78   68.29
  15  -6   3  169.98   74.09
  -5  -5   3 1408.46  155.18
   2   5  -3  484.35   56.99
   2   5  -3  482.05   41.20
  -2  -5   3  442.56   67.39
   1  -5   3  989.20   76.49
   1  -5   3  860.41   72.09
   1  -5   3  944.31   61.09
  -4   5  -3  542.15   54.89
   4  -5   3  529.25   33.00
   4  -5   3  547.65   32.10
   4  -5   3  450.45   43.60
   7  -5   3 3735.23  219.08
   7  -5   3 3764.92  222.18
  10  -5   3 1178.08  113.49
  10  -5   3 1450.45  107.29
  13  -5   3  450.15   84.49
  13  -5   3  755.62   90.29
   4   4  -3  397.76   66.69
   4   4  -3  321.97   39.70
  -4  -4   3  317.87   70.29
   1   4  -3  834.02   53.59
  -1  -4   3  918.81   80.39
  -1  -4   3  874.21   81.19
  -2   4  -3 2095.19  132.39
   2  -4   3 2095.79  128.19
   2  -4   3 2145.19  128.09
   2  -4   3 2171.18  130.59
   5  -4   3  502.15   32.60
   8  -4   3  468.65   49.99
   8  -4   3  277.37   60.49
   8  -4   3  378.26   53.19
  11  -4   3   96.89   40.70
  11  -4   3   38.30   35.70
  14  -4   3  291.67   77.59
  14  -4   3  215.48   68.79
   6   3  -3  205.88   34.10
  -6  -3   3  110.79   56.09
   3   3  -3  530.45   42.20
   3   3  -3  694.73   61.39
  -3  -3   3  419.96   63.59
  -3  -3   3  486.65   59.39
   0   3  -3 1472.15   92.59
   0   3  -3 1464.85   92.29
   0  -3   3 1338.57   94.39
   0  -3   3 1300.27   95.19
   3  -3   3 5904.61  333.37
   3  -3   3 5532.85  321.67
   6  -3   3  499.35   54.29
   6  -3   3  448.96   43.70
   6  -3   3  485.65   46.20
   9  -3   3  980.30   95.29
   9  -3   3  993.20   91.39
  12  -3   3  278.87   65.69
  12  -3   3  354.96  102.79
   5   2  -3 3279.67  202.38
   5   2  -3 3331.67  222.78
  -5  -2   3 3304.67  228.68
  -5  -2   3 3600.04  247.48
   2   2  -3 2535.15  158.58
   2   2  -3 2318.07  134.39
   2   2  -3 2421.66  152.68
  -2  -2   3 2321.17  155.78
  -2  -2   3 2247.88  156.78
  -1   2  -3 1257.57   74.99
  -1   2  -3 1195.58   73.99
   1  -2   3 1210.78   75.19
   1  -2   3 1259.77   75.79
   1  -2   3 1130.79   76.29
   4  -2   3 2155.98  142.99
   4  -2   3 2499.65  152.18
   4  -2   3 2448.16  153.68
   4  -2   3 2285.07  142.99
   7  -2   3  451.15   58.49
   7  -2   3  397.96   53.49
   7  -2   3  488.45   57.79
  10  -2   3 1124.69  111.39
  10  -2   3 1324.47  119.69
  13  -2   3  159.68   62.89
  13  -2   3   78.39   64.19
   7   1  -3  610.54   72.19
   7   1  -3  670.93   58.89
  -7  -1   3  397.56   88.39
   4   1  -3  553.84   61.09
   4   1  -3  541.45   53.99
   4   1  -3  523.05   44.50
   4   1  -3  548.75   41.80
  -4  -1   3  501.45   54.39
  -4  -1   3  497.25   62.39
   1   1  -3 1205.18   81.69
   1   1  -3 1285.37   83.49
  -1  -1   3 1198.68   84.19
  -1  -1   3 1174.08   70.89
  -2   1  -3 1197.98   73.19
  -2   1  -3 1190.68   79.19
   2  -1   3 1169.98   80.19
   2  -1   3 1182.68   78.89
   5  -1   3  888.21   74.79
   5  -1   3  877.21   77.29
   5  -1   3  985.20   79.49
   8  -1   3  604.34   74.59
   8  -1   3  664.53   78.49
  11  -1   3  375.86   79.39
  11  -1   3  464.35   91.09
  14  -1   3   -3.10   70.59
   9   0  -3  657.23   72.99
   9   0  -3  550.34   78.99
   6   0  -3 1111.19   91.09
   6   0  -3  976.50   81.19
   6   0  -3 1088.19   96.99
   3   0  -3 5741.13  347.87
   3   0  -3 5948.70  336.47
  -3   0   3 5975.90  349.96
  -3   0   3 5749.22  335.87
   0   0  -3 7034.60  390.36
   0   0  -3 7199.28  385.06
   0   0   3 6261.87  389.06
   0   0   3 6583.84  384.86
  -3   0  -3 1451.35   92.89
  -3   0  -3 1556.14   99.19
   3   0   3 1285.47   97.59
   3   0   3 1359.46  100.19
   3   0   3 1394.06   98.49
   6   0   3  385.56   53.79
   9   0   3   54.19   44.40
   9   0   3   36.50   34.80
  12   0   3  973.70  125.49
  12   0   3 1086.19  137.39
  11  -1  -3  135.99   59.79
  11  -1  -3  109.09   43.40
   8  -1  -3  497.55   62.79
   5  -1  -3  539.85   49.20
   5  -1  -3  506.15   52.29
   5  -1  -3  527.75   54.89
  -5   1   3  487.75   48.70
  -5   1   3  583.24   62.79
   2  -1  -3 1361.36   87.59
   2  -1  -3 1189.58   78.59
  -2   1   3 1198.18   79.99
  -2   1   3 1190.98   85.99
  -1  -1  -3 1200.88   82.59
  -1  -1  -3 1234.28   84.99
   1   1   3 1197.18   84.29
   1   1   3 1321.57   97.69
   4   1   3 1041.30   80.89
   4   1   3  912.91   81.69
   4   1   3  847.62   92.69
   7   1   3  658.03   81.09
   7   1   3  538.95   72.29
  10   1   3  269.37   74.29
  10   1   3  491.35   82.99
  13   1   3  -59.49   81.99
  10  -2  -3  603.74   81.39
  10  -2  -3  583.44   68.49
   7  -2  -3 3363.06  222.48
  -7   2   3 3500.85  223.78
   4  -2  -3 2361.46  158.58
   4  -2  -3 2547.65  157.18
  -4   2   3 2286.97  151.58
   1  -2  -3 1257.47   85.09
   1  -2  -3 1182.68   78.89
  -1   2   3 1084.99   84.39
  -2  -2  -3 2399.96  152.18
  -2  -2  -3 2267.57  148.49
   2   2   3 2238.38  151.48
   2   2   3 2368.36  159.38
   2   2   3 2331.57  162.78
  -5  -2  -3  630.24   89.29
   5   2   3  429.86   59.39
   5   2   3  537.15   69.19
   8   2   3 1394.66  138.39
   8   2   3 1290.07  121.39
  11   2   3   88.29   66.19
  11   2   3  184.18   78.19
  12  -3  -3  263.97   67.39
  12  -3  -3  287.87   60.29
   6  -3  -3  566.24   55.09
  -6   3   3  521.65   56.59
  -6   3   3  470.55   59.49
   3  -3  -3 1467.85   98.09
   3  -3  -3 1567.44  103.79
  -3   3   3 1415.76  100.29
  -3   3   3 1365.36  105.69
   0  -3  -3 5819.22  342.77
   0  -3  -3 5778.72  348.27
   0   3   3 5641.64  343.77
   0   3   3 5943.91  355.46
   0   3   3 5995.20  353.56
  -3  -3  -3  528.05  123.69
   3   3   3  607.44   75.69
   3   3   3  377.26   58.39
   3   3   3  575.34   58.49
   6   3   3 1035.50  102.29
   6   3   3 1130.39  120.09
   9   3   3  346.27   89.99
   9   3   3  416.56   85.49
  14  -4  -3   34.10   45.00
  14  -4  -3   44.20   56.09
  11  -4  -3  950.00  100.99
   8  -4  -3  311.77   50.89
  -8   4   3  412.36   58.79
   5  -4  -3  847.92   73.59
  -5   4   3 1009.90   79.79
  -5   4   3  894.91   77.79
   2  -4  -3 2311.77  152.38
   2  -4  -3 2323.77  148.19
  -2   4   3 2283.37  150.98
  -1  -4  -3  576.54   57.49
   1   4   3  622.34   58.89
   1   4   3  510.15   68.69
   1   4   3  583.84   65.29
  -4  -4  -3  477.35   91.99
   4   4   3  379.66   72.69
   7   4   3  134.49   50.99
   7   4   3   79.49   58.39
  10   4   3  215.98   76.29
  10  -5  -3 1601.34  125.29
 -10   5   3 1330.37  136.89
  -7   5   3  509.75   82.29
  -7   5   3  487.45   62.59
   4  -5  -3  860.01   74.79
  -4   5   3  969.90   78.69
  -4   5   3  891.41   78.59
   1  -5  -3  546.15   55.79
  -1   5   3  522.85   54.59
  -1   5   3  546.45   64.59
  -1   5   3  492.05   62.69
  -2  -5  -3 3878.51  270.97
   2   5   3 3714.03  242.98
   2   5   3 3617.04  257.47
   5   5   3 1466.75  130.69
   5   5   3 1523.35  148.89
   8   5   3  758.32  106.59
  15  -6  -3   71.29   72.79
  15  -6  -3  120.39   62.99
  12  -6  -3  264.27   60.79
 -12   6   3  189.68   77.19
  -9   6   3  953.10  105.99
  -6   6   3  338.97   56.49
   3  -6  -3  638.84   59.69
  -3   6   3  524.65   57.99
  -3   6   3  488.55   59.09
   0  -6  -3 1151.98  100.09
   0   6   3 1194.58  109.99
   0   6   3 1310.47  103.69
  -3  -6  -3  337.27   83.19
   3   6   3  139.99   56.99
   3   6   3  128.89   40.50
   6   6   3  165.78   58.19
   9   6   3  170.78   76.89
  14  -7  -3  360.06   89.39
  11  -7  -3  102.69   40.50
 -11   7   3  122.59   60.99
  -8   7   3  531.35   75.69
  -5   7   3  405.86   84.59
  -5   7   3  548.35   64.59
  -2   7   3 3728.23  237.98
  -2   7   3 3499.15  241.48
  -1  -7  -3  889.31  102.19
   1   7   3  604.74   74.29
   1   7   3  537.85  100.99
   4   7   3  806.62   94.99
   7   7   3  163.88   66.39
  13  -8  -3  752.62   91.19
 -13   8   3  355.86  118.99
 -10   8   3 1204.88  132.49
  -7   8   3  551.14   75.79
  -4   8   3  390.86   58.19
  -1   8   3  647.44   75.49
   2   8   3  553.94   79.49
  15  -9  -3  107.59   71.09
 -15   9   3   34.90   96.19
 -12   9   3  335.47  119.39
  -9   9   3   26.50   41.70
  -6   9   3  866.31   94.89
  -3   9   3   91.99   40.10
   0   9   3  739.63   89.29
   3   9   3  288.77   69.49
   6   9   3  155.98   75.29
  14 -10  -3  206.48   72.19
 -14  10   3  218.18  114.19
 -11  10   3  428.36  149.49
  -8  10   3 1115.09  121.29
  -5  10   3 1310.37  123.89
  -2  10   3  701.03   90.89
   1  10   3  142.29   56.99
   4  10   3   18.90   56.79
 -13  11   3  147.79  105.99
 -10  11   3  199.28  100.09
  -7  11   3   97.39   49.60
  -4  11   3  929.81  106.69
  -1  11   3  180.78   61.59
   2  11   3  130.89   65.99
 -12  12   3  671.23  133.19
  -9  12   3  257.37   75.09
  -6  12   3  100.39   54.89
  -3  12   3  309.47   79.69
   0  12   3    6.80   58.79
 -14  13   3   87.79  123.19
 -11  13   3   85.79   70.99
  -8  13   3  751.62  124.19
  -5  13   3  945.51  126.29
  -2  13   3  -12.00   61.49
 -13  14   3  -26.10   85.99
 -10  14   3  298.57   92.89
  -7  14   3  232.18   85.19
  -4  14   3   36.70   69.39
  -9  15   3  129.79   82.69
  -6  15   3  172.38   96.09
   2 -14   4    5.50   78.69
   5 -14   4   70.99   54.59
   0 -13   4  125.19   79.99
   3 -13   4  761.92  112.29
   6 -13   4   61.19   43.00
  -2 -12   4  278.27  108.89
   1 -12   4   70.09   57.59
   4 -12   4  148.89   51.89
 -10  12  -4  956.40  166.18
  13 -12   4  268.87   39.90
  -1 -11   4 -112.39   50.59
   2 -11   4  286.37   69.89
   5 -11   4  145.19   42.30
  -8  11  -4  174.98   77.89
  14 -11   4  138.79   65.29
  14 -11   4   36.40   33.80
  -3 -10   4  439.56  115.89
   0 -10   4 1027.70  119.59
   3 -10   4  137.39   44.00
  -6  10  -4  617.84  101.99
   6 -10   4  539.55   58.59
  -9  10  -4    6.60   60.29
  12 -10   4 1045.60   79.39
  15 -10   4  165.18   77.39
  -2  -9   4  288.87   89.89
   1  -9   4   21.10   30.40
  -4   9  -4  588.94   92.39
   4  -9   4  587.84   64.69
   7  -9   4  679.63   52.39
   7  -9   4  590.24   48.90
  10  -9   4   89.59   19.70
  13  -9   4   16.70   42.30
  13  -9   4   40.00   33.60
  -4  -8   4  144.29   81.49
  -1  -8   4   61.59   44.30
   2  -8   4  794.02   82.99
  -5   8  -4  137.29   45.90
   5  -8   4  156.18   30.40
   5  -8   4  215.78   28.80
  -8   8  -4 1761.52  165.48
   8  -8   4 1931.71  110.69
  11  -8   4  180.38   57.39
  11  -8   4  160.78   34.20
  14  -8   4   72.89   45.70
  14  -8   4  181.18   65.99
  -3  -7   4  102.89   58.99
   0  -7   4 2971.10  213.98
  -3   7  -4 1211.98   95.99
   3  -7   4 1262.57   98.29
   3  -7   4  969.10   90.09
  -6   7  -4  203.18   52.19
   6  -7   4  210.78   18.30
   6  -7   4  187.08   17.50
   9  -7   4  652.73   51.29
   9  -7   4  786.22   82.59
  12  -7   4   19.60   49.40
  -5  -6   4  102.19   73.89
  -2  -6   4  782.92   93.19
   1  -6   4  184.58   37.30
   1  -6   4  294.77   45.10
  -4   6  -4  618.04   60.09
   4  -6   4  447.36   43.50
   4  -6   4  510.75   39.30
   4  -6   4  482.95   40.10
   7  -6   4  162.08   18.80
   7  -6   4  200.08   19.80
  10  -6   4  514.85   72.29
  10  -6   4  440.16   55.29
  13  -6   4    7.00   47.80
  13  -6   4  112.79   51.99
  -1  -5   4  276.67   52.99
   2  -5   4 3276.17  200.48
   2  -5   4 3540.15  208.78
   2  -5   4 3513.35  210.68
   5  -5   4 3062.99  174.78
   8  -5   4  190.28   44.40
   8  -5   4  144.49   30.20
   8  -5   4  215.88   34.30
  11  -5   4   92.19   41.10
  11  -5   4   79.09   43.50
  14  -5   4  185.38   72.69
  14  -5   4  202.18   67.39
  -6  -4   4  417.96   95.89
  -3  -4   4 1168.08  114.59
   0   4  -4  265.37   33.50
   0  -4   4  403.96   42.10
   3  -4   4  362.26   37.70
   3  -4   4  321.47   30.50
   3  -4   4  394.46   29.70
   3  -4   4  347.37   33.40
   6  -4   4  579.44   61.49
   6  -4   4  468.75   42.70
   6  -4   4  484.25   42.80
   9  -4   4  625.84   78.79
   9  -4   4  697.03   72.69
  12  -4   4  182.88   58.49
  12  -4   4  147.89   54.09
  -5  -3   4  231.98   66.29
   2   3  -4 3158.48  211.28
  -2  -3   4 3554.54  222.48
  -2  -3   4 3368.26  219.18
  -1   3  -4 1477.15   88.19
  -1   3  -4 1461.55   91.19
   1  -3   4 1342.07   92.69
   1  -3   4 1344.97   84.99
   1  -3   4 1381.56   85.69
   1  -3   4 1404.36   92.89
   4  -3   4  361.76   41.60
   4  -3   4  393.46   43.80
   4  -3   4  413.76   35.50
   7  -3   4 1181.48  103.49
   7  -3   4 1199.88   95.49
  10  -3   4  100.59   46.40
  10  -3   4  147.69   49.70
  13  -3   4  457.35   90.59
  13  -3   4  750.92  108.29
   4   2  -4  470.45   56.29
  -4  -2   4  395.26   54.99
  -4  -2   4  563.54   70.19
  -1  -2   4 1478.35  104.19
   2  -2   4   95.29   18.90
   2  -2   4  124.89   22.10
   5  -2   4 3768.02  229.58
   5  -2   4 3559.24  226.98
   5  -2   4 3790.12  236.78
   8  -2   4  949.71   91.49
   8  -2   4  882.41   92.69
  11  -2   4  257.67   70.39
  11  -2   4  220.78   69.89
   6   1  -4  268.67   51.29
   6   1  -4  220.08   33.70
  -6  -1   4  153.08   56.99
   3   1  -4  376.66   29.70
   3   1  -4  344.27   43.40
  -3  -1   4  370.86   30.30
  -3  -1   4  402.16   49.40
   0   1  -4  873.71   69.19
   0   1  -4  921.11   62.79
   0  -1   4 1056.79   72.09
   0  -1   4 1074.89   64.19
  -3   1  -4 1410.26   92.69
  -3   1  -4 1550.44  101.09
   3  -1   4 1363.06  100.09
   3  -1   4 1484.35  102.79
   6  -1   4  359.16   54.29
   6  -1   4  303.57   50.49
   6  -1   4  381.76   52.19
   9  -1   4   41.70   36.90
   9  -1   4   66.89   39.10
  12  -1   4  174.98   67.69
  12  -1   4  118.99   63.99
   8   0  -4 1654.23  117.09
   8   0  -4 1556.34  132.19
   5   0  -4 3257.17  209.38
   5   0  -4 3679.63  201.18
  -5   0   4 2992.10  217.78
  -5   0   4 2809.52  193.98
   2   0  -4   20.90   14.00
   2   0  -4   32.60   15.60
   2   0  -4   14.20    8.90
  -2   0   4   84.19   23.40
  -1   0  -4  788.52   66.69
  -1   0  -4  913.51   66.29
   1   0   4 1034.90   69.99
   1   0   4 1072.29   74.99
   4   0   4  484.15   54.89
   4   0   4  489.95   55.99
   4   0   4  553.44   56.79
   7   0   4 3228.38  221.38
   7   0   4 3131.49  225.68
  10   0   4 1054.19  114.99
  10   0   4 1083.19  123.89
  13   0   4   48.30   70.09
  13   0   4   36.60   97.69
  10  -1  -4  -10.70   68.59
   7  -1  -4  175.28   41.20
  -7   1   4  180.58   38.40
  -7   1   4  192.78   54.79
   4  -1  -4  335.27   41.90
   4  -1  -4  376.16   44.40
   4  -1  -4  396.66   38.00
  -4   1   4  397.56   48.40
  -4   1   4  326.07   35.50
   1  -1  -4  930.01   78.69
   1  -1  -4  933.21   68.69
  -1   1   4 1072.79   71.49
  -1   1   4 1105.59   79.69
  -2  -1  -4 1587.74  102.09
   2   1   4 1357.66  106.09
   2   1   4 1370.06  102.39
   5   1   4  381.46   65.89
   5   1   4  350.06   53.79
   8   1   4   34.90   45.60
   8   1   4   27.80   36.30
  11   1   4  120.99   62.09
  11   1   4   54.79   67.09
   9  -2  -4  627.94   75.09
   6  -2  -4  529.05   58.59
   6  -2  -4  483.95   56.49
  -6   2   4  504.75   54.39
  -6   2   4  552.74   69.79
   3  -2  -4 1566.24  107.89
  -3   2   4 1448.46  107.79
  -3   2   4 1394.76   99.49
   0  -2  -4   25.40   15.70
   0  -2  -4   24.50   13.60
   0   2   4  105.69   23.90
   0   2   4  108.39   30.70
   3   2   4 3825.12  249.68
   3   2   4 3710.73  241.18
   3   2   4 3797.92  253.37
   6   2   4  805.62   88.59
   6   2   4  936.91  102.09
   9   2   4  369.66   79.19
   9   2   4  285.77   83.49
  12   2   4   68.59  104.89
  11  -3  -4  129.19   49.40
   8  -3  -4  170.78   43.00
  -8   3   4  191.18   43.20
   5  -3  -4 3433.36  230.28
  -5   3   4 3926.41  230.18
  -5   3   4 3506.05  234.08
   2  -3  -4 1510.45  101.79
   2  -3  -4 1567.84  110.29
  -2   3   4 1469.25  104.59
  -2   3   4 1438.96  109.99
  -1  -3  -4  396.46   48.70
   1   3   4  319.67   48.70
   1   3   4  372.66   46.20
   1   3   4  382.06   50.89
   4   3   4 1225.48  118.29
   4   3   4 1211.08  116.99
   7   3   4   83.09   45.90
   7   3   4   57.49   52.09
  10   3   4  447.46  108.79
  10  -4  -4  412.66   65.89
 -10   4   4  432.56   78.19
  -7   4   4 1212.88   96.89
  -7   4   4  858.01  115.29
   4  -4  -4  327.77   45.70
  -4   4   4  540.95   60.59
  -4   4   4  496.65   51.29
   1  -4  -4  353.46   45.60
  -1   4   4  384.06   45.40
  -1   4   4  414.66   54.99
   2   4   4  517.45   62.99
   2   4   4  488.45   80.49
   2   4   4  453.75   68.29
   5   4   4  670.13   95.99
   5   4   4  564.14   81.89
   8   4   4  121.79   67.69
   8   4   4  236.38   84.19
  12  -5  -4   15.50   44.10
 -12   5   4  -37.10   52.89
   9  -5  -4  505.45   63.89
  -9   5   4  421.26   76.99
  -6   5   4  362.76   58.69
  -6   5   4  366.26   53.29
   3  -5  -4 3576.74  233.28
  -3   5   4 3601.04  236.68
  -3   5   4 3730.03  233.78
   0  -5  -4 3462.15  215.38
   0   5   4 2815.62  196.08
   0   5   4 2729.83  206.58
   0   5   4 2833.72  211.58
   3   5   4  227.38   63.89
   3   5   4  216.68   51.59
   6   5   4  163.48   78.79
   6   5   4   94.79   52.29
   9   5   4  124.59   74.49
  14  -6  -4  -63.49   48.60
  11  -6  -4  125.69   49.60
 -11   6   4   84.79   54.99
  -8   6   4  909.31   96.09
  -5   6   4  379.56   56.09
  -5   6   4  363.86   54.09
   2  -6  -4  591.44   62.99
  -2   6   4  467.45   67.69
  -2   6   4  572.14   63.69
   1   6   4  208.38   57.29
   1   6   4  163.58   44.00
   4   6   4  579.34   85.79
   4   6   4  486.25  101.69
   7   6   4   25.80   59.09
  13  -7  -4   69.09   53.79
 -13   7   4   89.39   83.89
 -10   7   4   47.70   48.10
  -7   7   4 3125.99  223.18
  -4   7   4  740.63  117.89
  -4   7   4 1147.29  102.69
  -1   7   4  246.68   72.79
  -1   7   4  195.58   48.40
   2   7   4  679.43   85.09
   5   7   4  -35.60   43.00
   8   7   4  307.87   95.19
  15  -8  -4  252.97   89.89
  12  -8  -4  292.67   72.79
 -12   8   4  324.07  159.48
  -9   8   4   63.29   47.80
  -6   8   4  791.72   91.09
  -3   8   4  204.18   50.79
   0   8   4 1666.23  141.19
   3   8   4  142.99   56.99
   6   8   4   93.39   66.09
  14  -9  -4  152.28   66.29
 -14   9   4  195.58  109.09
 -11   9   4  223.98   82.79
  -8   9   4   25.50   39.60
  -5   9   4  664.73   82.99
  -2   9   4  530.95   77.29
   1   9   4   60.29   49.10
   4   9   4  110.09   65.39
  13 -10  -4  454.45   92.49
 -13  10   4  427.36  127.29
 -10  10   4  917.11  125.49
  -7  10   4   71.49   49.60
  -4  10   4  500.95   83.59
  -1  10   4   55.09   48.80
   2  10   4  840.22  115.29
   5  10   4  205.38   86.09
 -12  11   4   69.19   76.69
  -9  11   4  219.08   77.09
  -6  11   4    1.90   42.20
  -3  11   4  142.69   58.49
   0  11   4  395.86   91.69
   3  11   4   42.20   66.49
 -11  12   4   97.29   71.99
  -8  12   4  208.08   70.59
  -5  12   4   45.10   62.29
  -2  12   4  856.31  122.49
   1  12   4  145.69   81.89
 -10  13   4  377.36  103.89
  -7  13   4   35.60   62.29
  -4  13   4 -123.19   49.99
  -1  13   4   94.49   79.79
 -12  14   4   68.49  105.49
  -9  14   4   63.89   66.29
  -6  14   4  131.39   72.49
  -3  14   4   96.89   86.09
  -8  15   4  338.97  116.89
   3 -14   5   74.59  126.29
   6 -14   5   27.30   48.80
   1 -13   5   62.39   67.89
   4 -13   5   31.70   49.10
   7 -13   5  617.44   79.39
  -1 -12   5  175.98   90.79
   2 -12   5   19.50   48.90
   5 -12   5 1497.65  131.79
   0 -11   5  131.39   68.49
   6 -11   5  115.69   39.00
  12 -11   5   78.19   50.59
  -2 -10   5   62.09   70.09
   1 -10   5  617.44   93.59
   4 -10   5   78.89   34.00
   7 -10   5 2052.39  134.39
  13 -10   5   33.80   27.70
  13 -10   5   36.90   55.19
  -4  -9   5   39.20   86.49
  -1  -9   5  433.36   95.39
   2  -9   5  332.67   64.99
   5  -9   5  606.84   61.89
  11  -9   5  366.06   77.69
  11  -9   5  487.85   43.30
  14  -9   5  244.28   82.49
  14  -9   5  362.26   62.49
  -3  -8   5  539.15  112.59
   0  -8   5   -1.90   33.10
   3  -8   5 2205.18  156.88
   6  -8   5  352.96   34.70
   6  -8   5  329.87   33.10
   9  -8   5  195.18   18.10
   9  -8   5  216.88   53.29
  12  -8   5   88.79   55.79
  15  -8   5   68.09   53.49
  -5  -7   5 1094.89  161.08
  -2  -7   5  292.87   76.39
   1  -7   5  627.14   73.09
   4  -7   5  531.05   49.99
   4  -7   5  512.75   49.60
   7  -7   5   89.19   35.70
  10  -7   5 1738.03  117.99
  10  -7   5 1642.24  144.69
  13  -7   5  644.54  108.29
  13  -7   5  496.15   80.49
  -4  -6   5   40.40   56.39
  -1  -6   5  592.04   80.09
   2  -6   5  448.96   47.80
   2  -6   5  445.96   50.79
   5  -6   5 1128.19   72.29
   5  -6   5 1133.09   92.59
   8  -6   5  362.46   65.69
   8  -6   5  367.46   37.20
   8  -6   5  325.57   36.50
  11  -6   5   58.19   50.69
  11  -6   5   91.69   36.90
  14  -6   5  116.79   60.59
  14  -6   5  160.88   72.59
  -3  -5   5 2201.98  182.88
   0  -5   5 1996.80  145.49
   3  -5   5  189.58   28.40
   3  -5   5  184.48   27.10
   3  -5   5  212.48   31.90
   3  -5   5  165.98   25.50
   6  -5   5 1219.28   80.09
   6  -5   5 1143.49   99.69
   9  -5   5  515.45   75.79
   9  -5   5  490.25   58.49
  12  -5   5 1407.66  140.69
  12  -5   5 1511.25  133.69
  -5  -4   5  483.05   93.99
  -2  -4   5  495.05   68.29
   1  -4   5  568.44   52.29
   1  -4   5  571.44   37.50
   1  -4   5  608.44   53.29
   1  -4   5  510.45   35.90
   4  -4   5 2517.75  158.58
   4  -4   5 2414.06  145.19
   4  -4   5 2173.98  153.58
   7  -4   5  565.54   56.49
   7  -4   5  630.34   58.99
  10  -4   5   48.10   34.90
  10  -4   5    3.80   35.70
  13  -4   5   46.40   50.99
  13  -4   5   -3.80   51.29
  -4  -3   5  578.74   82.99
   1   3  -5  667.23   59.99
  -1  -3   5  629.84   63.99
   2  -3   5 1499.25   98.09
   2  -3   5 1490.65   98.49
   2  -3   5 1455.55   98.39
   5  -3   5  197.28   32.70
   5  -3   5  195.58   43.50
   8  -3   5 2376.66  178.48
   8  -3   5 2380.96  169.78
  11  -3   5  483.65   98.19
  14  -3   5  106.89   72.59
  -6  -2   5  313.57   76.99
   3   2  -5  101.89   30.00
  -3  -2   5  240.88   49.00
   0   2  -5 5722.53  357.46
   0  -2   5 6350.96  349.57
   0  -2   5 6395.76  364.46
  -3   2  -5 1444.16   84.99
   3  -2   5 1438.66  102.29
   3  -2   5 1570.44  106.39
   6  -2   5  382.96   53.09
   6  -2   5  564.74   67.19
   9  -2   5  334.47   68.49
   9  -2   5  420.96   76.19
  12  -2   5   42.90   54.69
  12  -2   5   48.00   56.49
   5   1  -5  990.60   69.69
   5   1  -5 1136.39  107.29
  -5  -1   5  957.60  103.49
   2   1  -5 1649.13  111.69
   2   1  -5 1597.64   92.99
  -2  -1   5 1421.56   92.59
  -2  -1   5 1519.65  113.29
  -1   1  -5  519.95   45.30
   1  -1   5  561.04   51.39
   1  -1   5  605.24   49.40
   4  -1   5  637.14   65.69
   4  -1   5  672.23   64.99
   7  -1   5  684.03   79.29
   7  -1   5  640.94   79.69
  10  -1   5  853.31  108.89
  10  -1   5  567.74   91.49
  13  -1   5   93.39   75.09
  13  -1   5  117.09  108.99
   7   0  -5   73.99   41.60
  -7   0   5  134.09   57.39
   4   0  -5 2011.10  151.08
   4   0  -5 2172.18  136.99
  -4   0   5 2506.35  163.88
  -4   0   5 2196.68  137.99
   1   0  -5  555.24   45.10
  -1   0   5  609.74   47.30
  -1   0   5  623.54   56.79
  -2   0  -5 6188.58  374.56
   2   0   5 6309.37  382.26
   2   0   5 6587.54  378.16
   5   0   5 1780.42  142.59
   5   0   5 1931.41  144.09
   8   0   5  -23.30   31.20
   8   0   5   58.49   40.60
  11   0   5   92.09   55.79
  11   0   5    5.70   64.69
   6  -1  -5  988.20   90.99
  -6   1   5 1048.80  105.69
  -6   1   5 1005.80   81.09
   3  -1  -5 1511.25   97.19
  -3   1   5 1493.95   99.09
  -3   1   5 1360.66  110.69
   0  -1  -5  549.85   49.20
   0   1   5  600.34   52.09
   0   1   5  641.54   60.49
   3   1   5  580.54   64.29
   3   1   5  578.24   66.49
   3   1   5  628.24   73.59
   6   1   5  591.64   74.19
   6   1   5  609.24   81.29
   9   1   5  420.86   88.99
  12   1   5  246.28   80.49
  12   1   5  194.58   98.69
   8  -2  -5  293.97   59.99
  -8   2   5  362.66   54.99
   5  -2  -5  107.19   28.50
   5  -2  -5   84.89   30.90
  -5   2   5  140.29   41.90
  -5   2   5  171.18   32.70
   2  -2  -5 6125.49  383.66
   2  -2  -5 6378.86  373.06
  -2   2   5 6466.95  385.66
  -2   2   5 6538.15  376.46
   1   2   5 1573.64  121.49
   1   2   5 1506.35  112.79
   4   2   5  604.34   81.99
   7   2   5  301.07   67.89
   7   2   5  256.37   72.49
  10   2   5   18.70   69.49
  10   2   5   77.39   61.29
  10  -3  -5 1596.54  139.09
 -10   3   5 1507.85  137.19
   7  -3  -5  543.55   64.89
  -7   3   5  364.46   93.29
  -7   3   5  508.05   60.69
   4  -3  -5  813.22   74.29
  -4   3   5  718.93   67.79
  -4   3   5  760.82   75.99
  -1   3   5 1391.16  114.89
  -1   3   5 1475.85  105.89
   2   3   5  121.09   45.40
   2   3   5  162.18   42.50
   5   3   5 2459.55  202.68
   5   3   5 2587.94  192.88
   8   3   5  432.16  108.49
  11   3   5   32.00  113.89
   9  -4  -5  558.74   71.79
  -9   4   5  467.35   70.29
  -6   4   5  612.74   76.09
  -6   4   5  498.05   61.89
   3  -4  -5  709.13   68.29
  -3   4   5  631.34   71.29
  -3   4   5  597.34   62.69
   0   4   5 2499.15  182.58
   0   4   5 2449.95  170.88
   3   4   5  573.14   77.39
   3   4   5  608.54   91.29
   6   4   5   21.10   57.99
   6   4   5   97.79   50.59
   9   4   5   48.80   61.29
  11  -5  -5   -6.10   40.60
 -11   5   5   27.50   51.79
  -8   5   5 2278.57  173.18
  -5   5   5 1934.21  148.29
  -5   5   5 1825.12  140.99
  -2   5   5  210.38   42.60
  -2   5   5  197.08   54.79
   1   5   5 1048.80   99.99
   1   5   5 1093.19  112.09
   4   5   5  602.74   84.09
   7   5   5 1514.95  158.48
  13  -6  -5  445.96   85.89
 -13   6   5  359.66  100.29
  10  -6  -5   12.60   35.10
 -10   6   5   97.39   56.79
  -7   6   5  666.53   81.49
  -4   6   5  484.15   68.29
  -4   6   5  538.05   66.09
  -1   6   5 1064.29  108.89
  -1   6   5  969.70   95.39
   2   6   5  367.76   66.09
   2   6   5  328.67   82.49
   5   6   5  132.29   59.89
   8   6   5   78.49   69.39
  12  -7  -5 1436.36  137.79
 -12   7   5 1342.47  254.57
  -9   7   5  394.66   79.39
  -6   7   5  729.53   86.39
  -3   7   5  541.75   70.89
   0   7   5  223.38   53.89
   3   7   5 1663.33  149.29
   6   7   5  368.56   85.89
  14  -8  -5  161.18   74.29
 -14   8   5  149.88  105.49
 -11   8   5  713.43  127.59
  -8   8   5    8.70   38.80
  -5   8   5 2263.57  174.28
  -2   8   5  352.86   66.59
   1   8   5   92.59   48.30
   4   8   5  305.37   76.29
  13  -9  -5   52.89   61.19
 -13   9   5    7.60   84.89
 -10   9   5  544.95  109.59
  -7   9   5  271.77   67.49
  -4   9   5  574.44   82.59
  -1   9   5  162.78   56.39
   2   9   5  334.97   82.39
   5   9   5  374.86   94.69
 -12  10   5   48.70   78.09
  -9  10   5  839.82  116.99
  -6  10   5    3.20   38.90
  -3  10   5 1659.23  154.38
   0  10   5  602.24  121.99
   3  10   5   58.49   62.79
  14 -11  -5  110.59   70.09
 -11  11   5   71.39   70.99
  -8  11   5  563.94  121.29
  -5  11   5  202.68   66.09
  -2  11   5  457.55   91.69
   1  11   5   39.90   64.39
 -13  12   5   28.60  107.19
 -10  12   5   55.19   74.59
  -7  12   5 1235.78  143.29
  -4  12   5  102.39   65.39
  -1  12   5  113.89   71.89
 -12  13   5   60.69  139.39
  -9  13   5  157.28   78.49
  -6  13   5  650.53  118.79
  -3  13   5  121.39   75.89
 -11  14   5  -14.90  107.69
  -8  14   5   85.29   73.19
  -5  14   5  362.96  114.59
   4 -14   6   67.99   70.49
   5 -13   6  255.27   70.39
   0 -12   6  508.95  108.49
   3 -12   6   50.29   48.20
   6 -12   6   51.09   39.50
  -2 -11   6  146.99   86.69
   1 -11   6  144.89   59.69
   4 -11   6  220.08   58.09
  13 -11   6   54.09   71.69
  -1 -10   6   93.69   72.59
   5 -10   6  473.75   64.29
  11 -10   6  161.38   61.09
  -3  -9   6   82.89   80.49
   0  -9   6  434.26   90.89
   3  -9   6  151.08   46.40
   6  -9   6   52.99   25.70
   9  -9   6  571.44   93.49
  12  -9   6   28.50   51.69
  -2  -8   6  950.30  128.39
   1  -8   6  142.79   49.80
   4  -8   6   82.09   29.40
   7  -8   6  350.96   74.39
   7  -8   6  292.77   28.00
  10  -8   6  321.57   79.19
  10  -8   6  342.67   35.40
  13  -8   6  453.65  101.09
  13  -8   6  553.14   72.59
  -4  -7   6  193.78   80.19
  -1  -7   6  113.09   48.50
   2  -7   6  330.97   53.39
   5  -7   6 2076.79  161.28
   5  -7   6 2560.44  148.39
   8  -7   6  345.07   33.00
   8  -7   6  308.77   69.69
   8  -7   6  323.37   38.40
  11  -7   6  125.79   41.60
  14  -7   6   80.19   76.29
  -3  -6   6  158.48   65.89
   0  -6   6  325.67   62.39
   3  -6   6  301.07   41.30
   6  -6   6  291.07   55.59
   6  -6   6  446.96   37.30
   9  -6   6  111.39   30.40
   9  -6   6  113.89   50.89
  12  -6   6   18.10   39.90
  12  -6   6  -22.20   51.19
  -5  -5   6  415.46   96.49
  -2  -5   6  306.57   65.59
   1  -5   6 1208.98   97.39
   4  -5   6  360.06   38.10
   4  -5   6  344.67   47.80
   7  -5   6 2950.10  179.48
   7  -5   6 2846.22  180.18
   7  -5   6 2604.54  197.98
  10  -5   6  594.74   70.39
  10  -5   6  502.45   95.19
  13  -5   6  174.88   66.29
  13  -5   6   61.29   62.79
  -4  -4   6   35.50   44.40
  -1  -4   6 1572.74  142.29
   2  -4   6  303.97   38.50
   2  -4   6  292.27   32.50
   5  -4   6  367.06   43.60
   5  -4   6  353.36   51.19
   8  -4   6   50.99   44.70
   8  -4   6  111.09   35.40
  11  -4   6  115.99   60.69
  11  -4   6  184.88   55.69
  14  -4   6  265.97   88.79
  14  -4   6   75.39   70.69
  -6  -3   6   18.80   53.39
  -3  -3   6  268.27   60.79
   0  -3   6  258.57   45.00
   3  -3   6 3342.47  207.48
   3  -3   6 3276.37  204.18
   3  -3   6 3238.08  205.98
   6  -3   6  361.86   63.09
   6  -3   6  276.57   45.90
   9  -3   6  239.88   55.69
   9  -3   6  156.48   58.99
  12  -3   6  100.19   59.39
  12  -3   6  -55.59   45.60
  -5  -2   6 2557.64  206.48
  -2  -2   6  329.47   53.29
   1  -2   6  254.07   37.40
   4  -2   6  319.77   49.00
   4  -2   6  322.87   48.20
   7  -2   6  457.15   66.59
   7  -2   6  403.26   72.99
  -4  -1   6  355.66   64.49
   1   1  -6  196.18   31.10
   1   1  -6  286.27   27.30
  -1  -1   6  226.88   25.60
  -1  -1   6  256.07   44.70
  -2   1  -6  257.27   39.40
   2  -1   6  273.87   41.80
   2  -1   6  300.07   43.40
   5  -1   6 1264.07  106.29
   5  -1   6 1146.19  106.49
   8  -1   6  117.69   51.79
   8  -1   6  161.18   56.79
  11  -1   6   91.79   63.59
  11  -1   6  197.58   74.89
  -6   0   6  368.56   80.19
   3   0  -6 3202.08  205.68
  -3   0   6 2975.30  187.68
  -3   0   6 3178.18  210.98
   0   0  -6 1693.93  102.69
   0   0   6 1361.66  100.79
   0   0   6 1385.56  109.99
   3   0   6  276.37   49.00
   3   0   6  277.87   55.49
   6   0   6  265.47   61.99
   6   0   6  339.07   65.49
   9   0   6  517.05  104.19
   9   0   6  631.64  102.59
  12   0   6  497.35  116.59
  12   0   6  611.94  177.88
   5  -1  -6  296.07   53.59
  -5   1   6  287.27   37.80
  -5   1   6  338.57   62.69
   2  -1  -6  241.18   31.70
  -2   1   6  226.48   46.00
  -2   1   6  210.68   33.20
   1   1   6  279.37   55.29
   1   1   6  271.57   41.20
   7   1   6   97.29   56.29
   7   1   6  116.59   54.69
  10   1   6  127.59   72.79
  10   1   6   23.60   61.29
   7  -2  -6 2450.65  174.18
  -7   2   6 2173.08  158.68
  -4   2   6  377.66   57.19
  -4   2   6  386.06   45.70
  -1   2   6  297.17   54.09
  -1   2   6  257.27   39.80
   2   2   6  374.16   70.19
   2   2   6  275.87   53.69
   5   2   6  420.16   82.49
   5   2   6  424.46   76.89
   8   2   6  974.70  141.89
  11   2   6  231.18  105.49
  -6   3   6  292.67   50.29
  -6   3   6  329.17   64.49
  -3   3   6  292.97   47.70
  -3   3   6  256.27   55.59
   0   3   6 2995.40  205.38
   0   3   6 3243.78  221.78
   3   3   6  350.16   74.79
   3   3   6  313.67   63.79
   6   3   6  283.17   85.39
   6   3   6  303.77   73.59
   9   3   6    9.00   77.19
   9   3   6   60.59   62.29
   8  -4  -6   17.10   35.10
  -8   4   6   27.70   39.80
  -5   4   6 1020.40  101.99
  -5   4   6 1090.19   95.59
  -2   4   6  423.56   72.29
  -2   4   6  321.57   53.69
   1   4   6  388.36   63.59
   1   4   6  383.26   77.39
   4   4   6   74.19   57.59
   4   4   6   76.99   46.20
   7   4   6  147.79   71.19
   7   4   6  214.58   92.79
  10   4   6   90.59   80.69
  10  -5  -6  554.34   83.49
 -10   5   6  500.85   87.39
  -7   5   6  340.97   63.09
  -4   5   6 1149.19  112.09
  -4   5   6 1249.88  104.89
  -1   5   6  276.97   62.39
  -1   5   6  392.26   75.89
   2   5   6 2485.15  191.38
   2   5   6 2702.53  211.18
   5   5   6  696.13  130.39
   5   5   6  548.45   95.99
   8   5   6  232.68   87.39
  -9   6   6  280.27   71.59
  -6   6   6  367.26   67.49
  -3   6   6  321.97   68.39
  -3   6   6  297.37   57.79
   0   6   6  486.95   69.69
   0   6   6  483.65   91.49
   3   6   6  111.09   67.59
   3   6   6  107.99   50.39
   6   6   6   50.89   57.89
  11  -7  -6  236.28   73.69
 -11   7   6  250.67   80.59
  -8   7   6   37.30   47.40
  -5   7   6  442.56   72.79
  -2   7   6 2453.55  184.78
   1   7   6  312.47   66.69
   4   7   6  100.89   58.89
   7   7   6  -43.00   96.79
 -13   8   6   29.00   80.69
 -10   8   6  961.70  126.79
  -7   8   6  174.08   56.49
  -4   8   6   78.69   44.00
  -1   8   6  301.97   66.79
   5   8   6  335.17   89.49
 -12   9   6   28.90   80.09
  -9   9   6  515.65  107.69
  -6   9   6  223.18   64.19
  -3   9   6   21.10   40.70
   0   9   6  602.54  106.09
   3   9   6   19.10   57.09
 -14  10   6    0.70  162.58
 -11  10   6   76.59   77.89
  -8  10   6  920.31  195.28
  -5  10   6  483.45   89.89
   1  10   6  -13.70   50.89
   4  10   6  203.58  108.99
 -13  11   6  145.79  111.69
 -10  11   6  116.89   84.69
  -7  11   6  132.69   68.39
  -4  11   6   43.00   52.79
  -1  11   6   21.00   61.49
   2  11   6 -109.09   99.89
 -12  12   6  749.73  157.48
  -9  12   6   51.39   68.29
  -6  12   6   33.00   58.49
  -3  12   6   58.19   65.99
   0  12   6  139.09   85.69
  -8  13   6  159.18   75.89
  -5  13   6  444.36  104.39
 -10  14   6  213.98  104.39
  -4  14   6  105.39   89.39
   3 -13   7  175.68   81.79
   6 -13   7   75.59   54.59
   4 -12   7  173.78   64.29
   7 -12   7  854.01   88.99
  -1 -11   7   55.59   80.59
   5 -11   7  -14.70   34.90
   8 -11   7  161.98   30.90
  -3 -10   7   73.99  100.99
   0 -10   7  265.87   74.69
   3 -10   7  924.01  106.19
  -2  -9   7  118.49   70.79
   1  -9   7   43.50   59.09
   4  -9   7  226.18   52.79
   7  -9   7  471.55   46.90
  13  -9   7  213.58   76.59
  13  -9   7  158.98   53.69
  -4  -8   7  -68.79   72.29
   2  -8   7  481.25   73.39
   5  -8   7 1040.20   86.09
   8  -8   7  358.26   32.80
  11  -8   7  103.59   64.89
  11  -8   7  234.08   38.30
  -3  -7   7  612.64  123.79
   0  -7   7  851.61  103.09
   3  -7   7  449.86   56.99
   6  -7   7   29.20   18.40
   9  -7   7  474.65   48.70
   9  -7   7  369.56   79.99
  12  -7   7  689.03   81.09
  12  -7   7  633.64  118.49
  -5  -6   7   91.09   91.19
  -2  -6   7  548.05   98.69
   1  -6   7  841.82   86.19
   4  -6   7  118.49   30.90
   7  -6   7   38.00   37.10
   7  -6   7   35.70   20.80
  10  -6   7  100.99   48.80
  10  -6   7   79.79   54.99
  13  -6   7   70.69   54.89
  13  -6   7   54.09   62.29
  -4  -5   7  123.99   74.49
  -1  -5   7 1026.90  106.29
   2  -5   7 1158.98   94.09
   5  -5   7 1067.29   80.69
   5  -5   7 1004.60   92.59
   8  -5   7  924.01  105.89
   8  -5   7 1021.50   88.69
  11  -5   7   31.90   41.50
  11  -5   7   74.99   55.89
  -3  -4   7  435.16   83.59
   0  -4   7 1350.46  111.69
   3  -4   7  202.48   36.70
   3  -4   7  225.48   39.00
   6  -4   7  169.58   39.30
   6  -4   7   88.29   46.40
   9  -4   7  224.18   54.09
   9  -4   7  151.08   64.99
  12  -4   7  135.29   66.49
  12  -4   7  148.39   75.89
  -5  -3   7  961.70  121.29
  -2  -3   7 1121.29  106.39
   1  -3   7  581.74   61.69
   4  -3   7  313.17   52.89
   4  -3   7  270.07   46.30
   7  -3   7  457.25   84.29
   7  -3   7  406.36   62.59
  10  -3   7  800.92  114.09
  10  -3   7  970.50  111.39
  13  -3   7  177.28   78.69
  13  -3   7   69.19   74.59
  -4  -2   7  104.59   47.00
   2  -2   7 1980.00  136.39
   2  -2   7 2005.50  142.29
   5  -2   7 1305.37  111.99
   8  -2   7  542.15   78.49
   8  -2   7  329.37   74.59
  11  -2   7   50.59   59.79
  11  -2   7   34.00   60.09
  -6  -1   7   20.10   54.39
  -3  -1   7  185.78   49.60
   0  -1   7  213.08   44.30
   0  -1   7  277.37   34.90
   3  -1   7  570.24   69.69
   3  -1   7  568.34   69.89
   6  -1   7  849.72   97.39
   6  -1   7 1137.99  108.29
   9  -1   7  227.08   78.19
   9  -1   7  158.38   77.19
  12  -1   7  -24.40   81.19
  -5   0   7 1083.89  112.89
  -2   0   7 1751.42  136.59
  -2   0   7 1811.12  117.49
   1   0   7  315.87   45.90
   1   0   7  317.77   55.59
   4   0   7 1416.56  120.59
   4   0   7 1298.07  120.79
   7   0   7 1062.69  114.99
   7   0   7  752.32  107.89
  10   0   7  221.58   79.09
  10   0   7  450.65  105.89
  -4   1   7  222.98   34.40
  -4   1   7  225.98   54.39
  -1   1   7  248.48   42.00
  -1   1   7  407.86   66.69
   2   1   7  579.84  130.99
   2   1   7  699.63   73.59
   5   1   7  990.70  109.39
   5   1   7 1003.70  110.89
   8   1   7   53.09   57.69
   8   1   7   63.89   92.59
  11   1   7   42.50   84.79
  -6   2   7   94.19   48.00
  -3   2   7  552.54   57.89
  -3   2   7  545.75   72.89
   0   2   7 1917.21  152.08
   0   2   7 1940.01  140.89
   3   2   7 1202.88  121.19
   3   2   7 1276.27  116.19
   6   2   7  424.06   90.59
   6   2   7  483.15   88.89
   9   2   7  130.49   83.49
   9   2   7   12.70   64.09
  -5   3   7 1076.79   93.09
  -5   3   7 1115.79  109.59
  -2   3   7  641.24   68.29
  -2   3   7  598.64   77.49
   1   3   7  301.17   58.59
   1   3   7  362.26   76.19
   4   3   7  479.95   96.69
   4   3   7  333.17   74.79
   7   3   7  852.51  145.09
   7   3   7  923.31  127.29
  10   3   7   25.00  108.59
  10   3   7   77.79   82.09
  -4   4   7 1179.08  104.59
  -4   4   7 1227.48  117.09
  -1   4   7  302.77   67.39
   2   4   7  191.08   67.59
   2   4   7   98.99   43.70
   5   4   7  259.87   71.69
   5   4   7   87.59   67.79
   8   4   7  248.78  109.19
   8   4   7  180.08   82.19
  -9   5   7  160.98   58.19
  -6   5   7 1072.29  108.09
  -3   5   7 1111.59  115.49
  -3   5   7 1167.18  108.49
   0   5   7 1088.19  104.29
   0   5   7 1032.00  123.79
   3   5   7  941.41  107.29
   3   5   7  792.72  123.29
   6   5   7   32.00   81.59
   6   5   7   52.09   57.69
  -8   6   7  521.15   90.39
  -5   6   7  962.20  100.89
  -2   6   7  122.69   45.80
  -2   6   7  138.09   59.99
   1   6   7   32.60   42.20
   4   6   7   54.69   53.69
   7   6   7  184.18   84.39
 -10   7   7  883.41  126.29
  -7   7   7  849.12  103.09
  -4   7   7  394.86   73.39
  -1   7   7   14.50   38.10
   5   7   7  309.27   91.99
 -12   8   7   32.80   83.29
  -9   8   7   52.19   64.79
  -6   8   7  489.95   88.59
  -3   8   7  783.52   99.69
   0   8   7  295.77   72.99
   3   8   7   72.49   60.99
 -11   9   7    9.30   75.69
  -8   9   7  218.88   72.49
  -5   9   7  172.78   62.19
  -2   9   7  427.36  127.79
   1   9   7  221.98   80.09
 -13  10   7   53.19  118.89
 -10  10   7  310.07   95.89
  -7  10   7  816.22  120.89
  -4  10   7   36.10   50.79
  -1  10   7  438.26   95.39
   2  10   7  178.88   80.19
 -12  11   7  -80.99   91.89
  -9  11   7  100.39   78.19
  -6  11   7  -26.70   51.79
  -3  11   7  187.08   76.09
   0  11   7  496.65  109.49
 -11  12   7  112.99  114.99
  -5  12   7  620.14  119.69
  -2  12   7  337.77   97.29
 -10  13   7   59.29  105.59
  -7  13   7  129.09   82.59
   7 -13   8  273.77   79.79
   2 -12   8  327.17   94.99
   5 -12   8  220.18   71.19
   8 -12   8   49.40   35.20
   3 -11   8  259.47   81.49
   6 -11   8  481.25   78.79
   1 -10   8  -11.00   51.79
   4 -10   8  348.17   75.49
   7 -10   8  276.97   48.20
  -1  -9   8  -31.10   62.49
   2  -9   8  263.77   71.89
   5  -9   8  672.93   80.39
   8  -9   8  169.48   28.50
  -3  -8   8  142.39   96.79
   0  -8   8  728.93  108.99
   3  -8   8  250.77   73.09
   6  -8   8  129.59   33.70
   9  -8   8  130.99   26.00
  12  -8   8   25.30   32.60
  -2  -7   8  258.67   85.79
   1  -7   8   83.89   42.40
   4  -7   8  234.98   46.10
   7  -7   8 1451.35  102.79
  10  -7   8  324.07   50.79
  13  -7   8  257.47   65.59
  -4  -6   8  312.27  100.09
  -1  -6   8  101.99   51.69
   2  -6   8   16.20   30.10
   5  -6   8    0.10   22.60
   8  -6   8  168.08   37.30
   8  -6   8   59.59   51.79
  11  -6   8  494.05  104.69
  11  -6   8  626.74   80.89
  -3  -5   8  251.67   81.19
   0  -5   8  646.74   79.69
   3  -5   8 1606.74  121.39
   6  -5   8   -5.20   34.20
   6  -5   8  -10.10   23.80
   9  -5   8  874.51   90.49
   9  -5   8  637.04  113.39
  12  -5   8  132.29   68.79
  12  -5   8  301.37   72.79
  -5  -4   8  511.25  112.69
  -2  -4   8   41.50   40.10
   1  -4   8  167.38   41.70
   4  -4   8  238.18   46.40
   7  -4   8  269.37   68.39
   7  -4   8  201.58   48.50
  10  -4   8  450.15  104.79
  10  -4   8  382.26   77.99
  -4  -3   8  255.07   76.19
  -1  -3   8  114.79   43.80
   2  -3   8  459.65   58.19
   5  -3   8 1481.35  135.09
   5  -3   8 1678.63  127.69
   8  -3   8  316.97   70.69
   8  -3   8  347.67   80.69
  11  -3   8  178.58   80.09
  11  -3   8  131.39   66.59
  -6  -2   8  101.79   81.29
  -3  -2   8 1471.25  136.09
   0  -2   8  987.60   90.99
   3  -2   8  504.15   61.79
   3  -2   8  433.76   59.59
   6  -2   8  -17.20   36.30
   6  -2   8   18.90   36.60
   9  -2   8  152.98   57.39
   9  -2   8  163.38   76.09
  12  -2   8  334.07   98.99
  12  -2   8  374.16  102.09
  -5  -1   8   37.70   50.59
  -2  -1   8  360.36   63.89
   1  -1   8 1076.49   98.39
   1  -1   8 1127.19   88.39
   4  -1   8  262.27   60.89
   4  -1   8  230.28   56.49
   7  -1   8   65.99   52.69
   7  -1   8   63.39   46.50
  10  -1   8   96.79   60.09
  10  -1   8   -5.80   60.29
  -4   0   8  139.69   52.79
  -1   0   8 1079.59   85.89
  -1   0   8 1132.89  102.19
   2   0   8  981.70   92.59
   2   0   8  995.40   98.69
   5   0   8  570.04   87.59
   5   0   8  659.83  102.89
   8   0   8  536.65  104.29
   8   0   8  675.23  120.19
  11   0   8  -12.60   74.49
  -6   1   8   47.60   59.69
  -3   1   8  367.16  109.79
   0   1   8 1123.79  107.09
   0   1   8 1055.59   92.29
   3   1   8  277.67   62.79
   3   1   8  219.48   65.29
   6   1   8   97.59   61.59
   6   1   8  224.88   71.89
   9   1   8   48.20   74.19
   9   1   8  -16.30   64.39
  -5   2   8 1540.65  146.69
  -2   2   8  892.21   99.29
  -2   2   8  933.51   84.39
   1   2   8  535.35   71.19
   1   2   8  510.35   90.69
   4   2   8   76.29   50.99
   4   2   8    2.70   42.10
   7   2   8  247.08   83.69
   7   2   8  191.28   76.39
  10   2   8  449.95  115.19
  10   2   8  224.48  186.28
  -4   3   8  235.98   47.20
  -4   3   8  176.78   56.19
   2   3   8 1492.05  152.68
   2   3   8 1763.32  143.49
   5   3   8  377.36   89.09
   5   3   8  304.17   97.39
   8   3   8  116.89   86.89
   8   3   8  276.37  104.49
  -6   4   8    8.00   32.80
  -3   4   8  220.08   51.59
  -3   4   8  226.28   63.09
   0   4   8  331.67   65.39
   0   4   8  304.77   85.99
   3   4   8  221.38   63.99
   3   4   8  133.99   74.09
   6   4   8  282.77   93.69
   6   4   8  354.56  184.28
  -2   5   8 1488.75  129.69
  -2   5   8 1478.35  146.49
   1   5   8  -38.50   52.29
   1   5   8   66.29   48.60
   4   5   8  681.33  111.99
   4   5   8  760.52  139.59
   7   5   8  319.77  104.89
  -7   6   8  156.68   62.49
  -4   6   8   36.50   39.80
  -1   6   8   -0.60   38.60
   2   6   8   35.50   52.99
   5   6   8  559.84  107.39
  -9   7   8  148.49   64.89
  -6   7   8   37.40   49.60
  -3   7   8   79.39   49.99
   0   7   8 1214.68  130.79
   3   7   8  243.88   72.99
  -8   8   8  697.33  119.99
  -5   8   8  303.47   72.89
  -2   8   8  166.48   69.89
   1   8   8   82.29   60.79
   4   8   8  -11.30   67.89
 -10   9   8    8.90   76.19
  -7   9   8  199.38   72.39
  -4   9   8  704.83  119.29
  -1   9   8  118.29   72.89
   2   9   8  161.68   87.19
 -12  10   8  366.96  126.89
  -9  10   8  -72.39   66.09
  -6  10   8  376.46   98.79
  -3  10   8  237.08   82.89
   0  10   8  168.68   79.29
 -11  11   8  -42.80   97.39
  -8  11   8  303.57   98.49
  -5  11   8  471.65  102.09
  -2  11   8   35.10   68.59
 -10  12   8  582.84  203.28
  -7  12   8  317.97  105.19
  -4  12   8  -43.40   69.89
   6 -12   9    0.60   57.39
   4 -11   9   10.90   70.89
   7 -11   9  116.09   48.80
   2 -10   9  339.57   87.59
   5 -10   9  -12.10   42.70
   8 -10   9  357.96   54.09
   0  -9   9  136.09   79.09
   3  -9   9   71.39   53.99
   6  -9   9   36.60   35.50
   9  -9   9  261.17   39.80
  -2  -8   9  293.27   94.29
   1  -8   9  -36.90   46.20
   4  -8   9   79.19   42.20
   7  -8   9   15.00   25.50
  10  -8   9  354.26   47.10
  -4  -7   9  106.39  102.79
  -1  -7   9   46.90   57.39
   2  -7   9  426.16   78.49
   5  -7   9 1022.60   96.49
   8  -7   9   42.80   28.00
  11  -7   9   43.90   41.20
  -3  -6   9  167.78   82.99
   3  -6   9   40.60   32.50
   9  -6   9  -27.90   32.40
  12  -6   9  -89.09   45.50
  -5  -5   9   91.89   86.59
  -2  -5   9  343.77   92.89
   1  -5   9  515.75   71.89
   4  -5   9  157.08   42.80
   7  -5   9 1029.90   97.79
  10  -5   9   61.39   50.19
  10  -5   9  -30.50   55.69
  -4  -4   9   -9.00   58.09
  -1  -4   9  371.06   72.39
   2  -4   9   50.49   34.40
   5  -4   9  169.18   44.50
   8  -4   9   47.50   57.79
   8  -4   9   39.20   42.70
  11  -4   9   21.00   64.79
  11  -4   9   58.09   72.99
  -3  -3   9   55.89   52.89
   0  -3   9  605.74   78.79
   3  -3   9 1390.76  116.89
   6  -3   9   68.69   40.80
   6  -3   9   44.70   49.00
   9  -3   9  151.18   60.49
   9  -3   9   -8.40   65.89
  -5  -2   9  837.72  123.19
  -2  -2   9    7.60   38.50
   1  -2   9   -0.70   31.40
   4  -2   9   39.50   39.30
   4  -2   9   19.40   35.30
   7  -2   9  583.34   87.89
   7  -2   9  429.76   96.49
  10  -2   9  309.77  102.99
  10  -2   9  377.96   89.79
  -4  -1   9   65.49   53.09
  -1  -1   9   18.80   33.30
   2  -1   9    5.60   32.40
   2  -1   9   -2.50   33.10
   5  -1   9  588.54   88.99
   5  -1   9  487.05   88.99
   8  -1   9    8.80   64.19
   8  -1   9  114.79   57.39
  -3   0   9 1276.27  128.59
   0   0   9   19.30   38.80
   3   0   9  595.64   99.19
   3   0   9  737.73   86.79
   6   0   9  427.46   88.59
   9   0   9  291.27   92.79
   9   0   9  165.08   92.09
  -5   1   9  130.49   61.59
  -2   1   9   13.00   43.50
   1   1   9   35.70   42.60
   1   1   9   40.40   34.20
   4   1   9  480.65   95.29
   4   1   9  491.45   90.89
   7   1   9  202.18   78.89
   7   1   9  104.99   72.09
  -4   2   9   79.39   50.79
  -1   2   9  -14.70   42.40
   2   2   9   53.59   42.00
   2   2   9   48.60   52.39
   5   2   9  656.33  132.39
   5   2   9  498.75  104.09
   8   2   9  408.06  111.99
  -3   3   9  566.34   94.09
  -3   3   9  582.64   73.79
   0   3   9 1316.17  123.59
   0   3   9 1264.47  135.89
   3   3   9  -17.90   44.70
   3   3   9   37.60   62.49
   6   3   9   85.99   79.99
   6   3   9  102.99   80.69
  -2   4   9   52.19   35.70
  -2   4   9   67.39   54.49
   1   4   9  136.39   55.79
   1   4   9  265.87   84.69
   4   4   9   35.00   74.09
   4   4   9  -46.70   47.40
   7   4   9  121.99  107.19
   7   4   9  108.79   78.89
  -4   5   9  479.15   83.89
  -1   5   9  187.78   76.69
  -1   5   9  222.48   61.79
   2   5   9 1046.10  146.39
   5   5   9    1.50   62.19
  -6   6   9  425.76   84.69
  -3   6   9   11.50   46.70
   0   6   9  282.27   72.39
   3   6   9  -25.30   49.80
  -8   7   9  -55.19   51.49
  -5   7   9  600.74  103.19
  -2   7   9  761.92  109.99
   1   7   9  115.59   66.39
   4   7   9  -12.30   66.59
  -7   8   9   86.69   67.89
  -4   8   9   77.09   61.69
  -1   8   9  -30.70   53.79
   2   8   9  282.27  101.29
  -9   9   9  432.76  108.39
  -6   9   9  172.78   82.19
  -3   9   9   12.50   59.29
   0   9   9  320.07   95.59
  -8  10   9  346.97  100.19
  -5  10   9   -9.70   62.59
  -2  10   9  380.86  101.59
  -7  11   9   49.70   75.59
  -4  11   9   32.80   68.19
   6 -10  10  239.68   71.59
   1  -9  10  122.39   78.29
   4  -9  10  385.66   83.99
   7  -9  10  165.38   49.10
  -1  -8  10  -58.69   65.09
   2  -8  10   36.00   56.99
   5  -8  10  340.27   66.39
   8  -8  10  448.86   63.29
  -3  -7  10   73.99   92.99
   0  -7  10  551.14  110.69
   3  -7  10  166.78   54.39
   6  -7  10   59.19   39.10
   9  -7  10  271.87   52.19
  -2  -6  10  -36.10   62.09
   1  -6  10  143.79   56.79
   4  -6  10   73.89   40.90
   7  -6  10  136.79   44.70
  10  -6  10  233.08   81.39
  -4  -5  10  132.39   97.19
  -1  -5  10  126.79   63.09
   5  -5  10  134.49   44.00
   8  -5  10  342.07   67.79
  -3  -4  10  183.38   78.39
   6  -4  10   28.00   41.80
   9  -4  10  376.36   80.39
  -5  -3  10  120.79   82.59
  -2  -3  10  893.31  111.19
   1  -3  10  194.48   52.79
   7  -3  10  163.48   61.99
  10  -3  10  260.17   99.59
  -4  -2  10  -68.19   52.19
  -1  -2  10   99.39   49.40
   2  -2  10  508.75   75.79
   5  -2  10 1239.58  127.59
   8  -2  10  -44.40   52.79
   8  -2  10  -36.20   54.49
  -3  -1  10  100.49   59.79
   0  -1  10  731.23   97.19
   3  -1  10  293.47   67.89
   6  -1  10  250.97   78.89
   6  -1  10  253.57   72.39
   9  -1  10  -71.89   63.19
   9  -1  10   36.40   88.49
  -5   0  10  116.59  100.79
  -2   0  10  557.14   86.59
   1   0  10  980.80  111.09
   4   0  10   77.59   53.99
   7   0  10  649.24  130.79
   7   0  10  809.02  123.99
  -4   1  10  237.78   79.89
  -1   1  10  718.13  105.99
   2   1  10  223.08   66.79
   2   1  10  197.98   58.69
   5   1  10  127.99   69.79
   5   1  10  255.97   88.19
   8   1  10  117.39   96.49
   8   1  10   90.09   83.59
  -3   2  10  101.99   61.39
   0   2  10  427.46   91.99
   0   2  10  400.36   82.09
   3   2  10 1157.08  126.79
   3   2  10 1167.58  140.59
   6   2  10  -19.00   73.79
   6   2  10   95.89   76.69
  -2   3  10  275.27   79.39
   1   3  10  127.69   58.89
   1   3  10  206.78   79.19
   4   3  10  131.69   80.49
   4   3  10  165.88   69.69
   7   3  10  190.78  123.49
   7   3  10  112.49   99.59
  -1   4  10  252.57   85.69
  -1   4  10  260.67   67.19
   2   4  10   38.40   76.29
   2   4  10    2.70   53.09
   5   4  10  273.27  107.29
   5   4  10  335.37   98.19
  -3   5  10 1084.79  117.39
   0   5  10  144.09   72.19
   3   5  10  271.97   84.89
  -5   6  10  124.39  104.79
   1   6  10  101.99   68.99
   4   6  10  184.88  137.09
  -4   7  10   83.09   61.69
  -1   7  10  191.98   76.69
   2   7  10   32.00   71.49
  -6   8  10   43.30   65.79
  -3   8  10  169.58   75.09
   0   8  10  505.65  113.69
  -8   9  10  -38.40  127.69
  -5   9  10  305.87   94.19
  -2   9  10  105.79   78.99
  -7  10  10  299.37   99.59
  -4  10  10  133.99   81.29
   5  -9  11   84.99   63.79
   0  -8  11  188.48   89.69
   3  -8  11   92.89   91.79
   6  -8  11   16.30   65.79
   1  -7  11   -4.10   57.09
   4  -7  11  100.59   50.49
   7  -7  11  291.57   62.19
  -1  -6  11   19.60   67.99
   2  -6  11   32.90   49.60
   5  -6  11   94.49   49.20
   8  -6  11  -10.00   58.99
  -3  -5  11  137.19   87.69
   0  -5  11   60.89   57.19
   6  -5  11  139.09   55.09
   9  -5  11  132.19   64.69
  -2  -4  11  -46.30   51.49
   1  -4  11   81.09   50.29
   4  -4  11  142.99   56.89
   7  -4  11   36.50   52.69
  -4  -3  11  126.69   80.69
  -1  -3  11  -98.99   42.30
   2  -3  11   -6.90   44.50
   8  -3  11  200.28   91.49
  -3  -2  11  282.77   82.29
   0  -2  11  604.54   93.79
   3  -2  11  -12.30   41.20
   6  -2  11   29.90   55.19
  -2  -1  11   64.29   96.19
   1  -1  11  189.48   63.39
   4  -1  11    2.30   49.40
   7  -1  11    3.00   57.19
  -1   0  11  189.28   68.59
   2   0  11  496.05   93.89
   5   0  11  -31.60   54.79
   8   0  11  249.97   92.49
  -3   1  11   -3.50   56.29
   0   1  11  208.98   68.59
   3   1  11   55.39   64.19
   6   1  11    5.20   60.59
   6   1  11  -23.30   58.39
  -2   2  11  415.76   99.09
   4   2  11   32.50   60.59
   4   2  11  132.39   87.19
  -1   3  11   46.70   67.29
   2   3  11  582.84  103.29
   2   3  11  586.34  122.39
   5   3  11  193.58   84.79
   5   3  11  195.88   93.59
   3   4  11  216.58  107.29
   3   4  11   75.19   70.49
   1   5  11   93.59   67.59
  -1   6  11  146.59   79.19
   2   6  11    1.80   81.79
  -3   7  11   36.30   63.09
   0   7  11  314.07   89.19
  -2   8  11   10.60   68.39
  -4   9  11  280.67  191.08
   2  -7  12  204.88   76.49
   5  -7  12   55.09   53.99
   0  -6  12   55.89   79.79
   6  -6  12   82.89   52.29
   1  -5  12   25.00   52.89
   4  -5  12  139.59   57.79
   7  -5  12  150.28   63.39
  -1  -4  12   38.80   64.39
   2  -4  12    0.20   49.30
   5  -4  12   85.39   58.69
  -3  -3  12   -3.50   73.69
   3  -3  12  185.88   65.09
  -2  -2  12   60.39   62.59
   1  -2  12   26.50   56.29
   4  -2  12  118.69   61.79
   7  -2  12  314.77   87.29
  -1  -1  12   31.50   56.79
   2  -1  12   59.69   59.69
   5  -1  12  182.68   80.09
  -3   0  12  112.79   83.59
   0   0  12  163.18   69.19
   3   0  12  361.46   88.19
   6   0  12   61.89  108.29
  -2   1  12   38.00   65.09
   1   1  12   35.00   68.89
   4   1  12  231.38   87.39
  -1   2  12   56.49   83.19
   2   2  12  -23.80   71.89
   5   2  12  562.04  199.88
   0   3  12   92.69   84.49
   3   3  12  116.09   95.89
  -1  -2  13   -7.60  128.79
   0  -1  13  119.09   75.09
   3  -1  13  135.99  132.99
  -2   0  13  151.48   97.69
   1   0  13  107.39   82.89
  -1   1  13  225.38   95.69
   2   1  13    2.60  124.29
   0   2  13   10.30   87.59
   0   0   0    0.00    0.00


_computing_structure_solution     'SHELXT 2014/5 (Sheldrick, 2014)'
_computing_structure_solution     'SHELXT 2014/5 (Sheldrick, 2014)'
;
_shelx_hkl_checksum              47389
loop_
_space_group_symop_operation_xyz
'x, y, z'
'-y, x-y, z'
'-x+y, -x, z'
'-y, -x, z'
'-x+y, y, z'
'x, x-y, z'
'x+2/3, y+1/3, z+1/3'
'-y+2/3, x-y+1/3, z+1/3'
'-x+y+2/3, -x+1/3, z+1/3'
'-y+2/3, -x+1/3, z+1/3'
'-x+y+2/3, y+1/3, z+1/3'
'x+2/3, x-y+1/3, z+1/3'
'x+1/3, y+2/3, z+2/3'
'-y+1/3, x-y+2/3, z+2/3'
'-x+y+1/3, -x+2/3, z+2/3'
'-y+1/3, -x+2/3, z+2/3'
'-x+y+1/3, y+2/3, z+2/3'
'x+1/3, x-y+2/3, z+2/3'
loop_
_atom_site_label
_atom_site_type_symbol
_atom_site_fract_x
_atom_site_fract_y
_atom_site_fract_z
_atom_site_U_iso_or_equiv
_atom_site_adp_type
_atom_site_occupancy
_atom_site_site_symmetry_order
_atom_site_calc_flag
_atom_site_refinement_flags_posn
_atom_site_refinement_flags_adp
_atom_site_refinement_flags_occupancy
_atom_site_disorder_assembly
_atom_site_disorder_group
Ge1 Ge 0.6667 0.3333 0.7091(3) 0.0085(5) Uani 1 6 d S T P . .
Ge2 Ge 0.6667 0.3333 0.3096(3) 0.0160(6) Uani 1 6 d S T P . .
O1 O 0.7550(5) 0.5100(10) 0.7828(10) 0.016(2) Uani 1 2 d S T P . .
O2 O 0.6909(13) 0.382(3) 0.509(3) 0.026(9) Uani 0.3333 2 d S T P . .
Sr1 Sr 0.85759(7) 0.71518(14) 0.59615(15) 0.0148(4) Uani 1 2 d S T P . .
Te1 Te 0.40312(10) 0.20156(5) 0.21258(10) 0.0170(3) Uani 1 2 d S T P . .
loop_
_atom_site_aniso_label
_atom_site_aniso_U_11
_atom_site_aniso_U_22
_atom_site_aniso_U_33
_atom_site_aniso_U_23
_atom_site_aniso_U_13
_atom_site_aniso_U_12
Ge1 0.0089(8) 0.0089(8) 0.0076(13) 0.000 0.000 0.0045(4)
Ge2 0.0203(9) 0.0203(9) 0.0074(13) 0.000 0.000 0.0101(5)
O1 0.017(4) 0.014(5) 0.015(5) 0.002(4) 0.001(2) 0.007(2)
O2 0.035(15) 0.007(17) 0.026(15) -0.003(12) -0.001(6) 0.004(8)
Sr1 0.0139(5) 0.0183(8) 0.0137(9) 0.0068(6) 0.0034(3) 0.0091(4)
Te1 0.0119(5) 0.0137(4) 0.0248(6) 0.0027(2) 0.0053(5) 0.0060(2)
loop_
_atom_type_symbol
_atom_type_description
_atom_type_scat_dispersion_real
_atom_type_scat_dispersion_imag
_atom_type_scat_source
Ge Ge 0.1547 1.8001 'International Tables Vol C Tables 4.2.6.8 and 6.1.1.4'
O O 0.0106 0.0060 'International Tables Vol C Tables 4.2.6.8 and 6.1.1.4'
Sr Sr -1.5307 3.2498 'International Tables Vol C Tables 4.2.6.8 and 6.1.1.4'
Te Te -0.5308 1.6751 'International Tables Vol C Tables 4.2.6.8 and 6.1.1.4'
loop_
_geom_angle_atom_site_label_1
_geom_angle_atom_site_label_2
_geom_angle_atom_site_label_3
_geom_angle
_geom_angle_site_symmetry_1
_geom_angle_site_symmetry_3
_geom_angle_publ_flag
O1 Ge1 O1 107.2(3) 3_665 . ?
O1 Ge1 O1 107.2(3) 3_665 2_655 ?
O1 Ge1 O1 107.2(3) . 2_655 ?
O1 Ge1 O2 97.4(8) 3_665 3_665 ?
O1 Ge1 O2 118.2(4) . 3_665 ?
O1 Ge1 O2 118.2(4) 2_655 3_665 ?
O1 Ge1 O2 118.2(4) 3_665 . ?
O1 Ge1 O2 97.4(8) . . ?
O1 Ge1 O2 118.2(4) 2_655 . ?
O2 Ge1 O2 24.7(14) 3_665 . ?
O1 Ge1 O2 118.2(4) 3_665 2_655 ?
O1 Ge1 O2 118.2(4) . 2_655 ?
O1 Ge1 O2 97.4(8) 2_655 2_655 ?
O2 Ge1 O2 24.7(14) 3_665 2_655 ?
O2 Ge1 O2 24.7(14) . 2_655 ?
O2 Ge2 O2 24.8(13) 3_665 2_655 ?
O2 Ge2 O2 24.8(13) 3_665 . ?
O2 Ge2 O2 24.8(13) 2_655 . ?
O2 Ge2 Te1 95.0(8) 3_665 2_655 ?
O2 Ge2 Te1 115.9(3) 2_655 2_655 ?
O2 Ge2 Te1 116.0(3) . 2_655 ?
O2 Ge2 Te1 115.9(3) 3_665 3_665 ?
O2 Ge2 Te1 116.0(3) 2_655 3_665 ?
O2 Ge2 Te1 95.0(8) . 3_665 ?
Te1 Ge2 Te1 109.62(6) 2_655 3_665 ?
O2 Ge2 Te1 115.9(3) 3_665 . ?
O2 Ge2 Te1 95.0(8) 2_655 . ?
O2 Ge2 Te1 115.9(3) . . ?
Te1 Ge2 Te1 109.62(6) 2_655 . ?
Te1 Ge2 Te1 109.62(6) 3_665 . ?
Ge1 O1 Sr1 117.4(4) . . ?
Ge1 O1 Sr1 94.0(2) . 9_565 ?
Sr1 O1 Sr1 114.3(2) . 9_565 ?
Ge1 O1 Sr1 94.0(2) . 8_655 ?
Sr1 O1 Sr1 114.3(2) . 8_655 ?
Sr1 O1 Sr1 119.5(3) 9_565 8_655 ?
O2 O2 O2 60.000(19) 3_665 2_655 ?
O2 O2 Ge2 77.6(7) 3_665 . ?
O2 O2 Ge2 77.6(7) 2_655 . ?
O2 O2 Ge1 77.7(7) 3_665 . ?
O2 O2 Ge1 77.7(7) 2_655 . ?
Ge2 O2 Ge1 151.4(15) . . ?
O2 O2 Sr1 147.16(18) 3_665 . ?
O2 O2 Sr1 147.16(19) 2_655 . ?
Ge2 O2 Sr1 118.4(11) . . ?
Ge1 O2 Sr1 90.3(10) . . ?
O1 Sr1 O1 147.2(2) . 14_654 ?
O1 Sr1 O1 147.2(2) . 15_664 ?
O1 Sr1 O1 64.8(4) 14_654 15_664 ?
O1 Sr1 O2 54.9(5) . . ?
O1 Sr1 O2 123.3(4) 14_654 . ?
O1 Sr1 O2 123.3(4) 15_664 . ?
O1 Sr1 Te1 113.0(2) . 3_665 ?
O1 Sr1 Te1 75.32(17) 14_654 3_665 ?
O1 Sr1 Te1 75.32(17) 15_664 3_665 ?
O2 Sr1 Te1 58.0(5) . 3_665 ?
O1 Sr1 Te1 80.90(16) . 13 ?
O1 Sr1 Te1 75.61(17) 14_654 13 ?
O1 Sr1 Te1 112.75(18) 15_664 13 ?
O2 Sr1 Te1 123.7(3) . 13 ?
Te1 Sr1 Te1 142.07(3) 3_665 13 ?
O1 Sr1 Te1 80.90(17) . 14_655 ?
O1 Sr1 Te1 112.75(18) 14_654 14_655 ?
O1 Sr1 Te1 75.61(17) 15_664 14_655 ?
O2 Sr1 Te1 123.7(3) . 14_655 ?
Te1 Sr1 Te1 142.07(3) 3_665 14_655 ?
Te1 Sr1 Te1 72.72(4) 13 14_655 ?
O1 Sr1 Te1 74.63(9) . 7 ?
O1 Sr1 Te1 136.62(19) 14_654 7 ?
O1 Sr1 Te1 77.4(2) 15_664 7 ?
O2 Sr1 Te1 61.89(2) . 7 ?
Te1 Sr1 Te1 75.21(2) 3_665 7 ?
Te1 Sr1 Te1 142.05(5) 13 7 ?
Te1 Sr1 Te1 75.099(13) 14_655 7 ?
O1 Sr1 Te1 74.63(9) . 8 ?
O1 Sr1 Te1 77.4(2) 14_654 8 ?
O1 Sr1 Te1 136.62(19) 15_664 8 ?
O2 Sr1 Te1 61.89(2) . 8 ?
Te1 Sr1 Te1 75.21(2) 3_665 8 ?
Te1 Sr1 Te1 75.099(13) 13 8 ?
Te1 Sr1 Te1 142.06(5) 14_655 8 ?
Te1 Sr1 Te1 123.77(5) 7 8 ?
O1 Sr1 Sr1 126.58(10) . 14_654 ?
O1 Sr1 Sr1 31.94(18) 14_654 14_654 ?
O1 Sr1 Sr1 84.76(19) 15_664 14_654 ?
O2 Sr1 Sr1 91.7(3) . 14_654 ?
Te1 Sr1 Sr1 54.290(14) 3_665 14_654 ?
Te1 Sr1 Sr1 88.65(3) 13 14_654 ?
Te1 Sr1 Sr1 144.53(5) 14_655 14_654 ?
Te1 Sr1 Sr1 129.25(3) 7 14_654 ?
Te1 Sr1 Sr1 52.13(3) 8 14_654 ?
O1 Sr1 Sr1 33.80(7) . 8_655 ?
O1 Sr1 Sr1 165.12(17) 14_654 8_655 ?
O1 Sr1 Sr1 113.68(19) 15_664 8_655 ?
O2 Sr1 Sr1 70.6(4) . 8_655 ?
Te1 Sr1 Sr1 119.20(3) 3_665 8_655 ?
Te1 Sr1 Sr1 92.33(3) 13 8_655 ?
Te1 Sr1 Sr1 54.247(17) 14_655 8_655 ?
Te1 Sr1 Sr1 51.98(3) 7 8_655 ?
Te1 Sr1 Sr1 108.29(5) 8 8_655 ?
Sr1 Sr1 Sr1 159.31(6) 14_654 8_655 ?
O1 Sr1 Sr1 33.80(7) . 9_565 ?
O1 Sr1 Sr1 113.68(19) 14_654 9_565 ?
O1 Sr1 Sr1 165.12(17) 15_664 9_565 ?
O2 Sr1 Sr1 70.6(4) . 9_565 ?
Te1 Sr1 Sr1 119.20(3) 3_665 9_565 ?
Te1 Sr1 Sr1 54.248(17) 13 9_565 ?
Te1 Sr1 Sr1 92.33(3) 14_655 9_565 ?
Te1 Sr1 Sr1 108.29(5) 7 9_565 ?
Te1 Sr1 Sr1 51.98(3) 8 9_565 ?
Sr1 Sr1 Sr1 100.983(15) 14_654 9_565 ?
Sr1 Sr1 Sr1 63.62(4) 8_655 9_565 ?
Ge2 Te1 Sr1 88.62(6) . 2_655 ?
Ge2 Te1 Sr1 86.26(5) . 7_444 ?
Sr1 Te1 Sr1 139.75(3) 2_655 7_444 ?
Ge2 Te1 Sr1 86.26(5) . 9_564 ?
Sr1 Te1 Sr1 139.75(3) 2_655 9_564 ?
Sr1 Te1 Sr1 79.68(5) 7_444 9_564 ?
Ge2 Te1 Sr1 117.77(3) . 13_444 ?
Sr1 Te1 Sr1 73.73(2) 2_655 13_444 ?
Sr1 Te1 Sr1 142.06(5) 7_444 13_444 ?
Sr1 Te1 Sr1 73.625(15) 9_564 13_444 ?
Ge2 Te1 Sr1 117.77(3) . 15_554 ?
Sr1 Te1 Sr1 73.73(2) 2_655 15_554 ?
Sr1 Te1 Sr1 73.625(15) 7_444 15_554 ?
Sr1 Te1 Sr1 142.06(5) 9_564 15_554 ?
Sr1 Te1 Sr1 113.33(5) 13_444 15_554 ?
loop_
_geom_bond_atom_site_label_1
_geom_bond_atom_site_label_2
_geom_bond_distance
_geom_bond_site_symmetry_2
_geom_bond_publ_flag
Ge1 O1 1.732(9) 3_665 ?
Ge1 O1 1.732(9) . ?
Ge1 O1 1.732(9) 2_655 ?
Ge1 O2 1.79(3) 3_665 ?
Ge1 O2 1.79(3) . ?
Ge1 O2 1.79(3) 2_655 ?
Ge2 O2 1.78(3) 3_665 ?
Ge2 O2 1.78(3) 2_655 ?
Ge2 O2 1.78(3) . ?
Ge2 Te1 2.5450(13) 2_655 ?
Ge2 Te1 2.5450(13) 3_665 ?
Ge2 Te1 2.5450(13) . ?
O1 Sr1 2.474(9) . ?
O1 Sr1 2.602(5) 9_565 ?
O1 Sr1 2.602(5) 8_655 ?
O2 O2 0.77(4) 3_665 ?
O2 O2 0.77(4) 2_655 ?
O2 Sr1 3.13(2) . ?
Sr1 O1 2.602(5) 14_654 ?
Sr1 O1 2.602(5) 15_664 ?
Sr1 Te1 3.4995(18) 3_665 ?
Sr1 Te1 3.5083(14) 13 ?
Sr1 Te1 3.5083(14) 14_655 ?
Sr1 Te1 3.6069(10) 7 ?
Sr1 Te1 3.6070(10) 8 ?
Sr1 Sr1 4.2642(7) 14_654 ?
Sr1 Sr1 4.2642(7) 8_655 ?
Sr1 Sr1 4.2642(7) 9_565 ?
Te1 Sr1 3.4994(18) 2_655 ?
Te1 Sr1 3.5083(14) 7_444 ?
Te1 Sr1 3.5083(14) 9_564 ?
Te1 Sr1 3.6069(10) 13_444 ?
Te1 Sr1 3.6069(10) 15_554 ?
loop_
_geom_torsion_atom_site_label_1
_geom_torsion_atom_site_label_2
_geom_torsion_atom_site_label_3
_geom_torsion_atom_site_label_4
_geom_torsion
_geom_torsion_site_symmetry_1
_geom_torsion_site_symmetry_2
_geom_torsion_site_symmetry_3
_geom_torsion_site_symmetry_4
_geom_torsion_publ_flag
O1 Ge1 O1 Sr1 122.6(3) 3_665 . . . ?
O1 Ge1 O1 Sr1 -122.6(3) 2_655 . . . ?
O2 Ge1 O1 Sr1 14.0(8) 3_665 . . . ?
O2 Ge1 O1 Sr1 0.000(1) . . . . ?
O2 Ge1 O1 Sr1 -14.0(8) 2_655 . . . ?
O1 Ge1 O1 Sr1 -117.38(17) 3_665 . . 9_565 ?
O1 Ge1 O1 Sr1 -2.6(5) 2_655 . . 9_565 ?
O2 Ge1 O1 Sr1 134.0(8) 3_665 . . 9_565 ?
O2 Ge1 O1 Sr1 120.01(18) . . . 9_565 ?
O2 Ge1 O1 Sr1 106.0(8) 2_655 . . 9_565 ?
O1 Ge1 O1 Sr1 2.6(5) 3_665 . . 8_655 ?
O1 Ge1 O1 Sr1 117.38(17) 2_655 . . 8_655 ?
O2 Ge1 O1 Sr1 -106.0(8) 3_665 . . 8_655 ?
O2 Ge1 O1 Sr1 -120.01(18) . . . 8_655 ?
O2 Ge1 O1 Sr1 -134.0(8) 2_655 . . 8_655 ?
O2 Ge2 O2 O2 61.59(17) 2_655 . . 3_665 ?
Te1 Ge2 O2 O2 -34.6(3) 2_655 . . 3_665 ?
Te1 Ge2 O2 O2 -149.21(9) 3_665 . . 3_665 ?
Te1 Ge2 O2 O2 96.1(4) . . . 3_665 ?
O2 Ge2 O2 O2 -61.59(17) 3_665 . . 2_655 ?
Te1 Ge2 O2 O2 -96.1(4) 2_655 . . 2_655 ?
Te1 Ge2 O2 O2 149.21(9) 3_665 . . 2_655 ?
Te1 Ge2 O2 O2 34.6(3) . . . 2_655 ?
O2 Ge2 O2 Ge1 -30.79(9) 3_665 . . . ?
O2 Ge2 O2 Ge1 30.79(9) 2_655 . . . ?
Te1 Ge2 O2 Ge1 -65.3(3) 2_655 . . . ?
Te1 Ge2 O2 Ge1 180.000(11) 3_665 . . . ?
Te1 Ge2 O2 Ge1 65.3(4) . . . . ?
O2 Ge2 O2 Sr1 149.21(9) 3_665 . . . ?
O2 Ge2 O2 Sr1 -149.21(9) 2_655 . . . ?
Te1 Ge2 O2 Sr1 114.7(3) 2_655 . . . ?
Te1 Ge2 O2 Sr1 0.000(1) 3_665 . . . ?
Te1 Ge2 O2 Sr1 -114.7(3) . . . . ?
O1 Ge1 O2 O2 35.2(3) 3_665 . . 3_665 ?
O1 Ge1 O2 O2 149.22(9) . . . 3_665 ?
O1 Ge1 O2 O2 -96.7(5) 2_655 . . 3_665 ?
O2 Ge1 O2 O2 -61.57(17) 2_655 . . 3_665 ?
O1 Ge1 O2 O2 96.7(5) 3_665 . . 2_655 ?
O1 Ge1 O2 O2 -149.22(9) . . . 2_655 ?
O1 Ge1 O2 O2 -35.2(3) 2_655 . . 2_655 ?
O2 Ge1 O2 O2 61.57(17) 3_665 . . 2_655 ?
O1 Ge1 O2 Ge2 65.9(4) 3_665 . . . ?
O1 Ge1 O2 Ge2 180.000(13) . . . . ?
O1 Ge1 O2 Ge2 -65.9(4) 2_655 . . . ?
O2 Ge1 O2 Ge2 30.78(8) 3_665 . . . ?
O2 Ge1 O2 Ge2 -30.78(10) 2_655 . . . ?
O1 Ge1 O2 Sr1 -114.1(4) 3_665 . . . ?
O1 Ge1 O2 Sr1 0.000(1) . . . . ?
O1 Ge1 O2 Sr1 114.1(4) 2_655 . . . ?
O2 Ge1 O2 Sr1 -149.22(9) 3_665 . . . ?
O2 Ge1 O2 Sr1 149.22(9) 2_655 . . . ?
