#------------------------------------------------------------------------------
#$Date: 2022-09-27 00:53:41 +0300 (Tue, 27 Sep 2022) $
#$Revision: 278195 $
#$URL: file:///home/coder/svn-repositories/cod/cif/7/13/07/7130768.cif $
#------------------------------------------------------------------------------
#
# This file is available in the Crystallography Open Database (COD),
# http://www.crystallography.net/
#
# All data on this site have been placed in the public domain by the
# contributors.
#
data_7130768
loop_
_publ_author_name
'Rkein, Batoul'
'Coffinier, Romain'
'Powderly, Marian'
'Manneveau, Maxime'
'Sanselme, Morgane'
'Durandetti, Muriel'
'Sebban, Muriel'
'Hamdoun, Ghanem'
'Oulyadi, Hassan'
'Harrowven, David'
'Legros, Julien'
'Chataigner, Isabelle'
_publ_section_title
;
 High Pressure promoted Dearomatization of Nitroarenes by [4+2]
 Cycloadditions with Silyloxydienes
;
_journal_name_full               'Chemical Communications'
_journal_paper_doi               10.1039/D2CC04778K
_journal_year                    2022
_chemical_formula_moiety         'P3 Sr3 Zn'
_chemical_formula_sum            'P3 Sr3 Zn'
_chemical_formula_weight         421.14
_space_group_crystal_system      orthorhombic
_space_group_IT_number           62
_space_group_name_Hall           '-P 2ac 2n'
_space_group_name_H-M_alt        'P n m a'
_atom_sites_solution_primary     dual
_audit_block_doi                 10.25505/fiz.icsd.cc2b6wt8
_audit_creation_date             2020-09-04
_audit_creation_method
;
Olex2 1.3
(compiled 2020.07.16 svn.r6f6c53a7 for OlexSys, GUI svn.r6139)
;
_audit_update_record
;
2022-02-11 deposited with the CCDC.	2022-09-26 downloaded from the CCDC.
;
_cell_angle_alpha                90
_cell_angle_beta                 90
_cell_angle_gamma                90
_cell_formula_units_Z            8
_cell_length_a                   11.677(3)
_cell_length_b                   9.403(2)
_cell_length_c                   12.794(3)
_cell_measurement_reflns_used    3603
_cell_measurement_temperature    200.0
_cell_measurement_theta_max      29.27
_cell_measurement_theta_min      2.69
_cell_volume                     1404.8(6)
_computing_molecular_graphics    'Olex2 1.3 (Dolomanov et al., 2009)'
_computing_publication_material  'Olex2 1.3 (Dolomanov et al., 2009)'
_computing_structure_refinement  'SHELXL 2018/3 (Sheldrick, 2015)'
_computing_structure_solution    'SHELXT  (Sheldrick, 2015)'
_diffrn_ambient_temperature      200.0
_diffrn_measured_fraction_theta_full 1.000
_diffrn_measured_fraction_theta_max 0.999
_diffrn_measurement_device_type  'Bruker APEX-II CCD'
_diffrn_measurement_method       '\f and \w scans'
_diffrn_radiation_type           MoK\a
_diffrn_radiation_wavelength     0.71073
_diffrn_reflns_av_R_equivalents  0.0549
_diffrn_reflns_av_unetI/netI     0.0320
_diffrn_reflns_Laue_measured_fraction_full 1.000
_diffrn_reflns_Laue_measured_fraction_max 0.999
_diffrn_reflns_limit_h_max       16
_diffrn_reflns_limit_h_min       -16
_diffrn_reflns_limit_k_max       13
_diffrn_reflns_limit_k_min       -13
_diffrn_reflns_limit_l_max       17
_diffrn_reflns_limit_l_min       -17
_diffrn_reflns_number            17785
_diffrn_reflns_point_group_measured_fraction_full 1.000
_diffrn_reflns_point_group_measured_fraction_max 0.999
_diffrn_reflns_theta_full        25.242
_diffrn_reflns_theta_max         29.632
_diffrn_reflns_theta_min         2.361
_diffrn_source_current           30.0
_diffrn_source_power             1.5
_diffrn_source_voltage           50.0
_diffrn_standards_number         0
_exptl_absorpt_coefficient_mu    26.588
_exptl_absorpt_correction_T_max  0.2644
_exptl_absorpt_correction_T_min  0.1404
_exptl_absorpt_correction_type   multi-scan
_exptl_absorpt_process_details
;
SADABS-2016/2 (Bruker,2016/2) was used for absorption correction.
wR2(int) was 0.1125 before and 0.0465 after correction.
The Ratio of minimum to maximum transmission is 0.5310.
The \l/2 correction factor is Not present.
;
_exptl_crystal_colour            black
_exptl_crystal_colour_primary    black
_exptl_crystal_density_diffrn    3.982
_exptl_crystal_description       block
_exptl_crystal_F_000             1512
_exptl_crystal_size_max          0.135
_exptl_crystal_size_mid          0.106
_exptl_crystal_size_min          0.099
_refine_diff_density_max         1.452
_refine_diff_density_min         -0.998
_refine_diff_density_rms         0.185
_refine_ls_extinction_coef       0.00056(6)
_refine_ls_extinction_expression Fc^*^=kFc[1+0.001xFc^2^\l^3^/sin(2\q)]^-1/4^
_refine_ls_extinction_method     'SHELXL-2018/3 (Sheldrick 2018)'
_refine_ls_goodness_of_fit_ref   1.050
_refine_ls_hydrogen_treatment    undef
_refine_ls_matrix_type           full
_refine_ls_number_parameters     77
_refine_ls_number_reflns         2089
_refine_ls_number_restraints     0
_refine_ls_restrained_S_all      1.050
_refine_ls_R_factor_all          0.0379
_refine_ls_R_factor_gt           0.0245
_refine_ls_shift/su_max          0.001
_refine_ls_shift/su_mean         0.000
_refine_ls_structure_factor_coef Fsqd
_refine_ls_weighting_details
'w=1/[\s^2^(Fo^2^)+(0.0205P)^2^+1.6160P] where P=(Fo^2^+2Fc^2^)/3'
_refine_ls_weighting_scheme      calc
_refine_ls_wR_factor_gt          0.0497
_refine_ls_wR_factor_ref         0.0532
_reflns_Friedel_coverage         0.000
_reflns_number_gt                1708
_reflns_number_total             2089
_reflns_threshold_expression     'I > 2\s(I)'
_cod_data_source_file            d2cc04778k2.cif
_cod_data_source_block           shelx
_cod_original_cell_volume        1404.8(5)
_cod_database_code               7130768
_shelx_shelxl_version_number     2018/3
_shelx_space_group_comment
;
The symmetry employed for this shelxl refinement is uniquely defined
by the following loop, which should always be used as a source of
symmetry information in preference to the above space-group names.
They are only intended as comments.
;
_shelx_estimated_absorpt_t_max   0.178
_shelx_estimated_absorpt_t_min   0.124
_olex2_refinement_description
;
;
_shelx_res_file
;
TITL shelx_a.res in Pnma
    shelx.res
    created by SHELXL-2018/3 at 13:14:30 on 04-Sep-2020
REM Old TITL shelx in Pnma
REM SHELXT solution in Pnma: R1 0.086, Rweak 0.002, Alpha 0.009
REM <I/s> 0.879 for 152 systematic absences, Orientation as input
REM Formula found by SHELXT: P6 Zn3 Sr5
CELL 0.71073 11.6766 9.4035 12.7945 90 90 90
ZERR 8 0.0025 0.002 0.0025 0 0 0
LATT 1
SYMM 0.5-X,-Y,0.5+Z
SYMM -X,0.5+Y,-Z
SYMM 0.5+X,0.5-Y,0.5-Z
SFAC P Sr Zn
UNIT 24 24 8

L.S. 10
PLAN  4
SIZE 0.099 0.106 0.135
TEMP -73.15
CONF
list 4
MORE -1
fmap 2 53
acta
REM <olex2.extras>
REM <HklSrc "%.\\shelx.hkl">
REM </olex2.extras>

WGHT    0.020500    1.616000
EXTI    0.000559
FVAR       0.03906
SR1   2    0.164801    0.513886    0.455611    11.00000    0.01015    0.01349 =
         0.01421   -0.00251    0.00161   -0.00021
SR2   2    0.413831    0.031599    0.242037    11.00000    0.00864    0.01758 =
         0.00939   -0.00007   -0.00062   -0.00004
SR3   2    0.311566    0.250000    0.676755    10.50000    0.04040    0.00670 =
         0.02569    0.00000    0.00626    0.00000
SR4   2    0.000000    0.000000    0.000000    10.50000    0.00940    0.02076 =
         0.00884   -0.00111   -0.00035    0.00010
ZN1   3    0.173049    0.250000    0.304114    10.50000    0.01396    0.00975 =
         0.01112    0.00000   -0.00255    0.00000
ZN2   3    0.169018    0.250000    0.077355    10.50000    0.04426    0.00930 =
         0.01045    0.00000    0.00111    0.00000
P1    1    0.163235    0.048293    0.184574    11.00000    0.00996    0.00752 =
         0.01064   -0.00067   -0.00181    0.00010
P2    1    0.036046    0.250000    0.599829    10.50000    0.01315    0.01235 =
         0.01029    0.00000   -0.00201    0.00000
P3    1    0.339375    0.250000    0.419062    10.50000    0.01007    0.00988 =
         0.00991    0.00000   -0.00147    0.00000
P4    1    0.489855    0.250000    0.072492    10.50000    0.01058    0.01052 =
         0.01071    0.00000    0.00028    0.00000
P5    1    0.644377    0.250000    0.609353    10.50000    0.01756    0.01067 =
         0.00839    0.00000   -0.00114    0.00000
HKLF 4




REM  shelx_a.res in Pnma
REM wR2 = 0.0532, GooF = S = 1.050, Restrained GooF = 1.050 for all data
REM R1 = 0.0245 for 1708 Fo > 4sig(Fo) and 0.0379 for all 2089 data
REM 77 parameters refined using 0 restraints

END

WGHT      0.0205      1.6149

REM Highest difference peak  1.452,  deepest hole -0.998,  1-sigma level  0.185
Q1    1   0.3788  0.2500  0.6832  10.50000  0.05    1.45
Q2    1   0.1003  0.5154  0.4421  11.00000  0.05    0.73
Q3    1   0.2335  0.4976  0.4432  11.00000  0.05    0.73
Q4    1   0.4977  0.2500  0.0038  10.50000  0.05    0.72
;
_shelx_res_checksum              85739
_shelx_hkl_file
;
   0  -1   0    0.02    0.04
   0  -2   0   38.68    1.62
   0   2   0   38.70    1.65
   0  -2   0   36.23    1.60
   0   3   0    0.05    0.14
   0  -3   0   -0.03    0.10
   0  -3   0    0.06    0.11
   0  -4   0  991.39   40.06
   0  -4   0 1000.00   40.03
   0   4   0  943.79   40.11
   0  -5   0   -0.01    0.18
   0   5   0   -0.11    0.21
   0  -5   0    0.10    0.16
   0  -6   0   13.16    0.78
   0   6   0   11.93    0.86
   0  -6   0   13.29    0.73
   0   7   0   -0.42    0.33
   0  -7   0   -0.42    0.25
   0  -7   0    0.11    0.27
   0  -8   0  258.46   10.90
   0   8   0  258.15   11.14
   0  -8   0  267.26   10.99
   0  -9   0   -0.06    0.38
   0   9   0    0.94    0.58
   0  -9   0   -0.06    0.32
   0 -10   0   65.16    3.15
   0 -10   0   69.33    3.08
   0  10   0   65.41    3.41
   0  11   0   -0.12    0.66
   0 -11   0    0.55    0.57
   0 -11   0   -0.39    0.45
   0 -12   0   51.58    2.68
   0  12   0   49.25    2.91
   0  13   0    1.23    0.97
   0 -13   0   -0.31    0.58
   1   0   0    0.03    0.03
   1   1   0    0.11    0.07
   1   1   0    0.27    0.06
  -1  -1   0    0.03    0.06
   1  -1   0    0.02    0.06
  -1  -2   0    0.21    0.12
   1  -2   0   -0.02    0.08
   1   2   0    0.11    0.09
   1  -2   0    0.15    0.11
  -1  -2   0   -0.11    0.09
   1   2   0   -0.13    0.12
  -1   2   0   -0.02    0.12
   1   3   0    0.32    0.13
   1   3   0    0.06    0.15
   1  -3   0    0.17    0.10
  -1  -3   0    0.27    0.13
   1  -3   0    0.11    0.12
  -1   3   0    0.10    0.16
  -1  -3   0    0.12    0.11
  -1  -4   0    0.12    0.15
  -1   4   0    0.18    0.20
   1  -4   0    0.07    0.14
   1   4   0    0.34    0.16
  -1  -4   0    0.05    0.14
   1   4   0   -0.17    0.18
   1  -4   0   -0.06    0.15
   1  -5   0   -0.14    0.18
  -1  -5   0   -0.05    0.16
  -1   5   0   -0.21    0.23
   1   5   0   -0.22    0.24
  -1  -5   0    0.02    0.18
   1  -5   0   -0.06    0.17
   1  -6   0   -0.01    0.18
  -1  -6   0    0.21    0.23
  -1   6   0    0.11    0.30
   1  -6   0   -0.02    0.22
   1   6   0    0.30    0.31
  -1  -6   0    0.07    0.20
  -1  -7   0   -0.15    0.23
   1  -7   0    0.28    0.22
  -1   7   0    0.18    0.34
  -1  -7   0    0.09    0.27
   1   7   0   -0.19    0.39
   1  -7   0    0.05    0.30
   1  -8   0    0.02    0.36
  -1   8   0    0.19    0.45
   1  -8   0    0.05    0.29
  -1  -8   0    0.11    0.36
   1   8   0   -0.30    0.41
  -1  -8   0    0.02    0.29
   1  -9   0   -0.44    0.37
  -1   9   0   -0.34    0.46
   1  -9   0    0.03    0.32
  -1  -9   0   -0.44    0.37
   1   9   0   -0.73    0.53
  -1  -9   0   -0.49    0.40
   1 -10   0   -0.17    0.45
  -1  10   0    0.23    0.56
   1 -10   0    0.09    0.39
  -1 -10   0   -0.40    0.43
  -1 -10   0    0.11    0.45
   1  10   0   -0.27    0.56
  -1  11   0    0.18    0.70
   1 -11   0   -0.31    0.47
  -1 -11   0    0.23    0.45
   1  11   0    0.10    0.76
  -1 -11   0    0.20    0.50
   1  12   0   -0.08    0.74
  -1 -12   0    0.25    0.61
   1 -12   0    0.55    0.62
  -1  12   0   -0.25    0.69
   1  13   0   -0.47    0.97
  -1 -13   0    0.99    0.72
   1 -13   0   -0.07    0.65
  -1  13   0    0.01    0.79
  -2   0   0    7.80    0.41
   2   0   0    8.04    0.38
   2   0   0    7.28    0.40
   2  -1   0    9.52    0.46
   2  -1   0    8.55    0.44
  -2  -1   0    8.31    0.46
   2   1   0    9.66    0.48
   2   1   0    9.17    0.44
   2   1   0    9.25    0.46
   2   2   0   72.10    3.04
  -2   2   0   72.06    3.01
   2   2   0   70.57    3.00
  -2  -2   0   68.29    3.00
   2  -2   0   73.55    3.02
   2  -2   0   71.32    2.97
   2  -3   0   62.34    2.63
  -2  -3   0   63.24    2.67
   2   3   0   61.55    2.67
   2  -3   0   61.33    2.68
  -2   3   0   62.80    2.71
   2   3   0   64.53    2.74
  -2  -3   0   61.78    2.68
   2   4   0    6.20    0.53
   2  -4   0    5.55    0.44
   2  -4   0    5.62    0.37
  -2  -4   0    5.50    0.41
   2   4   0    6.07    0.42
  -2   4   0    6.50    0.47
  -2  -4   0    5.98    0.43
   2   5   0    7.44    0.54
  -2  -5   0    7.18    0.51
  -2  -5   0    7.00    0.54
   2  -5   0    7.07    0.56
   2  -5   0    7.53    0.46
   2   5   0    7.50    0.62
  -2   5   0    7.47    0.58
   2   6   0   34.01    1.58
   2   6   0   34.52    1.72
  -2  -6   0   34.69    1.60
   2  -6   0   31.37    1.50
  -2  -6   0   32.64    1.56
  -2   6   0   30.11    1.66
   2  -6   0   33.19    1.60
   2   7   0   76.72    3.49
  -2  -7   0   73.47    3.33
   2  -7   0   74.55    3.23
  -2  -7   0   76.19    3.29
  -2   7   0   72.71    3.44
   2  -7   0   73.59    3.33
  -2  -8   0    5.73    0.58
   2  -8   0    3.71    0.54
  -2  -8   0    5.06    0.58
  -2   8   0    3.67    0.63
   2   8   0    5.44    0.79
   2  -8   0    4.20    0.47
   2  -9   0   17.13    1.03
  -2  -9   0   19.51    1.18
  -2   9   0   19.34    1.37
  -2  -9   0   17.77    1.09
   2   9   0   14.32    1.34
   2  -9   0   18.17    1.20
   2  10   0    9.59    1.17
   2 -10   0    8.22    0.92
  -2 -10   0   12.40    0.95
  -2 -10   0   10.60    0.99
   2 -10   0   10.71    0.82
  -2  10   0    9.97    1.12
   2  11   0   43.39    2.70
  -2 -11   0   45.37    2.40
   2 -11   0   43.03    2.35
  -2  11   0   46.09    2.59
  -2 -11   0   45.39    2.30
  -2  12   0    2.17    0.83
   2 -12   0    3.58    0.70
  -2 -12   0    2.13    0.70
   2  12   0    4.82    1.09
  -2 -12   0    4.78    0.73
  -3   0   0    0.44    0.16
   3   0   0    0.57    0.12
   3   0   0    0.11    0.14
   3   0   0    0.41    0.10
   3  -1   0    0.03    0.10
   3   1   0    0.11    0.14
   3   1   0    0.04    0.10
   3  -1   0   -0.09    0.12
  -3  -1   0    0.24    0.13
   3   1   0    0.21    0.11
  -3  -2   0    0.30    0.15
   3  -2   0    0.44    0.13
   3   2   0    0.30    0.14
  -3   2   0    0.44    0.11
   3  -2   0    0.18    0.14
   3   2   0    0.43    0.16
   3   3   0    0.19    0.15
  -3   3   0    0.03    0.14
   3  -3   0   -0.08    0.15
   3   3   0    0.25    0.19
  -3  -3   0    0.20    0.16
   3  -3   0   -0.08    0.12
  -3  -4   0   -0.01    0.17
   3  -4   0    0.44    0.22
   3   4   0    0.00    0.19
   3   4   0   -0.09    0.20
  -3  -4   0    0.15    0.19
   3  -4   0    0.16    0.14
  -3   4   0    0.11    0.18
   3   5   0    0.14    0.28
   3  -5   0    0.20    0.15
  -3  -5   0    0.01    0.23
  -3  -5   0   -0.03    0.23
  -3   5   0   -0.13    0.21
   3  -5   0    0.21    0.25
   3   5   0   -0.14    0.20
   3  -6   0    0.12    0.26
  -3  -6   0    0.02    0.27
   3  -6   0    0.03    0.20
   3   6   0    0.27    0.28
   3   6   0   -0.03    0.32
  -3   6   0    0.11    0.27
  -3  -6   0    0.09    0.25
   3   7   0   -0.38    0.37
   3  -7   0    0.08    0.33
   3  -7   0   -0.05    0.23
  -3  -7   0   -0.21    0.31
   3   7   0   -0.29    0.28
  -3   7   0    0.41    0.34
  -3  -7   0    0.08    0.32
   3  -8   0    0.11    0.37
   3  -8   0    0.15    0.28
  -3  -8   0    0.12    0.37
  -3   8   0   -0.02    0.39
  -3  -8   0    0.07    0.33
   3   8   0    0.01    0.46
   3  -9   0    0.12    0.33
   3   9   0   -0.27    0.49
   3  -9   0    0.17    0.38
  -3   9   0    0.07    0.48
  -3  -9   0    0.07    0.40
  -3  -9   0    0.24    0.44
   3 -10   0   -0.17    0.47
  -3 -10   0   -0.05    0.45
  -3 -10   0   -0.07    0.49
   3  10   0   -0.20    0.68
  -3  10   0    0.42    0.57
  -3 -11   0    0.14    0.52
   3 -11   0    0.50    0.51
  -3 -11   0    0.58    0.58
  -3  11   0   -0.13    0.63
   3  11   0   -0.27    0.73
  -3 -12   0    0.43    0.67
  -3  12   0   -0.07    0.74
   3  12   0   -0.25    0.82
   3 -12   0   -0.25    0.53
  -3 -12   0   -0.36    0.58
  -4   0   0  102.05    4.26
   4   0   0   97.74    4.19
   4   0   0   99.73    4.22
   4   0   0  102.84    4.26
   4   1   0    8.55    0.52
  -4  -1   0    7.17    0.50
   4  -1   0    8.40    0.47
   4  -1   0    7.70    0.40
   4  -1   0    7.37    0.50
   4   1   0    7.99    0.46
   4   1   0    8.18    0.46
   4  -2   0   12.40    0.68
  -4   2   0   13.44    0.61
   4  -2   0   12.06    0.67
  -4  -2   0   12.49    0.71
   4   2   0   12.39    0.70
   4   2   0   13.77    0.69
   4  -2   0   12.99    0.62
  -4  -3   0    7.33    0.54
   4   3   0    7.70    0.55
  -4   3   0    7.85    0.45
   4   3   0    8.78    0.53
   4  -3   0    7.73    0.47
   4  -3   0    7.77    0.54
   4   4   0   35.59    1.72
  -4   4   0   35.90    1.61
  -4  -4   0   35.06    1.65
   4   4   0   37.44    1.65
   4  -4   0   32.77    1.64
   4  -4   0   34.45    1.57
   4   5   0   24.59    1.25
  -4  -5   0   26.53    1.29
  -4   5   0   25.07    1.26
   4   5   0   24.81    1.37
   4  -5   0   24.44    1.27
   4  -5   0   24.81    1.18
  -4  -5   0   24.95    1.27
   4   6   0    1.01    0.30
   4  -6   0    0.80    0.33
   4  -6   0    0.79    0.23
  -4   6   0    1.24    0.33
  -4  -6   0    0.91    0.32
   4   6   0    1.03    0.42
  -4  -6   0    1.12    0.33
   4   7   0    6.90    0.66
  -4  -7   0    7.32    0.67
   4  -7   0    6.20    0.65
   4  -7   0    6.81    0.55
  -4  -7   0    7.19    0.70
  -4   7   0    6.11    0.67
   4   7   0    6.89    0.80
  -4  -8   0    0.08    0.37
  -4   8   0    0.23    0.40
   4   8   0    0.51    0.57
   4  -8   0    0.69    0.40
   4   8   0    0.27    0.38
   4  -8   0   -0.04    0.28
  -4  -8   0    0.93    0.44
   4   9   0    1.66    0.73
  -4  -9   0    2.78    0.58
   4  -9   0    2.41    0.52
  -4  -9   0    2.71    0.60
  -4   9   0    2.90    0.60
   4  -9   0    3.14    0.45
  -4  10   0    8.46    1.00
  -4 -10   0   11.70    1.02
  -4 -10   0   11.57    0.99
   4  10   0   10.07    1.20
   4 -10   0   12.26    1.04
  -4 -11   0    0.92    0.57
   4  11   0    1.59    0.87
  -4 -11   0    0.92    0.55
   4 -11   0    0.93    0.60
  -4 -12   0   -0.49    0.54
   4  12   0    0.20    0.89
   4 -12   0    1.85    0.63
  -4 -12   0    2.38    0.75
  -5   0   0   -0.18    0.18
   5   0   0    0.19    0.15
   5   0   0    0.96    0.27
   5   0   0    0.01    0.12
   5   1   0    0.18    0.20
   5  -1   0    0.10    0.12
   5   1   0   -0.16    0.14
   5  -1   0    0.00    0.18
  -5  -1   0    0.09    0.19
   5   1   0    0.14    0.16
   5  -1   0   -0.09    0.15
   5  -2   0    0.25    0.12
   5   2   0    0.00    0.17
   5  -2   0    0.01    0.17
   5   2   0    0.02    0.18
  -5  -2   0    0.09    0.22
   5  -2   0   -0.24    0.18
  -5   3   0    0.15    0.12
   5   3   0    0.10    0.21
  -5  -3   0    0.21    0.25
   5   3   0    0.09    0.18
   5  -3   0   -0.07    0.21
   5  -3   0    0.07    0.14
   5  -3   0    0.15    0.19
   5  -4   0    0.15    0.19
   5  -4   0   -0.11    0.21
   5   4   0    0.30    0.22
  -5   4   0   -0.12    0.15
  -5  -4   0    0.69    0.28
   5   4   0   -0.06    0.25
   5  -5   0   -0.10    0.18
   5   5   0    0.20    0.33
  -5   5   0    0.20    0.20
   5   5   0    0.19    0.28
   5  -5   0   -0.11    0.27
  -5  -5   0    0.14    0.28
  -5  -6   0    0.07    0.32
  -5  -6   0   -0.08    0.27
   5  -6   0   -0.17    0.21
   5   6   0   -0.21    0.29
  -5   6   0   -0.03    0.23
   5  -6   0    0.14    0.29
   5   6   0   -0.25    0.38
  -5  -7   0    0.06    0.35
   5   7   0    0.29    0.47
  -5  -7   0    0.26    0.37
   5   7   0    0.13    0.34
  -5   7   0    0.29    0.30
   5  -7   0    0.03    0.25
   5  -7   0    0.34    0.32
   5  -8   0   -0.11    0.42
  -5   8   0    0.19    0.38
  -5  -8   0   -0.43    0.34
   5   8   0   -0.08    0.39
   5  -8   0    0.33    0.30
   5   8   0   -0.65    0.48
  -5  -8   0   -0.25    0.40
  -5  -9   0    0.03    0.51
   5  -9   0    0.52    0.44
   5   9   0   -0.39    0.42
  -5   9   0   -0.13    0.43
   5   9   0   -0.52    0.54
  -5  -9   0    0.48    0.49
   5  10   0    0.21    0.69
  -5 -10   0    0.05    0.50
  -5 -10   0   -0.01    0.54
   5 -10   0    0.90    0.55
   5 -11   0   -0.15    0.51
  -5 -11   0    0.86    0.60
  -5 -11   0    0.61    0.60
   5  11   0   -0.12    0.89
   5  12   0    0.29    1.04
  -5 -12   0    1.09    0.68
  -5 -12   0   -1.17    0.62
   5 -12   0    0.00    0.60
  -6   0   0  312.92   13.11
   6   0   0  324.09   13.02
   6   0   0  310.56   13.11
   6   0   0  314.41   13.06
   6  -1   0    1.17    0.25
   6   1   0    1.28    0.25
   6  -1   0    1.30    0.19
   6   1   0    1.62    0.26
   6   1   0    1.43    0.33
  -6  -1   0    0.90    0.30
   6  -1   0    1.55    0.34
   6  -2   0   27.77    1.32
   6  -2   0   26.34    1.19
   6   2   0   25.54    1.28
   6   2   0   25.19    1.30
   6  -2   0   26.55    1.34
  -6  -2   0   29.33    1.38
   6   2   0   24.88    1.35
   6  -3   0    1.90    0.33
   6  -3   0    2.22    0.25
   6  -3   0    2.55    0.37
  -6  -3   0    2.78    0.41
   6   3   0    1.67    0.31
   6   3   0    1.63    0.34
   6  -4   0  238.61   10.22
   6  -4   0  256.71   10.18
   6  -4   0  250.67   10.11
   6   4   0  228.51   10.27
  -6   4   0  240.26   10.09
  -6  -4   0  249.82   10.25
  -6  -5   0    0.32    0.35
   6  -5   0    0.68    0.26
   6   5   0   -0.05    0.26
   6  -5   0    0.32    0.22
   6  -5   0    0.65    0.33
   6   5   0    0.19    0.36
  -6   5   0    0.17    0.19
   6   6   0   15.86    0.98
   6  -6   0   14.06    0.87
   6  -6   0   15.20    0.97
  -6   6   0   14.50    0.85
  -6  -6   0   15.53    1.02
   6   6   0   16.00    1.13
  -6  -6   0   16.06    1.00
  -6  -7   0    3.07    0.53
  -6  -7   0    2.33    0.56
   6   7   0    2.84    0.70
  -6   7   0    1.39    0.34
   6  -7   0    2.96    0.53
   6   7   0    2.05    0.48
   6  -7   0    2.01    0.36
  -6  -8   0  131.04    5.73
  -6  -8   0  128.00    5.73
   6   8   0  129.16    5.93
   6   8   0  134.42    5.73
   6  -8   0  131.39    5.73
   6   9   0    0.23    0.64
   6  -9   0    0.02    0.44
  -6  -9   0    0.10    0.52
  -6  -9   0   -0.21    0.43
   6   9   0   -0.96    0.42
  -6 -10   0    5.80    0.89
   6  10   0    4.56    0.71
   6  10   0    3.58    0.99
   6 -10   0    4.68    0.71
  -6 -10   0    3.75    0.70
   6 -11   0    0.83    0.63
  -6 -11   0    1.66    0.70
  -6 -11   0    0.56    0.61
   6  11   0    0.45    0.94
  -6 -12   0   71.82    3.50
   6  12   0   67.76    3.87
  -6 -12   0   67.40    3.41
   7   0   0   -0.11    0.17
   7   0   0    0.32    0.33
   7   0   0    0.31    0.23
  -7   0   0   -0.29    0.28
   7  -1   0   -0.14    0.27
   7   1   0    0.06    0.21
   7  -1   0    0.14    0.22
   7   1   0   -0.28    0.19
   7   1   0    0.25    0.30
  -7  -1   0    0.46    0.30
   7  -1   0    0.05    0.16
  -7   1   0    0.18    0.29
  -7  -2   0   -0.02    0.29
   7   2   0   -0.16    0.22
   7   2   0    0.09    0.24
   7  -2   0   -0.03    0.26
   7  -2   0   -0.07    0.15
   7  -2   0    0.21    0.24
   7   2   0    0.45    0.33
   7  -3   0    0.01    0.16
   7   3   0    0.43    0.29
   7  -3   0    0.18    0.30
  -7  -3   0   -0.10    0.31
   7  -3   0   -0.06    0.25
   7   3   0   -0.45    0.22
   7  -4   0    0.21    0.19
   7  -4   0    0.39    0.32
  -7  -4   0    0.18    0.36
   7   4   0   -0.25    0.26
   7   4   0   -0.48    0.27
   7  -4   0   -0.20    0.28
  -7  -5   0   -0.13    0.38
   7  -5   0   -0.41    0.26
   7   5   0   -0.14    0.28
   7   5   0   -0.17    0.37
   7  -5   0   -0.17    0.27
  -7   5   0   -0.09    0.21
  -7  -6   0    0.37    0.43
   7  -6   0   -0.31    0.32
   7  -6   0   -0.03    0.29
   7   6   0   -0.38    0.32
   7   6   0    0.11    0.53
   7   7   0    0.21    0.52
   7   7   0   -0.21    0.40
   7  -7   0   -0.05    0.31
  -7  -7   0   -0.01    0.46
  -7  -7   0    0.43    0.42
   7  -7   0   -0.28    0.36
   7   8   0    0.40    0.42
  -7  -8   0   -0.15    0.41
   7   8   0   -0.80    0.54
  -7  -8   0    0.38    0.50
   7  -8   0    0.19    0.41
  -7  -9   0    0.06    0.46
   7   9   0    0.05    0.67
   7  -9   0    0.28    0.46
  -7  -9   0    0.96    0.58
   7   9   0    0.05    0.51
  -7 -10   0    0.07    0.58
   7  10   0   -0.11    0.75
  -7 -10   0    0.48    0.63
   7 -10   0    0.27    0.59
   7  10   0    0.20    0.55
   7 -11   0   -0.42    0.60
  -7 -11   0   -0.16    0.67
   7  11   0    0.00    0.94
  -7 -11   0    0.14    0.65
   8   0   0   51.48    2.43
  -8   0   0   55.58    2.54
   8   0   0   52.64    2.38
   8   0   0   54.57    2.54
   8  -1   0   27.17    1.44
   8   1   0   24.95    1.29
  -8   1   0   23.98    1.39
   8   1   0   25.76    1.41
   8   1   0   25.60    1.32
  -8  -1   0   26.26    1.41
   8  -1   0   25.93    1.32
   8  -1   0   24.90    1.21
   8   2   0    4.24    0.48
   8   2   0    3.75    0.50
   8  -2   0    3.95    0.49
  -8  -2   0    5.21    0.63
   8  -2   0    4.81    0.61
   8   2   0    4.04    0.59
   8  -2   0    5.00    0.38
  -8  -3   0   -0.33    0.36
   8   3   0   -0.33    0.28
   8   3   0    0.18    0.30
   8  -3   0   -0.06    0.27
   8  -3   0    0.10    0.36
  -8  -4   0   24.69    1.48
   8  -4   0   25.79    1.43
   8   4   0   28.27    1.50
   8  -4   0   24.83    1.41
   8   4   0   27.33    1.44
   8   5   0   49.55    2.46
  -8  -5   0   48.64    2.41
   8  -5   0   52.74    2.34
   8  -5   0   45.15    2.34
   8   5   0   47.55    2.33
   8  -6   0   14.54    0.94
   8  -6   0   12.17    0.95
   8   6   0   11.65    1.12
  -8  -6   0   12.44    1.08
   8   6   0   12.86    0.98
  -8  -7   0   -0.16    0.52
   8  -7   0   -0.27    0.40
   8   7   0    0.34    0.41
  -8  -7   0    0.17    0.40
   8   7   0    0.23    0.61
  -8  -8   0    4.47    0.74
   8   8   0    3.87    0.67
   8   8   0    2.30    0.80
   8  -8   0    2.93    0.61
  -8  -8   0    3.70    0.67
  -8  -9   0   11.65    1.13
   8  -9   0   11.62    1.11
   8   9   0    9.30    1.32
   8   9   0   12.42    1.11
  -8  -9   0   11.43    1.08
  -8 -10   0   12.79    1.16
   8  10   0   16.45    1.66
   8 -10   0   15.72    1.27
   8  10   0   13.87    1.20
  -8 -10   0   15.32    1.39
   8 -11   0    4.60    0.87
  -8 -11   0    3.47    0.90
   8  11   0    2.52    0.77
   8  11   0    4.32    1.12
  -8 -11   0    4.13    0.85
   9   0   0   -0.18    0.43
  -9   0   0   -0.67    0.40
   9   0   0    0.53    0.31
   9   0   0   -0.19    0.23
   9   1   0    0.14    0.31
  -9  -1   0    0.45    0.41
   9  -1   0    0.27    0.40
   9  -1   0    0.04    0.29
   9   1   0    0.00    0.29
   9   1   0   -0.19    0.40
  -9   1   0   -0.45    0.40
   9  -1   0   -0.08    0.20
   9  -2   0   -0.11    0.38
   9   2   0    0.19    0.31
   9  -2   0    0.15    0.32
   9   2   0   -0.43    0.33
  -9  -2   0    0.22    0.49
  -9   2   0   -0.62    0.36
   9   3   0    0.05    0.33
   9  -3   0   -0.06    0.33
   9  -3   0    0.63    0.45
   9   3   0   -0.02    0.36
  -9  -3   0    0.07    0.45
   9  -4   0    0.24    0.35
  -9  -4   0    0.48    0.49
   9   4   0    0.40    0.40
   9   4   0   -0.23    0.37
   9  -4   0    0.22    0.38
   9   5   0    0.10    0.53
   9  -5   0    0.01    0.42
  -9  -5   0    0.17    0.49
   9   5   0    0.04    0.42
   9  -5   0    0.03    0.37
   9  -6   0   -0.41    0.40
   9  -6   0   -0.21    0.44
   9   6   0   -0.42    0.56
   9   6   0   -0.08    0.38
  -9  -6   0    0.04    0.51
   9  -7   0    0.24    0.52
  -9  -7   0   -0.19    0.53
   9   7   0    0.14    0.45
   9   7   0   -0.02    0.60
  -9  -8   0    0.25    0.54
   9   8   0    0.08    0.55
  -9  -8   0   -0.70    0.58
   9   8   0   -0.70    0.63
   9  -8   0   -0.29    0.52
  -9  -9   0   -0.46    0.72
   9  -9   0   -0.43    0.50
   9   9   0    1.06    0.88
  -9  -9   0   -0.42    0.53
   9   9   0   -0.58    0.55
   9  10   0   -0.06    0.83
  -9 -10   0    0.15    0.61
  -9 -10   0    0.92    0.74
   9 -10   0    0.37    0.57
   9  10   0   -0.29    0.63
  10   0   0    1.23    0.53
  10   0   0    0.67    0.42
 -10   0   0    1.61    0.53
  10   0   0    1.03    0.34
 -10  -1   0    0.13    0.46
  10  -1   0   -0.21    0.44
  10   1   0    0.55    0.37
  10  -1   0    0.63    0.37
 -10   1   0    0.82    0.46
  10   1   0    0.30    0.54
  10   1   0   -0.02    0.33
  10  -2   0    6.39    0.67
  10   2   0    5.68    0.65
 -10  -2   0    9.51    0.90
  10   2   0    5.68    0.66
  10  -2   0    7.07    0.85
 -10   2   0    4.44    0.69
  10   3   0   11.45    0.93
 -10   3   0    8.26    0.87
  10  -3   0   13.52    1.08
  10  -3   0   11.49    0.88
 -10  -3   0    9.92    1.00
  10   3   0    9.13    0.84
 -10  -4   0    1.39    0.59
  10  -4   0    0.37    0.51
  10   4   0    0.36    0.45
  10   4   0    1.38    0.55
  10  -4   0   -0.29    0.45
  10  -5   0    4.85    0.72
  10   5   0    4.34    0.79
  10  -5   0    5.67    0.73
  10   5   0    5.21    0.68
 -10  -5   0    7.31    0.88
  10   6   0    3.70    0.83
  10  -6   0    2.65    0.60
  10   6   0    3.51    0.61
 -10  -6   0    2.34    0.69
  10  -7   0   20.21    1.39
  10   7   0   21.78    1.71
  10   7   0   19.62    1.37
 -10  -7   0   23.26    1.56
  10   8   0    0.70    0.75
 -10  -8   0   -0.71    0.66
  10  -8   0   -0.55    0.56
  10   8   0   -0.53    0.55
 -10  -8   0    0.11    0.55
 -10  -9   0   10.80    1.19
  10  -9   0   11.31    1.10
 -10  -9   0   10.03    1.06
  10   9   0    8.29    1.00
  10   9   0   10.03    1.34
  10  10   0    1.24    0.73
 -10 -10   0    0.18    0.57
  10 -10   0    0.07    0.62
 -10 -10   0    1.97    0.96
  10  10   0    0.62    1.01
  11   0   0   -0.23    0.57
  11   0   0    0.23    0.41
 -11   0   0    0.45    0.50
  11   1   0    0.82    0.55
  11  -1   0    0.32    0.54
  11  -1   0   -0.18    0.42
  11   1   0    0.01    0.43
 -11  -1   0   -0.22    0.50
 -11   1   0    0.06    0.48
  11   2   0    0.41    0.43
  11  -2   0    0.22    0.47
  11  -2   0   -0.43    0.54
  11   2   0    0.27    0.43
 -11   2   0   -0.12    0.49
 -11  -2   0   -0.06    0.52
  11  -3   0    0.33    0.48
  11  -3   0   -0.45    0.54
 -11  -3   0    0.60    0.56
  11   3   0   -0.37    0.46
 -11   3   0    0.39    0.52
  11   3   0    0.17    0.43
  11  -4   0    0.14    0.57
  11   4   0   -0.07    0.46
  11  -4   0   -0.98    0.40
  11   4   0    0.25    0.45
 -11   4   0    0.08    0.49
 -11  -4   0    0.56    0.64
  11   5   0    0.78    0.63
 -11  -5   0    0.65    0.63
  11  -5   0    0.12    0.54
  11   5   0    0.63    0.51
  11   6   0   -0.19    0.48
  11   6   0   -0.34    0.67
  11  -6   0   -0.07    0.49
 -11  -6   0   -0.36    0.65
  11  -7   0   -0.36    0.51
 -11  -7   0    1.23    0.70
  11   7   0    0.16    0.59
  11   7   0    0.84    0.80
 -11  -8   0   -1.01    0.81
  11   8   0    0.06    0.75
  11  -8   0   -0.76    0.61
 -11  -8   0   -0.13    0.57
  11   8   0   -0.56    0.60
  11  -9   0   -1.36    0.60
 -11  -9   0   -0.73    0.59
  11   9   0    0.05    0.96
 -11  -9   0   -0.12    0.87
  11   9   0   -0.24    0.64
  12   0   0  270.37   11.35
  12   0   0  267.08   11.22
 -12   0   0  255.48   11.30
  12  -1   0    0.59    0.60
 -12   1   0    2.40    0.70
  12   1   0    1.03    0.54
  12   1   0    0.20    0.72
  12  -1   0    0.48    0.47
 -12  -1   0    1.01    0.70
 -12   2   0   90.17    4.26
  12  -2   0   92.15    4.24
  12   2   0   90.86    4.21
  12  -2   0   92.06    4.35
 -12  -2   0   96.03    4.38
 -12   3   0    0.16    0.49
 -12  -3   0    0.72    0.67
  12  -3   0   -0.29    0.61
  12  -3   0   -0.65    0.50
  12   3   0    0.51    0.54
  12   3   0    0.14    0.52
  12   4   0  142.89    6.47
 -12  -4   0  149.48    6.62
  12  -4   0  145.58    6.52
  12   4   0  151.45    6.57
 -12   4   0  138.81    6.44
  12  -4   0  156.35    6.59
  12  -5   0    1.48    0.62
  12   5   0    3.16    0.73
 -12  -5   0    1.96    0.82
  12   5   0    3.03    0.84
 -12  -6   0   12.36    1.29
  12   6   0   13.26    1.33
  12  -6   0   15.15    1.30
  12   6   0   11.73    1.11
  12   7   0   -0.17    0.80
 -12  -7   0    0.84    0.81
  12  -7   0   -0.45    0.61
  12   7   0   -0.40    0.55
  12  -8   0   21.73    1.57
  12   8   0   21.94    1.56
 -12  -8   0   23.81    1.80
 -12  -8   0   19.85    1.54
 -13   0   0   -0.72    0.58
  13   0   0    0.00    0.56
  13   0   0    0.46    0.70
  13  -1   0    0.72    0.75
 -13  -1   0    0.18    0.73
  13  -1   0    0.31    0.53
 -13   1   0   -0.09    0.66
  13   1   0    0.05    0.50
  13  -2   0    0.41    0.59
 -13  -2   0   -0.40    0.64
 -13   2   0    0.17    0.64
  13   2   0    0.29    0.52
  13  -2   0   -0.29    0.61
  13  -3   0   -0.59    0.61
  13  -3   0   -0.60    0.53
 -13  -3   0    0.33    0.72
 -13   3   0    0.09    0.60
  13   3   0    0.54    0.54
  13  -4   0    0.09    0.60
 -13  -4   0    0.10    0.74
  13   4   0    0.38    0.63
  13   5   0   -0.09    0.65
 -13  -5   0    0.48    0.82
  13  -5   0    0.89    0.63
  13   5   0   -0.75    0.71
  13   6   0    0.12    0.67
  13  -6   0   -0.17    0.59
 -13  -6   0   -0.02    0.79
  13   6   0    0.71    0.82
  13   7   0   -1.02    0.65
  13   7   0    0.20    0.80
  13  -7   0   -0.42    0.61
 -13  -7   0   -0.84    0.93
  14   0   0   -0.31    0.84
 -14   0   0    0.06    0.69
  14   0   0   -0.10    0.55
  14   1   0   -1.07    0.53
 -14  -1   0   -0.49    0.71
 -14   1   0    0.05    0.71
  14  -1   0    0.62    0.60
  14  -1   0   -0.07    0.82
  14  -2   0    8.43    1.18
  14  -2   0    8.80    1.09
 -14   2   0    7.22    0.96
 -14  -2   0    5.93    1.06
  14   2   0    9.20    1.07
  14   3   0    6.93    0.93
  14  -3   0    9.37    1.11
 -14  -3   0    7.41    1.14
  14  -3   0    5.47    1.09
 -14  -4   0    1.08    0.89
  14   4   0   -0.60    0.57
  14  -4   0    0.34    0.62
  14   5   0    5.56    0.99
 -14  -5   0    5.21    1.14
  14  -5   0    6.28    0.98
  14  -6   0    4.83    0.90
  14   6   0    6.71    1.05
 -14  -6   0    4.71    1.08
  15   0   0   -0.51    0.68
 -15   0   0    0.88    0.86
  15  -1   0   -0.39    0.62
  15  -1   0    1.33    0.96
 -15  -1   0   -0.39    0.87
  15   1   0    0.66    0.66
 -15   1   0   -0.14    0.70
  15   2   0    0.26    0.64
 -15  -2   0    0.36    0.91
  15  -2   0   -1.51    0.84
 -15   2   0   -0.59    0.75
  15  -2   0   -0.06    0.66
  15   3   0   -0.28    0.70
  15  -3   0    0.06    0.67
 -15  -3   0   -0.71    0.97
  15  -4   0    0.73    0.72
  15   4   0   -0.64    0.64
 -15  -4   0    0.50    0.93
 -15  -5   0   -0.82    0.93
  16   0   0   17.99    1.54
 -16   0   0   16.91    1.63
 -16  -1   0    4.96    1.09
 -16   1   0    3.99    0.93
  16  -1   0    3.52    0.96
  16   1   0    2.91    0.91
  16   2   0    9.81    1.16
  16  -2   0    8.30    1.12
 -16  -2   0    7.97    1.38
   0   0   1    0.05    0.02
   0   0  -1    0.01    0.02
   0   0   1    0.20    0.02
   0   0  -1    0.03    0.02
   0   1  -1   16.22    0.76
   0  -1  -1   15.52    0.71
   0  -1  -1   16.45    0.69
   0   1  -1   16.80    0.71
   0  -1   1   16.19    0.71
   0  -2  -1    0.09    0.08
   0   2  -1   -0.08    0.14
   0  -2   1    0.12    0.10
   0  -2   1    0.10    0.07
   0   2   1    0.19    0.10
   0  -2  -1    0.14    0.11
   0   3  -1   37.65    1.70
   0  -3   1   35.74    1.57
   0   3   1   35.67    1.64
   0  -3  -1   36.65    1.60
   0  -3  -1   36.20    1.60
   0  -3   1   38.54    1.63
   0   4   1    0.03    0.17
   0  -4  -1   -0.10    0.14
   0  -4   1    0.11    0.13
   0   4  -1    0.01    0.22
   0  -4   1   -0.13    0.14
   0  -4  -1    0.26    0.15
   0  -5   1   66.72    2.96
   0  -5  -1   71.10    2.99
   0   5  -1   68.76    3.13
   0   5   1   70.02    3.08
   0  -5   1   69.75    3.03
   0  -5  -1   69.89    3.01
   0  -6   1    0.64    0.22
   0  -6  -1    0.08    0.23
   0  -6  -1    0.19    0.25
   0  -6   1   -0.09    0.23
   0   6   1   -0.11    0.26
   0   6  -1    0.11    0.31
   0  -7   1   35.73    1.72
   0   7  -1   35.10    1.87
   0   7   1   34.38    1.81
   0  -7   1   33.01    1.60
   0  -7  -1   35.10    1.65
   0  -7  -1   33.92    1.68
   0   8  -1    0.10    0.45
   0  -8   1    0.24    0.30
   0  -8  -1   -0.26    0.29
   0  -8   1    0.87    0.41
   0   8   1    0.71    0.47
   0  -8  -1   -0.13    0.30
   0  -9   1   18.62    1.08
   0   9  -1   18.06    1.43
   0  -9  -1   17.18    1.11
   0   9   1   19.31    1.38
   0  -9   1   16.82    1.21
   0  -9  -1   18.12    1.13
   0 -10  -1    0.28    0.41
   0 -10   1    0.50    0.50
   0 -10  -1   -0.36    0.42
   0  10   1    0.56    0.57
   0  10  -1   -0.82    0.55
   0 -10   1    0.45    0.42
   0 -11  -1    1.86    0.60
   0  11   1    1.78    0.76
   0 -11   1    0.82    0.56
   0 -11  -1    2.29    0.54
   0  11  -1    0.35    0.71
   0 -12  -1    0.11    0.59
   0 -12   1    0.00    0.62
   0  12  -1   -0.78    0.72
   0  12   1    0.20    0.80
   0 -12  -1    0.84    0.58
   0 -13  -1    1.48    0.70
   0 -13   1    0.51    0.73
   0  13   1    1.43    0.96
   0  13  -1   -0.63    0.79
   1   0   1    1.05    0.08
   1   0  -1    1.03    0.09
   1  -1  -1    0.53    0.09
  -1   1  -1    0.61    0.11
   1   1   1    0.55    0.10
   1  -1  -1    0.65    0.09
  -1  -1   1    0.58    0.10
   1   1   1    0.62    0.08
   1   1  -1    0.45    0.12
   1   1  -1    0.71    0.10
   1   1  -1    0.73    0.11
   1  -1   1    0.40    0.10
  -1  -1  -1    0.64    0.09
   1   2   1    0.13    0.09
  -1  -2   1    0.14    0.09
  -1   2  -1   -0.06    0.13
   1  -2  -1    0.05    0.09
  -1  -2   1    0.01    0.11
   1  -2  -1   -0.08    0.09
   1   2   1    0.31    0.13
  -1  -2  -1    0.08    0.09
   1  -2   1   -0.02    0.10
   1   2  -1   -0.02    0.10
  -1  -2  -1   -0.03    0.08
   1   2  -1    0.05    0.15
  -1   2   1    0.08    0.08
  -1   3  -1   10.98    0.69
   1  -3  -1   12.48    0.60
  -1  -3   1   13.57    0.64
  -1  -3   1   12.03    0.60
   1   3   1   12.05    0.60
   1   3   1   10.71    0.64
   1  -3  -1   11.98    0.62
  -1  -3  -1   11.94    0.60
   1  -3   1   11.62    0.63
  -1  -3  -1   13.16    0.63
  -1   3   1   12.47    0.63
   1   3  -1   11.65    0.69
   1   3  -1   12.24    0.63
   1  -3   1   12.34    0.57
  -1   4  -1    0.41    0.23
   1   4   1    0.57    0.22
  -1  -4   1    0.53    0.15
   1   4   1    0.43    0.16
   1  -4  -1    0.78    0.19
  -1  -4   1    0.48    0.18
   1  -4  -1    0.85    0.18
  -1  -4  -1    0.27    0.17
  -1   4   1    0.87    0.22
  -1  -4  -1    0.71    0.18
   1  -4   1    0.48    0.19
   1  -4   1    0.80    0.16
   1   4  -1    1.16    0.28
   1   4  -1    0.66    0.19
   1   5   1   10.35    0.72
   1  -5  -1   10.74    0.65
  -1  -5   1   10.84    0.62
  -1   5  -1   10.44    0.75
   1  -5  -1   10.67    0.61
  -1  -5   1    9.92    0.67
   1  -5   1   11.15    0.69
  -1  -5  -1   10.66    0.65
  -1  -5  -1   10.97    0.64
   1   5  -1   10.93    0.76
   1  -5   1   10.71    0.58
  -1   5   1   11.27    0.69
   1  -6  -1    0.56    0.24
  -1  -6   1    0.24    0.19
  -1   6  -1    0.43    0.34
   1  -6  -1    0.09    0.22
  -1  -6   1   -0.09    0.26
   1   6   1    0.30    0.29
  -1   6   1    0.38    0.31
   1  -6   1    0.03    0.24
  -1  -6  -1   -0.01    0.23
   1   6  -1    0.07    0.32
  -1  -6  -1   -0.01    0.23
   1  -6   1    0.08    0.19
   1   7   1   16.19    1.07
  -1  -7   1   15.22    0.96
   1  -7  -1   14.79    0.92
  -1  -7   1   15.40    0.90
  -1   7  -1   15.73    1.13
   1  -7  -1   15.91    0.91
  -1  -7  -1   15.26    0.92
  -1   7   1   15.69    1.03
   1  -7   1   16.87    1.00
   1  -7   1   16.93    0.87
   1   7  -1   13.82    1.10
  -1  -7  -1   16.71    0.92
   1  -8  -1    0.14    0.31
   1  -8  -1    0.03    0.32
  -1  -8   1    0.96    0.37
   1   8   1    0.25    0.44
  -1  -8   1    0.27    0.28
  -1   8  -1    0.01    0.44
   1  -8   1    0.45    0.27
   1   8  -1   -0.47    0.42
   1  -8   1    0.47    0.35
  -1  -8  -1   -0.21    0.34
  -1  -8  -1    0.25    0.32
  -1   8   1    0.00    0.44
  -1  -9   1    7.01    0.75
   1   9   1    7.79    0.94
  -1   9  -1    7.07    0.91
   1  -9  -1    7.55    0.68
   1  -9  -1    6.55    0.69
  -1  -9   1    8.18    0.71
  -1   9   1    8.07    0.91
   1   9  -1    7.66    0.98
   1  -9   1    5.99    0.71
  -1  -9  -1    7.84    0.74
  -1  -9  -1    7.36    0.74
   1  -9   1    9.11    0.69
   1 -10  -1    0.32    0.46
  -1 -10   1   -0.03    0.43
   1  10   1    0.74    0.68
  -1 -10   1   -0.10    0.46
  -1  10  -1   -0.08    0.60
   1 -10  -1   -0.19    0.41
  -1 -10  -1    0.09    0.42
   1 -10   1    0.00    0.42
  -1  10   1   -0.87    0.53
   1 -10   1   -0.86    0.45
  -1 -10  -1    0.30    0.43
   1  10  -1    0.02    0.67
   1 -11  -1    6.00    0.83
   1  11   1    7.78    1.15
   1 -11  -1    8.11    0.82
  -1 -11   1    7.86    0.95
  -1  11  -1    8.25    1.12
  -1 -11   1    8.04    0.82
   1  11  -1    6.12    1.15
  -1  11   1    7.94    1.12
  -1 -11  -1    8.06    0.92
   1 -11   1    7.75    0.96
  -1 -11  -1    8.08    0.83
  -1 -12   1    0.97    0.68
   1  12   1    0.73    0.86
  -1  12  -1   -0.66    0.76
   1 -12  -1   -0.02    0.56
   1 -12   1    0.22    0.62
  -1 -12  -1    0.56    0.63
  -1 -12  -1    0.51    0.52
  -1  12   1   -0.33    0.74
   1  12  -1    0.69    0.92
   1 -13  -1    2.22    0.74
   1  13   1    0.44    0.87
  -1  13  -1    3.18    1.05
  -1 -13   1    1.20    0.76
   1 -13   1    2.50    0.80
   1  13  -1    2.68    1.05
  -1  13   1    1.25    0.94
  -1 -13  -1    0.96    0.69
   2   0   1    4.99    0.29
   2   0  -1    4.96    0.28
   2   0  -1    5.24    0.32
   2   0   1    5.71    0.29
   2   0   1    4.64    0.27
  -2   0  -1    5.24    0.29
   2   1   1    0.18    0.08
  -2   1  -1    0.15    0.10
  -2  -1   1    0.45    0.15
   2  -1  -1    0.09    0.10
   2   1   1    0.03    0.10
   2  -1  -1    0.28    0.10
   2   1  -1    0.18    0.12
   2   1  -1    0.13    0.09
   2   1  -1    0.17    0.13
   2  -1   1    0.16    0.11
   2  -1   1    0.25    0.11
  -2  -1  -1    0.18    0.11
   2   2   1   64.21    2.79
  -2  -2   1   65.76    2.77
   2  -2  -1   65.38    2.77
  -2   2  -1   65.84    2.79
   2  -2  -1   67.66    2.75
   2   2   1   64.75    2.75
  -2  -2  -1   64.35    2.77
   2   2  -1   65.81    2.77
   2  -2   1   67.26    2.78
   2   2  -1   62.40    2.80
   2   3   1    3.43    0.29
   2  -3  -1    3.93    0.30
  -2  -3   1    3.93    0.30
  -2   3  -1    3.71    0.37
   2   3   1    3.30    0.34
  -2  -3   1    3.90    0.34
   2  -3  -1    3.42    0.31
  -2  -3  -1    3.23    0.29
   2   3  -1    3.69    0.38
  -2   3   1    3.57    0.31
   2   3  -1    3.85    0.33
   2  -3   1    3.86    0.34
   2  -3   1    3.81    0.24
  -2  -3  -1    4.11    0.33
   2   4   1    5.89    0.51
   2   4   1    4.64    0.37
  -2  -4   1    4.46    0.42
  -2  -4   1    5.24    0.39
   2  -4  -1    5.18    0.36
  -2   4  -1    5.30    0.50
   2  -4  -1    5.76    0.43
   2   4  -1    4.74    0.42
  -2  -4  -1    5.48    0.39
  -2  -4  -1    5.60    0.42
  -2   4   1    6.03    0.43
   2  -4   1    6.06    0.47
   2  -4   1    5.54    0.33
   2   4  -1    6.18    0.54
   2   5   1    3.67    0.49
  -2  -5   1    3.43    0.36
  -2  -5   1    3.40    0.39
   2  -5  -1    3.14    0.33
   2  -5  -1    3.05    0.38
   2   5   1    3.31    0.35
  -2   5  -1    3.98    0.47
   2   5  -1    3.40    0.48
  -2  -5  -1    3.68    0.36
  -2  -5  -1    4.35    0.41
   2  -5   1    3.49    0.29
  -2   5   1    3.36    0.38
   2  -5   1    3.38    0.39
   2   5  -1    2.84    0.36
  -2  -6   1   26.63    1.24
   2  -6  -1   24.07    1.27
   2   6   1   23.45    1.25
  -2   6  -1   26.77    1.39
   2  -6  -1   23.91    1.20
  -2  -6   1   26.48    1.32
   2   6   1   25.84    1.39
   2  -6   1   24.55    1.30
   2   6  -1   25.99    1.43
   2   6  -1   23.57    1.28
  -2   6   1   27.20    1.36
  -2  -6  -1   26.05    1.28
  -2  -6  -1   24.55    1.25
   2  -6   1   23.31    1.16
  -2  -7   1    4.45    0.54
   2  -7  -1    5.31    0.49
  -2   7  -1    4.96    0.65
   2   7   1    4.60    0.64
  -2  -7   1    5.81    0.55
   2  -7  -1    5.64    0.55
   2  -7   1    6.61    0.48
   2  -7   1    5.11    0.56
  -2  -7  -1    5.27    0.57
  -2   7   1    6.90    0.71
  -2  -7  -1    6.29    0.58
   2   7  -1    5.31    0.71
  -2   8  -1    9.82    0.93
   2  -8  -1    8.10    0.67
   2   8   1    8.27    0.88
  -2  -8   1    7.47    0.73
  -2  -8   1    8.11    0.70
   2  -8  -1   10.14    0.80
   2  -8   1    6.35    0.69
  -2   8   1    6.66    0.79
  -2  -8  -1    9.09    0.74
  -2  -8  -1    9.11    0.77
   2  -8   1    7.73    0.59
   2   8  -1    6.39    0.86
  -2   9  -1    3.61    0.70
   2  -9  -1    4.92    0.56
   2  -9  -1    3.19    0.55
   2   9   1    3.08    0.69
  -2  -9   1    4.59    0.64
  -2  -9   1    4.10    0.54
  -2  -9  -1    4.31    0.59
   2   9  -1    3.12    0.76
  -2  -9  -1    5.03    0.66
  -2   9   1    3.13    0.66
   2  -9   1    3.78    0.61
   2  -9   1    4.48    0.48
   2 -10  -1    3.38    0.56
   2 -10  -1    3.44    0.64
  -2  10  -1    3.19    0.74
   2  10   1    3.14    0.84
  -2 -10   1    3.35    0.57
  -2 -10   1    2.76    0.67
   2  10  -1    4.93    0.98
  -2  10   1    3.01    0.74
   2 -10   1    4.33    0.72
  -2 -10  -1    3.57    0.62
  -2 -10  -1    3.90    0.66
   2 -11  -1    2.86    0.66
   2 -11  -1    2.71    0.58
  -2 -11   1    3.68    0.65
  -2 -11   1    3.36    0.75
   2  11   1    2.13    0.89
  -2  11  -1    1.13    0.74
   2  11  -1    2.57    0.88
  -2 -11  -1    3.52    0.69
   2 -11   1    2.56    0.64
  -2  11   1    1.81    0.77
  -2 -11  -1    2.56    0.67
  -2  12  -1   11.15    1.34
   2  12   1   12.63    1.53
  -2 -12   1   10.39    1.13
   2 -12  -1    8.51    1.00
   2 -12   1    9.17    1.06
  -2  12   1   10.05    1.30
  -2 -12  -1    9.68    0.99
  -2 -12  -1   11.26    1.12
   2  12  -1   10.83    1.44
   3   0  -1    9.54    0.53
   3   0   1    9.20    0.49
   3   0   1    9.16    0.48
   3   0   1    9.24    0.47
  -3   0  -1    9.50    0.49
   3   0  -1    9.23    0.48
   3  -1  -1    0.54    0.13
   3  -1  -1    0.97    0.18
  -3  -1   1    0.72    0.19
   3   1   1    1.05    0.15
   3   1   1    0.79    0.16
   3   1  -1    1.26    0.21
  -3  -1  -1    1.06    0.18
   3  -1   1    0.83    0.14
   3  -1   1    0.83    0.16
   3  -1   1    0.78    0.15
   3   1  -1    1.10    0.17
   3   1  -1    1.15    0.17
   3   2   1  389.17   15.96
   3  -2  -1  371.06   15.98
  -3   2  -1  372.38   15.96
   3   2   1  394.59   16.01
   3  -2  -1  397.47   15.97
  -3  -2   1  378.92   16.00
  -3  -2  -1  377.44   15.98
   3  -2   1  394.89   15.98
   3   2  -1  405.06   16.03
   3   2  -1  390.39   15.99
   3  -2   1  400.14   15.94
   3  -2   1  391.07   15.99
   3   2  -1  392.97   16.02
   3  -3  -1   -0.01    0.14
   3   3   1    0.02    0.17
  -3  -3   1    0.30    0.17
  -3   3  -1    0.11    0.15
   3   3   1   -0.13    0.13
   3  -3  -1    0.23    0.16
   3   3  -1    0.08    0.17
  -3  -3  -1    0.37    0.18
   3  -3   1    0.16    0.11
  -3   3   1    0.15    0.13
   3  -3   1    0.10    0.16
   3   3  -1    0.25    0.20
  -3  -4   1    9.78    0.62
   3  -4  -1    9.67    0.59
  -3  -4   1    9.37    0.58
   3   4   1   10.61    0.58
   3  -4  -1    8.85    0.55
  -3   4  -1    9.46    0.62
   3   4   1    9.78    0.67
   3   4  -1    9.10    0.59
  -3  -4  -1   10.10    0.59
   3   4  -1    9.73    0.68
   3  -4   1    8.74    0.49
  -3  -4  -1   10.03    0.59
   3  -4   1    9.56    0.60
  -3   4   1    7.95    0.57
   3  -5  -1    0.70    0.25
  -3   5  -1    0.81    0.29
  -3  -5   1    0.46    0.25
   3  -5  -1    0.78    0.21
   3   5   1    0.76    0.23
  -3  -5   1    0.90    0.26
   3   5   1    1.34    0.35
  -3  -5  -1    0.91    0.27
  -3  -5  -1    0.73    0.26
   3   5  -1    0.75    0.34
  -3   5   1    0.56    0.24
   3   5  -1    0.98    0.28
   3  -5   1    0.67    0.26
   3  -5   1    0.99    0.19
  -3  -6   1  215.58    8.81
  -3   6  -1  197.44    8.89
   3   6   1  209.44    8.81
   3   6   1  206.46    8.95
   3  -6  -1  211.90    8.83
  -3  -6   1  209.40    8.85
   3  -6  -1  210.59    8.76
  -3  -6  -1  216.27    8.83
   3  -6   1  214.99    8.72
   3   6  -1  208.58    8.98
   3  -6   1  209.90    8.85
   3   6  -1  209.30    8.84
  -3   6   1  208.99    8.87
  -3  -6  -1  215.91    8.83
   3  -7  -1    0.15    0.31
   3   7   1    0.42    0.31
  -3   7  -1    0.45    0.37
  -3  -7   1   -0.01    0.30
   3   7   1    0.25    0.44
  -3  -7   1    0.56    0.30
   3  -7  -1   -0.14    0.26
  -3  -7  -1   -0.32    0.28
   3  -7   1   -0.14    0.30
   3  -7   1    0.24    0.23
  -3   7   1   -0.17    0.33
   3   7  -1    0.30    0.42
   3   7  -1    0.13    0.28
  -3  -7  -1   -0.43    0.29
  -3   8  -1    1.98    0.53
  -3  -8   1    1.81    0.46
   3   8   1    1.61    0.56
  -3  -8   1    2.08    0.48
   3  -8  -1    2.39    0.45
   3  -8  -1    3.01    0.44
  -3   8   1    2.91    0.56
   3   8  -1    3.09    0.66
   3  -8   1    2.58    0.38
  -3  -8  -1    1.88    0.46
  -3  -8  -1    2.18    0.47
   3  -8   1    3.07    0.54
  -3  -9   1    0.61    0.41
   3   9   1    0.39    0.55
   3  -9  -1    0.27    0.36
  -3   9  -1    0.23    0.46
  -3  -9   1    1.06    0.46
   3  -9  -1    0.70    0.44
   3  -9   1    0.92    0.49
  -3  -9  -1    0.95    0.48
  -3   9   1    0.99    0.54
   3   9  -1    0.18    0.60
  -3  -9  -1    0.99    0.45
   3  10   1   81.61    4.05
   3 -10  -1   81.23    3.69
  -3 -10   1   83.83    3.85
  -3  10  -1   83.37    3.98
   3 -10  -1   85.64    3.82
  -3 -10   1   82.97    3.75
   3 -10   1   83.04    3.84
  -3  10   1   82.74    3.96
   3  10  -1   83.42    4.14
  -3 -10  -1   80.11    3.76
  -3 -10  -1   81.12    3.81
   3 -11  -1    0.50    0.49
  -3  11  -1    0.68    0.68
  -3 -11   1    0.80    0.61
  -3 -11   1   -0.11    0.46
   3  11   1    0.57    0.73
   3  11  -1    0.74    0.80
  -3 -11  -1   -0.07    0.56
  -3 -11  -1   -0.17    0.53
   3 -11   1   -0.37    0.55
  -3  11   1    0.19    0.66
  -3 -12   1    0.39    0.61
   3  12   1   -0.34    0.75
  -3 -12   1   -0.12    0.68
  -3  12  -1   -0.20    0.74
   3 -12  -1    0.42    0.52
  -3 -12  -1    0.34    0.59
   3 -12   1   -0.41    0.62
   3  12  -1    0.12    0.95
  -3 -12  -1   -0.54    0.60
  -4   0  -1  371.47   15.29
   4   0   1  368.85   15.29
   4   0   1  364.86   15.27
   4   0  -1  371.52   15.28
   4   0   1  380.24   15.27
   4   0  -1  365.05   15.33
   4   0  -1  378.60   15.23
   4   1   1    8.11    0.46
   4  -1  -1    7.65    0.47
  -4   1  -1    7.96    0.50
   4  -1  -1    7.24    0.49
   4   1   1    8.64    0.49
  -4  -1   1    7.38    0.52
   4   1  -1    8.03    0.46
   4   1  -1    8.42    0.54
   4   1  -1    7.58    0.47
   4  -1   1    9.07    0.48
  -4  -1  -1    7.64    0.49
   4  -1   1    8.51    0.44
   4  -1   1    7.25    0.47
   4  -2  -1    6.05    0.43
  -4  -2   1    5.97    0.46
   4  -2  -1    5.69    0.40
   4   2   1    5.37    0.42
   4   2   1    5.71    0.39
  -4   2  -1    5.80    0.36
  -4  -2  -1    5.91    0.43
   4  -2   1    6.10    0.37
   4   2  -1    5.17    0.47
   4   2  -1    5.50    0.40
   4   2  -1    5.01    0.43
   4  -2   1    5.80    0.41
   4  -2   1    5.62    0.38
  -4  -3   1    2.50    0.36
   4  -3  -1    3.54    0.34
  -4   3  -1    4.27    0.33
   4   3   1    3.33    0.40
   4   3   1    3.73    0.35
   4  -3  -1    4.24    0.38
   4  -3   1    4.57    0.38
   4  -3   1    4.66    0.33
   4   3  -1    4.64    0.40
  -4   3   1    4.03    0.28
   4   3  -1    3.34    0.41
   4  -3   1    4.22    0.39
  -4  -3  -1    4.07    0.38
   4  -4  -1  179.41    7.48
  -4   4  -1  180.93    7.51
   4  -4  -1  177.53    7.52
   4   4   1  175.26    7.49
  -4  -4   1  179.06    7.53
   4   4   1  180.37    7.60
  -4  -4  -1  176.84    7.53
   4   4  -1  178.43    7.52
   4  -4   1  181.55    7.55
  -4   4   1  179.78    7.46
   4  -4   1  182.27    7.44
   4   4  -1  182.03    7.61
  -4   5  -1   25.82    1.31
   4  -5  -1   26.07    1.25
   4  -5  -1   26.19    1.32
  -4  -5   1   24.36    1.31
   4   5   1   26.74    1.41
   4   5   1   27.03    1.30
  -4  -5   1   26.65    1.31
   4   5  -1   25.13    1.42
   4  -5   1   24.77    1.32
  -4  -5  -1   27.34    1.32
  -4  -5  -1   26.54    1.31
   4   5  -1   25.78    1.32
  -4   5   1   27.08    1.29
   4  -5   1   26.31    1.21
   4   6   1   11.06    0.72
  -4  -6   1   10.53    0.74
   4   6   1   10.63    0.85
   4  -6  -1   10.93    0.73
   4  -6  -1   10.89    0.66
  -4   6  -1   11.23    0.77
  -4  -6   1    9.91    0.76
  -4   6   1    8.89    0.69
  -4  -6  -1   10.44    0.74
   4   6  -1   10.18    0.72
   4  -6   1   10.56    0.61
   4  -6   1    9.37    0.76
   4   6  -1    7.67    0.83
  -4  -6  -1    9.66    0.74
   4   7   1    4.69    0.70
  -4  -7   1    5.64    0.63
   4   7   1    5.80    0.60
  -4   7  -1    5.93    0.65
  -4  -7   1    6.80    0.62
   4  -7  -1    5.47    0.58
   4  -7  -1    5.97    0.53
   4   7  -1    4.98    0.79
  -4  -7  -1    5.77    0.61
   4  -7   1    5.56    0.46
  -4   7   1    5.77    0.63
  -4  -7  -1    6.76    0.65
   4  -7   1    4.89    0.57
   4   7  -1    5.40    0.59
   4  -8  -1   17.15    1.18
   4   8   1   18.29    1.16
   4   8   1   21.36    1.41
  -4   8  -1   20.25    1.27
  -4  -8   1   19.85    1.17
   4  -8  -1   20.00    1.10
  -4  -8   1   18.39    1.20
   4   8  -1   18.95    1.18
   4  -8   1   19.90    1.23
  -4   8   1   19.49    1.22
   4   8  -1   18.33    1.39
  -4  -8  -1   21.95    1.23
   4  -8   1   20.59    1.04
  -4  -8  -1   18.49    1.18
   4   9   1    7.52    0.98
   4  -9  -1    7.50    0.69
  -4   9  -1    7.75    0.89
  -4  -9   1    7.96    0.80
  -4  -9   1    8.87    0.90
   4  -9  -1    6.66    0.75
  -4  -9  -1    8.43    0.83
   4   9  -1    8.70    1.10
  -4   9   1    9.13    0.90
   4  -9   1    9.26    0.85
  -4  -9  -1   10.36    0.91
  -4 -10   1   31.45    1.85
  -4  10  -1   34.72    1.98
   4 -10  -1   35.27    1.87
   4  10   1   31.05    2.08
  -4 -10   1   32.63    1.80
  -4 -10  -1   34.10    1.84
   4 -10   1   33.57    1.89
  -4  10   1   31.93    1.93
  -4 -10  -1   33.31    1.82
   4  10  -1   34.40    2.20
   4 -11  -1    0.03    0.54
  -4 -11   1   -0.18    0.58
  -4  11  -1    0.52    0.69
   4  11   1   -0.17    0.72
  -4 -11   1   -0.09    0.59
   4 -11   1   -0.53    0.47
   4  11  -1   -0.46    0.77
  -4 -11  -1    0.94    0.61
  -4 -11  -1    0.06    0.62
  -4 -12   1    0.44    0.63
  -4 -12   1    1.15    0.60
   4  12   1   -0.51    0.90
   4 -12  -1    1.77    0.67
  -4 -12  -1    1.32    0.71
   4  12  -1    1.42    0.98
   4 -12   1    1.36    0.70
  -4 -12  -1    0.48    0.66
   5   0  -1    5.31    0.39
   5   0   1    5.76    0.38
   5   0  -1    4.58    0.46
  -5   0  -1    4.67    0.42
   5   0  -1    5.00    0.33
   5   0   1    4.35    0.37
   5   0   1    4.67    0.42
   5   1   1    4.66    0.44
   5   1   1    5.10    0.40
   5  -1  -1    5.51    0.43
   5   1   1    5.31    0.39
  -5   1  -1    4.96    0.44
   5  -1  -1    4.72    0.45
   5  -1  -1    5.46    0.29
  -5  -1   1    5.23    0.48
   5  -1   1    4.62    0.41
   5   1  -1    4.95    0.38
   5   1  -1    4.98    0.48
  -5  -1  -1    4.64    0.44
   5  -1   1    4.88    0.38
   5   1  -1    4.98    0.39
   5  -1   1    4.85    0.36
   5  -2  -1    0.29    0.21
   5   2   1    0.70    0.21
   5  -2  -1    0.68    0.21
  -5  -2   1    0.44    0.21
   5   2   1    0.46    0.19
   5   2  -1    0.48    0.26
   5   2  -1    0.19    0.21
  -5  -2  -1    0.17    0.22
   5  -2   1    0.17    0.18
   5   2  -1    0.30    0.19
   5  -2   1    0.24    0.16
   5  -2   1    0.18    0.19
  -5  -3   1    1.68    0.32
   5  -3  -1    1.47    0.28
   5  -3  -1    1.46    0.28
  -5   3  -1    1.11    0.21
   5   3   1    1.64    0.33
   5   3   1    1.43    0.27
   5  -3  -1    1.38    0.17
   5  -3   1    1.61    0.29
   5   3  -1    1.71    0.32
  -5  -3  -1    1.16    0.29
   5  -3   1    1.67    0.25
  -5   3   1    1.31    0.16
   5   3  -1    1.15    0.29
   5  -3   1    1.51    0.25
   5  -4  -1    2.20    0.31
  -5   4  -1    2.28    0.30
   5   4   1    2.53    0.42
   5  -4  -1    2.50    0.36
   5   4   1    3.07    0.35
  -5  -4   1    2.84    0.40
  -5   4   1    2.64    0.26
   5   4  -1    2.57    0.36
   5  -4   1    3.02    0.31
   5   4  -1    2.56    0.43
  -5  -4  -1    2.55    0.38
   5  -4   1    2.54    0.33
   5  -4   1    2.85    0.40
   5   5   1   16.21    1.05
   5  -5  -1   15.99    0.88
   5   5   1   16.37    0.93
   5  -5  -1   16.31    0.96
  -5   5  -1   15.10    0.90
  -5  -5   1   16.53    0.98
   5  -5   1   16.83    0.97
  -5   5   1   16.23    0.86
   5  -5   1   18.88    0.87
   5   5  -1   17.17    1.08
   5   5  -1   17.33    0.97
  -5  -5  -1   16.56    0.98
  -5   6  -1    0.01    0.26
   5  -6  -1   -0.03    0.27
   5   6   1   -0.21    0.36
   5  -6  -1   -0.14    0.24
   5   6   1    0.43    0.27
  -5  -6   1   -0.11    0.29
  -5  -6   1   -0.23    0.34
   5   6  -1    0.09    0.28
  -5   6   1    0.23    0.23
  -5  -6  -1   -0.08    0.25
   5  -6   1    0.08    0.20
   5  -6   1    0.12    0.31
   5   6  -1    0.47    0.43
  -5  -6  -1   -0.12    0.30
   5  -7  -1    5.28    0.62
   5   7   1    5.59    0.76
  -5   7  -1    6.07    0.61
  -5  -7   1    4.40    0.62
   5  -7  -1    4.60    0.49
   5   7   1    4.03    0.51
  -5  -7   1    5.80    0.65
  -5  -7  -1    4.95    0.58
   5  -7   1    5.23    0.46
  -5   7   1    5.10    0.56
  -5  -7  -1    4.58    0.60
   5   7  -1    5.44    0.63
   5  -7   1    5.52    0.64
   5   7  -1    5.52    0.79
  -5  -8   1    0.62    0.46
   5   8   1    0.16    0.52
   5  -8  -1   -0.01    0.36
   5   8   1    1.93    0.47
  -5   8  -1    0.81    0.41
  -5  -8   1    1.34    0.47
   5  -8  -1    0.31    0.33
  -5  -8  -1    0.72    0.43
  -5  -8  -1    0.70    0.44
  -5   8   1    0.62    0.38
   5   8  -1    1.51    0.62
   5  -8   1    1.38    0.47
   5   8  -1    1.45    0.49
   5  -9  -1   12.28    0.86
   5   9   1   11.21    1.18
  -5   9  -1    9.77    0.93
   5   9   1    9.72    0.87
  -5  -9   1   11.32    0.97
   5  -9  -1   11.58    1.00
  -5  -9   1   10.94    1.00
   5   9  -1   12.54    1.04
  -5  -9  -1    9.31    0.91
  -5  -9  -1   12.84    1.03
   5  -9   1   11.00    0.96
   5   9  -1   13.41    1.30
  -5 -10   1    0.56    0.55
  -5 -10   1   -0.21    0.54
  -5  10  -1   -0.34    0.81
   5 -10  -1   -0.20    0.50
   5  10   1    0.67    0.79
   5 -10   1   -0.57    0.50
   5  10  -1    1.86    0.81
  -5 -10  -1   -0.35    0.51
  -5 -10  -1    0.55    0.54
   5 -11  -1    2.36    0.66
   5  11   1    1.56    0.82
  -5 -11   1    3.64    0.73
  -5 -11   1    2.96    0.76
  -5 -11  -1    2.18    0.63
  -5 -11  -1    3.21    0.72
   5 -11   1    3.67    0.75
   5  11  -1    2.74    1.01
  -5 -12   1    0.53    0.66
   5 -12  -1    0.82    0.65
   5  12   1   -0.45    0.84
  -5 -12   1    0.95    0.73
  -5 -12  -1    0.92    0.69
   5  12  -1    0.80    1.00
  -5 -12  -1    0.53    0.74
   5 -12   1   -0.05    0.65
   6   0   1    9.12    0.57
   6   0  -1   10.32    0.70
   6   0  -1    9.88    0.62
  -6   0   1    8.89    0.69
   6   0   1    9.62    0.66
   6   0  -1    9.27    0.54
  -6   0  -1    8.82    0.63
   6   0   1   10.17    0.60
  -6   1  -1    2.94    0.40
   6   1   1    2.70    0.39
   6  -1  -1    2.67    0.39
   6   1   1    3.36    0.36
  -6  -1   1    2.43    0.40
   6  -1  -1    2.89    0.36
   6   1   1    3.34    0.36
   6  -1  -1    2.92    0.24
   6   1  -1    2.73    0.34
   6  -1   1    3.33    0.32
   6   1  -1    3.07    0.33
   6   1  -1    3.52    0.45
   6  -1   1    2.84    0.37
  -6  -1  -1    2.95    0.41
   6  -1   1    2.70    0.33
   6  -2  -1    5.75    0.54
   6   2   1    4.60    0.46
   6  -2  -1    5.64    0.49
   6  -2  -1    4.72    0.30
   6   2   1    5.07    0.44
  -6  -2   1    4.91    0.53
   6   2  -1    5.25    0.48
   6  -2   1    5.35    0.49
   6  -2   1    5.68    0.39
   6   2  -1    6.45    0.51
   6  -2   1    3.67    0.42
  -6  -2  -1    4.45    0.48
   6   2  -1    6.58    0.60
   6  -3  -1   25.67    1.28
   6  -3  -1   25.61    1.10
   6   3   1   24.04    1.29
   6  -3  -1   24.53    1.26
   6   3   1   24.63    1.23
  -6  -3   1   23.56    1.30
   6   3  -1   24.21    1.31
   6  -3   1   24.44    1.28
   6   3  -1   24.50    1.25
   6  -3   1   24.95    1.18
  -6  -3  -1   26.02    1.31
   6  -3   1   25.38    1.24
   6   4   1    6.60    0.65
   6  -4  -1    6.16    0.41
   6  -4  -1    6.49    0.60
  -6   4  -1    5.93    0.46
   6   4   1    7.45    0.60
   6  -4  -1    6.23    0.54
  -6  -4   1    6.22    0.62
   6   4  -1    6.26    0.65
   6   4  -1    6.33    0.57
   6  -4   1    8.52    0.68
  -6  -4  -1    6.39    0.62
   6  -4   1    6.34    0.50
   6  -4   1    7.09    0.52
  -6   4   1    6.52    0.40
  -6   5  -1    2.72    0.35
  -6  -5   1    3.38    0.50
   6  -5  -1    3.98    0.52
   6   5   1    3.10    0.44
   6  -5  -1    3.56    0.41
   6   5   1    2.78    0.51
   6  -5   1    2.81    0.38
   6   5  -1    2.67    0.42
   6  -5   1    3.10    0.47
   6  -5   1    3.04    0.38
   6   5  -1    2.86    0.53
  -6  -5  -1    2.14    0.46
  -6   5   1    2.67    0.29
  -6   6  -1    3.01    0.41
   6   6   1    4.19    0.51
  -6  -6   1    3.46    0.55
   6  -6  -1    3.58    0.53
   6   6   1    3.98    0.63
   6  -6  -1    3.42    0.43
  -6  -6   1    3.21    0.48
  -6  -6  -1    2.45    0.50
   6   6  -1    3.70    0.50
   6  -6   1    2.55    0.47
  -6  -6  -1    3.92    0.53
   6  -6   1    3.47    0.40
   6   6  -1    3.40    0.63
  -6   6   1    3.53    0.41
   6  -7  -1   31.10    1.69
   6   7   1   32.33    1.64
   6  -7  -1   31.77    1.56
   6   7   1   32.09    1.86
  -6   7  -1   32.64    1.59
  -6  -7   1   31.93    1.68
  -6  -7   1   29.66    1.68
   6  -7   1   29.94    1.67
   6   7  -1   30.95    1.66
   6   7  -1   34.81    1.91
  -6  -7  -1   31.98    1.65
  -6  -7  -1   33.74    1.71
  -6   8  -1    3.41    0.52
   6  -8  -1    3.68    0.61
  -6  -8   1    4.03    0.62
  -6  -8   1    3.23    0.57
   6   8   1    2.47    0.56
   6  -8  -1    3.84    0.50
   6   8   1    3.13    0.73
   6   8  -1    3.09    0.56
  -6  -8  -1    2.47    0.59
   6   8  -1    2.09    0.73
   6  -8   1    3.55    0.59
  -6  -8  -1    2.95    0.57
   6   9   1    7.79    0.84
  -6  -9   1    8.71    0.89
   6   9   1    6.33    0.98
   6  -9  -1    7.69    0.85
  -6  -9   1    8.20    0.92
   6   9  -1    7.94    1.14
  -6  -9  -1    7.47    0.90
   6   9  -1    7.43    0.85
  -6  -9  -1    9.12    0.90
   6  -9   1    7.27    0.82
   6  10   1    2.20    0.62
  -6 -10   1    2.46    0.65
   6  10   1    1.54    0.86
  -6 -10   1    1.77    0.66
   6 -10  -1    3.03    0.66
  -6 -10  -1    2.35    0.75
  -6 -10  -1    1.18    0.55
   6 -10   1    1.35    0.57
   6  10  -1    2.02    0.88
   6  10  -1    2.13    0.66
  -6 -11   1   20.66    1.51
  -6 -11   1   19.72    1.53
   6 -11  -1   18.74    1.43
   6  11   1   19.12    1.85
  -6 -11  -1   18.19    1.37
  -6 -11  -1   20.39    1.56
   6  11  -1   18.51    1.93
   6 -11   1   18.91    1.49
  -6 -12   1    0.53    0.72
  -6 -12   1   -0.19    0.65
   6  12   1    3.43    1.11
   6 -12  -1    1.28    0.70
  -6 -12  -1   -0.36    0.68
   6 -12   1    1.89    0.75
  -6 -12  -1    0.34    0.78
   6  12  -1    1.92    1.08
   7   0   1    1.97    0.37
  -7   0   1    2.57    0.43
   7   0   1    1.77    0.33
   7   0  -1    1.37    0.30
   7   0  -1    1.85    0.27
   7   0   1    2.01    0.30
  -7   0  -1    1.82    0.38
   7   0  -1    2.14    0.42
   7   1   1    0.43    0.31
  -7  -1   1   -0.20    0.28
   7  -1  -1    0.43    0.16
   7  -1  -1    0.95    0.27
   7   1   1    0.45    0.24
   7   1   1    0.78    0.25
   7  -1  -1    0.57    0.35
  -7   1  -1    0.55    0.32
   7  -1   1    0.44    0.24
   7   1  -1    0.19    0.21
   7   1  -1    0.25    0.24
  -7  -1  -1    0.82    0.33
   7  -1   1    0.32    0.19
   7   1  -1    0.57    0.34
   7  -1   1    0.26    0.30
   7   2   1    0.30    0.26
   7  -2  -1    0.21    0.24
   7  -2  -1    0.02    0.12
   7   2   1    0.08    0.23
   7  -2  -1   -0.11    0.28
  -7   2  -1    0.07    0.25
  -7  -2   1    0.18    0.32
   7   2  -1   -0.05    0.24
   7  -2   1    0.09    0.23
   7  -2   1   -0.29    0.26
   7  -2   1    0.22    0.19
   7   2  -1   -0.31    0.31
  -7  -2  -1    0.67    0.32
   7   2  -1   -0.14    0.21
   7   3   1    9.88    0.76
   7  -3  -1    8.63    0.67
  -7  -3   1   10.53    0.78
   7   3   1    9.74    0.68
   7  -3  -1    8.71    0.48
   7  -3  -1   10.03    0.74
  -7  -3  -1    9.00    0.78
   7   3  -1    9.52    0.68
   7  -3   1    9.11    0.68
   7   3  -1    8.04    0.72
   7  -3   1    8.76    0.67
   7  -3   1    8.98    0.56
   7  -4  -1    0.63    0.33
   7   4   1    0.20    0.34
  -7  -4   1    1.12    0.40
   7  -4  -1    0.74    0.31
   7   4   1    0.62    0.30
   7  -4   1   -0.33    0.26
  -7  -4  -1    0.58    0.39
   7  -4   1    0.76    0.34
   7  -4   1    0.46    0.23
   7   4  -1    0.95    0.40
   7   4  -1    0.44    0.34
   7  -5  -1    1.76    0.39
   7   5   1    1.21    0.38
   7   5   1    0.94    0.44
  -7   5  -1    1.80    0.30
   7  -5  -1    0.51    0.34
  -7  -5   1    2.08    0.48
  -7  -5  -1    1.28    0.44
   7   5  -1    0.89    0.35
   7  -5   1    1.42    0.36
   7  -5   1    1.10    0.37
   7   5  -1    1.54    0.48
   7  -5   1    1.04    0.29
   7  -6  -1    0.73    0.33
  -7  -6   1    0.45    0.43
   7   6   1    0.37    0.34
  -7   6  -1    0.15    0.26
   7  -6  -1    0.73    0.38
   7   6   1    0.54    0.51
   7  -6   1    0.37    0.32
   7  -6   1    0.09    0.29
   7   6  -1    0.59    0.37
  -7  -6  -1    0.55    0.45
   7   6  -1    0.09    0.46
   7  -6   1    0.45    0.40
   7  -7  -1   11.85    0.86
   7   7   1   12.61    1.19
  -7  -7   1   12.51    1.05
   7   7   1   13.78    0.98
  -7  -7   1   13.29    1.00
   7  -7  -1   12.17    0.94
   7   7  -1   13.18    1.05
  -7  -7  -1   13.31    1.02
  -7  -7  -1   13.47    0.97
   7  -7   1   12.35    0.95
   7   7  -1   11.64    1.20
  -7  -8   1    0.17    0.49
   7  -8  -1    0.04    0.34
   7   8   1   -0.44    0.41
   7   8   1    0.34    0.60
   7  -8  -1    0.58    0.48
  -7  -8   1    0.11    0.43
   7  -8   1    0.49    0.44
  -7  -8  -1   -0.36    0.44
  -7  -8  -1   -0.31    0.50
   7   8  -1   -0.26    0.58
   7   8  -1   -0.09    0.41
   7   9   1    1.46    0.58
   7  -9  -1    1.54    0.59
   7   9   1    1.15    0.80
  -7  -9   1    1.49    0.62
  -7  -9   1    3.00    0.66
  -7  -9  -1    2.73    0.68
  -7  -9  -1    1.92    0.59
   7  -9   1    2.26    0.57
   7   9  -1    1.34    0.85
   7   9  -1    2.59    0.69
   7  10   1   -0.60    0.72
  -7 -10   1    0.39    0.56
   7  10   1    0.44    0.51
   7 -10  -1    0.33    0.55
  -7 -10   1   -0.24    0.59
  -7 -10  -1   -0.18    0.49
   7  10  -1    0.37    0.81
  -7 -10  -1    0.33    0.62
   7  10  -1   -0.48    0.48
   7 -10   1   -0.11    0.59
   7 -11  -1    6.29    0.92
   7  11   1    8.79    1.31
  -7 -11   1    6.89    0.94
  -7 -11   1    6.97    1.04
  -7 -11  -1    9.39    1.08
   7  11  -1    9.37    1.50
   7 -11   1    5.30    0.86
  -7 -11  -1    5.89    0.90
   8   0   1  103.16    4.42
   8   0  -1   96.44    4.41
   8   0   1   98.97    4.37
  -8   0   1  107.43    4.52
   8   0   1  105.05    4.48
  -8   0  -1  103.60    4.49
   8   0  -1  102.41    4.55
   8   0  -1  100.26    4.34
   8   1   1    0.61    0.28
  -8   1  -1    0.40    0.37
   8   1   1    0.73    0.38
   8  -1  -1    0.40    0.19
   8   1   1    0.62    0.29
  -8  -1   1    0.11    0.37
   8  -1  -1    0.19    0.26
   8  -1  -1    0.38    0.38
   8  -1   1    0.78    0.30
   8   1  -1    0.65    0.41
   8  -1   1    0.64    0.25
   8  -1   1    0.96    0.38
   8   1  -1    0.66    0.25
   8   1  -1    1.53    0.36
  -8   1   1    0.50    0.37
  -8  -1  -1    0.43    0.37
   8  -2  -1   68.51    3.07
   8  -2  -1   69.42    3.15
   8   2   1   67.24    3.08
  -8   2  -1   66.35    3.10
  -8  -2   1   68.44    3.16
   8   2   1   66.70    3.05
   8  -2   1   69.09    2.97
  -8  -2  -1   70.06    3.14
   8  -2   1   68.03    3.07
   8   2  -1   72.45    3.08
   8   2  -1   66.73    3.16
   8  -2   1   67.46    3.09
   8   2  -1   65.52    3.06
   8   3   1    1.47    0.41
   8  -3  -1    1.40    0.45
   8  -3  -1    2.16    0.42
   8   3   1    2.90    0.45
  -8  -3   1    2.76    0.52
   8  -3   1    1.80    0.44
   8  -3   1    2.32    0.41
   8   3  -1    2.16    0.41
   8   3  -1    1.46    0.38
  -8  -3  -1    2.31    0.51
   8  -3   1    2.67    0.34
   8   4   1   32.93    1.79
   8  -4  -1   36.31    1.77
   8   4   1   36.30    1.72
   8  -4  -1   34.40    1.77
  -8  -4   1   32.70    1.79
  -8  -4  -1   37.56    1.83
   8  -4   1   32.81    1.73
   8   4  -1   32.39    1.73
   8   4  -1   32.53    1.79
   8  -4   1   34.36    1.72
   8  -4   1   33.82    1.60
  -8  -5   1    4.32    0.64
   8   5   1    5.95    0.60
   8  -5  -1    4.24    0.56
   8  -5  -1    4.14    0.57
   8   5   1    4.67    0.71
   8  -5   1    4.09    0.59
   8   5  -1    3.57    0.65
   8   5  -1    3.63    0.53
   8  -5   1    3.91    0.54
  -8  -5  -1    4.55    0.64
   8   6   1    4.57    0.78
  -8  -6   1    3.99    0.68
   8  -6  -1    4.45    0.55
   8  -6  -1    4.61    0.62
   8   6   1    4.18    0.61
   8   6  -1    5.43    0.84
  -8  -6  -1    4.65    0.71
   8   6  -1    5.31    0.68
   8  -6   1    4.47    0.62
  -8  -7   1    4.10    0.70
   8  -7  -1    2.85    0.60
   8  -7  -1    3.31    0.53
  -8  -7   1    3.96    0.62
   8   7   1    3.81    0.76
   8   7   1    2.44    0.52
  -8  -7  -1    2.32    0.51
   8  -7   1    2.58    0.56
   8   7  -1    2.94    0.55
  -8  -7  -1    3.24    0.68
   8   7  -1    2.36    0.71
   8   8   1   -0.03    0.47
   8   8   1    0.57    0.65
  -8  -8   1    0.40    0.50
  -8  -8   1   -0.49    0.55
   8  -8  -1   -0.18    0.46
  -8  -8  -1    0.17    0.49
   8   8  -1    0.98    0.74
   8  -8   1    0.04    0.45
  -8  -8  -1   -0.39    0.53
   8   8  -1   -0.14    0.51
   8   9   1    0.55    0.73
  -8  -9   1    1.27    0.66
   8  -9  -1    0.69    0.52
  -8  -9   1    1.33    0.61
   8   9   1    1.26    0.60
   8   9  -1    0.40    0.76
  -8  -9  -1    0.59    0.51
   8   9  -1    1.50    0.63
  -8  -9  -1    1.26    0.77
   8  -9   1    2.32    0.66
   8  10   1    4.56    0.81
  -8 -10   1    4.84    0.82
  -8 -10   1    3.74    0.82
   8 -10  -1    4.08    0.74
   8  10   1    2.04    0.99
   8 -10   1    2.40    0.67
  -8 -10  -1    2.30    0.69
   8  10  -1    3.44    0.81
   8  10  -1    3.69    1.10
  -8 -10  -1    2.73    0.89
  -8 -11   1    0.28    0.61
   8  11   1    0.52    0.61
   8 -11  -1    0.22    0.63
  -8 -11   1    0.20    0.78
   8  11   1    2.12    1.08
   8  11  -1    1.92    0.76
  -8 -11  -1   -0.89    0.80
  -8 -11  -1   -0.69    0.54
   8 -11   1    1.05    0.64
   8  11  -1   -0.30    0.94
   9   0  -1   31.53    1.67
  -9   0  -1   28.58    1.58
   9   0   1   28.84    1.45
   9   0  -1   28.66    1.42
  -9   0   1   29.49    1.61
   9   0   1   28.67    1.57
   9   0   1   28.11    1.49
   9   0  -1   29.94    1.52
  -9   1  -1    1.69    0.49
   9  -1  -1    0.80    0.35
   9  -1  -1    1.41    0.54
   9   1   1    1.01    0.38
   9   1   1    1.56    0.36
  -9  -1   1    1.86    0.52
   9   1   1    1.48    0.46
   9  -1   1    1.12    0.41
  -9  -1  -1    0.98    0.45
   9   1  -1    1.25    0.33
   9   1  -1    1.86    0.53
   9   1  -1    0.66    0.35
  -9   1   1    1.83    0.52
   9  -1   1    1.18    0.31
   9  -1   1    1.48    0.37
   9  -2  -1  106.04    4.60
  -9  -2   1  106.65    4.58
  -9   2  -1   97.15    4.49
   9   2   1  100.87    4.45
   9   2   1   95.84    4.46
   9  -2  -1   95.66    4.46
   9   2  -1  102.93    4.47
   9  -2   1  101.55    4.36
   9   2  -1  103.99    4.48
   9  -2   1  102.79    4.51
  -9  -2  -1  106.80    4.57
   9  -2   1  102.99    4.48
   9   2  -1  101.89    4.58
  -9   3  -1    1.22    0.42
   9   3   1    0.75    0.35
   9  -3  -1    0.48    0.46
  -9  -3   1    0.30    0.45
   9   3   1    0.59    0.42
   9  -3  -1    1.46    0.41
  -9  -3  -1    1.03    0.49
   9  -3   1    0.26    0.36
   9  -3   1    0.69    0.43
   9   3  -1    1.58    0.47
   9   3  -1    0.41    0.36
  -9  -4   1   22.96    1.42
   9  -4  -1   24.73    1.41
   9   4   1   23.20    1.39
   9   4   1   21.85    1.32
   9  -4  -1   23.24    1.37
   9  -4   1   22.73    1.33
   9   4  -1   21.18    1.32
   9   4  -1   24.60    1.46
  -9  -4  -1   20.65    1.40
   9  -4   1   23.03    1.35
   9   5   1    1.39    0.53
   9   5   1    1.59    0.44
  -9  -5   1    2.15    0.63
   9  -5  -1    1.38    0.49
   9  -5  -1    1.49    0.51
   9  -5   1    1.43    0.48
   9   5  -1    1.38    0.55
   9   5  -1    1.22    0.44
  -9  -5  -1    1.28    0.59
   9  -5   1    1.97    0.47
   9   6   1   64.01    3.27
   9   6   1   67.53    3.15
   9  -6  -1   65.70    3.16
  -9  -6   1   69.99    3.24
   9  -6  -1   69.32    3.13
  -9  -6  -1   66.94    3.24
   9   6  -1   70.02    3.36
   9  -6   1   64.05    3.17
   9   6  -1   65.17    3.15
  -9  -7   1    0.35    0.59
   9   7   1    0.41    0.67
   9  -7  -1   -0.05    0.45
   9   7   1    0.51    0.46
   9   7  -1    0.73    0.53
   9   7  -1   -0.47    0.56
   9  -7   1    0.67    0.54
  -9  -7  -1    0.05    0.61
   9  -8  -1   11.66    1.10
  -9  -8   1   10.72    1.11
   9   8   1    9.48    1.20
   9   8   1   13.06    1.13
  -9  -8   1   11.93    1.07
   9   8  -1   11.50    1.09
   9  -8   1   10.94    1.05
   9   8  -1   11.42    1.36
  -9  -8  -1   11.13    1.04
  -9  -8  -1   13.34    1.21
   9   9   1    1.65    0.59
   9   9   1   -0.20    0.74
   9  -9  -1    0.37    0.54
  -9  -9   1    0.54    0.72
  -9  -9   1    0.58    0.59
   9   9  -1    0.68    0.82
   9   9  -1    0.17    0.60
   9  -9   1    0.15    0.54
  -9  -9  -1    1.77    0.75
  -9  -9  -1    1.19    0.55
  -9 -10   1   28.00    1.81
  -9 -10   1   23.78    1.65
   9  10   1   29.43    2.20
   9  10   1   27.98    1.77
   9 -10  -1   24.97    1.67
  -9 -10  -1   25.25    1.82
   9 -10   1   26.67    1.70
   9  10  -1   28.71    2.24
   9  10  -1   26.76    1.72
  -9 -10  -1   23.77    1.68
 -10   0  -1    7.71    0.80
  10   0  -1    5.71    0.81
 -10   0   1    6.82    0.78
  10   0   1    7.06    0.77
  10   0   1    6.16    0.68
  10   0   1    6.03    0.61
  10   0  -1    5.94    0.65
  10   1   1    0.30    0.35
  10  -1  -1   -0.52    0.44
 -10  -1   1    0.02    0.46
  10  -1  -1    0.46    0.36
 -10   1  -1   -0.31    0.39
  10   1   1    0.23    0.35
  10  -1   1   -0.43    0.32
 -10  -1  -1    0.33    0.47
  10   1  -1   -0.17    0.32
  10   1  -1   -0.07    0.33
  10  -1   1    0.55    0.43
  10  -1   1    0.55    0.33
 -10   1   1   -0.32    0.46
  10   1  -1    0.22    0.49
  10   2   1   32.06    1.70
 -10  -2   1   33.78    1.83
  10  -2  -1   32.92    1.73
 -10   2  -1   31.11    1.73
  10   2   1   32.33    1.71
  10  -2  -1   31.25    1.82
  10   2  -1   31.17    1.82
  10   2  -1   33.01    1.69
  10  -2   1   32.32    1.74
  10  -2   1   33.94    1.73
  10   2  -1   31.52    1.70
 -10   2   1   30.19    1.75
 -10  -2  -1   29.05    1.78
 -10  -3   1    4.24    0.71
  10  -3  -1    3.30    0.56
  10   3   1    4.37    0.65
  10   3   1    4.71    0.64
  10  -3  -1    3.78    0.68
 -10   3  -1    3.74    0.61
  10  -3   1    3.61    0.57
 -10  -3  -1    4.29    0.72
  10   3  -1    4.09    0.64
  10   3  -1    3.53    0.60
  10  -3   1    3.73    0.64
 -10   4  -1    5.08    0.71
  10  -4  -1    7.72    0.87
  10  -4  -1    6.72    0.75
  10   4   1    6.72    0.85
 -10  -4   1    7.13    0.87
  10   4   1    6.39    0.74
  10   4  -1    7.81    0.88
  10  -4   1    5.77    0.76
  10   4  -1    6.70    0.74
  10  -4   1    7.65    0.78
 -10  -4  -1    7.33    0.89
  10   5   1    0.89    0.51
  10  -5  -1    1.04    0.50
  10   5   1    0.30    0.57
 -10  -5   1    1.22    0.58
  10  -5  -1    1.11    0.49
  10  -5   1    1.30    0.54
 -10  -5  -1    1.37    0.62
  10   5  -1   -0.06    0.50
  10   5  -1    1.41    0.50
  10  -6  -1   16.21    1.18
 -10  -6   1   17.31    1.29
  10   6   1   15.51    1.18
  10   6   1   13.23    1.27
  10  -6  -1   17.27    1.20
 -10  -6  -1   15.39    1.33
  10   6  -1   15.04    1.16
  10  -6   1   14.17    1.13
  10   6  -1   16.99    1.42
  10  -7  -1    6.31    0.83
 -10  -7   1    6.15    0.93
  10   7   1    7.03    0.88
  10   7   1    7.77    1.09
  10   7  -1    8.33    0.94
  10   7  -1    9.42    1.20
  10  -7   1    7.05    0.85
 -10  -7  -1    9.00    1.07
 -10  -8   1    6.20    0.87
 -10  -8   1    5.10    0.95
  10  -8  -1    7.56    0.94
  10   8   1    6.45    1.15
  10   8   1    7.63    0.91
 -10  -8  -1    9.05    0.93
  10   8  -1    7.19    0.95
 -10  -8  -1    7.64    1.07
  10  -8   1    7.97    0.96
  10   8  -1    5.18    1.04
  10   9   1    1.24    0.92
 -10  -9   1    1.30    0.83
 -10  -9   1    2.09    0.70
  10  -9  -1    2.22    0.66
  10   9   1    2.83    0.74
 -10  -9  -1    2.19    0.70
  10  -9   1    2.49    0.69
 -10  -9  -1    0.31    0.86
  10   9  -1    0.99    0.87
  10   9  -1    1.39    0.68
  10 -10  -1    3.50    0.77
 -10 -10   1    3.20    0.79
  10  10   1    3.88    0.86
  10  10   1    2.63    1.15
 -10 -10   1    4.13    0.97
 -10 -10  -1    5.76    1.04
 -10 -10  -1    4.35    0.83
  10 -10   1    3.14    0.78
  10  10  -1    4.26    0.92
  10  10  -1    3.65    1.20
  11   0   1    0.85    0.43
  11   0  -1    0.84    0.61
  11   0  -1    0.59    0.43
 -11   0   1    1.16    0.56
  11   0   1    0.11    0.47
 -11   0  -1    0.47    0.51
  11  -1  -1    0.38    0.42
 -11   1  -1    0.44    0.47
  11   1   1    0.97    0.45
 -11  -1   1    0.28    0.60
  11   1   1    0.36    0.39
  11  -1  -1    0.81    0.60
  11  -1   1    0.43    0.45
  11   1  -1   -0.35    0.62
 -11  -1  -1    1.52    0.57
  11   1  -1    1.35    0.50
 -11   1   1    0.62    0.52
  11  -1   1   -0.38    0.47
  11  -2  -1    0.15    0.42
  11  -2  -1   -0.81    0.57
  11   2   1    0.00    0.40
 -11   2  -1   -0.47    0.47
  11   2   1    0.21    0.43
 -11  -2   1   -0.64    0.50
  11   2  -1    0.03    0.50
 -11   2   1    0.43    0.56
 -11  -2  -1    0.93    0.58
  11  -2   1   -0.16    0.52
  11   2  -1   -0.05    0.65
  11  -2   1    0.39    0.46
  11   2  -1    0.52    0.49
  11   3   1    1.43    0.56
 -11  -3   1    2.15    0.67
  11   3   1    2.32    0.54
  11  -3  -1    2.71    0.66
  11  -3  -1    2.07    0.55
 -11   3  -1    2.02    0.55
  11   3  -1    1.38    0.55
  11  -3   1    1.84    0.62
 -11  -3  -1    2.68    0.69
 -11   3   1    2.20    0.64
  11   3  -1    3.46    0.63
  11  -3   1    1.38    0.57
  11  -4  -1    0.59    0.65
  11   4   1    0.11    0.54
  11   4   1    0.51    0.46
  11  -4  -1   -0.01    0.52
 -11  -4   1    1.34    0.64
  11   4  -1    0.67    0.57
 -11  -4  -1    0.52    0.61
  11   4  -1    1.08    0.56
  11  -4   1    0.39    0.48
  11  -4   1   -0.31    0.52
  11  -5  -1    3.93    0.70
  11   5   1    5.68    0.83
  11  -5  -1    5.50    0.83
  11   5   1    6.19    0.79
 -11  -5   1    6.64    0.92
  11   5  -1    4.82    0.88
 -11  -5  -1    6.33    0.92
  11   5  -1    4.80    0.73
  11  -5   1    4.84    0.79
  11   6   1   -0.43    0.52
  11   6   1    0.63    0.71
  11  -6  -1    0.82    0.54
 -11  -6   1   -0.14    0.63
  11   6  -1   -0.71    0.54
 -11  -6  -1   -0.44    0.65
  11   6  -1    0.25    0.70
  11  -6   1   -0.93    0.43
  11   7   1    2.75    0.68
 -11  -7   1    4.49    0.92
  11   7   1    4.80    1.03
  11  -7  -1    3.47    0.72
  11   7  -1    4.66    1.02
  11  -7   1    5.11    0.79
 -11  -7  -1    4.55    0.93
  11   7  -1    5.09    0.80
 -11  -8   1    0.16    0.54
  11  -8  -1    0.65    0.68
  11   8   1    1.32    0.67
 -11  -8   1    1.04    0.77
  11   8   1   -0.36    0.82
  11   8  -1    0.43    0.64
 -11  -8  -1    0.87    0.62
  11   8  -1    0.86    0.90
 -11  -8  -1    0.85    0.78
  11  -8   1    0.46    0.66
 -11  -9   1    4.16    0.85
  11   9   1    6.48    1.24
  11   9   1    4.68    0.89
 -11  -9   1    3.95    0.94
  11  -9  -1    4.44    0.90
  11   9  -1    4.28    1.08
 -11  -9  -1    5.19    1.13
 -11  -9  -1    4.87    0.85
  11   9  -1    5.93    0.96
  11  -9   1    4.10    0.85
 -12   0   1   -0.22    0.53
 -12   0  -1   -0.08    0.59
  12   0   1    1.61    0.70
  12   0  -1   -0.39    0.67
  12   0   1    0.51    0.52
  12   0  -1    0.01    0.46
  12  -1  -1   21.40    1.64
 -12  -1   1   20.10    1.45
  12  -1  -1   20.50    1.38
  12   1   1   18.02    1.26
 -12   1  -1   17.46    1.38
 -12  -1  -1   19.18    1.48
  12   1  -1   19.22    1.30
  12  -1   1   18.66    1.43
  12   1  -1   20.77    1.53
 -12   1   1   18.62    1.44
  12  -1   1   19.75    1.33
 -12   2  -1   11.14    1.06
  12   2   1   13.51    1.08
  12  -2  -1   12.78    1.29
 -12  -2   1   12.94    1.24
  12  -2  -1   12.74    1.11
  12   2   1   15.10    1.14
 -12  -2  -1   13.30    1.24
 -12   2   1   12.92    1.20
  12   2  -1   16.29    1.22
  12  -2   1   11.93    1.05
  12  -2   1   12.09    1.13
  12   2  -1   12.27    1.26
  12   3   1   -0.14    0.52
  12  -3  -1    0.15    0.55
  12  -3  -1    0.48    0.61
  12   3   1    0.37    0.51
 -12  -3   1    0.06    0.63
 -12   3  -1   -0.03    0.52
 -12  -3  -1    0.63    0.66
  12  -3   1   -0.31    0.51
 -12   3   1   -0.43    0.49
  12  -3   1   -0.03    0.60
  12   3  -1   -0.08    0.48
  12  -4  -1    0.84    0.70
  12   4   1    1.46    0.66
  12  -4  -1    0.55    0.60
 -12  -4   1    1.34    0.71
  12   4   1    0.93    0.51
 -12   4   1   -0.04    0.50
  12   4  -1    1.30    0.67
  12   4  -1    1.48    0.57
  12  -4   1    1.66    0.62
 -12  -4  -1    1.37    0.77
 -12  -5   1   49.73    2.60
  12   5   1   45.54    2.53
  12  -5  -1   48.55    2.48
  12   5   1   47.09    2.44
  12  -5  -1   46.62    2.55
  12   5  -1   42.83    2.57
  12  -5   1   43.14    2.43
  12   5  -1   47.80    2.50
 -12  -5  -1   48.93    2.63
  12   6   1    4.91    0.94
 -12  -6   1    4.01    0.91
  12   6   1    4.21    0.82
  12  -6  -1    4.24    0.83
  12   6  -1    5.48    1.02
 -12  -6  -1    3.98    0.94
  12  -6   1    5.81    0.90
  12   6  -1    4.72    0.81
 -12  -7   1    2.53    0.88
  12  -7  -1    2.78    0.81
  12   7   1    1.76    0.89
  12   7   1    2.45    0.67
  12   7  -1    1.75    0.73
  12   7  -1    3.10    1.00
 -12  -7  -1    0.82    0.92
  12  -7   1    2.32    0.76
  12  -8  -1    2.78    0.75
  12   8   1    1.77    1.01
  12   8   1    2.63    0.71
 -12  -8   1    3.91    0.97
 -12  -8   1    3.15    0.81
 -12  -8  -1    0.84    0.64
  12   8  -1    3.30    1.09
  12  -8   1    2.90    0.84
  12   8  -1    1.62    0.79
 -12  -8  -1    3.10    0.93
 -13   0  -1    0.57    0.63
 -13   0   1    0.74    0.72
  13   0   1    0.70    0.53
  13   0  -1    0.85    0.83
  13   0  -1    0.19    0.50
 -13  -1   1    0.27    0.73
 -13   1  -1   -0.77    0.58
  13  -1  -1   -0.75    0.66
  13   1   1    0.73    0.53
  13  -1  -1   -0.24    0.48
  13  -1   1    0.58    0.62
  13  -1   1    0.18    0.71
 -13   1   1    0.57    0.63
  13   1  -1   -0.46    0.50
  13   1  -1    0.68    0.84
 -13  -1  -1   -0.39    0.61
 -13  -2   1    0.55    0.71
  13   2   1    0.32    0.53
  13  -2  -1   -0.52    0.78
 -13   2  -1    0.91    0.63
  13  -2  -1    0.49    0.60
  13  -2   1    0.32    0.69
  13  -2   1    0.29    0.60
  13   2  -1    1.58    0.66
 -13   2   1    1.38    0.69
 -13  -2  -1    0.69    0.71
 -13  -3   1    2.11    0.83
  13  -3  -1    1.78    0.67
  13   3   1    2.25    0.62
  13  -3  -1    2.89    0.90
 -13   3   1    1.42    0.70
  13   3  -1    3.84    0.77
 -13  -3  -1    1.95    0.83
  13  -3   1    2.23    0.71
 -13  -4   1    0.00    0.73
  13  -4  -1    0.18    0.75
  13   4   1    0.32    0.61
  13  -4  -1    0.07    0.63
  13   4   1    0.72    0.67
 -13  -4  -1   -1.14    0.69
  13  -4   1   -0.68    0.56
 -13   4   1    0.90    0.62
  13   4  -1    0.36    0.65
  13   5   1    2.04    0.81
 -13  -5   1    2.05    0.85
  13  -5  -1    2.44    0.69
  13   5   1    1.24    0.63
  13  -5   1    2.51    0.77
 -13  -5  -1    3.27    1.03
  13   5  -1    1.66    0.73
 -13  -6   1   -0.46    0.76
  13   6   1    0.97    0.63
  13  -6  -1    0.24    0.62
  13   6   1   -0.36    0.79
  13   6  -1    0.36    0.82
  13   6  -1    0.86    0.71
 -13  -6  -1    0.09    0.87
  13  -6   1    0.43    0.64
  13   7   1    2.96    0.78
  13  -7  -1    1.40    0.76
  13   7   1    3.10    1.06
 -13  -7   1    3.56    0.97
  13  -7   1    4.19    0.85
  13   7  -1    1.24    0.84
  13   7  -1    2.78    0.77
 -13  -7  -1    2.92    1.01
 -14   0   1    5.00    1.01
  14   0  -1    4.34    1.10
 -14   0  -1    3.55    0.92
  14   0  -1    4.73    0.87
  14   0   1    4.86    0.89
  14  -1  -1    1.23    0.66
 -14   1  -1    1.20    0.75
  14   1   1    0.21    0.57
  14  -1  -1   -0.37    0.83
 -14  -1   1   -0.31    0.72
 -14  -1  -1   -0.42    0.76
  14   1  -1    1.92    0.90
  14   1  -1    0.81    0.68
 -14   1   1    1.21    0.77
  14  -1   1   -0.51    0.61
  14   2   1    2.16    0.74
  14  -2  -1    1.54    0.91
  14  -2  -1    1.53    0.73
 -14  -2   1    0.63    0.87
 -14   2  -1    1.04    0.67
  14  -2   1    0.19    0.76
  14   2  -1    1.04    0.62
 -14  -2  -1    0.53    0.88
 -14   2   1   -0.45    0.69
  14  -2   1    1.65    0.67
  14  -3  -1    1.60    0.92
  14   3   1    2.46    0.74
 -14  -3   1    1.36    0.86
  14  -3  -1    1.79    0.77
  14  -3   1    1.94    0.69
 -14   3   1    1.51    0.73
 -14  -3  -1    1.40    0.84
  14   3  -1    1.45    0.75
  14  -4  -1    2.02    0.74
  14   4   1    0.96    0.65
 -14  -4   1    3.87    1.00
  14   4  -1    1.14    0.69
 -14  -4  -1    2.27    0.98
  14  -4   1    1.74    0.76
  14  -5  -1    0.41    0.66
  14   5   1   -0.30    0.62
 -14  -5   1   -0.09    0.94
 -14  -5  -1    0.37    0.85
  14   5  -1   -0.50    0.68
  14  -5   1    0.00    0.68
 -14  -6   1   -1.06    0.83
  14   6   1   -0.84    0.74
  14  -6  -1    0.00    0.65
  14   6   1   -0.37    0.62
  14  -6   1    0.85    0.78
 -14  -6  -1    0.07    0.93
  14   6  -1   -0.62    0.65
  15   0   1   23.69    1.67
  15   0  -1   24.55    2.06
 -15   0  -1   23.80    1.74
 -15   0   1   24.66    1.91
  15   0  -1   22.17    1.65
  15   1   1    0.42    0.63
  15  -1  -1    2.41    0.82
  15  -1  -1   -0.79    0.90
 -15   1  -1    1.99    0.84
 -15  -1   1    1.17    0.93
  15   1  -1    2.13    0.81
  15  -1   1    0.57    0.75
 -15   1   1    0.79    0.86
 -15  -1  -1   -0.63    0.85
  15  -2  -1   23.11    1.89
  15  -2  -1   24.83    1.79
  15   2   1   23.30    1.66
 -15  -2   1   23.58    1.85
  15   2  -1   24.30    1.78
  15  -2   1   23.84    1.78
 -15  -2  -1   20.97    1.87
  15   3   1   -0.26    0.71
  15  -3  -1    1.64    0.76
 -15  -3   1    1.09    0.92
  15  -3  -1    0.43    0.94
  15   3  -1   -0.05    0.75
  15  -3   1    0.68    0.77
 -15  -3  -1    0.35    0.86
  15   4   1   17.97    1.50
  15  -4  -1   18.03    1.64
 -15  -4   1   19.33    1.76
  15   4  -1   20.52    1.59
  15  -4   1   19.75    1.65
 -15  -4  -1   19.79    1.77
 -16   0  -1   21.31    1.86
 -16   0   1   24.50    1.98
  16   0  -1   28.32    1.85
  16   0   1   25.71    1.90
  16  -1  -1    0.37    0.96
  16   1   1    1.33    0.73
  16  -1  -1    0.58    0.76
 -16  -1   1    0.45    0.89
 -16   1   1    0.52    0.81
  16  -1   1    0.98    0.84
 -16  -1  -1    0.20    0.84
  16   1  -1    0.78    0.83
 -16  -2   1    3.01    1.04
  16  -2  -1    6.27    1.10
  16  -2  -1    1.47    1.08
  16   2   1    3.70    0.87
  16  -2   1    3.82    0.96
 -16   2   1    5.46    0.99
 -16  -2  -1    3.48    1.15
  16   2  -1    4.07    0.90
   0   0  -2    0.24    0.08
   0   0  -2    0.41    0.05
   0   0   2    0.17    0.04
   0   0   2    0.42    0.09
   0  -1  -2    1.02    0.13
   0   1   2    0.60    0.06
   0   1   2    0.76    0.11
   0  -1   2    0.49    0.10
   0  -1  -2    0.68    0.06
   0   1  -2    0.62    0.10
   0   1  -2    1.12    0.18
   0   2   2    7.10    0.40
   0  -2  -2    6.60    0.40
   0  -2   2    7.36    0.41
   0  -2  -2    7.26    0.36
   0   2  -2    7.55    0.50
   0   3   2    0.16    0.13
   0  -3  -2    0.09    0.14
   0  -3   2    0.06    0.09
   0   3  -2    0.23    0.22
   0  -3   2    0.05    0.14
   0  -3  -2    0.26    0.12
   0  -4   2   10.47    0.53
   0  -4  -2    9.91    0.57
   0   4   2   10.23    0.62
   0   4  -2   10.83    0.73
   0  -4   2   10.67    0.63
   0  -4  -2   10.69    0.62
   0  -5   2    0.03    0.15
   0   5   2   -0.10    0.19
   0  -5  -2   -0.02    0.18
   0  -5  -2    0.31    0.20
   0  -5   2    0.10    0.21
   0   5  -2    0.01    0.28
   0  -6   2   43.22    2.04
   0   6   2   41.64    2.08
   0  -6  -2   43.62    2.00
   0   6  -2   45.01    2.20
   0  -6  -2   44.47    2.01
   0  -6   2   43.82    1.94
   0  -7   2    0.23    0.31
   0   7   2   -0.41    0.28
   0  -7  -2   -0.15    0.24
   0   7  -2    0.16    0.45
   0  -7   2    0.13    0.24
   0  -7  -2   -0.19    0.26
   0  -8   2   41.07    2.01
   0  -8   2   41.17    1.86
   0  -8  -2   39.61    1.94
   0   8   2   37.88    2.05
   0   8  -2   40.06    2.19
   0  -8  -2   39.17    1.93
   0  -9   2   -0.12    0.32
   0   9  -2   -0.81    0.45
   0  -9  -2   -0.34    0.33
   0  -9   2   -0.10    0.47
   0  -9  -2   -0.35    0.36
   0   9   2    0.07    0.50
   0  10  -2   52.52    2.92
   0 -10  -2   54.90    2.66
   0  10   2   55.40    2.88
   0 -10  -2   54.63    2.60
   0 -10   2   56.13    2.76
   0 -11   2    0.27    0.54
   0 -11  -2    0.23    0.47
   0  11  -2   -0.24    0.67
   0 -11  -2   -0.19    0.50
   0  11   2    0.15    0.61
   0  12  -2   25.44    2.07
   0 -12  -2   26.18    1.68
   0  12   2   27.03    1.91
   0 -12   2   26.11    1.80
   1   0   2    0.24    0.10
   1   0   2    0.28    0.06
   1   0  -2    0.18    0.08
   1   0  -2    0.24    0.07
   1  -1  -2    0.35    0.11
   1  -1  -2    0.50    0.08
  -1   1  -2    0.35    0.12
   1   1   2    0.30    0.06
   1   1   2    0.58    0.13
  -1  -1  -2    0.35    0.11
   1   1  -2    0.17    0.09
   1   1  -2    0.48    0.12
   1  -1   2    0.51    0.11
   1   1  -2    0.36    0.16
   1  -1   2    0.37    0.14
  -1  -2   2   13.83    0.69
  -1  -2   2   14.16    0.67
   1  -2  -2   14.47    0.68
  -1   2  -2   13.58    0.75
   1  -2  -2   14.24    0.66
   1   2   2   14.58    0.64
   1   2   2   13.10    0.69
  -1  -2  -2   13.80    0.69
   1   2  -2   14.11    0.68
   1   2  -2   14.35    0.78
   1   2  -2   14.60    0.69
   1  -2   2   14.66    0.69
  -1  -2  -2   15.33    0.65
  -1   2   2   13.36    0.65
   1  -3  -2    4.97    0.33
  -1  -3   2    4.45    0.35
  -1  -3   2    4.68    0.31
  -1   3  -2    3.90    0.43
   1   3   2    4.95    0.36
   1   3   2    4.62    0.29
   1  -3  -2    5.02    0.34
  -1  -3  -2    4.87    0.30
   1   3  -2    4.54    0.47
   1  -3   2    4.20    0.36
   1   3  -2    4.41    0.37
   1  -3   2    4.52    0.26
  -1   3   2    4.92    0.33
  -1  -3  -2    5.25    0.36
   1   4   2    0.40    0.22
   1  -4  -2    0.56    0.18
  -1  -4   2    0.72    0.17
  -1   4  -2    0.45    0.28
   1  -4  -2    0.67    0.19
  -1  -4   2    0.51    0.22
  -1  -4  -2    0.49    0.16
  -1   4   2    0.78    0.21
   1  -4   2    0.55    0.20
   1  -4   2    0.75    0.14
  -1  -4  -2    0.87    0.21
   1   4  -2    0.45    0.21
   1   4  -2    0.18    0.25
   1  -5  -2    0.46    0.23
  -1  -5   2    0.48    0.18
   1   5   2    0.62    0.27
   1  -5  -2    0.12    0.20
  -1   5  -2    0.58    0.31
  -1  -5   2    0.03    0.21
  -1  -5  -2    0.10    0.18
  -1  -5  -2    0.46    0.22
   1  -5   2    0.33    0.15
  -1   5   2    0.54    0.26
   1  -5   2   -0.09    0.21
   1   5  -2    0.59    0.33
  -1   6  -2   20.31    1.19
   1  -6  -2   17.92    1.01
  -1  -6   2   18.13    1.05
   1  -6  -2   19.35    1.01
  -1  -6   2   18.05    0.96
   1   6   2   18.64    1.09
   1  -6   2   17.79    0.92
  -1  -6  -2   19.06    1.00
   1  -6   2   19.98    1.07
   1   6  -2   18.69    1.20
  -1  -6  -2   19.73    1.02
  -1   6   2   19.48    1.08
   1  -7  -2    3.40    0.45
  -1  -7   2    2.66    0.45
  -1   7  -2    4.35    0.64
   1  -7  -2    3.14    0.44
  -1  -7   2    3.72    0.42
   1   7   2    1.81    0.49
   1  -7   2    3.08    0.36
   1   7  -2    3.42    0.62
  -1  -7  -2    3.83    0.45
   1  -7   2    3.57    0.49
  -1   7   2    2.10    0.46
  -1  -7  -2    3.57    0.45
  -1  -8   2    2.44    0.48
  -1  -8   2    2.26    0.41
  -1   8  -2    3.65    0.68
   1  -8  -2    2.43    0.43
   1  -8  -2    3.28    0.49
   1   8   2    2.43    0.54
  -1   8   2    1.91    0.52
   1  -8   2    2.06    0.35
  -1  -8  -2    3.58    0.50
  -1  -8  -2    2.67    0.46
   1  -8   2    2.90    0.53
   1   8  -2    1.95    0.59
   1   9   2   -0.13    0.51
  -1   9  -2   -0.09    0.51
  -1  -9   2    0.53    0.45
   1  -9  -2   -0.05    0.34
   1  -9  -2    0.22    0.39
  -1  -9   2    0.32    0.33
  -1  -9  -2   -0.11    0.38
   1   9  -2    0.13    0.56
  -1  -9  -2   -0.30    0.37
   1  -9   2   -0.08    0.31
  -1   9   2   -0.08    0.42
   1  -9   2   -0.10    0.39
   1 -10  -2   11.25    0.93
  -1 -10   2    9.19    0.96
  -1 -10   2   11.19    0.89
   1  10   2   10.76    1.13
   1 -10  -2   11.86    0.98
  -1  10  -2   12.91    1.30
   1  10  -2   10.43    1.23
   1 -10   2   14.92    1.16
  -1 -10  -2    9.02    0.89
  -1 -10  -2   12.50    1.01
  -1  10   2   10.80    1.13
   1 -11  -2    0.98    0.48
  -1  11  -2    1.40    0.75
  -1 -11   2    0.42    0.56
   1 -11  -2    1.46    0.55
   1  11   2    0.98    0.76
  -1 -11  -2    0.99    0.53
  -1 -11  -2    1.87    0.56
   1 -11   2    0.39    0.55
  -1  11   2    0.85    0.72
   1  11  -2   -0.31    0.70
  -1 -12   2    0.60    0.68
   1 -12  -2    0.62    0.55
   1  12   2    0.76    0.88
  -1  12  -2   -0.04    0.81
   1 -12  -2    0.65    0.56
   1 -12   2    0.90    0.65
  -1  12   2    1.23    0.85
   1  12  -2    0.07    0.92
  -1 -12  -2    1.22    0.63
  -1 -12  -2    0.23    0.53
   2   0   2    2.29    0.18
   2   0   2    2.29    0.22
   2   0  -2    2.56    0.19
   2   0  -2    2.78    0.24
  -2   0  -2    2.45    0.18
   2  -1  -2    2.24    0.22
  -2   1  -2    2.29    0.23
   2  -1  -2    1.54    0.16
   2   1   2    2.33    0.23
   2   1   2    1.89    0.15
   2   1  -2    1.40    0.17
   2   1  -2    1.77    0.25
   2   1  -2    1.83    0.22
   2  -1   2    2.07    0.22
  -2  -1  -2    1.64    0.18
   2  -1   2    1.65    0.19
   2  -2  -2   33.96    1.51
   2  -2  -2   35.80    1.53
  -2  -2   2   33.62    1.53
   2   2   2   35.48    1.56
   2   2   2   34.26    1.49
  -2   2  -2   34.86    1.57
   2   2  -2   33.39    1.60
   2   2  -2   34.81    1.55
   2  -2   2   35.79    1.54
  -2  -2  -2   35.05    1.53
   2   2  -2   34.63    1.54
  -2   3  -2    0.16    0.18
   2  -3  -2   -0.02    0.12
  -2  -3   2    0.35    0.17
   2   3   2   -0.16    0.14
   2  -3  -2    0.12    0.13
  -2  -3   2    0.11    0.15
   2   3   2    0.04    0.11
   2   3  -2    0.23    0.21
   2   3  -2    0.15    0.16
  -2  -3  -2    0.17    0.13
   2  -3   2    0.10    0.17
  -2  -3  -2    0.34    0.13
  -2   3   2    0.07    0.11
   2  -4  -2    2.79    0.30
  -2  -4   2    2.88    0.30
  -2   4  -2    2.83    0.39
   2  -4  -2    2.44    0.29
  -2  -4   2    2.96    0.34
   2   4   2    2.63    0.26
   2   4   2    2.29    0.33
  -2  -4  -2    2.54    0.27
   2  -4   2    2.56    0.20
   2  -4   2    2.50    0.32
  -2   4   2    2.83    0.30
   2   4  -2    2.72    0.41
  -2  -4  -2    2.56    0.32
   2   4  -2    2.75    0.33
   2   5   2    4.23    0.49
  -2  -5   2    4.94    0.42
   2   5   2    4.71    0.38
   2  -5  -2    4.62    0.41
  -2  -5   2    3.32    0.41
  -2   5  -2    3.83    0.50
   2  -5  -2    3.70    0.38
  -2  -5  -2    5.05    0.45
   2   5  -2    4.52    0.56
  -2  -5  -2    4.39    0.38
  -2   5   2    5.39    0.47
   2  -5   2    4.15    0.44
   2  -5   2    4.43    0.31
   2   5  -2    4.49    0.44
  -2  -6   2    8.44    0.60
  -2  -6   2    8.49    0.66
   2   6   2    9.62    0.74
   2  -6  -2    9.36    0.61
   2  -6  -2    9.65    0.63
  -2   6  -2    9.09    0.76
   2  -6   2    9.63    0.53
   2   6  -2    8.43    0.84
  -2  -6  -2    8.68    0.60
   2   6  -2   10.12    0.69
   2  -6   2    8.51    0.67
  -2  -6  -2    8.85    0.65
  -2   6   2    8.72    0.68
   2  -7  -2    0.01    0.29
  -2   7  -2   -0.03    0.35
   2   7   2    0.19    0.38
  -2  -7   2    0.32    0.28
  -2  -7   2    0.74    0.33
   2  -7  -2    0.06    0.25
   2  -7   2   -0.31    0.31
   2  -7   2    0.38    0.21
  -2  -7  -2    0.51    0.31
  -2   7   2    0.40    0.34
  -2  -7  -2    0.19    0.28
   2   7  -2    0.52    0.47
   2  -8  -2    4.45    0.58
   2  -8  -2    6.62    0.62
  -2   8  -2    3.95    0.67
  -2  -8   2    6.01    0.57
   2   8   2    5.56    0.77
  -2  -8   2    6.43    0.71
  -2   8   2    6.03    0.73
   2  -8   2    5.99    0.48
   2  -8   2    5.62    0.65
  -2  -8  -2    4.89    0.57
  -2  -8  -2    4.88    0.59
   2   8  -2    3.63    0.76
  -2  -9   2    2.42    0.46
  -2   9  -2    1.34    0.56
   2  -9  -2    1.89    0.45
   2   9   2    2.30    0.66
   2  -9  -2    1.85    0.49
  -2  -9   2    2.12    0.54
  -2   9   2    1.65    0.56
   2  -9   2    2.77    0.58
  -2  -9  -2    1.50    0.47
  -2  -9  -2    1.79    0.50
   2   9  -2    2.17    0.78
  -2 -10   2    1.59    0.59
   2 -10  -2    0.53    0.46
  -2  10  -2    0.89    0.65
  -2 -10   2    0.38    0.46
   2  10   2    0.33    0.60
   2 -10  -2    0.53    0.43
  -2 -10  -2    0.83    0.44
  -2 -10  -2    0.36    0.48
   2 -10   2    1.11    0.57
   2  10  -2    0.69    0.71
  -2  10   2    0.80    0.62
   2  11   2    0.46    0.76
  -2  11  -2   -0.37    0.62
  -2 -11   2    0.26    0.57
   2 -11  -2   -0.41    0.48
  -2 -11   2   -0.04    0.53
   2 -11  -2    0.15    0.45
   2 -11   2    1.01    0.65
   2  11  -2   -0.43    0.73
  -2 -11  -2    0.85    0.55
  -2  11   2    0.44    0.68
  -2 -11  -2    0.39    0.55
   2  12   2    7.22    1.18
  -2 -12   2    5.11    0.90
  -2  12  -2    6.30    1.09
   2 -12  -2    5.26    0.79
   2 -12   2    6.15    0.89
  -2 -12  -2    6.82    0.87
   2  12  -2    6.63    1.24
  -2  12   2    6.18    1.06
  -2 -12  -2    6.85    0.90
   3   0   2    0.08    0.12
   3   0   2   -0.04    0.10
   3   0  -2    0.06    0.10
  -3   0  -2    0.05    0.10
   3   0  -2    0.05    0.14
   3   1   2    2.06    0.23
   3  -1  -2    1.69    0.23
   3   1   2    1.57    0.17
  -3   1  -2    1.63    0.17
   3  -1  -2    1.96    0.20
   3  -1   2    1.75    0.20
  -3  -1  -2    1.60    0.20
   3  -1   2    2.37    0.23
   3   1  -2    1.78    0.23
   3  -1   2    1.79    0.17
   3   1  -2    2.10    0.22
   3   1  -2    1.86    0.26
  -3   2  -2    2.10    0.25
   3   2   2    2.23    0.21
   3  -2  -2    2.59    0.27
   3   2   2    1.95    0.26
   3  -2  -2    3.25    0.28
  -3  -2   2    2.19    0.27
   3   2  -2    2.53    0.27
   3  -2   2    2.29    0.26
   3  -2   2    3.08    0.29
  -3  -2  -2    2.73    0.28
   3   2  -2    2.33    0.31
   3   2  -2    3.04    0.32
  -3   3  -2   26.38    1.28
   3  -3  -2   26.71    1.25
   3  -3  -2   26.62    1.25
   3   3   2   27.12    1.31
   3   3   2   28.12    1.23
  -3  -3   2   27.37    1.28
  -3  -3  -2   25.64    1.26
  -3   3   2   26.48    1.20
   3  -3   2   27.30    1.17
   3   3  -2   27.61    1.28
   3   3  -2   26.71    1.34
   3  -3   2   27.96    1.28
   3   4   2    0.03    0.16
  -3  -4   2    0.27    0.23
   3  -4  -2    0.29    0.20
   3   4   2    0.04    0.24
   3  -4  -2    0.06    0.18
  -3  -4   2   -0.12    0.19
  -3   4  -2    0.15    0.20
   3   4  -2    0.07    0.22
   3  -4   2    0.04    0.11
  -3  -4  -2    0.36    0.21
  -3   4   2    0.34    0.17
   3  -4   2    0.05    0.19
  -3  -4  -2    0.67    0.20
   3   4  -2   -0.15    0.24
  -3  -5   2    1.76    0.33
   3   5   2    2.03    0.39
   3   5   2    2.01    0.29
  -3  -5   2    2.13    0.33
   3  -5  -2    1.96    0.30
   3  -5  -2    2.01    0.29
  -3   5  -2    1.26    0.32
  -3   5   2    1.84    0.30
   3   5  -2    1.94    0.33
   3   5  -2    2.22    0.44
   3  -5   2    1.99    0.34
  -3  -5  -2    2.14    0.34
   3  -5   2    1.94    0.21
  -3  -5  -2    2.40    0.32
   3  -6  -2    0.12    0.27
   3   6   2   -0.11    0.36
   3  -6  -2    0.06    0.23
  -3  -6   2    0.41    0.31
   3   6   2    0.66    0.26
  -3   6  -2    0.10    0.34
  -3  -6   2    0.92    0.28
  -3  -6  -2    0.22    0.29
   3  -6   2    0.36    0.17
  -3  -6  -2    0.53    0.27
   3   6  -2    0.65    0.33
   3  -6   2    0.53    0.30
  -3   6   2    0.52    0.28
   3   6  -2    1.17    0.44
  -3  -7   2   23.11    1.28
   3   7   2   22.33    1.20
   3   7   2   22.67    1.40
  -3   7  -2   18.35    1.28
   3  -7  -2   23.22    1.20
  -3  -7   2   23.58    1.22
   3  -7  -2   22.68    1.24
   3   7  -2   25.11    1.50
  -3  -7  -2   22.67    1.24
  -3   7   2   22.43    1.28
   3  -7   2   22.24    1.29
  -3  -7  -2   21.15    1.21
   3   7  -2   21.63    1.25
   3  -7   2   23.92    1.09
   3  -8  -2    0.39    0.36
  -3  -8   2    0.79    0.39
  -3  -8   2    0.32    0.42
   3  -8  -2    0.42    0.35
  -3   8  -2   -0.10    0.43
   3   8   2    0.74    0.48
  -3  -8  -2    0.55    0.37
   3  -8   2    0.01    0.37
  -3  -8  -2    0.57    0.38
   3   8  -2    0.37    0.55
  -3   8   2    0.39    0.41
   3  -9  -2   -0.22    0.33
  -3  -9   2    1.04    0.42
   3   9   2    1.50    0.61
   3  -9  -2    0.81    0.43
  -3   9  -2    0.58    0.53
  -3  -9   2    0.22    0.49
  -3  -9  -2    0.55    0.39
   3   9  -2    0.85    0.65
  -3  -9  -2    0.43    0.44
   3  -9   2    0.43    0.42
  -3   9   2    1.06    0.52
  -3  10  -2   -0.16    0.60
   3  10   2    0.07    0.61
  -3 -10   2   -0.25    0.54
  -3 -10   2    0.62    0.46
   3 -10  -2   -0.02    0.43
   3 -10  -2   -0.49    0.37
   3  10  -2   -0.58    0.73
   3 -10   2   -0.38    0.49
  -3 -10  -2   -0.43    0.46
  -3  10   2    0.01    0.55
  -3 -10  -2    0.34    0.47
   3  11   2    5.79    1.04
  -3  11  -2    4.78    0.88
  -3 -11   2    6.16    0.85
  -3 -11   2    5.62    0.72
   3 -11  -2    7.32    0.79
   3 -11  -2    7.19    0.85
   3  11  -2    6.23    1.23
  -3 -11  -2    5.33    0.77
  -3 -11  -2    8.69    0.91
   3 -11   2    4.94    0.80
  -3 -12   2    0.50    0.73
   3 -12  -2    0.75    0.59
  -3  12  -2    0.45    0.83
   3  12   2    0.03    0.78
  -3 -12  -2    0.76    0.62
   3  12  -2    1.20    1.06
  -3 -12  -2    1.07    0.70
   3 -12   2    0.37    0.60
  -4   0  -2   50.08    2.20
   4   0  -2   50.93    2.27
   4   0   2   51.07    2.22
   4   0   2   50.86    2.20
   4   0  -2   53.37    2.18
   4   0  -2   49.78    2.21
   4  -1  -2    2.83    0.31
  -4   1  -2    2.97    0.27
  -4  -1   2    3.21    0.35
   4   1   2    2.67    0.25
   4   1   2    2.04    0.27
   4  -1  -2    2.94    0.28
   4  -1   2    3.12    0.29
   4   1  -2    2.61    0.28
   4  -1   2    2.39    0.26
   4  -1   2    3.30    0.27
  -4  -1  -2    3.40    0.32
   4   1  -2    3.29    0.30
   4   1  -2    2.31    0.33
   4  -2  -2   25.56    1.24
   4  -2  -2   26.48    1.23
   4   2   2   26.63    1.20
   4   2   2   26.34    1.27
  -4  -2   2   25.64    1.28
  -4   2  -2   25.24    1.22
   4   2  -2   25.83    1.30
   4  -2   2   27.82    1.25
  -4  -2  -2   26.08    1.24
   4  -2   2   28.26    1.25
   4   2  -2   25.76    1.24
   4  -2   2   26.69    1.18
   4   2  -2   26.83    1.28
   4   3   2   48.81    2.26
   4   3   2   48.98    2.18
   4  -3  -2   52.43    2.22
  -4  -3   2   48.98    2.24
   4  -3  -2   51.04    2.21
  -4   3  -2   50.27    2.21
   4   3  -2   49.10    2.26
  -4  -3  -2   51.37    2.23
  -4   3   2   44.87    2.19
   4  -3   2   53.20    2.24
   4  -3   2   51.15    2.23
   4   3  -2   50.18    2.23
   4  -3   2   49.69    2.14
   4   3  -2   48.73    2.28
   4  -4  -2   16.89    0.89
  -4   4  -2   16.36    0.89
   4   4   2   16.59    0.83
   4  -4  -2   14.62    0.84
   4   4   2   15.93    0.94
  -4  -4   2   16.75    0.92
   4  -4   2   16.69    0.91
  -4   4   2   15.68    0.80
   4  -4   2   16.36    0.77
   4   4  -2   15.45    0.89
  -4  -4  -2   15.28    0.87
   4   4  -2   16.88    1.01
  -4  -5   2   51.06    2.34
   4   5   2   49.69    2.27
  -4  -5   2   51.90    2.32
   4   5   2   50.48    2.41
  -4   5  -2   50.87    2.34
   4  -5  -2   54.45    2.33
   4  -5  -2   52.17    2.29
   4   5  -2   52.35    2.36
   4   5  -2   51.55    2.46
   4  -5   2   51.10    2.19
   4  -5   2   53.64    2.35
  -4  -5  -2   47.56    2.28
  -4  -5  -2   49.73    2.32
  -4   5   2   47.97    2.27
   4  -6  -2    0.74    0.29
  -4  -6   2    0.95    0.36
  -4   6  -2    0.56    0.33
   4   6   2    0.72    0.29
  -4  -6   2    1.26    0.39
   4   6   2    0.79    0.38
   4  -6  -2    0.47    0.28
   4   6  -2    1.14    0.37
  -4   6   2    1.23    0.32
  -4  -6  -2    1.07    0.35
   4  -6   2    0.92    0.21
  -4  -6  -2    1.13    0.32
   4   6  -2    0.30    0.40
   4  -6   2    0.88    0.33
   4  -7  -2   62.55    2.88
   4   7   2   66.76    2.92
  -4  -7   2   66.14    2.94
  -4  -7   2   67.65    3.00
   4  -7  -2   60.79    2.94
  -4   7  -2   65.59    3.01
   4   7   2   64.87    3.10
   4   7  -2   62.66    2.98
  -4   7   2   65.02    2.96
   4  -7   2   62.07    2.81
  -4  -7  -2   65.95    2.93
   4  -7   2   65.33    2.97
  -4  -7  -2   64.76    2.96
   4   7  -2   64.24    3.16
   4  -8  -2    0.05    0.37
  -4  -8   2    0.07    0.40
  -4   8  -2   -0.19    0.40
   4  -8  -2   -0.04    0.34
   4   8   2   -0.08    0.34
  -4  -8   2   -0.05    0.35
   4   8   2    0.62    0.53
  -4   8   2    0.10    0.38
   4   8  -2    0.22    0.41
   4  -8   2    0.15    0.36
  -4  -8  -2    0.41    0.36
  -4  -8  -2    0.12    0.38
   4   8  -2   -0.14    0.50
   4  -9  -2   27.85    1.49
  -4  -9   2   28.80    1.66
   4   9   2   29.07    1.80
   4  -9  -2   26.10    1.53
  -4  -9   2   28.05    1.53
  -4   9  -2   27.51    1.67
  -4  -9  -2   27.19    1.54
  -4  -9  -2   25.37    1.55
   4  -9   2   29.03    1.60
  -4   9   2   29.10    1.66
   4   9  -2   29.28    1.97
   4  10   2    0.46    0.64
   4 -10  -2    1.29    0.48
   4 -10  -2    1.38    0.52
  -4 -10   2    1.13    0.63
  -4 -10   2    1.27    0.56
  -4  10  -2    1.25    0.63
   4  10  -2    0.70    0.86
  -4 -10  -2    1.56    0.54
   4 -10   2    1.07    0.52
  -4 -10  -2    2.08    0.58
   4  11   2   19.32    1.76
  -4  11  -2   22.31    1.59
  -4 -11   2   18.75    1.38
  -4 -11   2   21.53    1.55
   4  11  -2   19.32    1.91
  -4 -11  -2   19.87    1.41
   4 -11   2   19.95    1.49
  -4 -11  -2   21.38    1.42
  -4 -12   2    0.16    0.72
   4 -12  -2    0.68    0.62
   4  12   2    0.11    0.82
  -4 -12   2    0.54    0.83
  -4  12  -2    0.63    0.76
   4  12  -2    1.57    1.14
   4 -12   2    0.95    0.63
  -4 -12  -2    0.82    0.65
  -4 -12  -2    0.69    0.72
   5   0  -2   24.43    1.15
   5   0   2   24.95    1.19
   5   0   2   26.15    1.21
   5   0  -2   25.46    1.22
   5   0  -2   27.38    1.30
  -5   0  -2   25.62    1.22
   5   1   2    4.30    0.40
  -5   1  -2    4.10    0.36
   5   1   2    3.46    0.33
   5  -1  -2    4.18    0.43
   5  -1  -2    3.87    0.37
  -5  -1   2    4.26    0.45
   5   1  -2    3.66    0.36
   5   1  -2    3.81    0.36
   5  -1   2    3.90    0.35
  -5  -1  -2    4.94    0.42
   5  -1   2    4.20    0.36
   5   1  -2    3.97    0.45
   5  -1   2    4.56    0.38
   5   2   2    0.32    0.21
  -5   2  -2    0.74    0.21
  -5  -2   2    0.41    0.26
   5  -2  -2    0.60    0.22
   5   2   2    0.40    0.18
   5  -2  -2    0.52    0.25
   5  -2   2    0.31    0.19
   5   2  -2    0.25    0.23
   5  -2   2    0.18    0.17
   5   2  -2    0.36    0.21
   5  -2   2    0.54    0.20
  -5  -2  -2    0.40    0.21
   5   2  -2    0.48    0.27
  -5  -3   2   14.79    0.85
   5  -3  -2   13.34    0.80
   5   3   2   14.25    0.84
   5   3   2   14.97    0.75
   5  -3  -2   14.77    0.79
  -5   3  -2   14.55    0.76
   5  -3   2   13.14    0.77
   5  -3   2   13.24    0.73
   5  -3   2   13.22    0.81
   5   3  -2   14.06    0.87
  -5  -3  -2   14.47    0.82
   5   3  -2   14.22    0.87
   5   3  -2   13.56    0.80
   5   4   2   24.23    1.29
   5  -4  -2   22.99    1.17
   5   4   2   25.59    1.19
  -5  -4   2   22.25    1.23
  -5   4  -2   23.16    1.17
   5  -4  -2   24.29    1.22
   5   4  -2   22.36    1.21
  -5  -4  -2   26.48    1.25
   5  -4   2   23.56    1.20
  -5   4   2   23.51    1.06
   5  -4   2   21.05    1.20
   5  -4   2   24.27    1.12
   5   4  -2   22.59    1.29
   5   5   2    0.14    0.26
   5  -5  -2   -0.21    0.21
   5   5   2    0.07    0.31
  -5  -5   2    0.27    0.29
   5  -5  -2    0.19    0.28
  -5   5  -2    0.10    0.24
   5   5  -2    0.18    0.35
   5  -5   2    0.02    0.18
  -5   5   2    0.03    0.17
  -5  -5  -2   -0.18    0.26
   5  -5   2    0.01    0.26
   5   5  -2    0.14    0.27
  -5  -6   2    0.62    0.34
  -5  -6   2    0.90    0.36
   5   6   2    0.72    0.46
   5  -6  -2    0.69    0.29
   5   6   2    0.72    0.31
  -5   6  -2    1.13    0.34
   5  -6  -2    0.25    0.30
  -5  -6  -2    0.95    0.39
  -5  -6  -2    1.31    0.36
   5   6  -2    1.28    0.41
   5   6  -2    1.06    0.48
   5  -6   2    0.91    0.35
   5  -6   2    0.96    0.23
  -5   6   2    1.09    0.28
   5   7   2   11.51    1.04
  -5  -7   2   11.14    0.86
   5  -7  -2   11.32    0.83
  -5  -7   2   10.63    0.88
   5  -7  -2   11.85    0.77
   5   7   2   11.28    0.82
  -5   7  -2   11.89    0.85
  -5   7   2   11.06    0.78
  -5  -7  -2   11.13    0.92
   5  -7   2   12.18    0.91
   5   7  -2    9.17    1.03
   5   7  -2   11.11    0.86
  -5  -7  -2   12.35    0.85
   5  -8  -2   18.65    1.11
   5   8   2   16.10    1.29
  -5  -8   2   17.55    1.15
  -5   8  -2   17.02    1.13
  -5  -8   2   17.35    1.19
   5  -8  -2   16.52    1.04
   5   8   2   16.27    1.07
   5   8  -2   18.44    1.20
   5  -8   2   15.63    1.10
   5   8  -2   17.64    1.38
  -5  -8  -2   16.35    1.13
  -5  -8  -2   16.75    1.10
   5  -9  -2   -0.30    0.37
  -5  -9   2    0.18    0.44
   5   9   2    0.14    0.45
   5   9   2   -0.02    0.57
   5  -9  -2    0.14    0.43
  -5   9  -2    0.25    0.45
  -5  -9   2    0.58    0.52
   5   9  -2   -0.54    0.48
   5   9  -2    0.28    0.66
  -5  -9  -2   -0.12    0.49
  -5  -9  -2   -0.19    0.41
   5  -9   2   -0.23    0.47
   5 -10  -2    0.95    0.51
  -5 -10   2    0.90    0.59
  -5  10  -2    0.86    0.55
   5 -10  -2    0.24    0.45
  -5 -10   2    0.29    0.57
   5  10   2    1.49    0.80
   5  10  -2    0.20    0.77
  -5 -10  -2    1.30    0.56
  -5 -10  -2    0.81    0.58
   5 -10   2    0.73    0.52
   5  11   2    3.91    0.99
   5 -11  -2    4.86    0.79
  -5 -11   2    4.69    0.87
  -5 -11   2    3.27    0.76
  -5 -11  -2    4.93    0.86
   5 -11   2    3.00    0.72
  -5 -11  -2    3.96    0.77
   5  11  -2    4.31    1.14
   5  12   2    4.87    1.21
   5 -12  -2    6.35    0.89
  -5 -12   2    3.18    0.82
  -5 -12   2    6.16    0.98
   5  12  -2    6.19    1.29
   5 -12   2    4.76    0.83
  -5 -12  -2    3.89    0.81
  -5 -12  -2    5.10    0.90
   6   0  -2  229.48    9.67
   6   0  -2  232.04    9.58
   6   0   2  233.79    9.56
   6   0   2  227.13    9.57
   6   0  -2  225.66    9.50
   6   0   2  235.79    9.58
  -6   0  -2  226.16    9.58
   6  -1  -2    0.84    0.31
   6  -1  -2    0.33    0.21
   6   1   2    0.77    0.24
   6   1   2    0.65    0.23
  -6  -1   2    1.05    0.34
  -6   1  -2    1.05    0.27
   6  -1   2    0.96    0.23
   6   1  -2    1.04    0.25
  -6  -1  -2    0.97    0.28
   6   1  -2    1.05    0.24
   6  -1   2    1.22    0.24
   6   1  -2    1.21    0.34
   6  -1   2    0.58    0.23
   6   2   2  232.97    9.62
  -6  -2   2  230.40    9.66
   6   2   2  220.21    9.55
   6  -2  -2  232.93    9.64
   6  -2  -2  241.46    9.60
  -6   2  -2  222.99    9.57
   6  -2   2  233.97    9.60
  -6  -2  -2  227.83    9.62
   6   2  -2  229.46    9.61
   6   2  -2  220.30    9.59
   6   2  -2  224.29    9.68
   6  -2   2  240.18    9.56
   6  -2   2  232.96    9.56
   6  -3  -2    0.71    0.28
   6   3   2    0.45    0.24
  -6  -3   2    0.65    0.32
   6  -3  -2    0.93    0.29
   6   3   2    1.12    0.31
   6  -3   2    1.08    0.28
   6  -3   2    1.08    0.25
   6  -3   2    1.07    0.26
   6   3  -2    1.00    0.36
  -6  -3  -2    1.37    0.33
   6   3  -2    1.17    0.35
   6   3  -2    1.47    0.33
  -6   4  -2  136.41    5.71
   6  -4  -2  139.27    5.78
   6  -4  -2  137.38    5.62
   6   4   2  134.46    5.72
  -6  -4   2  130.61    5.79
   6   4   2  136.21    5.84
   6  -4  -2  138.57    5.75
  -6   4   2  136.39    5.57
   6   4  -2  132.13    5.77
   6  -4   2  131.35    5.72
  -6  -4  -2  128.54    5.78
   6   4  -2  136.05    5.85
   6  -4   2  135.78    5.78
   6  -4   2  134.94    5.69
   6  -5  -2    0.14    0.24
   6   5   2    0.25    0.28
  -6   5  -2    0.35    0.25
   6   5   2    0.24    0.35
  -6  -5   2    0.57    0.36
   6  -5  -2    0.46    0.33
   6  -5   2    0.24    0.27
   6  -5   2    0.41    0.31
  -6  -5  -2    0.25    0.33
   6   5  -2    0.31    0.30
   6   5  -2    1.04    0.43
   6  -5   2    0.02    0.23
   6  -6  -2   83.96    3.80
   6  -6  -2   86.58    3.74
   6   6   2   84.43    3.75
  -6  -6   2   85.07    3.81
  -6   6  -2   87.35    3.75
   6   6   2   87.73    3.94
  -6  -6   2   85.37    3.82
   6   6  -2   82.74    3.80
   6  -6   2   84.02    3.77
  -6  -6  -2   84.22    3.77
   6  -6   2   82.95    3.80
   6   6  -2   87.55    4.00
  -6  -6  -2   86.27    3.82
  -6  -7   2    1.33    0.45
   6  -7  -2    1.21    0.38
   6   7   2    0.22    0.54
   6   7   2    1.05    0.39
   6  -7  -2    0.48    0.41
  -6  -7   2    0.60    0.40
  -6   7  -2    0.75    0.36
   6  -7   2    0.69    0.43
   6   7  -2    0.28    0.58
  -6  -7  -2    0.70    0.45
   6   7  -2    1.51    0.44
  -6  -7  -2    0.84    0.41
   6  -8  -2   30.66    1.51
  -6   8  -2   29.60    1.58
   6   8   2   30.76    1.84
   6  -8  -2   31.03    1.63
   6   8   2   28.78    1.59
  -6  -8   2   27.44    1.61
  -6  -8   2   27.13    1.60
   6  -8   2   30.34    1.64
  -6  -8  -2   28.87    1.59
   6   8  -2   28.02    1.63
  -6  -8  -2   26.50    1.63
   6   8  -2   29.48    1.88
   6   9   2    0.08    0.45
   6  -9  -2    0.88    0.50
   6  -9  -2    0.15    0.36
  -6  -9   2   -0.37    0.50
  -6   9  -2    0.54    0.44
   6   9   2    0.19    0.62
  -6  -9   2   -0.32    0.45
  -6  -9  -2    0.40    0.55
   6   9  -2    0.14    0.52
   6   9  -2   -0.20    0.65
   6  -9   2   -0.58    0.48
  -6  -9  -2    0.53    0.50
  -6 -10   2   15.07    1.23
  -6 -10   2   14.10    1.14
   6 -10  -2   12.21    1.08
   6  10   2   16.79    1.53
   6  10  -2   14.19    1.60
   6  10  -2   10.41    1.10
  -6 -10  -2   12.89    1.23
   6 -10   2   13.16    1.19
  -6 -10  -2   11.92    1.08
   6 -11  -2    1.00    0.56
  -6 -11   2    0.43    0.64
  -6 -11   2    0.00    0.59
   6  11   2    0.16    0.81
  -6 -11  -2    0.03    0.65
   6 -11   2    0.23    0.57
  -6 -11  -2    0.93    0.62
   6  11  -2   -0.45    0.99
  -6 -12   2    1.12    0.76
   6 -12  -2    1.39    0.70
   6  12   2    0.54    1.01
  -6 -12   2    0.84    0.69
   6  12  -2    0.46    1.01
   6 -12   2    0.69    0.65
  -6 -12  -2    0.72    0.72
   7   0   2    0.75    0.25
   7   0  -2    0.09    0.18
  -7   0  -2    0.71    0.33
   7   0   2    0.68    0.24
   7   0   2    0.56    0.30
   7   0  -2    0.58    0.26
   7   0  -2    0.95    0.39
   7  -1  -2    0.36    0.24
   7  -1  -2    0.45    0.32
   7  -1  -2    0.37    0.14
   7   1   2    0.34    0.22
  -7   1  -2    0.66    0.28
   7   1   2    0.43    0.28
  -7  -1   2    0.11    0.31
  -7  -1  -2    0.15    0.28
   7  -1   2    0.41    0.23
   7  -1   2    0.74    0.24
   7   1  -2    0.52    0.29
   7   1  -2    0.70    0.36
   7  -1   2    0.28    0.26
   7   1  -2    0.48    0.24
   7  -2  -2   22.34    1.19
   7  -2  -2   23.54    1.27
  -7   2  -2   23.13    1.19
  -7  -2   2   22.19    1.27
   7   2   2   21.92    1.22
   7   2   2   22.97    1.16
   7  -2   2   22.37    1.19
   7   2  -2   22.59    1.31
   7   2  -2   21.82    1.19
   7   2  -2   21.76    1.20
  -7  -2  -2   24.01    1.25
   7  -2   2   23.97    1.15
   7  -2   2   23.00    1.17
   7  -3  -2    2.28    0.42
   7   3   2    1.96    0.41
   7  -3  -2    2.92    0.41
  -7  -3   2    1.93    0.45
   7   3   2    3.02    0.37
  -7   3  -2    1.77    0.37
   7  -3   2    3.63    0.45
   7   3  -2    3.74    0.47
   7  -3   2    3.34    0.37
  -7  -3  -2    2.44    0.45
   7  -3   2    2.40    0.36
   7   3  -2    2.48    0.46
   7   3  -2    1.39    0.43
   7   4   2   -0.23    0.34
  -7   4  -2    0.18    0.21
   7  -4  -2    0.31    0.33
  -7  -4   2   -0.50    0.31
   7  -4  -2   -0.13    0.30
   7   4   2    0.00    0.25
   7  -4   2   -0.20    0.27
   7  -4   2    0.05    0.25
   7  -4   2    0.20    0.26
  -7  -4  -2    0.48    0.37
   7   4  -2    0.02    0.29
   7   4  -2    0.18    0.35
   7   5   2    4.86    0.65
   7  -5  -2    4.83    0.56
  -7   5  -2    4.25    0.46
  -7  -5   2    5.26    0.63
   7   5   2    3.64    0.47
   7  -5  -2    3.61    0.49
   7   5  -2    4.06    0.57
  -7  -5  -2    4.20    0.58
   7  -5   2    3.78    0.46
   7   5  -2    4.81    0.72
   7  -5   2    2.52    0.46
   7  -5   2    4.50    0.47
   7  -6  -2   19.40    1.18
   7   6   2   20.53    1.14
  -7  -6   2   20.26    1.23
   7  -6  -2   18.41    1.12
   7   6   2   19.10    1.31
  -7   6  -2   20.91    1.10
   7   6  -2   19.84    1.42
   7  -6   2   19.83    1.14
   7  -6   2   18.11    1.20
  -7  -6  -2   17.80    1.21
   7   6  -2   19.94    1.23
  -7  -7   2    3.68    0.57
   7  -7  -2    3.52    0.50
   7   7   2    4.44    0.73
   7   7   2    2.60    0.49
  -7   7  -2    3.62    0.49
   7  -7  -2    3.51    0.56
  -7  -7   2    4.08    0.65
  -7  -7  -2    3.47    0.52
  -7  -7  -2    2.64    0.61
   7   7  -2    2.11    0.53
   7  -7   2    3.68    0.58
   7   7  -2    3.63    0.78
   7  -7   2    4.32    0.56
   7   8   2    0.26    0.39
   7   8   2   -0.61    0.53
   7  -8  -2   -0.51    0.42
  -7  -8   2    0.39    0.45
  -7  -8   2    0.03    0.48
   7  -8  -2   -0.10    0.38
   7   8  -2    0.03    0.44
  -7  -8  -2   -0.26    0.39
  -7  -8  -2   -0.47    0.49
   7  -8   2   -0.15    0.41
   7   8  -2   -0.24    0.69
   7   9   2    3.07    0.83
   7  -9  -2    1.91    0.55
  -7  -9   2    1.51    0.57
  -7  -9   2    0.89    0.58
   7   9   2    1.99    0.60
  -7  -9  -2    2.35    0.59
   7   9  -2    2.28    0.94
  -7  -9  -2    1.79    0.67
   7   9  -2    2.30    0.66
   7  -9   2    1.43    0.61
   7  10   2   11.21    1.30
   7 -10  -2   10.15    1.01
  -7 -10   2   10.77    1.07
  -7 -10   2    9.98    1.06
   7  10  -2    8.49    1.37
   7  10  -2    8.80    0.99
  -7 -10  -2    9.95    0.99
   7 -10   2   10.38    1.02
  -7 -10  -2    8.64    1.05
  -7 -11   2    0.02    0.65
   7  11   2   -0.24    0.83
  -7 -11   2    0.76    0.74
   7 -11  -2    0.79    0.61
  -7 -11  -2   -0.14    0.61
   7 -11   2    1.17    0.69
  -7 -11  -2   -0.01    0.80
   7  11  -2    0.57    1.06
   8   0   2   42.37    2.12
   8   0   2   45.23    2.17
   8   0  -2   49.28    2.17
   8   0  -2   46.07    2.05
  -8   0  -2   45.01    2.19
  -8   0   2   44.65    2.25
   8   0   2   48.74    2.15
   8   0  -2   45.75    2.28
  -8  -1   2    6.82    0.76
  -8   1  -2    9.52    0.76
   8   1   2    8.13    0.67
   8  -1  -2    9.34    0.85
   8  -1  -2    9.67    0.69
   8   1   2    7.91    0.63
  -8  -1  -2    8.17    0.74
   8   1  -2    8.44    0.72
   8  -1   2    7.57    0.61
   8   1  -2    9.06    0.64
   8   1  -2    9.33    0.85
   8  -1   2    9.50    0.70
   8  -1   2    9.78    0.70
  -8  -2   2    0.83    0.40
   8  -2  -2    0.78    0.31
  -8   2  -2    0.39    0.32
   8  -2  -2   -0.34    0.35
   8   2   2    0.56    0.28
   8   2   2    0.74    0.32
   8   2  -2    0.23    0.33
   8  -2   2    0.46    0.32
   8   2  -2    0.59    0.33
  -8  -2  -2    1.09    0.40
   8  -2   2    0.55    0.32
   8   2  -2    0.34    0.42
   8  -2   2    0.73    0.28
   8  -3  -2   19.97    1.16
  -8  -3   2   20.69    1.25
   8   3   2   20.17    1.15
  -8   3  -2   19.73    1.15
   8  -3  -2   22.02    1.24
   8   3   2   20.74    1.24
   8   3  -2   20.69    1.29
   8   3  -2   20.70    1.24
   8  -3   2   21.79    1.18
   8  -3   2   20.03    1.13
   8   3  -2   20.26    1.20
   8  -3   2   21.41    1.09
  -8  -3  -2   19.45    1.22
   8  -4  -2   25.04    1.35
   8   4   2   23.57    1.32
   8   4   2   24.21    1.44
   8  -4  -2   25.96    1.40
  -8  -4   2   24.03    1.41
   8  -4   2   21.80    1.35
   8  -4   2   24.22    1.25
   8  -4   2   25.58    1.31
   8   4  -2   25.33    1.38
  -8  -4  -2   24.68    1.41
   8   4  -2   24.33    1.45
   8   5   2   60.17    2.74
  -8  -5   2   55.98    2.81
   8   5   2   61.90    2.92
   8  -5  -2   57.13    2.78
   8  -5  -2   59.16    2.75
   8  -5   2   60.25    2.80
   8   5  -2   56.94    2.89
   8  -5   2   60.19    2.67
  -8  -5  -2   61.84    2.85
   8   5  -2   57.47    2.79
   8   6   2    0.70    0.41
   8  -6  -2    0.65    0.39
   8  -6  -2    0.25    0.40
  -8  -6   2    1.04    0.51
   8   6   2    0.01    0.46
  -8  -6  -2    1.20    0.55
   8   6  -2   -0.31    0.43
   8   6  -2    0.83    0.56
   8  -6   2    0.27    0.41
   8   7   2   39.86    2.22
  -8  -7   2   37.60    1.98
   8   7   2   38.83    1.97
  -8  -7   2   38.85    2.08
   8  -7  -2   39.04    1.95
   8  -7  -2   40.27    2.05
   8   7  -2   36.49    2.21
   8   7  -2   35.18    1.99
  -8  -7  -2   39.25    1.98
   8  -7   2   39.30    2.02
  -8  -7  -2   36.53    2.05
   8  -8  -2    4.78    0.69
   8   8   2    4.87    0.67
   8  -8  -2    4.34    0.62
   8   8   2    4.46    0.89
  -8  -8   2    4.67    0.70
  -8  -8   2    3.93    0.75
   8  -8   2    4.92    0.72
  -8  -8  -2    4.15    0.78
  -8  -8  -2    4.84    0.69
   8   8  -2    5.05    0.96
   8   8  -2    4.59    0.69
  -8  -9   2   35.11    1.99
   8   9   2   34.62    1.96
   8   9   2   36.16    2.25
  -8  -9   2   35.91    2.01
   8  -9  -2   34.72    1.97
   8   9  -2   37.88    2.35
   8  -9   2   32.55    1.94
  -8  -9  -2   36.17    2.07
  -8  -9  -2   35.53    1.95
   8   9  -2   34.06    2.03
  -8 -10   2    2.65    0.69
   8 -10  -2    3.11    0.74
   8  10   2    2.22    1.00
  -8 -10   2    1.71    0.71
   8  10   2    2.65    0.72
   8  10  -2    2.85    0.78
   8 -10   2    4.23    0.79
   8  10  -2    2.93    1.07
  -8 -10  -2    2.41    0.70
  -8 -10  -2    3.20    0.90
   8 -11  -2    8.64    1.01
   8  11   2   10.88    1.48
  -8 -11   2    9.61    1.12
  -8 -11   2   10.15    1.15
   8  11  -2    9.51    1.51
   8  11  -2   12.58    1.26
  -8 -11  -2    9.09    1.06
  -8 -11  -2    9.48    1.18
   8 -11   2    9.13    1.10
  -9   0  -2    3.55    0.58
   9   0  -2    4.51    0.68
   9   0   2    3.45    0.47
   9   0   2    2.62    0.43
   9   0  -2    2.89    0.46
  -9   0   2    3.16    0.59
   9  -1  -2    3.71    0.64
   9  -1  -2    3.25    0.48
  -9  -1   2    3.29    0.59
   9   1   2    3.02    0.45
   9   1   2    3.83    0.48
  -9   1  -2    3.55    0.55
  -9  -1  -2    2.22    0.51
   9  -1   2    2.77    0.48
   9  -1   2    4.03    0.46
   9   1  -2    3.35    0.65
   9  -1   2    4.21    0.54
   9   1  -2    3.56    0.50
   9   1  -2    3.42    0.46
   9   2   2    0.78    0.39
  -9  -2   2    0.53    0.46
   9  -2  -2   -0.37    0.46
  -9   2  -2    1.02    0.40
   9  -2  -2    0.28    0.33
   9   2   2    0.43    0.32
  -9  -2  -2    0.31    0.42
   9   2  -2    0.32    0.36
   9  -2   2    0.29    0.32
   9  -2   2    0.62    0.37
   9   2  -2    0.27    0.34
   9   2  -2    0.64    0.47
   9  -2   2    0.39    0.28
   9  -3  -2    0.51    0.45
   9  -3  -2    0.36    0.35
   9   3   2    0.96    0.40
  -9   3  -2    0.35    0.35
   9   3   2    0.77    0.44
  -9  -3   2    1.11    0.49
   9   3  -2    1.02    0.41
   9  -3   2    0.98    0.38
  -9  -3  -2    0.78    0.51
   9   3  -2    1.11    0.44
   9   3  -2    0.79    0.54
   9  -3   2    1.12    0.41
   9  -3   2    0.71    0.30
   9   4   2    2.52    0.45
  -9  -4   2    2.44    0.58
  -9   4  -2    2.24    0.46
   9   4   2    2.39    0.54
   9  -4  -2    2.07    0.51
   9  -4  -2    2.15    0.51
   9  -4   2    2.82    0.50
   9   4  -2    2.75    0.62
  -9  -4  -2    2.68    0.60
   9  -4   2    1.73    0.46
   9   4  -2    2.66    0.53
  -9  -5   2   10.45    1.00
   9  -5  -2   13.98    1.05
   9  -5  -2   13.50    1.04
   9   5   2   14.54    1.19
   9   5   2   13.41    0.96
  -9  -5  -2   13.07    1.11
   9   5  -2    9.95    0.94
   9  -5   2   10.47    0.95
   9   5  -2   11.93    1.12
   9   6   2   -0.40    0.41
  -9  -6   2    0.39    0.55
   9  -6  -2   -0.26    0.38
   9  -6  -2    1.18    0.48
   9   6   2   -0.05    0.52
   9   6  -2   -0.43    0.54
   9  -6   2    0.89    0.50
   9   6  -2   -0.14    0.42
  -9  -6  -2   -0.45    0.49
   9  -7  -2    2.09    0.55
   9   7   2    0.62    0.63
  -9  -7   2    2.64    0.61
   9  -7  -2    2.63    0.57
  -9  -7   2    1.77    0.70
   9   7   2    2.18    0.56
  -9  -7  -2    3.07    0.70
   9  -7   2    2.20    0.58
   9   7  -2    2.49    0.59
   9   7  -2    2.64    0.77
   9  -8  -2    0.33    0.54
  -9  -8   2    0.57    0.61
   9   8   2    0.95    0.50
   9   8   2    2.14    0.83
  -9  -8   2    1.69    0.62
  -9  -8  -2    1.16    0.70
  -9  -8  -2    1.24    0.55
   9   8  -2    2.15    0.62
   9  -8   2    1.52    0.57
   9   8  -2    1.40    0.82
   9   9   2    5.42    1.04
  -9  -9   2    5.58    0.82
   9  -9  -2    6.42    0.89
   9   9   2    5.97    0.88
  -9  -9   2    5.68    0.89
   9   9  -2    7.02    1.24
  -9  -9  -2    4.39    0.93
  -9  -9  -2    5.37    0.81
   9  -9   2    7.52    0.93
   9   9  -2    5.84    0.85
   9  10   2    0.48    0.64
  -9 -10   2    0.05    0.77
   9 -10  -2    0.64    0.66
   9  10   2    0.88    0.97
  -9 -10   2    0.20    0.58
  -9 -10  -2    0.54    0.76
   9  10  -2    1.12    0.97
   9  10  -2    0.52    0.63
  -9 -10  -2    0.43    0.62
   9 -10   2    0.73    0.68
  10   0   2   12.31    0.91
  10   0  -2   13.78    1.19
  10   0   2   13.96    0.98
 -10   0   2   16.45    1.13
  10   0  -2   13.92    1.01
 -10   0  -2   15.57    1.05
  10   1   2    0.61    0.35
  10   1   2   -0.32    0.35
  10  -1  -2   -0.63    0.53
 -10   1  -2    0.50    0.47
 -10  -1   2    0.12    0.46
  10  -1  -2   -0.24    0.35
 -10  -1  -2    0.19    0.50
 -10   1   2    0.42    0.47
  10  -1   2    0.10    0.42
  10   1  -2   -1.39    0.45
  10  -1   2    0.04    0.31
  10  -1   2    0.04    0.34
  10   1  -2    0.19    0.37
  10  -2  -2    2.58    0.54
  10   2   2    2.26    0.52
  10  -2  -2    2.75    0.70
 -10   2  -2    1.77    0.50
  10   2   2    1.65    0.43
 -10  -2   2    1.66    0.56
  10  -2   2    1.27    0.47
  10   2  -2    2.29    0.64
  10   2  -2    0.56    0.40
 -10  -2  -2    1.56    0.56
  10  -2   2    1.30    0.42
  10  -2   2    1.45    0.43
  10   2  -2    1.60    0.48
  10   3   2    0.94    0.45
  10   3   2    1.30    0.46
  10  -3  -2    0.38    0.41
 -10   3  -2    0.52    0.41
 -10  -3   2    1.60    0.57
  10  -3  -2    0.76    0.57
 -10  -3  -2    2.33    0.60
  10  -3   2    1.28    0.46
  10   3  -2    0.91    0.48
  10  -3   2    0.97    0.43
  10   3  -2    1.54    0.65
  10   3  -2    1.40    0.54
  10   4   2    8.55    0.92
  10   4   2    8.65    0.77
 -10  -4   2    7.74    0.88
  10  -4  -2    8.82    0.94
  10  -4  -2    6.42    0.76
  10   4  -2    7.88    0.91
  10  -4   2    9.06    0.87
 -10  -4  -2    8.21    0.92
  10   4  -2    7.79    0.87
  10   5   2    0.15    0.41
  10  -5  -2    0.90    0.50
 -10  -5   2   -0.33    0.52
  10  -5  -2    0.01    0.45
  10   5   2    0.45    0.51
  10   5  -2    0.22    0.58
  10   5  -2    0.06    0.49
  10  -5   2   -0.45    0.41
 -10  -5  -2    0.12    0.63
  10   6   2   -0.10    0.47
  10  -6  -2    0.61    0.49
  10  -6  -2    0.28    0.48
 -10  -6   2   -0.16    0.57
  10   6   2    0.18    0.57
  10  -6   2    0.28    0.46
  10   6  -2   -0.11    0.64
  10   6  -2   -0.64    0.44
 -10  -6  -2    0.22    0.59
  10   7   2    1.57    0.70
 -10  -7   2    1.11    0.67
  10  -7  -2    0.64    0.52
  10  -7  -2    1.11    0.52
  10   7   2    1.36    0.58
  10   7  -2    1.34    0.57
  10   7  -2    0.64    0.72
 -10  -7  -2    1.50    0.71
  10  -7   2    0.34    0.51
 -10  -8   2    1.34    0.72
  10   8   2    1.01    0.61
 -10  -8   2    0.52    0.54
  10  -8  -2   -0.60    0.53
  10   8   2    0.50    0.77
 -10  -8  -2    2.33    0.82
  10   8  -2    0.35    0.76
  10  -8   2    0.71    0.57
 -10  -8  -2    1.35    0.58
  10   8  -2    0.88    0.59
  10   9   2   -0.26    0.52
  10  -9  -2    0.00    0.60
  10   9   2   -0.38    0.75
 -10  -9   2   -0.37    0.66
 -10  -9   2    0.37    0.63
  10  -9   2   -0.40    0.60
 -10  -9  -2    0.27    0.58
  10   9  -2    0.10    0.64
 -10  -9  -2   -0.81    0.71
  10   9  -2    0.40    0.84
  10  10   2    1.03    0.65
 -10 -10   2    0.69    0.63
 -10 -10   2    0.52    0.83
  10 -10  -2   -0.17    0.63
  10  10   2    1.44    0.95
  10 -10   2    1.95    0.79
  10  10  -2    1.14    1.04
 -10 -10  -2    1.39    0.68
 -10 -10  -2    0.44    0.82
  10  10  -2    1.09    0.71
  11   0   2   12.50    1.03
  11   0  -2   14.90    1.09
  11   0   2   13.66    0.94
 -11   0  -2   13.98    1.17
 -11   0   2   13.11    1.14
  11   0  -2   12.43    1.23
 -11   1  -2    2.16    0.60
  11  -1  -2    3.09    0.57
  11   1   2    3.66    0.60
  11  -1  -2    1.99    0.76
 -11  -1   2    1.64    0.62
  11   1   2    2.22    0.52
  11   1  -2    5.06    0.83
 -11  -1  -2    1.86    0.67
  11  -1   2    2.66    0.63
 -11   1   2    1.66    0.64
  11   1  -2    2.53    0.55
  11  -1   2    3.06    0.56
  11  -2  -2    3.19    0.63
  11   2   2    1.88    0.49
  11   2   2    1.49    0.50
 -11   2  -2    1.93    0.57
 -11  -2   2    2.03    0.66
  11  -2  -2    3.06    0.73
 -11   2   2    1.68    0.60
 -11  -2  -2    1.49    0.68
  11   2  -2    2.51    0.59
  11  -2   2    3.01    0.62
  11   2  -2    2.57    0.73
  11  -2   2    2.19    0.52
  11   3   2    5.75    0.80
  11  -3  -2    3.89    0.78
 -11   3  -2    3.22    0.60
  11   3   2    4.32    0.65
 -11  -3   2    3.48    0.74
  11  -3  -2    5.53    0.74
 -11  -3  -2    6.23    0.91
  11   3  -2    3.93    0.70
  11   3  -2    2.21    0.74
  11   3  -2    3.18    0.62
  11  -3   2    4.29    0.69
  11  -3   2    4.73    0.70
  11   4   2   17.10    1.17
  11   4   2   15.43    1.22
 -11  -4   2   15.26    1.31
  11  -4  -2   14.61    1.17
  11  -4  -2   18.45    1.31
  11  -4   2   17.83    1.21
  11   4  -2   16.45    1.35
  11   4  -2   15.44    1.19
 -11  -4  -2   15.71    1.33
  11  -5  -2    0.95    0.59
  11  -5  -2    0.76    0.58
 -11  -5   2    1.33    0.68
  11   5   2    1.16    0.59
  11   5   2    1.41    0.52
 -11  -5  -2    1.36    0.73
  11   5  -2    0.93    0.67
  11   5  -2    2.07    0.63
  11  -5   2    0.98    0.52
  11   6   2    0.08    0.51
 -11  -6   2    0.74    0.66
  11  -6  -2   -0.34    0.58
  11   6   2   -0.87    0.63
  11  -6  -2   -0.65    0.54
  11  -6   2    0.00    0.51
  11   6  -2   -0.26    0.67
 -11  -6  -2    1.14    0.72
  11   6  -2    0.01    0.58
 -11  -7   2    2.65    0.84
  11   7   2    1.61    0.63
  11   7   2    2.01    0.79
  11  -7  -2    3.81    0.77
  11   7  -2    2.27    0.91
 -11  -7  -2    3.43    0.93
  11  -7   2    2.58    0.67
  11   7  -2    1.56    0.71
 -11  -8   2   15.37    1.45
  11   8   2   14.53    1.28
  11   8   2   14.33    1.49
  11  -8  -2   14.57    1.27
 -11  -8   2   16.18    1.31
 -11  -8  -2   13.93    1.40
  11  -8   2   13.19    1.24
  11   8  -2   15.54    1.36
  11   8  -2   13.89    1.60
 -11  -8  -2   13.94    1.21
  11   9   2    1.00    0.61
 -11  -9   2    0.64    0.62
  11  -9  -2    0.88    0.65
  11   9   2    0.10    0.96
 -11  -9   2    0.90    0.81
  11   9  -2    0.73    0.66
 -11  -9  -2    0.22    0.61
  11  -9   2    1.21    0.72
 -11  -9  -2    0.53    0.85
  11   9  -2   -0.80    0.93
 -12   0   2   -0.63    0.61
  12   0  -2    1.30    0.81
 -12   0  -2   -0.72    0.55
  12   0  -2    0.56    0.47
  12   0   2   -0.21    0.42
 -12  -1   2   -0.04    0.59
 -12   1  -2   -0.92    0.45
  12  -1  -2   -0.34    0.44
  12   1   2    0.22    0.50
  12  -1  -2    0.00    0.65
  12   1   2   -0.43    0.61
  12   1  -2   -1.45    0.62
 -12  -1  -2   -0.52    0.52
  12  -1   2    0.63    0.47
 -12   1   2    0.46    0.61
  12   1  -2    0.14    0.45
 -12  -2   2    1.02    0.67
  12   2   2    1.36    0.56
  12   2   2    1.13    0.56
 -12   2  -2    0.79    0.56
  12  -2  -2    1.44    0.58
  12  -2  -2    0.65    0.75
 -12   2   2    2.32    0.74
  12  -2   2    1.14    0.60
  12  -2   2    1.15    0.56
 -12  -2  -2    1.64    0.74
  12   2  -2    0.31    0.56
  12   2  -2    0.36    0.68
  12   3   2    0.63    0.55
  12  -3  -2    1.42    0.58
  12   3   2    1.87    0.63
 -12  -3   2    1.28    0.71
  12  -3  -2    0.02    0.71
  12   3  -2    0.38    0.56
  12  -3   2    0.56    0.50
 -12   3   2    0.71    0.58
 -12  -3  -2    0.01    0.65
  12  -4  -2    5.36    0.94
  12   4   2    4.53    0.72
  12   4   2    2.76    0.75
  12  -4  -2    4.44    0.75
 -12  -4   2    5.00    0.94
 -12  -4  -2    6.70    1.05
  12  -4   2    3.91    0.70
  12   4  -2    4.03    0.75
  12  -5  -2    1.14    0.72
  12   5   2    1.53    0.74
  12  -5  -2    1.80    0.71
  12   5   2    1.03    0.62
 -12  -5   2    2.00    0.76
  12   5  -2    1.23    0.75
  12   5  -2    1.11    0.61
 -12  -5  -2    1.54    0.81
  12  -5   2    1.14    0.64
  12   6   2    8.72    1.01
  12  -6  -2    9.62    1.04
  12   6   2    8.71    1.12
 -12  -6   2   10.60    1.24
  12   6  -2   10.47    1.10
 -12  -6  -2   10.31    1.27
  12   6  -2   12.39    1.35
  12  -6   2    8.56    0.98
  12   7   2    1.94    0.92
  12  -7  -2    0.88    0.63
 -12  -7   2    0.32    0.77
  12   7   2    1.22    0.61
  12   7  -2    0.82    0.71
  12  -7   2    0.39    0.62
  12   7  -2    1.88    0.90
 -12  -7  -2    0.44    0.81
  12   8   2   17.48    1.74
 -12  -8   2   15.99    1.55
 -12  -8   2   17.75    1.35
  12  -8  -2   17.55    1.51
  12   8   2   15.25    1.33
  12   8  -2   13.92    1.32
  12  -8   2   14.65    1.33
 -12  -8  -2   16.53    1.58
  12   8  -2   14.79    1.68
 -12  -8  -2   14.46    1.30
  13   0  -2    0.77    0.77
 -13   0   2   -0.32    0.59
  13   0  -2    0.12    0.57
 -13   0  -2   -0.02    0.65
  13   0   2    0.63    0.59
  13   1   2   -0.54    0.55
  13  -1  -2    0.76    0.55
 -13   1  -2    0.16    0.61
  13  -1  -2    1.23    0.79
 -13  -1   2   -0.12    0.73
 -13  -1  -2   -0.15    0.70
 -13   1   2   -0.62    0.58
  13  -1   2   -0.22    0.48
  13   1  -2    0.15    0.52
  13   1  -2    0.11    0.82
  13   2   2    0.92    0.54
  13  -2  -2    1.36    0.87
 -13  -2   2    1.34    0.84
  13  -2  -2    1.79    0.70
  13   2  -2    0.97    0.83
 -13  -2  -2    2.37    0.86
  13  -2   2    0.95    0.68
  13   2  -2    0.65    0.62
  13  -2   2    1.09    0.59
 -13   2   2    1.62    0.72
  13  -3  -2    0.92    0.65
  13   3   2    0.69    0.61
 -13  -3   2    1.16    0.75
  13   3   2    1.01    0.68
  13  -3  -2    0.07    0.78
 -13  -3  -2   -0.20    0.70
  13  -3   2    0.50    0.55
 -13   3   2    0.02    0.63
  13   3  -2    0.86    0.59
  13  -4  -2   -0.03    0.78
  13   4   2    0.31    0.53
  13   4   2    0.71    0.67
 -13  -4   2    0.50    0.75
  13  -4  -2   -0.39    0.61
  13  -4   2    0.07    0.55
 -13   4   2    1.38    0.67
 -13  -4  -2    0.79    0.79
  13   4  -2   -0.57    0.55
  13  -5  -2    1.03    0.81
  13  -5  -2    2.26    0.75
  13   5   2    0.20    0.66
 -13  -5   2    1.27    0.82
  13   5   2    2.17    0.76
 -13  -5  -2   -0.51    0.89
  13   5  -2    1.27    0.74
  13  -5   2   -0.30    0.58
  13   6   2    3.16    0.96
 -13  -6   2    3.11    0.89
  13  -6  -2    3.57    0.80
  13   6   2    1.81    0.67
 -13  -6  -2    2.28    0.95
  13  -6   2    3.27    0.85
  13   6  -2    2.59    0.82
  13   7   2   -0.28    0.63
  13  -7  -2    0.92    0.69
 -13  -7   2    0.21    0.90
  13   7   2   -0.34    0.78
  13  -7   2    1.35    0.70
 -13  -7  -2    0.47    0.91
  13   7  -2    0.47    0.69
  13   7  -2    1.26    0.94
 -14   0   2    1.53    0.74
  14   0  -2    2.60    0.93
 -14   0  -2   -0.73    0.70
  14   0  -2    1.88    0.74
  14   0   2    1.17    0.69
  14   1   2    1.94    0.64
  14  -1  -2    2.05    0.70
 -14   1  -2    0.79    0.69
 -14  -1   2    1.04    0.78
  14  -1  -2   -0.18    0.90
  14   1  -2    0.13    0.80
  14   1  -2    1.41    0.72
 -14   1   2    0.50    0.80
  14  -1   2    0.32    0.66
 -14  -1  -2    1.87    0.78
  14   2   2    1.04    0.71
  14  -2  -2    2.54    1.04
  14  -2  -2    1.46    0.74
 -14  -2   2    3.24    0.89
 -14  -2  -2    2.17    0.85
  14   2  -2    2.17    0.75
 -14   2   2    1.17    0.77
  14  -2   2    1.46    0.69
 -14  -3   2    3.62    0.97
  14  -3  -2    4.57    0.91
  14  -3  -2    2.62    1.01
  14   3   2    4.10    0.82
  14  -3   2    3.99    0.84
 -14   3   2    4.15    0.82
 -14  -3  -2    3.65    0.97
  14   3  -2    3.17    0.78
 -14  -4   2    0.80    0.93
  14  -4  -2    2.08    0.75
  14  -4  -2    2.07    0.98
  14   4   2    0.41    0.68
  14   4  -2    2.57    0.83
 -14  -4  -2    2.26    0.96
 -14   4   2    2.36    0.80
  14  -4   2    0.92    0.66
 -14  -5   2   -0.04    0.79
  14   5   2   -0.06    0.80
  14  -5  -2    0.71    0.74
  14   5   2    0.21    0.69
 -14  -5  -2    1.43    0.96
  14   5  -2   -0.48    0.62
  14  -5   2    0.06    0.70
 -14  -6   2    1.13    0.86
  14   6   2    1.23    0.94
  14  -6  -2    1.05    0.71
  14   6   2    0.02    0.69
  14   6  -2   -0.28    0.67
 -14  -6  -2   -0.66    0.92
  14  -6   2   -1.03    0.62
  15   0  -2   -0.88    0.88
  15   0  -2    0.47    0.74
 -15   0   2    0.52    0.78
 -15   0  -2   -0.24    0.76
  15   0   2    0.19    0.63
 -15  -1   2    3.27    0.98
  15  -1  -2    3.74    0.91
  15  -1  -2    3.91    1.07
  15   1   2    3.82    0.82
 -15   1   2    3.00    0.88
  15  -1   2    5.74    0.95
  15   1  -2    5.72    1.18
  15   1  -2    4.43    0.86
 -15  -1  -2    2.46    0.87
 -15  -2   2   -0.64    0.78
  15   2   2    0.92    0.74
  15  -2  -2    2.48    1.07
  15  -2  -2    1.32    0.82
 -15   2   2    0.42    0.83
 -15  -2  -2    0.81    0.96
  15  -2   2    1.00    0.68
  15   2  -2    0.16    0.66
  15  -3  -2    0.11    0.87
  15  -3  -2    0.69    0.73
 -15  -3   2   -0.13    0.86
  15   3   2    0.18    0.62
  15   3  -2    0.46    0.67
  15  -3   2   -0.51    0.73
 -15  -3  -2    0.47    0.98
 -15   3   2    0.59    0.71
 -15  -4   2    1.98    0.95
  15  -4  -2   -1.28    0.70
  15   4   2   -0.45    0.72
 -15  -4  -2    0.51    0.94
  15  -4   2    1.26    0.74
  15   4  -2   -0.04    0.70
  16   0   2    3.98    0.99
  16   0  -2    4.88    1.22
 -16   0   2    2.85    0.98
  16   0  -2    3.84    0.90
 -16  -1   2    2.10    0.96
  16   1   2    2.81    0.88
  16  -1  -2    1.47    1.15
  16  -1  -2    1.63    0.81
 -16  -1  -2    0.69    0.93
  16  -1   2    0.85    0.83
  16   1  -2    0.88    0.77
 -16   1   2    1.33    0.96
   0   0  -3    0.09    0.08
   0   0  -3    0.08    0.06
   0   0   3    0.04    0.11
   0   0   3    0.13    0.06
   0   0  -3    0.14    0.10
   0   1  -3    0.23    0.15
   0  -1   3    0.06    0.09
   0  -1  -3    0.13    0.10
   0   1  -3    0.08    0.08
   0   1  -3    0.13    0.08
   0   1   3   -0.03    0.10
   0  -2  -3    0.06    0.07
   0   2  -3    0.21    0.19
   0  -2   3    0.09    0.08
   0  -2   3    0.00    0.12
   0   2  -3   -0.06    0.09
   0  -2  -3    0.00    0.13
   0   2   3    0.05    0.11
   0  -3   3  103.35    4.23
   0  -3   3   97.46    4.30
   0  -3  -3  106.18    4.31
   0   3  -3  101.05    4.44
   0  -3  -3  102.28    4.25
   0   3   3  101.97    4.31
   0  -4  -3   -0.04    0.18
   0  -4   3    0.11    0.19
   0   4   3    0.11    0.16
   0  -4   3    0.18    0.12
   0   4  -3    0.06    0.27
   0  -4  -3   -0.15    0.12
   0   5  -3   44.30    2.18
   0  -5   3   45.37    1.91
   0  -5  -3   45.37    2.01
   0  -5   3   41.34    2.01
   0   5   3   41.85    2.02
   0  -5  -3   45.25    1.96
   0   6   3   -0.01    0.24
   0  -6   3    0.18    0.29
   0  -6  -3   -0.03    0.20
   0   6  -3   -0.53    0.33
   0  -6  -3    0.03    0.24
   0  -6   3   -0.15    0.15
   0  -7   3  110.05    4.73
   0  -7  -3  106.47    4.67
   0  -7   3  104.57    4.57
   0  -7  -3  107.06    4.65
   0   7  -3  109.08    4.91
   0   7   3  111.94    4.77
   0  -8   3    0.11    0.28
   0   8   3    0.12    0.40
   0  -8  -3   -0.16    0.29
   0   8  -3    0.24    0.57
   0  -8   3   -0.14    0.36
   0  -8  -3   -0.67    0.31
   0  -9  -3   25.70    1.45
   0  -9  -3   26.26    1.47
   0  -9   3   26.26    1.55
   0   9  -3   27.17    1.76
   0   9   3   26.53    1.63
   0 -10   3   -0.82    0.47
   0  10  -3   -0.23    0.62
   0 -10  -3    0.52    0.43
   0  10   3   -0.28    0.54
   0 -10  -3    0.38    0.43
   0  11  -3   35.67    2.33
   0 -11   3   35.78    2.09
   0  11   3   36.32    2.20
   0 -11  -3   40.64    2.01
   0  12  -3    2.42    1.01
   0 -12  -3    0.33    0.56
   0  12   3   -0.21    0.75
   0 -12   3    1.19    0.74
   1   0  -3    0.46    0.09
   1   0  -3    0.49    0.12
   1   0   3    0.53    0.14
   1   0   3    0.64    0.09
  -1   0   3    0.65    0.13
  -1   0  -3    0.42    0.10
   1   0  -3    0.86    0.14
   1  -1  -3   44.01    1.83
   1   1   3   46.12    1.90
   1  -1  -3   42.94    1.88
   1   1   3   43.79    1.80
  -1   1  -3   44.28    1.92
  -1  -1  -3   41.30    1.81
   1   1  -3   42.62    1.87
   1   1  -3   43.76    1.94
  -1  -1  -3   44.79    1.88
   1   1  -3   42.15    1.87
  -1   1   3   43.93    1.85
   1  -1   3   44.87    1.93
   1  -1   3   45.02    1.86
  -1  -2   3    1.80    0.23
  -1   2  -3    1.95    0.28
   1   2   3    2.35    0.16
   1  -2  -3    2.13    0.23
   1  -2  -3    2.13    0.18
   1   2   3    2.69    0.26
  -1  -2   3    1.98    0.21
  -1  -2  -3    2.15    0.24
   1   2  -3    2.15    0.24
   1  -2   3    1.64    0.20
  -1  -2  -3    2.44    0.16
  -1   2   3    2.26    0.20
   1   2  -3    1.97    0.22
   1   2  -3    2.28    0.35
   1  -3  -3   58.21    2.48
  -1  -3   3   58.14    2.49
   1   3   3   54.43    2.49
  -1  -3   3   57.19    2.44
   1  -3  -3   58.31    2.44
  -1   3  -3   59.03    2.60
   1   3  -3   58.69    2.50
  -1  -3  -3   57.95    2.42
   1  -3   3   54.55    2.48
  -1   3   3   58.93    2.46
   1   3  -3   53.13    2.61
  -1  -3  -3   58.18    2.48
  -1  -4   3    1.34    0.26
   1  -4  -3    1.33    0.25
  -1   4  -3    1.65    0.38
  -1  -4   3    2.18    0.23
   1  -4  -3    1.69    0.22
   1   4   3    1.60    0.28
   1   4  -3    1.23    0.26
   1  -4   3    1.90    0.17
   1   4  -3    2.44    0.44
  -1   4   3    1.81    0.26
   1  -4   3    1.20    0.26
  -1  -4  -3    1.90    0.29
  -1  -4  -3    1.63    0.21
  -1  -5   3   20.46    1.02
  -1   5  -3   22.30    1.26
   1  -5  -3   19.98    1.05
   1  -5  -3   22.22    1.09
   1   5   3   20.64    1.13
  -1  -5   3   21.38    1.12
   1  -5   3   22.53    0.98
   1  -5   3   21.88    1.12
  -1  -5  -3   20.90    1.04
   1   5  -3   21.05    1.27
  -1   5   3   22.89    1.10
  -1  -5  -3   20.62    1.09
  -1   6  -3    3.06    0.55
   1   6   3    3.69    0.50
   1  -6  -3    3.47    0.43
  -1  -6   3    3.57    0.47
   1  -6  -3    3.59    0.40
  -1  -6   3    3.30    0.35
  -1  -6  -3    3.74    0.40
   1   6  -3    2.63    0.56
  -1   6   3    3.34    0.45
   1  -6   3    3.95    0.48
   1  -6   3    4.05    0.32
  -1  -6  -3    3.92    0.46
  -1   7  -3   21.48    1.38
   1   7   3   21.16    1.29
   1  -7  -3   21.85    1.17
  -1  -7   3   21.92    1.23
   1  -7  -3   23.56    1.17
  -1  -7   3   21.01    1.10
  -1   7   3   20.05    1.23
  -1  -7  -3   20.55    1.14
   1  -7   3   20.65    1.24
   1  -7   3   22.84    1.07
   1   7  -3   22.15    1.43
  -1  -7  -3   20.95    1.18
   1   8   3    3.20    0.61
  -1   8  -3    2.58    0.61
  -1  -8   3    1.47    0.45
   1  -8  -3    1.10    0.39
  -1  -8   3    2.84    0.41
   1  -8  -3    2.59    0.48
  -1  -8  -3    2.09    0.43
  -1   8   3    1.81    0.46
   1   8  -3    2.08    0.72
   1  -8   3    2.11    0.34
   1  -8   3    2.57    0.50
  -1  -8  -3    2.28    0.47
  -1   9  -3   21.33    1.51
  -1  -9   3   21.22    1.34
  -1  -9   3   21.64    1.19
   1   9   3   21.17    1.40
   1  -9  -3   20.94    1.26
   1  -9  -3   21.40    1.24
  -1  -9  -3   23.23    1.30
  -1  -9  -3   20.93    1.25
   1  -9   3   19.40    1.30
  -1   9   3   20.82    1.36
   1   9  -3   20.24    1.56
   1 -10  -3    2.50    0.53
   1 -10  -3    2.86    0.55
   1  10   3    2.09    0.65
  -1 -10   3    2.10    0.67
  -1  10  -3    2.76    0.81
   1 -10   3    3.17    0.66
   1  10  -3    3.05    0.85
  -1  10   3    3.73    0.76
  -1 -10  -3    1.59    0.54
  -1 -10  -3    2.95    0.55
  -1 -11   3    0.72    0.61
  -1  11  -3    1.02    0.75
   1 -11  -3    1.59    0.54
   1  11   3    2.64    0.82
   1 -11  -3    0.98    0.56
  -1 -11  -3    1.21    0.58
   1  11  -3    0.66    0.81
  -1  11   3    0.44    0.62
   1 -11   3    1.84    0.71
  -1 -11  -3    1.68    0.58
   1 -12  -3    0.68    0.58
   1  12   3    1.67    0.88
  -1  12  -3    0.52    0.78
   1 -12  -3    0.97    0.63
  -1 -12   3    0.73    0.67
   1  12  -3    1.24    0.97
  -1  12   3    0.62    0.77
  -1 -12  -3    0.13    0.65
   1 -12   3   -0.45    0.66
   2   0   3  101.67    4.18
  -2   0  -3   96.49    4.19
   2   0  -3   99.91    4.21
   2   0  -3  102.07    4.24
   2   0  -3  102.84    4.20
   2   0   3  104.20    4.25
  -2   1  -3    4.21    0.33
   2   1   3    4.02    0.23
   2   1   3    4.60    0.33
   2  -1  -3    3.68    0.31
   2  -1  -3    4.40    0.26
   2  -1   3    4.13    0.29
   2   1  -3    4.13    0.39
   2  -1   3    4.73    0.34
   2   1  -3    4.39    0.29
   2   1  -3    3.80    0.33
  -2  -1  -3    3.76    0.28
   2   2   3  215.75    8.98
  -2  -2   3  204.94    8.95
   2  -2  -3  203.03    8.95
   2  -2  -3  223.96    8.92
   2   2   3  218.29    8.89
  -2   2  -3  218.12    9.01
   2   2  -3  220.97    8.96
  -2   2   3  209.51    8.89
   2  -2   3  221.74    8.96
   2   2  -3  212.02    8.97
   2   2  -3  222.83    9.08
  -2  -2  -3  222.64    8.96
   2  -2   3  220.66    9.01
  -2  -3   3    0.32    0.15
  -2   3  -3    0.42    0.24
   2  -3  -3    0.26    0.14
   2   3   3    0.17    0.16
   2  -3  -3    0.05    0.16
  -2  -3   3    0.31    0.18
   2   3   3    0.19    0.11
   2   3  -3    0.12    0.25
   2   3  -3    0.20    0.18
  -2  -3  -3    0.09    0.12
   2  -3   3   -0.06    0.16
  -2  -3  -3    0.26    0.14
   2   3  -3    0.07    0.18
  -2   3   3    0.09    0.11
   2   4   3   45.16    1.97
  -2   4  -3   44.92    2.14
  -2  -4   3   44.49    2.00
  -2  -4   3   47.69    2.07
   2   4   3   42.77    2.07
   2  -4  -3   48.60    2.02
   2  -4  -3   44.23    2.03
  -2  -4  -3   43.48    2.04
   2  -4   3   46.30    2.06
   2  -4   3   46.74    1.90
   2   4  -3   45.14    2.20
  -2   4   3   45.86    2.00
   2   4  -3   44.42    2.06
  -2  -4  -3   45.40    1.98
  -2   5  -3    5.08    0.59
   2  -5  -3    5.39    0.46
  -2  -5   3    6.30    0.54
  -2  -5   3    6.46    0.46
   2  -5  -3    5.55    0.48
   2   5   3    5.88    0.55
   2   5   3    5.28    0.41
  -2  -5  -3    6.05    0.52
  -2   5   3    5.66    0.46
   2  -5   3    6.08    0.34
   2   5  -3    4.00    0.60
  -2  -5  -3    5.70    0.43
   2   5  -3    6.39    0.55
   2  -5   3    5.44    0.52
  -2  -6   3   57.56    2.56
   2   6   3   57.97    2.70
   2  -6  -3   57.37    2.59
   2  -6  -3   60.43    2.60
  -2   6  -3   56.93    2.75
  -2  -6   3   54.06    2.64
  -2  -6  -3   55.83    2.61
   2  -6   3   59.55    2.65
  -2   6   3   58.88    2.62
   2  -6   3   56.85    2.46
  -2  -6  -3   58.01    2.57
   2   6  -3   58.37    2.66
   2   6  -3   60.71    2.84
   2   7   3    0.11    0.36
  -2   7  -3   -0.06    0.38
  -2  -7   3   -0.06    0.23
   2  -7  -3    0.72    0.31
   2  -7  -3    0.09    0.27
  -2  -7   3    0.01    0.30
  -2   7   3    0.08    0.30
   2  -7   3   -0.08    0.18
   2  -7   3   -0.14    0.33
  -2  -7  -3    0.13    0.32
  -2  -7  -3   -0.14    0.26
   2   7  -3    0.56    0.48
  -2  -8   3    1.10    0.47
  -2   8  -3    0.30    0.51
   2  -8  -3    1.46    0.42
   2   8   3    1.44    0.50
   2  -8  -3    1.58    0.39
  -2  -8   3    1.71    0.40
   2  -8   3    1.45    0.44
  -2  -8  -3    1.44    0.44
   2   8  -3    1.10    0.61
  -2  -8  -3    1.00    0.37
  -2   8   3    0.99    0.43
   2  -9  -3    1.59    0.42
  -2  -9   3    2.20    0.56
   2  -9  -3    1.88    0.48
  -2   9  -3    2.01    0.63
   2   9   3    0.68    0.53
  -2  -9   3    2.14    0.46
   2   9  -3    2.50    0.76
   2  -9   3    2.34    0.58
  -2  -9  -3    2.58    0.50
  -2  -9  -3    1.17    0.49
  -2   9   3    1.44    0.54
  -2  10  -3    3.27    0.78
   2  10   3    4.78    0.86
  -2 -10   3    4.76    0.75
   2 -10  -3    5.20    0.65
  -2 -10   3    4.81    0.63
   2 -10  -3    4.76    0.65
   2  10  -3    3.11    0.90
  -2 -10  -3    4.86    0.71
  -2 -10  -3    4.69    0.67
  -2  10   3    4.82    0.82
   2 -10   3    5.51    0.81
   2 -11  -3    0.04    0.48
   2 -11  -3   -0.30    0.46
  -2  11  -3    0.17    0.67
   2  11   3    0.09    0.66
  -2 -11   3   -0.27    0.64
   2  11  -3    1.03    0.85
  -2  11   3   -0.08    0.64
  -2 -11  -3    0.74    0.59
  -2 -11  -3   -0.13    0.46
   2 -11   3    0.22    0.56
   2 -12  -3    2.35    0.63
  -2 -12   3    2.90    0.86
   2 -12  -3    1.95    0.71
  -2  12  -3    0.69    0.80
   2  12   3    2.93    0.98
   2  12  -3    2.67    1.03
  -2 -12  -3    1.51    0.66
   2 -12   3    2.24    0.70
   3   0   3  201.35    8.41
  -3   0  -3  200.60    8.40
   3   0  -3  207.64    8.43
   3   0  -3  201.16    8.48
   3   0   3  207.70    8.47
   3   0  -3  205.79    8.43
   3  -1  -3    5.33    0.33
   3   1   3    4.88    0.37
  -3   1  -3    5.44    0.28
   3   1   3    5.30    0.30
   3  -1  -3    4.16    0.37
   3   1  -3    4.62    0.42
   3   1  -3    4.85    0.44
   3  -1   3    5.62    0.35
   3  -1   3    5.19    0.39
  -3  -1  -3    4.76    0.34
   3   1  -3    4.80    0.34
   3   2   3  128.10    5.35
  -3  -2   3  127.11    5.43
  -3   2  -3  129.79    5.44
   3   2   3  128.35    5.45
   3  -2  -3  128.84    5.42
   3  -2   3  126.05    5.41
   3   2  -3  124.14    5.45
  -3  -2  -3  129.95    5.41
   3   2  -3  131.63    5.52
   3  -2   3  135.44    5.46
   3   2  -3  131.63    5.42
   3   3   3    0.89    0.17
  -3   3  -3    1.15    0.25
   3   3   3    1.18    0.27
  -3  -3   3    0.56    0.23
   3  -3  -3    1.23    0.21
   3  -3  -3    0.59    0.21
   3  -3   3    0.99    0.27
   3   3  -3    1.43    0.27
  -3   3   3    1.28    0.16
   3   3  -3    0.56    0.29
   3   3  -3    0.68    0.23
  -3  -3  -3    1.07    0.26
   3  -3   3    1.10    0.23
   3   4   3   96.04    4.19
  -3  -4   3   96.45    4.12
  -3  -4   3   97.34    4.15
   3   4   3   97.57    4.06
   3  -4  -3   98.37    4.12
   3  -4  -3   94.45    4.10
  -3   4  -3   98.02    4.20
   3  -4   3   98.23    4.02
  -3  -4  -3   97.90    4.08
  -3   4   3   97.70    4.06
   3   4  -3   95.30    4.28
   3  -4   3   90.47    4.13
  -3  -4  -3   90.89    4.12
   3   4  -3   99.28    4.16
  -3  -5   3    5.55    0.50
   3  -5  -3    6.52    0.52
   3   5   3    6.43    0.62
  -3   5  -3    6.15    0.62
   3  -5  -3    6.80    0.50
   3   5   3    5.81    0.44
  -3  -5   3    4.97    0.51
   3  -5   3    5.13    0.54
  -3  -5  -3    5.31    0.45
   3  -5   3    5.34    0.33
   3   5  -3    5.93    0.70
  -3   5   3    6.71    0.48
  -3  -5  -3    7.19    0.58
   3   5  -3    5.37    0.52
   3   6   3   26.53    1.46
   3  -6  -3   24.72    1.34
  -3   6  -3   27.34    1.49
  -3  -6   3   27.17    1.40
   3   6   3   28.99    1.30
  -3  -6   3   27.27    1.34
   3  -6  -3   26.92    1.34
  -3   6   3   28.06    1.36
   3  -6   3   26.05    1.40
  -3  -6  -3   25.99    1.31
   3   6  -3   26.38    1.58
   3   6  -3   25.88    1.40
   3  -6   3   26.14    1.19
  -3  -6  -3   25.15    1.37
  -3   7  -3    0.61    0.42
   3   7   3   -0.06    0.37
   3  -7  -3    0.44    0.28
  -3  -7   3    0.16    0.34
  -3  -7   3    0.15    0.30
   3  -7  -3   -0.10    0.28
   3  -7   3   -0.17    0.32
  -3  -7  -3    0.31    0.27
   3   7  -3   -0.32    0.47
  -3   7   3    0.34    0.33
  -3  -7  -3    0.31    0.34
   3   7  -3    0.23    0.33
   3   8   3   18.16    1.24
   3  -8  -3   18.96    1.06
  -3  -8   3   17.27    1.01
  -3  -8   3   14.70    1.15
  -3   8  -3   19.50    1.29
   3  -8  -3   17.08    1.06
  -3   8   3   16.47    1.15
  -3  -8  -3   15.87    1.13
   3   8  -3   17.52    1.38
  -3  -8  -3   16.53    1.03
   3  -8   3   16.58    1.12
   3  -9  -3    1.94    0.48
  -3  -9   3    2.94    0.52
   3  -9  -3    3.10    0.53
  -3  -9   3    2.90    0.64
   3   9   3    1.75    0.69
  -3   9  -3    1.52    0.60
   3  -9   3    2.05    0.54
  -3   9   3    2.61    0.60
  -3  -9  -3    3.60    0.56
  -3  -9  -3    2.97    0.58
   3   9  -3    3.95    0.85
   3  10   3    1.89    0.69
  -3 -10   3    1.59    0.53
  -3 -10   3    1.33    0.59
   3 -10  -3    1.66    0.52
  -3  10  -3    1.29    0.70
   3 -10  -3    1.84    0.51
  -3 -10  -3    1.42    0.56
  -3  10   3    1.13    0.60
  -3 -10  -3    1.10    0.50
   3  10  -3    0.55    0.76
   3 -10   3    3.10    0.67
   3 -11  -3    0.33    0.54
  -3  11  -3    0.55    0.73
   3 -11  -3    0.62    0.52
   3  11   3    0.71    0.78
  -3 -11   3    0.43    0.60
   3  11  -3   -0.21    0.80
  -3 -11  -3    0.67    0.59
   3 -11   3    0.44    0.56
  -3 -11  -3    0.42    0.53
   3  12   3    4.19    1.03
  -3 -12   3    2.32    0.78
  -3  12  -3    3.53    0.93
   3 -12  -3    3.68    0.71
   3 -12   3    4.41    0.82
  -3 -12  -3    3.74    0.88
   3  12  -3    2.61    1.17
   4   0  -3    4.96    0.37
   4   0  -3    6.46    0.41
   4   0   3    5.56    0.40
   4   0   3    5.10    0.35
  -4   0  -3    5.94    0.37
   4   0  -3    5.47    0.48
  -4   1  -3    1.53    0.18
   4  -1  -3    1.34    0.20
   4  -1  -3    2.05    0.30
   4   1   3    1.42    0.19
   4   1   3    1.18    0.25
   4  -1   3    1.74    0.25
   4   1  -3    1.31    0.23
   4  -1   3    1.27    0.20
   4   1  -3    1.18    0.27
   4   1  -3    1.96    0.31
  -4  -1  -3    1.27    0.21
   4   2   3    4.05    0.40
   4  -2  -3    3.71    0.37
   4  -2  -3    3.23    0.33
  -4   2  -3    4.63    0.40
   4   2   3    4.12    0.31
  -4   2  -3    3.61    0.26
  -4  -2   3    2.63    0.37
  -4  -2  -3    3.46    0.36
   4  -2   3    4.46    0.39
   4   2  -3    3.24    0.35
   4   2  -3    4.17    0.43
   4  -2   3    3.95    0.39
   4   2  -3    4.00    0.43
   4  -2   3    3.62    0.26
   4  -3  -3   14.99    0.77
  -4  -3   3   14.20    0.79
   4   3   3   13.67    0.80
  -4   3  -3   13.85    0.79
   4  -3  -3   14.73    0.79
  -4   3  -3   12.17    0.67
   4   3   3   14.66    0.72
   4  -3   3   14.30    0.66
   4   3  -3   12.49    0.77
   4   3  -3   14.72    0.84
   4   3  -3   13.81    0.87
   4  -3   3   14.83    0.79
   4  -3   3   13.50    0.81
  -4  -3  -3   12.96    0.77
   4  -4  -3    0.00    0.20
   4   4   3    0.48    0.27
   4  -4  -3   -0.01    0.21
   4   4   3    0.07    0.17
  -4  -4   3   -0.11    0.22
  -4   4  -3    0.28    0.24
   4  -4   3   -0.24    0.25
   4   4  -3   -0.52    0.30
  -4  -4  -3   -0.31    0.22
   4  -4   3    0.13    0.25
   4   4  -3    0.15    0.24
   4  -4   3    0.11    0.12
  -4   4   3    0.08    0.14
  -4  -5   3   19.20    1.08
   4  -5  -3   18.86    1.03
   4   5   3   18.50    0.99
  -4  -5   3   21.33    1.08
   4  -5  -3   20.43    1.06
   4   5   3   19.08    1.14
  -4   5  -3   18.98    1.10
   4   5  -3   20.62    1.25
  -4  -5  -3   19.26    1.02
  -4   5   3   18.80    0.98
   4  -5   3   18.76    1.07
   4  -5   3   20.56    0.90
   4   5  -3   19.42    1.09
  -4  -5  -3   20.13    1.08
   4  -6  -3    1.95    0.35
   4   6   3    1.63    0.33
   4   6   3    2.51    0.49
  -4  -6   3    1.59    0.41
  -4  -6   3    1.84    0.41
   4  -6  -3    2.37    0.40
  -4   6  -3    2.63    0.47
   4   6  -3    1.61    0.54
  -4  -6  -3    2.78    0.44
   4  -6   3    2.44    0.42
   4   6  -3    1.95    0.41
  -4   6   3    2.42    0.37
  -4  -6  -3    2.43    0.37
   4   7   3   20.30    1.10
   4  -7  -3   19.20    1.10
   4  -7  -3   18.97    1.15
  -4  -7   3   21.07    1.15
  -4  -7   3   19.62    1.19
  -4   7  -3   20.39    1.24
   4   7   3   19.45    1.29
  -4  -7  -3   19.58    1.12
   4   7  -3   18.97    1.19
  -4   7   3   20.84    1.15
   4   7  -3   22.42    1.46
   4  -7   3   18.74    1.17
  -4  -7  -3   20.84    1.19
  -4  -8   3    5.49    0.70
   4  -8  -3    6.68    0.68
   4  -8  -3    7.16    0.68
  -4  -8   3    6.99    0.66
   4   8   3    7.18    0.86
  -4   8  -3    6.57    0.78
   4   8  -3    8.42    1.05
   4  -8   3    8.17    0.77
   4   8  -3    5.55    0.69
  -4  -8  -3    6.43    0.65
  -4  -8  -3    7.40    0.76
  -4   8   3    6.52    0.71
   4   9   3   12.44    1.19
  -4  -9   3   11.97    0.96
   4  -9  -3   12.25    0.99
  -4  -9   3   11.67    1.07
  -4   9  -3   14.31    1.08
   4  -9  -3   11.96    0.95
  -4  -9  -3   12.92    1.04
   4   9  -3   11.38    1.29
  -4  -9  -3   12.73    0.95
   4  -9   3   11.16    0.99
   4  10   3    8.07    1.07
   4 -10  -3    9.26    0.86
  -4 -10   3    8.35    0.98
   4 -10  -3    8.38    0.87
  -4 -10   3    8.33    0.83
  -4  10  -3    8.78    1.00
   4 -10   3    8.44    0.91
  -4 -10  -3   10.24    0.97
   4  10  -3    9.38    1.26
  -4 -10  -3    9.01    0.86
  -4 -11   3    7.61    0.86
  -4 -11   3    7.82    1.02
   4 -11  -3    5.08    0.74
  -4  11  -3    4.81    0.90
   4  11   3    6.61    1.08
   4 -11  -3    5.77    0.78
  -4 -11  -3    7.61    0.93
  -4 -11  -3    6.68    0.84
   4  11  -3    8.10    1.32
   4 -11   3    6.16    0.91
  -4 -12   3    7.14    0.99
  -4  12  -3    5.74    0.96
   4  12   3    8.52    1.31
   4 -12  -3    7.43    0.92
   4 -12   3    6.97    0.93
   4  12  -3    6.40    1.43
  -4 -12  -3    7.59    1.01
  -5   0  -3    2.82    0.31
   5   0   3    2.42    0.32
   5   0  -3    3.38    0.34
   5   0   3    3.15    0.31
   5   0  -3    4.03    0.45
   5   0  -3    3.43    0.35
   5  -1  -3    5.90    0.44
   5   1   3    5.38    0.39
   5   1   3    4.90    0.45
  -5   1  -3    4.78    0.37
   5  -1  -3    5.51    0.51
   5  -1   3    5.71    0.45
   5   1  -3    5.58    0.43
  -5  -1  -3    4.95    0.44
   5   1  -3    5.78    0.49
   5  -1   3    5.47    0.46
   5   1  -3    5.26    0.53
   5  -2  -3    0.78    0.26
   5  -2  -3    0.49    0.20
  -5  -2   3    0.49    0.27
   5   2   3    1.05    0.28
  -5   2  -3    0.70    0.19
   5   2   3    0.67    0.19
   5   2  -3    0.66    0.26
   5  -2   3    0.84    0.22
   5  -2   3    0.53    0.17
  -5  -2  -3    0.79    0.24
   5   2  -3    0.96    0.29
   5   2  -3    0.30    0.21
   5  -2   3    0.70    0.24
  -5   3  -3    7.08    0.51
   5  -3  -3    6.54    0.54
  -5  -3   3    6.41    0.59
   5  -3  -3    6.82    0.54
   5   3   3    7.72    0.61
   5   3   3    7.74    0.49
  -5   3  -3    7.85    0.45
   5   3  -3    6.77    0.63
   5  -3   3    7.82    0.55
   5   3  -3    7.22    0.64
   5   3  -3    7.07    0.55
  -5  -3  -3    8.05    0.57
   5  -3   3    6.69    0.42
   5  -3   3    7.25    0.53
  -5  -4   3    0.15    0.27
   5   4   3    0.25    0.21
   5  -4  -3    0.37    0.27
   5   4   3    0.26    0.29
  -5   4  -3    1.06    0.29
   5  -4  -3    0.52    0.24
  -5  -4  -3    0.18    0.27
   5  -4   3    0.30    0.16
   5  -4   3    0.17    0.25
   5  -4   3    0.02    0.26
   5   4  -3    0.22    0.36
   5   4  -3    0.45    0.27
  -5   4   3    0.46    0.13
  -5  -5   3    3.98    0.48
   5   5   3    3.66    0.53
  -5  -5   3    1.97    0.42
   5   5   3    4.05    0.42
   5  -5  -3    2.82    0.42
   5  -5  -3    3.20    0.41
  -5   5  -3    4.31    0.49
   5  -5   3    3.29    0.31
   5   5  -3    3.62    0.47
  -5   5   3    4.39    0.36
   5   5  -3    3.68    0.61
   5  -5   3    3.95    0.52
  -5  -5  -3    4.15    0.50
   5  -5   3    3.10    0.47
  -5   6  -3    3.76    0.49
  -5  -6   3    4.88    0.57
   5   6   3    3.97    0.45
  -5  -6   3    4.69    0.55
   5  -6  -3    4.15    0.49
   5   6   3    4.93    0.65
   5  -6  -3    3.54    0.50
  -5  -6  -3    5.20    0.59
   5  -6   3    3.18    0.50
   5   6  -3    4.18    0.53
   5   6  -3    4.50    0.70
  -5  -6  -3    4.45    0.48
  -5  -7   3    1.01    0.44
   5  -7  -3    1.63    0.41
  -5   7  -3    0.36    0.36
   5  -7  -3    0.45    0.33
   5   7   3    1.86    0.54
  -5  -7   3    2.15    0.49
   5   7   3    1.36    0.37
  -5  -7  -3    0.30    0.41
   5   7  -3    1.24    0.61
   5   7  -3    1.55    0.47
  -5  -7  -3    1.28    0.38
   5  -7   3    1.01    0.41
   5  -8  -3   -0.02    0.34
  -5  -8   3    1.56    0.46
   5  -8  -3   -0.24    0.36
  -5   8  -3    0.62    0.43
   5   8   3   -0.18    0.49
   5   8   3    0.62    0.38
  -5  -8   3    0.84    0.44
   5   8  -3    0.71    0.70
   5   8  -3    0.83    0.46
  -5  -8  -3   -0.32    0.39
  -5  -8  -3    0.85    0.41
   5  -8   3    1.59    0.50
  -5  -9   3    7.45    0.78
  -5  -9   3    7.65    0.85
   5  -9  -3    7.16    0.75
   5   9   3    9.31    1.10
  -5   9  -3    7.34    0.86
   5  -9  -3    7.45    0.80
   5   9  -3    6.90    0.82
  -5  -9  -3    7.87    0.79
   5  -9   3    5.60    0.79
  -5  -9  -3    6.75    0.83
   5   9  -3    7.80    1.16
   5 -10  -3    4.81    0.70
   5  10   3    4.69    1.02
   5 -10  -3    5.86    0.76
  -5 -10   3    7.58    0.91
  -5  10  -3    5.69    0.81
  -5 -10   3    5.54    0.73
  -5 -10  -3    4.57    0.83
   5  10  -3    5.60    1.11
   5 -10   3    5.85    0.79
  -5 -10  -3    7.05    0.80
  -5  11  -3    0.53    0.66
  -5 -11   3    0.81    0.71
   5  11   3    0.75    0.86
   5 -11  -3    0.72    0.58
  -5 -11   3    0.07    0.58
  -5 -11  -3    0.30    0.64
   5  11  -3   -0.07    0.86
   5 -11   3    1.26    0.61
  -5 -12   3    2.05    0.81
   5 -12  -3   -0.05    0.61
   5  12   3    0.42    0.84
  -5 -12  -3   -0.74    0.73
   5  12  -3   -1.16    0.94
   5 -12   3    1.14    0.67
  -6   0  -3    4.57    0.42
   6   0  -3    3.96    0.42
   6   0  -3    4.84    0.41
   6   0   3    4.31    0.39
   6   0   3    4.70    0.43
   6   0  -3    3.83    0.51
   6   1   3   12.79    0.76
   6  -1  -3   12.87    0.84
   6  -1  -3   13.28    0.77
  -6   1  -3   12.37    0.71
  -6  -1   3   12.57    0.84
   6   1   3   12.75    0.72
   6   1  -3   11.57    0.76
   6   1  -3   13.69    0.76
   6   1  -3   13.27    0.87
  -6  -1  -3   11.30    0.73
   6  -1   3   13.98    0.76
   6  -1   3   12.30    0.72
   6  -2  -3    0.23    0.21
   6  -2  -3   -0.35    0.25
   6   2   3    0.09    0.20
   6   2   3   -0.35    0.21
  -6  -2   3   -0.11    0.27
  -6   2  -3   -0.10    0.18
   6  -2   3   -0.08    0.21
  -6  -2  -3    0.04    0.24
   6  -2   3    0.32    0.21
   6   2  -3    0.20    0.23
   6  -2   3   -0.14    0.17
   6   2  -3   -0.17    0.30
   6   2  -3    0.41    0.26
   6  -3  -3    0.54    0.25
   6   3   3    1.55    0.35
  -6  -3   3    0.99    0.34
   6   3   3    1.01    0.25
   6  -3  -3    0.74    0.32
  -6   3  -3    0.91    0.23
   6  -3   3    1.36    0.33
   6   3  -3    0.99    0.36
   6   3  -3    0.98    0.31
   6  -3   3    1.20    0.24
   6  -3   3    0.81    0.27
  -6  -3  -3    0.93    0.32
   6   3  -3    0.60    0.35
  -6  -4   3    2.90    0.47
   6  -4  -3    2.86    0.43
   6  -4  -3    3.51    0.45
  -6   4  -3    2.96    0.40
   6   4   3    3.03    0.38
   6   4   3    3.01    0.48
   6   4  -3    3.68    0.58
  -6  -4  -3    2.99    0.46
   6  -4   3    2.61    0.40
   6  -4   3    2.93    0.32
   6  -4   3    1.78    0.37
   6   4  -3    3.16    0.51
   6   4  -3    2.46    0.41
  -6   5  -3   20.11    1.11
   6   5   3   19.54    1.24
   6   5   3   20.29    1.08
   6  -5  -3   21.09    1.13
  -6  -5   3   20.27    1.17
   6  -5  -3   21.52    1.16
   6   5  -3   19.83    1.30
   6   5  -3   21.72    1.19
  -6  -5  -3   20.20    1.17
   6  -5   3   19.79    1.15
   6  -5   3   19.74    1.14
   6  -6  -3   -0.04    0.30
  -6  -6   3    0.23    0.37
   6   6   3   -0.43    0.27
   6   6   3    0.03    0.39
  -6   6  -3   -0.33    0.28
  -6  -6   3    0.48    0.37
   6  -6  -3   -0.01    0.30
  -6  -6  -3   -0.19    0.37
   6   6  -3    0.14    0.52
   6   6  -3    0.32    0.35
   6  -6   3    0.00    0.34
   6  -6   3    0.12    0.34
  -6  -6  -3   -0.30    0.30
   6   7   3   -0.45    0.42
   6  -7  -3   -0.27    0.38
  -6   7  -3    0.10    0.34
  -6  -7   3   -0.19    0.36
   6  -7  -3    0.10    0.32
   6   7   3   -0.20    0.31
  -6  -7   3    0.09    0.44
  -6  -7  -3    0.68    0.43
   6  -7   3    0.29    0.42
   6   7  -3    1.03    0.65
   6   7  -3   -0.16    0.37
  -6  -7  -3    0.25    0.35
   6  -7   3   -0.23    0.34
  -6  -8   3    0.38    0.48
  -6   8  -3    1.01    0.45
   6  -8  -3    0.20    0.38
   6  -8  -3    1.44    0.45
  -6  -8   3   -0.01    0.45
   6   8   3    0.39    0.55
   6   8   3    0.65    0.40
  -6  -8  -3    0.16    0.49
   6   8  -3    0.27    0.64
   6   8  -3    0.54    0.51
   6  -8   3    0.37    0.43
  -6  -8  -3    1.41    0.43
  -6  -9   3    8.46    0.86
  -6   9  -3    9.71    0.91
   6  -9  -3   10.15    0.94
   6   9   3    7.83    0.80
   6  -9  -3    8.78    0.83
   6   9   3    9.57    1.12
  -6  -9   3    8.60    0.92
   6   9  -3   10.79    1.34
   6  -9   3    8.92    0.93
  -6  -9  -3    8.73    0.96
   6   9  -3    9.72    0.99
  -6  -9  -3    8.37    0.85
  -6 -10   3    0.86    0.66
   6  10   3   -0.56    0.67
  -6 -10   3   -0.29    0.57
   6 -10  -3   -0.10    0.45
   6 -10  -3    0.58    0.45
  -6 -10  -3   -0.16    0.58
   6 -10   3   -0.56    0.54
   6  10  -3   -0.16    0.60
   6  10  -3   -0.92    0.77
  -6 -10  -3    0.64    0.51
   6  11   3    0.84    0.92
  -6 -11   3    1.80    0.71
   6 -11  -3    1.07    0.54
  -6 -11   3    0.41    0.59
   6 -11   3   -0.20    0.56
   6  11  -3    0.51    0.95
  -6 -11  -3    0.87    0.71
   7   0  -3   -0.24    0.33
  -7   0  -3    0.18    0.26
   7   0  -3    0.41    0.22
   7   0   3    0.26    0.24
   7   0  -3   -0.13    0.22
   7   0   3    0.38    0.27
   7  -1  -3   29.56    1.52
  -7  -1   3   28.76    1.50
   7   1   3   27.56    1.36
   7  -1  -3   27.99    1.41
   7   1   3   26.31    1.42
  -7   1  -3   29.02    1.38
   7   1  -3   28.64    1.54
  -7  -1  -3   29.04    1.43
   7   1  -3   26.64    1.40
   7  -1   3   28.17    1.39
   7   1  -3   28.25    1.39
   7  -1   3   27.79    1.38
   7  -2  -3    5.43    0.53
  -7  -2   3    4.29    0.54
   7   2   3    4.22    0.50
   7   2   3    4.91    0.47
   7  -2  -3    4.15    0.55
  -7   2  -3    4.69    0.45
   7  -2   3    4.11    0.45
   7  -2   3    3.50    0.41
   7   2  -3    4.08    0.47
  -7  -2  -3    4.20    0.53
   7   2  -3    4.18    0.49
   7   2  -3    4.36    0.61
   7  -2   3    4.66    0.49
   7  -3  -3   28.00    1.39
  -7  -3   3   28.46    1.44
   7   3   3   25.16    1.31
   7  -3  -3   26.39    1.40
  -7   3  -3   25.92    1.29
   7   3   3   28.86    1.45
   7  -3   3   25.62    1.33
   7   3  -3   24.39    1.36
   7  -3   3   26.59    1.38
  -7  -3  -3   25.08    1.39
   7   3  -3   23.55    1.45
   7   3  -3   26.71    1.44
   7  -3   3   27.07    1.28
  -7   4  -3    1.12    0.30
   7   4   3    0.31    0.29
  -7  -4   3    1.15    0.40
   7  -4  -3    0.73    0.33
  -7   4  -3    0.39    0.26
   7   4   3    1.12    0.41
   7  -4  -3    0.73    0.32
   7  -4   3    0.84    0.30
   7  -4   3    0.67    0.25
   7  -4   3    0.27    0.30
   7   4  -3    0.19    0.36
   7   4  -3    0.61    0.43
   7   4  -3    0.76    0.37
  -7  -4  -3    1.01    0.41
   7  -5  -3   20.25    1.21
  -7   5  -3   21.33    1.14
   7  -5  -3   21.03    1.20
   7   5   3   20.28    1.30
  -7  -5   3   20.11    1.24
   7   5   3   23.24    1.18
   7  -5   3   21.67    1.18
  -7  -5  -3   20.31    1.24
   7   5  -3   21.24    1.40
   7   5  -3   20.80    1.23
   7  -5   3   19.35    1.23
  -7   6  -3   -0.17    0.30
  -7  -6   3    0.44    0.37
  -7  -6   3   -0.27    0.38
   7  -6  -3    0.12    0.36
   7   6   3   -0.17    0.32
   7  -6  -3    0.19    0.33
   7   6   3   -0.84    0.39
   7  -6   3   -0.44    0.29
   7  -6   3   -0.25    0.33
   7   6  -3    0.13    0.38
   7   6  -3    0.19    0.50
  -7  -6  -3    0.78    0.45
   7  -7  -3    9.26    0.81
   7   7   3   11.62    1.08
  -7   7  -3    9.09    0.77
   7  -7  -3    9.70    0.87
  -7  -7   3    8.66    0.88
   7   7   3    8.57    0.77
  -7  -7   3    9.43    0.85
   7  -7   3    8.06    0.80
  -7  -7  -3    8.08    0.75
   7   7  -3    8.52    0.86
  -7  -7  -3    9.41    0.94
   7  -7   3    9.85    0.90
   7   7  -3   11.20    1.20
  -7   8  -3    3.35    0.57
   7  -8  -3    4.25    0.59
  -7  -8   3    4.85    0.73
   7   8   3    3.55    0.77
   7   8   3    4.18    0.60
   7  -8  -3    4.29    0.62
  -7  -8   3    3.66    0.63
   7   8  -3    2.88    0.61
   7   8  -3    4.07    0.93
   7  -8   3    4.24    0.65
   7  -8   3    4.07    0.65
  -7  -8  -3    4.22    0.74
  -7  -8  -3    3.81    0.60
  -7  -9   3   18.18    1.38
   7   9   3   20.21    1.61
   7  -9  -3   20.20    1.23
   7  -9  -3   21.23    1.37
  -7  -9   3   20.30    1.37
   7   9   3   18.59    1.30
  -7  -9  -3   18.06    1.40
  -7  -9  -3   19.35    1.30
   7   9  -3   19.64    1.38
   7  -9   3   20.02    1.35
   7   9  -3   21.56    1.87
  -7 -10   3    0.78    0.58
   7  10   3    1.76    0.82
   7  10   3    0.84    0.59
   7 -10  -3    0.42    0.56
  -7 -10   3    0.87    0.62
  -7 -10  -3    1.77    0.74
   7 -10   3    1.14    0.61
   7  10  -3    0.98    0.93
   7  10  -3    0.16    0.56
  -7 -10  -3    0.98    0.57
   7 -11  -3    1.57    0.61
   7  11   3    0.40    0.84
  -7 -11   3    1.18    0.75
  -7 -11   3    0.68    0.66
  -7 -11  -3    0.74    0.82
   7  11  -3    0.91    0.99
   7 -11   3    0.27    0.59
   8   0  -3   30.06    1.58
   8   0  -3   25.46    1.39
   8   0  -3   27.60    1.32
   8   0   3   27.47    1.37
  -8   0  -3   27.91    1.41
   8   0   3   25.77    1.38
  -8   1  -3    0.11    0.30
   8   1   3    0.37    0.33
  -8  -1   3    0.50    0.39
   8  -1  -3    0.80    0.42
   8   1   3    0.38    0.29
   8  -1  -3   -0.28    0.28
   8  -1   3    0.27    0.29
   8  -1   3    0.30    0.28
  -8  -1  -3    0.63    0.34
   8   1  -3    0.27    0.42
   8   1  -3    0.51    0.31
   8   1  -3    0.45    0.29
   8  -2  -3    1.32    0.45
  -8   2  -3    0.96    0.33
   8  -2  -3    0.92    0.34
  -8  -2   3    0.67    0.42
   8   2   3    1.32    0.34
   8   2   3    2.11    0.46
   8   2  -3    1.93    0.43
   8   2  -3    1.06    0.36
   8   2  -3    0.66    0.47
  -8  -2  -3    1.09    0.42
   8  -2   3    1.30    0.33
   8  -2   3    1.70    0.39
   8  -2   3    0.89    0.32
   8  -3  -3    3.25    0.54
  -8   3  -3    3.75    0.44
   8   3   3    4.32    0.61
  -8  -3   3    4.36    0.61
   8   3   3    3.85    0.48
   8  -3  -3    4.18    0.52
   8   3  -3    3.46    0.54
   8  -3   3    2.63    0.41
   8  -3   3    2.88    0.47
   8   3  -3    4.34    0.53
  -8  -3  -3    4.40    0.59
   8   3  -3    3.62    0.61
   8  -3   3    3.85    0.47
   8   4   3    6.75    0.62
   8   4   3    7.29    0.79
   8  -4  -3    8.16    0.73
   8  -4  -3   10.26    0.83
  -8  -4   3    7.22    0.78
   8   4  -3    8.11    0.85
   8  -4   3    8.73    0.75
   8  -4   3    7.80    0.65
  -8  -4  -3    7.58    0.79
   8   4  -3    9.01    0.77
   8   4  -3    7.35    0.80
   8  -5  -3    4.62    0.60
   8  -5  -3    5.40    0.62
   8   5   3    5.25    0.71
   8   5   3    4.44    0.54
  -8  -5   3    5.19    0.71
  -8  -5  -3    5.29    0.71
   8  -5   3    4.85    0.61
   8  -5   3    4.68    0.55
   8   5  -3    3.94    0.75
   8   5  -3    4.63    0.62
   8   6   3   14.37    1.12
  -8  -6   3   11.41    1.00
   8   6   3   12.48    0.92
  -8   6  -3   12.51    0.84
   8  -6  -3   12.11    0.91
   8  -6  -3   13.16    1.03
   8  -6   3   11.73    0.90
   8  -6   3   13.11    0.96
  -8  -6  -3   11.85    1.04
   8   6  -3   12.54    1.23
   8   6  -3   11.73    1.01
   8   7   3    5.74    0.88
   8   7   3    5.89    0.67
   8  -7  -3    4.66    0.62
  -8  -7   3    6.22    0.78
   8  -7  -3    5.63    0.69
  -8  -7   3    5.33    0.70
   8   7  -3    5.65    0.91
   8   7  -3    7.11    0.80
   8  -7   3    5.19    0.75
  -8  -7  -3    5.68    0.80
  -8  -7  -3    4.46    0.61
   8   8   3   -0.47    0.42
   8  -8  -3   -0.27    0.43
  -8  -8   3    0.82    0.51
   8   8   3    0.49    0.65
   8  -8  -3    0.16    0.50
  -8  -8   3    0.48    0.54
  -8  -8  -3   -0.45    0.44
   8   8  -3    0.09    0.73
   8  -8   3   -0.52    0.42
   8   8  -3   -0.06    0.53
  -8  -8  -3    0.42    0.61
   8  -9  -3    4.00    0.74
   8   9   3    2.58    0.85
   8   9   3    3.55    0.67
  -8  -9   3    3.37    0.68
  -8  -9   3    4.12    0.81
   8  -9  -3    2.70    0.62
   8   9  -3    3.81    0.73
   8   9  -3    3.62    1.02
  -8  -9  -3    3.94    0.82
   8  -9   3    2.42    0.65
  -8  -9  -3    2.95    0.61
  -8 -10   3   20.12    1.44
   8  10   3   13.90    1.52
  -8 -10   3   19.29    1.42
   8 -10  -3   19.89    1.43
   8  10   3   19.83    1.76
  -8 -10  -3   18.82    1.55
   8  10  -3   18.73    1.43
   8 -10   3   19.09    1.39
   8  10  -3   22.30    2.05
  -8 -11   3    2.77    0.80
   8 -11  -3    1.31    0.64
  -8 -11   3    2.13    0.73
   8  11   3    2.68    1.10
   8 -11   3    2.55    0.77
   8  11  -3    3.17    0.85
   8  11  -3    2.89    1.15
  -8 -11  -3    3.06    0.92
   9   0   3   52.50    2.54
  -9   0  -3   54.58    2.58
   9   0   3   56.84    2.54
  -9   0   3   55.54    2.68
   9   0  -3   56.11    2.73
   9   0  -3   53.20    2.55
   9   1   3    7.06    0.64
   9  -1  -3    6.64    0.82
   9  -1  -3    7.27    0.66
   9   1   3    5.40    0.64
  -9   1  -3    6.65    0.65
  -9  -1   3    6.34    0.74
   9   1  -3    5.24    0.76
   9  -1   3    6.48    0.62
   9   1  -3    4.66    0.58
   9   1  -3    5.42    0.57
  -9  -1  -3    5.91    0.66
   9  -1   3    5.91    0.60
   9   2   3   97.89    4.21
  -9   2  -3   96.90    4.20
   9  -2  -3  101.79    4.41
  -9  -2   3   92.19    4.32
   9  -2  -3  100.86    4.27
   9   2   3   97.39    4.28
   9   2  -3   93.99    4.40
   9   2  -3   94.23    4.26
   9  -2   3   92.22    4.19
  -9  -2  -3   98.05    4.31
   9  -2   3  100.29    4.26
   9   2  -3   87.11    4.23
   9   3   3    7.37    0.77
   9  -3  -3    8.83    0.86
   9   3   3    6.77    0.66
  -9   3  -3    7.03    0.63
   9  -3  -3    7.87    0.76
  -9  -3   3    7.89    0.82
   9  -3   3    8.00    0.76
  -9  -3  -3    8.36    0.81
   9  -3   3    7.84    0.64
   9   3  -3    5.23    0.70
   9   3  -3    8.10    0.78
   9   3  -3    7.10    0.85
   9  -3   3    6.84    0.64
   9  -4  -3   23.51    1.43
   9   4   3   25.63    1.50
   9   4   3   25.71    1.36
  -9  -4   3   24.14    1.46
   9  -4  -3   24.08    1.40
   9  -4   3   22.62    1.40
   9   4  -3   23.87    1.48
   9   4  -3   22.33    1.40
  -9  -4  -3   27.39    1.51
   9  -4   3   23.86    1.31
   9  -5  -3    3.63    0.59
   9   5   3    3.14    0.70
   9   5   3    3.62    0.57
  -9  -5   3    2.23    0.60
   9  -5  -3    2.61    0.55
   9  -5   3    2.68    0.55
  -9  -5  -3    3.37    0.66
   9   5  -3    3.60    0.76
   9   5  -3    3.61    0.60
  -9  -6   3   31.64    1.81
   9   6   3   29.10    1.66
   9  -6  -3   32.21    1.79
   9  -6  -3   34.08    1.77
   9   6   3   32.97    1.90
   9   6  -3   34.36    2.02
   9  -6   3   28.30    1.72
  -9  -6  -3   33.47    1.85
   9   6  -3   31.15    1.77
   9  -7  -3    5.62    0.73
  -9  -7   3    5.89    0.81
   9   7   3    5.13    0.71
   9  -7  -3    5.59    0.74
  -9  -7   3    5.28    0.76
   9   7   3    7.35    1.03
   9  -7   3    5.80    0.79
  -9  -7  -3    6.00    0.92
   9   7  -3    5.66    0.77
   9   7  -3    6.83    1.07
   9   8   3    2.37    0.56
   9  -8  -3    3.49    0.71
   9   8   3    2.84    0.90
   9  -8  -3    1.82    0.54
  -9  -8   3    2.98    0.72
  -9  -8   3    1.78    0.59
   9  -8   3    2.65    0.68
  -9  -8  -3    2.58    0.78
  -9  -8  -3    1.68    0.54
   9   8  -3    1.89    0.85
   9   8  -3    3.23    0.68
   9   9   3    4.20    1.04
   9  -9  -3    0.49    0.62
   9   9   3    0.84    0.60
  -9  -9   3    1.27    0.72
  -9  -9   3    1.92    0.70
  -9  -9  -3    1.36    0.78
   9   9  -3    1.13    0.99
   9  -9   3    0.84    0.60
   9   9  -3    0.71    0.68
  -9  -9  -3    1.39    0.59
  -9 -10   3    6.64    0.95
   9  10   3    3.71    1.05
  -9 -10   3    5.55    0.92
   9 -10  -3    4.41    0.81
   9 -10   3    6.52    0.95
   9  10  -3    4.73    0.93
   9  10  -3    2.90    1.12
  -9 -10  -3    4.70    0.99
  10   0   3   56.15    2.77
  10   0  -3   57.33    2.81
 -10   0  -3   58.86    2.82
  10   0  -3   58.50    2.98
 -10   0   3   65.17    2.95
  10   0   3   62.41    2.78
 -10   1  -3    0.73    0.43
  10   1   3    0.56    0.43
  10   1   3    0.18    0.38
  10  -1  -3   -0.41    0.57
  10  -1  -3    0.13    0.38
 -10  -1   3    0.42    0.48
 -10  -1  -3    0.53    0.48
 -10   1   3    1.11    0.54
  10   1  -3    1.36    0.62
  10  -1   3    0.50    0.36
  10   1  -3    0.86    0.45
  10  -1   3    0.54    0.39
  10  -2  -3   35.28    1.93
 -10   2  -3   30.55    1.65
 -10  -2   3   33.54    1.82
  10   2   3   29.58    1.69
  10   2   3   29.99    1.63
  10  -2  -3   31.29    1.71
  10  -2   3   31.42    1.67
  10   2  -3   32.01    1.74
  10   2  -3   32.64    1.90
  10  -2   3   30.89    1.62
 -10  -2  -3   33.40    1.77
  10  -2   3   31.23    1.67
  10   2  -3   35.25    2.22
  10   3   3    4.33    0.60
  10   3   3    4.09    0.67
  10  -3  -3    3.13    0.69
 -10  -3   3    4.73    0.73
  10  -3  -3    2.75    0.55
  10   3  -3    4.65    0.70
  10   3  -3    4.26    0.75
  10   3  -3    3.10    0.57
  10  -3   3    4.16    0.64
 -10  -3  -3    3.52    0.68
  10   4   3   33.83    1.77
 -10  -4   3   30.94    1.86
  10   4   3   33.64    1.92
  10  -4  -3   35.94    1.90
  10  -4  -3   34.13    1.86
  10   4  -3   32.66    1.93
 -10  -4  -3   35.08    1.92
  10  -4   3   31.08    1.78
  10   4  -3   34.64    1.89
  10  -5  -3    0.35    0.49
 -10  -5   3   -0.10    0.51
  10  -5  -3    0.11    0.54
  10   5   3   -0.07    0.43
  10   5   3    0.91    0.54
  10  -5   3   -0.07    0.42
 -10  -5  -3    1.15    0.62
  10   5  -3    0.70    0.61
  10   5  -3    0.24    0.49
  10   6   3    7.15    1.02
  10  -6  -3    7.00    0.83
  10  -6  -3    6.69    0.82
 -10  -6   3    8.60    0.95
  10   6   3    6.88    0.80
  10  -6   3    8.20    0.91
  10   6  -3    6.99    0.84
 -10  -6  -3    7.06    0.94
  10   6  -3    5.50    1.00
  10   7   3    3.59    0.69
  10  -7  -3    3.57    0.71
 -10  -7   3    3.22    0.76
  10   7   3    3.81    0.93
  10  -7  -3    3.62    0.71
  10   7  -3    2.89    0.87
  10  -7   3    3.09    0.66
  10   7  -3    3.84    0.72
 -10  -7  -3    2.89    0.79
 -10  -8   3    5.75    0.81
  10   8   3    4.12    0.75
  10  -8  -3    5.04    0.79
 -10  -8   3    4.78    0.88
  10   8   3    5.35    1.07
  10   8  -3    6.26    0.89
  10   8  -3    5.78    1.11
  10  -8   3    4.89    0.78
 -10  -8  -3    4.61    0.93
 -10  -8  -3    5.00    0.78
 -10  -9   3   -0.81    0.66
 -10  -9   3    0.18    0.58
  10   9   3   -0.59    0.55
  10  -9  -3   -0.60    0.59
  10   9   3   -2.01    0.71
  10   9  -3   -0.41    0.58
 -10  -9  -3    0.21    0.55
  10  -9   3   -0.09    0.63
 -10  -9  -3    0.49    0.82
  10   9  -3    0.51    0.98
  10  10   3   -0.58    0.93
 -10 -10   3   -0.29    0.67
  10 -10  -3    0.43    0.61
 -10 -10   3    0.27    0.73
 -10 -10  -3   -0.37    0.82
  10  10  -3   -0.53    0.71
  10  10  -3    0.22    1.00
  10 -10   3    0.18    0.70
 -11   0  -3    2.71    0.62
  11   0  -3    2.44    0.54
  11   0  -3    2.54    0.81
  11   0   3    2.48    0.52
 -11   0   3    2.65    0.71
  11   0   3    2.08    0.49
  11   1   3    0.50    0.44
  11  -1  -3    1.06    0.66
 -11  -1   3    0.10    0.51
  11  -1  -3   -0.13    0.41
  11   1   3    0.36    0.45
 -11   1  -3    0.67    0.49
  11  -1   3    0.05    0.42
  11   1  -3    2.02    0.69
 -11   1   3   -0.07    0.51
  11   1  -3    0.02    0.46
  11  -1   3    0.19    0.42
 -11  -1  -3    0.47    0.51
  11   2   3    1.58    0.53
 -11  -2   3    1.99    0.67
  11  -2  -3    2.32    0.58
 -11   2  -3    1.70    0.51
  11  -2  -3    1.87    0.68
  11   2   3    2.35    0.49
  11   2  -3    1.52    0.72
  11  -2   3    1.24    0.51
  11   2  -3    2.12    0.53
 -11  -2  -3    3.53    0.67
  11  -3  -3    0.02    0.50
  11   3   3    0.23    0.40
  11  -3  -3    0.51    0.57
  11   3   3    0.20    0.49
 -11  -3   3   -0.51    0.51
  11  -3   3    0.00    0.42
  11   3  -3    0.30    0.66
  11   3  -3   -0.86    0.45
 -11  -3  -3   -0.80    0.52
  11   4   3    1.99    0.51
  11   4   3    1.67    0.69
  11  -4  -3    1.27    0.68
  11  -4  -3    0.59    0.50
 -11  -4   3    0.90    0.62
 -11  -4  -3    2.09    0.70
  11  -4   3    1.32    0.53
  11   4  -3    2.13    0.60
  11   4  -3    2.41    0.72
  11  -5  -3    0.64    0.62
 -11  -5   3   -0.32    0.57
  11   5   3    1.24    0.54
  11   5   3   -0.42    0.54
  11  -5  -3    0.71    0.58
  11   5  -3    0.28    0.66
  11  -5   3    0.84    0.58
 -11  -5  -3    0.07    0.64
  11   5  -3    1.29    0.58
  11  -6  -3    2.16    0.70
  11   6   3    1.24    0.70
 -11  -6   3    3.04    0.76
  11  -6  -3    3.19    0.74
  11   6   3    0.84    0.57
 -11  -6  -3    2.02    0.82
  11   6  -3    2.85    0.68
  11   6  -3    1.47    0.83
  11  -6   3    1.07    0.58
  11   7   3    0.06    0.68
  11  -7  -3   -0.54    0.54
  11  -7  -3   -0.84    0.58
 -11  -7   3   -0.77    0.62
  11   7   3   -0.17    0.56
  11   7  -3   -1.50    0.59
 -11  -7  -3    0.15    0.72
  11   7  -3   -0.23    0.80
  11  -7   3    0.52    0.55
 -11  -8   3    1.79    0.64
  11   8   3    1.71    0.69
  11   8   3    0.40    0.86
 -11  -8   3    0.29    0.70
  11  -8  -3    0.56    0.68
 -11  -8  -3    1.40    0.63
  11  -8   3    0.90    0.63
  11   8  -3    2.26    1.04
 -11  -8  -3    1.26    0.84
  11   8  -3    1.10    0.67
  11   9   3    1.58    0.93
 -11  -9   3    0.50    0.71
 -11  -9   3    0.42    0.84
  11  -9  -3   -0.08    0.63
  11  -9   3    0.23    0.68
  11   9  -3    0.90    0.98
  11   9  -3    1.17    0.77
 -11  -9  -3    0.39    0.88
  12   0  -3   -1.18    0.65
 -12   0   3    0.97    0.59
  12   0  -3    0.27    0.48
  12   0   3    0.40    0.48
 -12   0  -3    0.54    0.57
  12  -1  -3    1.02    0.57
 -12  -1   3    1.54    0.67
  12   1   3    1.47    0.52
  12   1   3    0.83    0.52
  12  -1  -3    1.39    0.75
 -12   1  -3   -0.14    0.52
  12   1  -3    1.55    0.58
 -12   1   3    0.46    0.58
  12   1  -3   -0.96    0.64
  12  -1   3    1.05    0.49
 -12  -1  -3    1.47    0.66
  12  -2  -3    1.03    0.54
  12   2   3    1.06    0.54
  12  -2  -3    0.23    0.70
 -12  -2   3    1.03    0.66
  12   2   3    1.33    0.58
  12  -2   3    1.01    0.55
 -12  -2  -3    1.26    0.63
  12   2  -3    1.09    0.59
  12   2  -3   -0.55    0.66
 -12   2   3    0.93    0.62
  12   3   3   31.64    1.83
  12  -3  -3   32.88    1.93
  12  -3  -3   36.34    2.10
  12   3   3   31.31    1.95
 -12  -3   3   33.68    2.08
 -12  -3  -3   35.74    2.04
  12   3  -3   33.31    1.95
  12  -3   3   36.57    1.96
  12   3  -3   33.80    2.14
  12  -4  -3    0.11    0.64
 -12  -4   3    0.98    0.68
  12   4   3    0.54    0.65
  12  -4  -3    0.06    0.51
  12   4   3   -0.10    0.44
  12   4  -3   -0.12    0.60
  12  -4   3   -0.07    0.56
 -12  -4  -3   -0.18    0.66
 -12  -5   3    9.43    1.10
  12  -5  -3    8.61    1.02
  12   5   3    9.47    0.99
  12   5   3    8.21    1.06
  12  -5  -3    8.48    1.09
  12   5  -3    8.30    0.98
 -12  -5  -3   10.44    1.27
  12  -5   3    7.82    0.95
  12   6   3    0.10    0.68
  12  -6  -3   -0.13    0.69
 -12  -6   3    0.18    0.69
  12   6   3    0.29    0.59
  12  -6  -3    0.08    0.63
  12   6  -3    0.83    0.63
 -12  -6  -3    0.72    0.79
  12   6  -3   -0.33    0.79
  12  -6   3   -0.17    0.54
  12   7   3   44.62    2.42
  12  -7  -3   46.92    2.53
 -12  -7   3   43.60    2.53
  12   7   3   48.23    2.74
  12   7  -3   44.62    2.54
  12  -7   3   41.02    2.42
  12   7  -3   44.89    2.81
 -12  -7  -3   45.51    2.63
 -12  -8   3    0.03    0.60
  12   8   3    0.52    0.65
 -12  -8   3   -0.84    0.75
  12  -8  -3   -0.20    0.59
  12   8   3    0.00    0.83
  12  -8   3   -0.04    0.68
  12   8  -3    0.54    0.68
 -12  -8  -3    0.76    0.94
 -12  -8  -3    0.55    0.57
  12   8  -3   -0.45    1.00
 -13   0  -3   -0.02    0.56
 -13   0   3    0.07    0.65
  13   0  -3    0.86    0.80
  13   0  -3    0.08    0.59
  13   0   3    1.82    0.62
  13   1   3    4.48    0.75
 -13  -1   3    2.80    0.81
  13  -1  -3    2.42    0.72
  13  -1  -3    3.20    1.02
 -13   1  -3    3.60    0.73
  13  -1   3    3.20    0.65
 -13   1   3    2.53    0.84
 -13  -1  -3    2.65    0.74
  13   1  -3    2.93    0.92
  13   1  -3    2.87    0.68
  13   2   3    0.49    0.52
  13  -2  -3   -1.14    0.50
  13  -2  -3    0.96    0.79
 -13  -2   3   -1.04    0.63
  13   2   3    0.08    0.68
  13   2  -3    0.12    0.61
 -13  -2  -3    0.45    0.74
  13   2  -3    0.73    0.77
  13  -2   3    0.14    0.54
 -13   2   3   -0.77    0.57
 -13  -3   3    6.33    1.07
  13   3   3    5.77    0.82
  13  -3  -3    3.49    0.74
  13   3   3    3.14    0.81
  13  -3  -3    3.28    0.92
 -13   3   3    2.96    0.76
  13  -3   3    6.04    0.87
 -13  -3  -3    4.94    1.00
  13   3  -3    4.18    0.77
  13  -4  -3    0.72    0.74
 -13  -4   3    1.46    0.80
  13   4   3    1.83    0.65
  13  -4  -3   -0.38    0.58
  13   4   3    0.50    0.65
  13  -4   3    1.49    0.64
 -13  -4  -3    0.46    0.87
  13   4  -3    0.72    0.68
  13   5   3    1.43    0.83
  13   5   3    1.57    0.69
 -13  -5   3    2.06    0.84
  13  -5  -3    1.96    0.70
  13  -5  -3    1.97    0.86
  13   5  -3    1.29    0.68
  13  -5   3    1.06    0.64
 -13  -5  -3    2.11    1.01
  13   6   3   -0.09    0.72
  13  -6  -3    0.05    0.70
  13  -6  -3   -0.49    1.13
  13   6   3    0.64    0.60
 -13  -6   3   -0.11    0.86
  13  -6   3    0.50    0.69
 -13  -6  -3   -0.35    0.93
  13   6  -3   -0.87    0.67
  13  -7  -3    3.84    0.87
 -13  -7   3    3.73    0.96
  13   7   3    2.04    0.93
  13   7   3    1.34    0.74
  13   7  -3    1.86    0.78
  13  -7   3    2.34    0.83
 -13  -7  -3    2.68    1.01
  14   0   3   24.63    1.69
  14   0  -3   26.62    1.76
 -14   0   3   24.67    1.85
  14   0  -3   27.32    2.11
 -14   0  -3   22.93    1.63
  14  -1  -3    0.69    0.88
 -14  -1   3    0.11    0.74
  14  -1  -3   -0.71    0.58
  14   1   3    1.46    0.60
  14  -1   3    0.22    0.64
 -14   1   3    0.79    0.71
 -14  -1  -3    0.05    0.74
  14   1  -3    0.82    0.68
  14   1  -3    0.86    0.89
  14   2   3   46.48    2.42
 -14  -2   3   42.36    2.57
  14  -2  -3   49.63    2.52
  14  -2  -3   50.46    2.74
  14   2  -3   45.89    2.51
  14   2  -3   41.16    2.70
 -14  -2  -3   41.65    2.51
  14  -2   3   45.91    2.49
 -14   2   3   41.66    2.45
 -14  -3   3    0.71    0.81
  14   3   3    0.27    0.56
  14  -3  -3   -0.29    0.86
  14  -3  -3    0.43    0.66
 -14  -3  -3   -0.10    0.86
  14   3  -3    0.96    0.70
  14  -3   3    1.68    0.72
 -14   3   3    0.81    0.78
  14   4   3   13.65    1.22
  14  -4  -3   14.78    1.46
 -14  -4   3   13.35    1.47
  14  -4  -3   13.77    1.34
  14   4   3    9.83    1.34
 -14   4   3   11.88    1.19
  14  -4   3   11.14    1.15
  14   4  -3   11.47    1.23
 -14  -4  -3   12.51    1.42
  14  -5  -3    0.66    0.79
 -14  -5   3   -0.30    0.90
  14   5   3    0.36    0.72
  14   5   3    0.61    0.84
  14  -5  -3   -0.44    0.68
 -14   5   3    0.24    0.71
 -14  -5  -3   -1.80    0.86
  14  -5   3    0.92    0.69
  14   5  -3    0.40    0.68
 -14  -6   3   14.88    1.52
  14   6   3   11.35    1.43
  14   6   3   11.29    1.19
  14  -6  -3   14.22    1.42
  14  -6   3   15.15    1.37
  14   6  -3   14.14    1.39
 -14  -6  -3   16.45    1.68
  15   0  -3   13.39    1.35
 -15   0   3   12.01    1.31
  15   0   3   11.79    1.16
  15   0  -3    8.99    1.43
 -15  -1   3    1.44    0.89
  15  -1  -3    2.72    0.87
  15   1   3    2.56    0.79
  15  -1  -3    0.18    0.92
  15   1  -3    1.75    1.05
  15  -1   3    1.80    0.81
 -15  -1  -3    2.09    0.82
  15   1  -3    1.91    0.74
 -15   1   3    2.40    0.86
 -15  -2   3   41.84    2.58
  15  -2  -3   47.08    2.60
  15  -2  -3   40.30    2.67
  15   2   3   44.79    2.47
 -15  -2  -3   39.18    2.58
  15  -2   3   45.44    2.46
  15   2  -3   44.26    2.48
  15   2  -3   43.90    2.78
 -15  -3   3    0.63    0.89
  15  -3  -3    1.34    1.01
  15  -3  -3    0.41    0.71
  15   3   3    0.77    0.71
  15  -3   3    1.24    0.78
 -15   3   3    0.75    0.71
  15   3  -3    1.30    0.80
 -15  -3  -3   -0.39    0.92
 -15  -4   3    6.88    1.25
  15  -4  -3    4.33    0.95
  15   4   3    4.91    0.94
  15  -4  -3    4.94    1.19
  15   4  -3    5.25    1.07
 -15   4   3    4.99    0.95
 -15  -4  -3    3.22    1.07
  15  -4   3    3.87    0.86
  16   0   3    0.54    0.72
  16   0  -3   -0.28    0.97
  16   0  -3   -0.03    0.72
 -16   0   3    0.15    0.86
   0   0   4  136.43    5.52
   0   0  -4  132.95    5.43
   0   0  -4  124.71    5.50
   0   0   4  133.72    5.43
   0   0  -4  131.83    5.47
   0   1  -4    0.33    0.10
   0  -1   4    0.11    0.10
   0   1   4    0.19    0.14
   0  -1   4    0.18    0.16
   0  -1  -4   -0.03    0.12
   0   1  -4    0.09    0.15
   0  -2   4  433.18   16.85
   0   2  -4  407.73   16.97
   0  -2  -4  423.23   16.87
   0   2  -4  387.31   16.81
   0  -2  -4  400.11   16.79
   0  -3   4   -0.04    0.10
   0  -3  -4    0.09    0.09
   0  -3  -4    0.34    0.18
   0   3  -4    0.36    0.27
   0   3   4    0.05    0.15
   0  -3   4    0.33    0.18
   0   4  -4   56.79    2.52
   0  -4   4   50.67    2.21
   0   4   4   51.25    2.32
   0  -4   4   53.62    2.33
   0  -4  -4   50.16    2.31
   0  -4  -4   51.97    2.24
   0  -5  -4    0.12    0.23
   0   5  -4    0.27    0.34
   0  -5   4    0.25    0.14
   0  -5   4    0.06    0.25
   0   5   4    0.00    0.19
   0  -5  -4    0.26    0.17
   0  -6  -4  136.15    5.73
   0   6   4  140.60    5.83
   0   6  -4  130.92    5.99
   0  -6  -4  132.46    5.78
   0  -6   4  135.78    5.82
   0  -6   4  137.46    5.67
   0  -7  -4   -0.37    0.27
   0  -7   4    0.16    0.21
   0   7  -4   -0.11    0.41
   0  -7  -4    0.30    0.25
   0  -7   4   -0.03    0.35
   0   7   4    0.21    0.35
   0   8   4    0.48    0.39
   0  -8  -4    0.94    0.39
   0  -8  -4    0.26    0.32
   0  -8   4    0.25    0.30
   0  -8   4    0.55    0.45
   0   8  -4    0.93    0.56
   0  -9   4    0.13    0.49
   0  -9  -4    0.37    0.36
   0  -9  -4    0.19    0.41
   0   9  -4   -0.21    0.55
   0   9   4    0.31    0.44
   0 -10  -4   15.44    1.17
   0  10   4   18.52    1.39
   0 -10  -4   18.45    1.21
   0 -10   4   20.27    1.42
   0  10  -4   19.36    1.56
   0 -11   4   -0.09    0.56
   0  11   4    0.70    0.68
   0 -11  -4    0.13    0.49
   0  11  -4    1.23    0.84
   0  12   4    4.25    0.96
   0 -12  -4    4.79    0.86
   0 -12   4    3.16    0.80
   0  12  -4    4.07    1.11
   1   0   4  103.63    4.21
  -1   0  -4  102.66    4.24
   1   0  -4   99.06    4.28
  -1   0   4  104.42    4.28
   1   0  -4  101.95    4.23
   1   0  -4  100.11    4.27
   1   0   4  102.16    4.30
   1  -1  -4   25.24    1.16
  -1   1  -4   26.70    1.22
  -1   1  -4   25.07    1.10
  -1  -1   4   25.93    1.14
   1  -1  -4   24.00    1.08
   1   1   4   26.49    1.18
   1   1  -4   25.29    1.22
   1  -1   4   27.95    1.23
   1  -1   4   26.27    1.13
  -1   1   4   25.51    1.14
  -1  -1  -4   24.61    1.15
   1   1  -4   25.43    1.14
   1   1  -4   24.88    1.15
   1  -2  -4  110.25    4.86
  -1  -2   4  116.98    4.86
   1   2   4  121.97    4.88
  -1   2  -4  119.13    4.96
   1  -2  -4  112.84    4.78
   1   2  -4  112.70    4.85
   1  -2   4  115.39    4.85
   1   2  -4  116.83    4.86
  -1  -2  -4  116.16    4.87
  -1  -2  -4  117.00    4.76
  -1   2   4  118.35    4.84
   1   2  -4  113.71    4.99
   1  -3  -4   12.81    0.76
  -1  -3   4   14.20    0.72
   1   3   4   14.28    0.78
  -1   3  -4   13.51    0.88
   1  -3  -4   15.87    0.70
  -1  -3   4   15.27    0.79
  -1  -3  -4   14.85    0.78
   1   3  -4   15.96    0.95
   1  -3   4   15.00    0.78
  -1  -3  -4   14.77    0.67
   1   3  -4   14.81    0.79
  -1   3   4   14.10    0.73
   1   3  -4   15.57    0.75
  -1  -4   4   34.46    1.49
   1  -4  -4   33.33    1.56
   1   4   4   33.10    1.59
   1  -4  -4   32.69    1.49
  -1  -4   4   33.34    1.57
  -1   4  -4   34.08    1.71
   1  -4   4   32.04    1.42
  -1  -4  -4   33.06    1.57
   1   4  -4   33.50    1.74
   1  -4   4   33.09    1.57
   1   4  -4   33.68    1.58
  -1  -4  -4   34.72    1.47
  -1   4   4   34.00    1.54
  -1   5  -4   21.89    1.33
   1   5   4   21.37    1.19
   1  -5  -4   23.39    1.10
  -1  -5   4   23.76    1.19
   1  -5  -4   23.80    1.16
  -1  -5   4   22.64    1.07
  -1   5   4   22.06    1.15
   1   5  -4   21.99    1.36
  -1  -5  -4   22.01    1.08
   1  -5   4   22.50    1.19
   1  -5   4   22.69    1.01
  -1  -5  -4   24.11    1.19
   1  -6  -4   20.73    1.11
  -1  -6   4   19.99    1.01
  -1   6  -4   20.36    1.29
   1   6   4   22.21    1.18
   1  -6  -4   20.08    1.05
  -1  -6   4   21.28    1.16
  -1  -6  -4   20.39    1.12
   1   6  -4   19.45    1.32
   1  -6   4   20.18    0.95
  -1   6   4   19.95    1.11
  -1  -6  -4   21.16    1.04
   1  -6   4   20.30    1.14
   1  -7  -4    3.09    0.42
  -1  -7   4    2.38    0.45
  -1   7  -4    2.80    0.60
  -1  -7   4    3.86    0.40
   1   7   4    3.00    0.51
   1  -7  -4    2.44    0.43
  -1  -7  -4    3.40    0.52
   1   7  -4    2.62    0.68
  -1  -7  -4    3.76    0.44
   1  -7   4    2.29    0.45
   1  -7   4    2.93    0.32
  -1   7   4    2.33    0.46
   1   8   4    2.98    0.58
   1  -8  -4    1.67    0.38
   1  -8  -4    1.65    0.44
  -1   8  -4    1.73    0.63
  -1  -8   4    1.71    0.35
  -1  -8   4    1.28    0.45
   1   8  -4    0.65    0.59
  -1  -8  -4    1.81    0.39
   1  -8   4    1.95    0.49
  -1  -8  -4    2.28    0.48
  -1   8   4    2.10    0.50
  -1   9  -4   20.12    1.44
  -1  -9   4   19.60    1.31
   1   9   4   17.47    1.32
   1  -9  -4   17.15    1.10
   1  -9  -4   19.19    1.20
   1  -9   4   17.33    1.21
  -1  -9  -4   18.50    1.13
   1   9  -4   14.85    1.43
  -1   9   4   17.12    1.26
  -1  -9  -4   20.47    1.20
   1 -10  -4   -0.19    0.39
   1  10   4    0.25    0.53
  -1 -10   4    0.97    0.55
   1 -10  -4    0.14    0.46
  -1  10  -4    0.46    0.63
   1  10  -4    0.40    0.77
  -1 -10  -4    0.71    0.48
   1 -10   4    0.65    0.54
  -1 -10  -4    0.38    0.42
  -1  10   4    0.45    0.55
   1 -11  -4   -0.18    0.56
  -1 -11   4   -0.06    0.58
   1  11   4    0.63    0.63
  -1  11  -4   -0.04    0.71
  -1  11   4   -0.49    0.61
   1 -11   4    0.26    0.59
  -1 -11  -4   -0.30    0.58
   1  11  -4    0.19    0.76
   1  12   4    0.04    0.68
  -1 -12   4    0.47    0.75
  -1  12  -4    0.24    0.90
   1 -12  -4    0.51    0.59
   1 -12   4    1.12    0.68
  -1  12   4   -0.15    0.68
  -1 -12  -4   -0.12    0.55
   1  12  -4   -0.10    0.84
   2   0   4   52.33    2.19
  -2   0   4   50.42    2.15
  -2   0  -4   48.25    2.11
   2   0  -4   49.56    2.12
   2   0  -4   48.40    2.17
   2   0   4   49.98    2.10
   2   0  -4   50.10    2.15
   2   1   4    8.55    0.52
   2  -1  -4    9.08    0.52
  -2   1  -4    9.02    0.55
   2   1   4    8.49    0.40
   2  -1  -4    7.99    0.43
  -2   1   4    8.70    0.44
   2   1  -4    8.98    0.49
   2   1  -4    8.95    0.57
   2   1  -4    8.85    0.51
  -2  -1  -4    8.63    0.48
   2  -1   4    8.64    0.54
   2  -1   4    9.07    0.47
   2   2   4   35.31    1.64
   2  -2  -4   35.27    1.63
  -2  -2   4   38.97    1.63
   2  -2  -4   34.39    1.55
  -2   2  -4   36.30    1.69
   2   2   4   36.09    1.52
   2  -2   4   37.16    1.62
   2   2  -4   36.29    1.62
   2  -2   4   36.99    1.70
   2   2  -4   35.71    1.64
  -2  -2  -4   36.48    1.62
   2   2  -4   34.64    1.75
  -2   2   4   36.17    1.56
   2   3   4   13.67    0.79
   2  -3  -4   12.86    0.77
  -2  -3   4   14.48    0.78
  -2   3  -4   13.88    0.85
  -2  -3   4   15.21    0.77
   2  -3  -4   15.09    0.72
   2   3   4   14.33    0.67
   2   3  -4   15.70    0.96
   2  -3   4   15.64    0.78
  -2   3   4   15.27    0.71
   2   3  -4   14.66    0.79
   2   3  -4   14.30    0.77
  -2  -3  -4   14.26    0.78
  -2  -3  -4   14.13    0.68
  -2  -4   4   23.89    1.14
   2  -4  -4   20.98    1.05
   2  -4  -4   21.43    1.10
   2   4   4   21.92    1.14
   2   4   4   21.36    1.00
  -2  -4   4   21.84    1.06
  -2   4  -4   21.64    1.22
   2   4  -4   23.57    1.31
   2  -4   4   23.57    1.13
   2   4  -4   23.54    1.14
  -2   4   4   21.10    1.05
  -2  -4  -4   21.75    1.02
  -2  -4  -4   21.30    1.11
  -2   5  -4   44.99    2.22
   2  -5  -4   46.49    2.04
  -2  -5   4   46.05    2.11
   2  -5  -4   43.32    2.08
  -2  -5   4   44.17    2.02
   2   5   4   48.13    2.14
   2  -5   4   45.12    2.09
  -2   5   4   43.91    2.04
   2   5  -4   44.33    2.11
  -2  -5  -4   47.22    2.11
  -2  -5  -4   45.53    2.00
   2  -5   4   45.86    1.90
   2   5  -4   42.87    2.27
  -2  -6   4    5.56    0.58
   2  -6  -4    6.20    0.57
   2   6   4    6.69    0.67
   2  -6  -4    6.57    0.55
  -2   6  -4    7.16    0.75
  -2  -6   4    6.65    0.51
  -2  -6  -4    6.86    0.49
  -2   6   4    6.38    0.58
   2   6  -4    4.89    0.77
   2  -6   4    5.08    0.56
   2   6  -4    6.20    0.60
  -2  -6  -4    7.97    0.65
   2  -6   4    6.45    0.38
   2  -7  -4   26.17    1.33
  -2   7  -4   24.15    1.56
  -2  -7   4   27.90    1.30
   2  -7  -4   26.26    1.36
  -2  -7   4   25.21    1.42
   2   7   4   25.23    1.46
   2   7  -4   24.31    1.62
  -2  -7  -4   26.30    1.40
   2  -7   4   24.94    1.40
  -2  -7  -4   25.14    1.30
  -2   7   4   26.63    1.39
   2  -8  -4    2.30    0.45
   2  -8  -4    2.20    0.42
   2   8   4    1.67    0.55
  -2  -8   4    1.80    0.39
  -2   8  -4    1.95    0.66
  -2  -8   4    1.48    0.52
  -2   8   4    2.87    0.53
   2  -8   4    2.18    0.50
  -2  -8  -4    2.27    0.41
  -2  -8  -4    3.31    0.54
   2   8  -4    2.33    0.74
   2   9   4   26.96    1.69
  -2   9  -4   25.92    1.76
   2  -9  -4   26.31    1.45
  -2  -9   4   28.86    1.43
  -2  -9   4   26.24    1.58
   2  -9  -4   26.19    1.47
  -2   9   4   28.49    1.60
  -2  -9  -4   26.97    1.56
   2   9  -4   24.20    1.81
  -2  -9  -4   25.91    1.44
   2  -9   4   24.54    1.54
   2 -10  -4    0.27    0.40
  -2  10  -4    0.15    0.62
   2  10   4    0.02    0.55
  -2 -10   4    0.66    0.55
   2 -10  -4    0.32    0.52
  -2 -10  -4    0.24    0.41
   2  10  -4    0.46    0.81
  -2 -10  -4    0.48    0.49
  -2  10   4   -0.33    0.50
   2 -10   4   -0.54    0.46
   2  11   4    7.25    1.06
  -2  11  -4    7.07    1.06
  -2 -11   4    6.21    0.93
   2 -11  -4    7.95    0.92
   2 -11   4    7.00    0.91
   2  11  -4    7.58    1.28
  -2 -11  -4    9.93    0.99
  -2 -12   4   -0.46    0.68
   2 -12  -4   -0.26    0.63
  -2  12  -4    1.14    0.88
   2  12   4    1.49    0.85
  -2 -12  -4    0.50    0.62
   2 -12   4    0.63    0.73
   2  12  -4    0.86    1.03
   3   0   4    0.70    0.13
   3   0   4    0.47    0.19
  -3   0  -4    0.71    0.16
   3  -1  -4  135.12    5.69
   3   1   4  127.78    5.58
   3   1   4  133.34    5.69
   3  -1  -4  132.06    5.62
  -3   1  -4  142.61    5.58
   3  -1   4  140.71    5.63
  -3  -1  -4  136.02    5.64
   3   1  -4  126.69    5.69
   3   1  -4  134.22    5.65
   3  -1   4  136.65    5.70
  -3   1   4  138.19    5.58
   3   1  -4  137.87    5.74
   3   2   4   11.42    0.54
  -3   2  -4   11.15    0.68
   3   2   4   11.64    0.67
   3  -2  -4   10.36    0.64
   3  -2  -4    9.92    0.57
  -3  -2  -4   10.37    0.62
   3   2  -4   11.22    0.67
  -3   2   4   11.80    0.53
   3  -2   4   10.69    0.62
   3   2  -4   11.71    0.77
   3  -2   4   10.72    0.68
   3   2  -4   11.60    0.65
   3   3   4  117.57    5.00
   3   3   4  117.96    5.13
  -3  -3   4  119.96    5.09
  -3   3  -4  121.58    5.16
   3  -3  -4  121.24    5.10
   3  -3  -4  118.38    5.04
   3  -3   4  117.92    5.16
   3   3  -4  118.36    5.12
   3   3  -4  123.60    5.11
   3   3  -4  120.62    5.25
   3  -3   4  124.55    5.09
  -3  -3  -4  123.75    5.10
  -3   3   4  118.82    4.99
   3  -4  -4    0.36    0.19
  -3  -4   4   -0.05    0.21
   3  -4  -4   -0.12    0.21
  -3  -4   4   -0.10    0.21
   3   4   4    0.10    0.14
  -3   4  -4    0.23    0.25
   3   4   4   -0.09    0.23
   3   4  -4    0.09    0.22
  -3  -4  -4   -0.07    0.15
  -3   4   4   -0.20    0.13
   3  -4   4   -0.01    0.20
  -3  -4  -4   -0.12    0.23
   3   4  -4    0.14    0.23
   3   4  -4   -0.35    0.30
   3   5   4   88.61    3.82
  -3  -5   4   91.80    3.95
   3  -5  -4   90.93    3.90
  -3   5  -4   90.65    4.02
   3   5   4   88.35    3.97
   3  -5  -4   84.37    3.86
  -3  -5   4   93.37    3.89
   3   5  -4   91.38    4.14
  -3   5   4   90.48    3.85
   3  -5   4   88.75    3.94
   3   5  -4   93.40    3.97
  -3  -5  -4   90.04    3.93
  -3  -5  -4   89.49    3.84
  -3  -6   4    3.32    0.42
   3  -6  -4    1.73    0.34
   3  -6  -4    2.20    0.41
  -3  -6   4    1.78    0.40
   3   6   4    2.84    0.49
  -3   6  -4    2.78    0.50
   3   6   4    2.06    0.31
  -3   6   4    2.73    0.37
  -3  -6  -4    2.52    0.44
   3  -6   4    2.12    0.44
   3   6  -4    2.77    0.61
   3   6  -4    2.56    0.44
  -3  -6  -4    2.45    0.33
   3  -7  -4   42.80    2.07
  -3  -7   4   39.81    2.14
   3   7   4   45.63    2.22
   3  -7  -4   44.19    2.07
  -3  -7   4   45.29    2.05
  -3   7  -4   41.00    2.23
   3  -7   4   44.57    2.16
   3   7  -4   43.53    2.42
  -3  -7  -4   44.63    2.12
   3   7  -4   43.99    2.17
  -3   7   4   43.44    2.09
  -3  -7  -4   43.01    2.03
  -3   8  -4    0.39    0.46
  -3  -8   4    1.01    0.45
   3   8   4    0.66    0.51
   3  -8  -4    0.83    0.37
  -3  -8   4    1.04    0.39
   3  -8  -4    0.53    0.39
  -3  -8  -4    0.78    0.43
  -3   8   4    0.83    0.40
  -3  -8  -4    0.71    0.34
   3  -8   4    0.79    0.43
   3   8  -4    0.96    0.71
   3  -9  -4   74.17    3.36
  -3  -9   4   77.02    3.50
   3  -9  -4   74.47    3.36
   3   9   4   73.36    3.59
  -3  -9   4   78.62    3.33
  -3   9  -4   70.68    3.56
  -3  -9  -4   75.24    3.43
   3  -9   4   68.10    3.42
  -3  -9  -4   70.36    3.32
   3   9  -4   74.20    3.77
  -3   9   4   70.65    3.44
   3  10   4   -0.30    0.56
  -3 -10   4    0.61    0.57
   3 -10  -4    0.22    0.43
  -3 -10   4    0.15    0.50
   3 -10  -4    0.08    0.45
  -3  10  -4   -0.24    0.60
   3 -10   4    0.31    0.54
  -3 -10  -4   -0.11    0.52
   3  10  -4   -0.18    0.74
  -3 -10  -4    0.50    0.63
   3  11   4    4.89    0.92
  -3  11  -4    5.16    1.00
  -3 -11   4    4.12    0.89
   3 -11  -4    4.26    0.72
   3 -11  -4    5.96    0.83
   3 -11   4    6.58    0.94
   3  11  -4    6.05    1.18
  -3 -11  -4    5.36    0.88
  -3  12  -4    1.21    0.83
   3  12   4    1.02    0.80
  -3 -12   4    1.35    0.74
   3 -12  -4    0.79    0.67
   3  12  -4    3.04    1.18
   3 -12   4    2.13    0.79
  -3 -12  -4    1.79    0.72
  -4   0  -4    2.52    0.25
   4   0  -4    1.98    0.25
   4   0  -4    2.13    0.32
   4   0  -4    2.15    0.25
   4   0   4    2.80    0.26
   4   0   4    3.00    0.33
   4   1   4    5.11    0.35
   4   1   4    5.44    0.44
   4  -1  -4    5.41    0.48
   4  -1  -4    5.10    0.38
  -4   1  -4    5.28    0.33
   4  -1   4    5.09    0.37
   4   1  -4    4.94    0.49
  -4  -1  -4    4.91    0.38
   4  -1   4    5.89    0.45
   4   1  -4    4.84    0.42
   4   1  -4    6.26    0.54
   4   2   4    6.49    0.49
   4  -2  -4    5.85    0.51
   4   2   4    5.97    0.37
  -4  -2   4    5.82    0.52
   4  -2  -4    5.96    0.41
  -4   2  -4    5.96    0.47
  -4  -2  -4    5.66    0.47
   4   2  -4    5.31    0.45
   4   2  -4    5.37    0.52
   4  -2   4    5.64    0.43
   4  -2   4    5.73    0.51
   4   2  -4    5.55    0.57
   4  -3  -4    1.86    0.31
   4   3   4    2.07    0.24
   4  -3  -4    2.41    0.29
   4   3   4    2.59    0.37
  -4   3  -4    1.86    0.32
  -4  -3   4    1.63    0.33
   4   3  -4    1.54    0.30
   4   3  -4    1.27    0.32
   4   3  -4    2.28    0.46
   4  -3   4    1.44    0.31
  -4   3   4    1.89    0.24
   4  -3   4    1.86    0.34
  -4  -3  -4    1.98    0.32
   4   4   4   -0.14    0.28
   4  -4  -4   -0.09    0.19
  -4  -4   4   -0.02    0.25
   4   4   4    0.25    0.17
  -4   4  -4    0.04    0.24
  -4  -4   4   -0.09    0.22
   4  -4  -4    0.01    0.22
  -4  -4  -4   -0.30    0.24
  -4   4   4    0.13    0.14
   4  -4   4    0.09    0.22
   4   4  -4    0.01    0.27
   4   4  -4    0.00    0.29
   4  -4   4    0.28    0.27
   4   4  -4    0.26    0.35
   4  -5  -4   17.17    0.98
  -4  -5   4   16.59    1.02
  -4  -5   4   19.27    1.01
   4   5   4   17.29    0.90
   4  -5  -4   18.01    0.97
   4   5   4   16.05    1.07
  -4   5  -4   17.46    1.04
  -4   5   4   17.35    0.89
  -4  -5  -4   16.62    0.92
   4   5  -4   18.04    1.05
  -4  -5  -4   17.78    1.02
   4   5  -4   17.39    1.23
   4  -5   4   16.26    0.98
  -4   6  -4   -0.02    0.30
   4  -6  -4    0.35    0.33
   4   6   4   -0.25    0.35
   4   6   4   -0.19    0.23
  -4  -6   4    0.02    0.33
  -4  -6   4    0.05    0.27
   4  -6  -4   -0.46    0.24
  -4  -6  -4    0.17    0.33
   4  -6   4   -0.34    0.28
  -4   6   4    0.29    0.24
   4   6  -4   -0.54    0.42
   4   6  -4    0.29    0.36
  -4  -6  -4   -0.29    0.21
  -4  -7   4    3.75    0.55
   4   7   4    3.78    0.43
   4  -7  -4    3.48    0.53
   4  -7  -4    3.66    0.51
  -4  -7   4    3.90    0.53
  -4   7  -4    4.25    0.60
   4   7   4    3.88    0.66
   4   7  -4    2.11    0.67
  -4   7   4    3.47    0.49
  -4  -7  -4    4.21    0.49
   4  -7   4    4.10    0.55
  -4  -7  -4    3.31    0.55
   4   7  -4    3.00    0.55
  -4  -8   4    3.61    0.55
  -4  -8   4    3.27    0.62
   4  -8  -4    3.53    0.55
   4   8   4    2.98    0.65
   4  -8  -4    2.11    0.48
  -4   8  -4    3.22    0.60
   4  -8   4    2.24    0.51
   4   8  -4    3.58    0.62
  -4  -8  -4    2.61    0.47
   4   8  -4    2.12    0.74
  -4  -8  -4    2.83    0.57
   4   9   4    8.04    0.97
   4  -9  -4    8.06    0.80
  -4  -9   4    7.56    0.77
  -4  -9   4    6.70    0.84
  -4   9  -4    8.16    0.89
   4  -9  -4    9.00    0.83
  -4  -9  -4    8.66    0.88
   4  -9   4    8.31    0.88
   4   9  -4    8.20    1.16
  -4  -9  -4    6.31    0.70
   4  10   4    1.98    0.72
   4 -10  -4    1.40    0.51
  -4 -10   4    1.86    0.57
   4 -10  -4    1.23    0.50
  -4 -10   4    1.31    0.61
  -4  10  -4    0.74    0.55
   4 -10   4    1.12    0.62
  -4 -10  -4    3.56    0.69
   4  10  -4   -0.06    0.78
   4 -11  -4    0.42    0.53
   4  11   4    0.41    0.79
  -4 -11   4    0.97    0.71
  -4  11  -4    0.04    0.67
   4 -11  -4   -0.14    0.49
   4 -11   4    0.64    0.60
  -4 -11  -4   -0.39    0.68
   4  11  -4   -0.11    0.86
   4 -12  -4    2.58    0.81
   4  12   4    5.42    1.12
  -4 -12   4    4.23    0.87
  -4  12  -4    4.86    1.00
   4 -12   4    4.47    0.93
  -4 -12  -4    5.31    0.92
   4  12  -4    3.77    1.29
   5   0   4   49.76    2.31
   5   0  -4   53.27    2.35
   5   0   4   54.34    2.39
  -5   0  -4   55.49    2.33
   5   0  -4   53.26    2.32
   5   0  -4   53.53    2.44
  -5   1  -4   34.42    1.46
   5  -1  -4   33.45    1.60
   5   1   4   32.70    1.49
   5   1   4   33.28    1.58
   5  -1  -4   33.07    1.52
   5  -1   4   33.53    1.56
   5   1  -4   31.54    1.53
   5   1  -4   32.13    1.62
  -5  -1  -4   32.42    1.52
   5   1  -4   30.25    1.60
   5  -1   4   33.58    1.51
  -5   2  -4   58.56    2.46
   5  -2  -4   56.82    2.54
   5   2   4   58.47    2.63
  -5  -2   4   57.37    2.63
   5   2   4   58.22    2.50
   5  -2  -4   60.16    2.62
   5   2  -4   56.37    2.66
   5  -2   4   59.30    2.61
  -5  -2  -4   57.51    2.57
   5   2  -4   58.06    2.58
   5   2  -4   58.77    2.69
   5  -2   4   56.68    2.56
   5   3   4   39.01    1.91
   5  -3  -4   40.92    1.88
  -5  -3   4   40.74    1.90
   5   3   4   40.69    1.78
  -5   3  -4   39.89    1.87
  -5   3  -4   40.52    1.70
   5  -3  -4   42.22    1.84
   5  -3   4   39.39    1.90
   5   3  -4   36.68    1.86
  -5  -3  -4   39.89    1.88
   5   3  -4   38.36    2.00
   5  -3   4   40.23    1.86
   5   3  -4   39.46    1.94
   5   4   4   22.05    1.23
   5  -4  -4   22.69    1.19
  -5   4  -4   21.34    1.19
  -5  -4   4   22.52    1.19
   5  -4  -4   21.75    1.14
   5   4   4   23.27    1.09
   5  -4   4   21.22    1.21
   5  -4   4   21.36    1.16
   5   4  -4   22.05    1.21
  -5  -4  -4   21.38    1.18
   5   4  -4   20.57    1.31
   5   4  -4   23.83    1.25
  -5   5  -4   16.85    1.01
   5   5   4   17.89    1.09
   5   5   4   16.13    0.91
   5  -5  -4   17.31    1.01
  -5  -5   4   16.65    1.00
   5  -5  -4   18.35    1.00
  -5  -5   4   17.16    1.00
   5   5  -4   15.05    1.17
  -5  -5  -4   15.65    1.01
   5  -5   4   17.54    1.05
   5   5  -4   17.52    1.03
   5  -5   4   16.04    0.99
  -5  -6   4   12.39    0.87
  -5   6  -4   12.45    0.86
   5   6   4   12.88    0.96
   5  -6  -4   12.84    0.85
   5   6   4   11.31    0.74
  -5  -6   4   12.54    0.84
   5  -6  -4   11.17    0.82
  -5  -6  -4   11.14    0.79
   5   6  -4   12.75    1.18
   5  -6   4   11.51    0.91
  -5  -6  -4   12.54    0.89
   5   6  -4   11.07    0.86
   5  -6   4   12.62    0.90
   5   7   4   21.29    1.35
  -5  -7   4   19.72    1.21
   5  -7  -4   19.11    1.18
  -5  -7   4   21.75    1.29
   5  -7  -4   21.32    1.22
   5   7   4   20.47    1.14
  -5   7  -4   21.58    1.25
  -5  -7  -4   18.99    1.15
   5  -7   4   20.51    1.23
  -5  -7  -4   20.12    1.25
   5   7  -4   19.27    1.28
   5   7  -4   22.06    1.60
   5  -8  -4    1.59    0.42
   5   8   4    2.15    0.65
  -5  -8   4    1.76    0.47
   5   8   4    2.17    0.44
   5  -8  -4    1.82    0.46
  -5  -8   4    2.21    0.52
  -5   8  -4    1.68    0.53
   5  -8   4    1.84    0.54
   5   8  -4    3.66    0.81
   5   8  -4    1.25    0.55
  -5  -8  -4    2.12    0.54
  -5  -8  -4    0.95    0.41
   5   9   4   11.96    1.27
   5  -9  -4   13.50    1.06
   5  -9  -4   13.18    1.04
  -5   9  -4   13.35    1.13
  -5  -9   4   14.39    1.11
  -5  -9   4   11.91    0.99
  -5  -9  -4   11.46    0.96
  -5  -9  -4   14.17    1.12
   5   9  -4   12.50    1.10
   5   9  -4   14.43    1.46
   5  -9   4   12.83    1.11
  -5 -10   4    1.22    0.59
   5 -10  -4   -0.19    0.40
  -5  10  -4    1.00    0.62
   5  10   4    1.08    0.74
  -5 -10   4    0.09    0.61
   5 -10  -4    1.27    0.51
   5  10  -4    2.23    0.96
   5 -10   4    0.82    0.55
  -5 -10  -4    0.27    0.60
  -5 -11   4    3.83    0.91
  -5  11  -4    4.46    0.87
  -5 -11   4    4.10    0.89
   5  11   4    4.35    0.97
   5 -11  -4    3.69    0.69
   5 -11  -4    4.05    0.77
  -5 -11  -4    5.90    0.92
   5  11  -4    3.89    1.26
   5 -11   4    5.86    0.86
  -5 -12   4   -0.64    0.74
   5  12   4   -0.35    0.79
  -5 -12  -4   -0.29    0.69
   5 -12   4    0.16    0.71
   5  12  -4    1.01    1.07
   6   0   4    9.03    0.60
   6   0  -4    9.74    0.61
   6   0  -4    9.22    0.78
   6   0  -4   10.27    0.64
   6   0   4    9.95    0.68
  -6   0  -4    9.79    0.61
  -6   1  -4    0.28    0.20
   6   1   4    0.23    0.26
   6  -1  -4    0.56    0.31
   6   1   4    0.43    0.21
   6  -1  -4    0.33    0.21
   6   1  -4    0.42    0.24
   6  -1   4    0.59    0.22
   6   1  -4    0.47    0.30
   6  -1   4    0.51    0.28
   6   1  -4    0.77    0.36
  -6  -1  -4    0.65    0.27
  -6  -2   4    5.47    0.59
   6   2   4    6.69    0.47
   6  -2  -4    5.13    0.56
   6  -2  -4    5.56    0.51
   6   2   4    5.72    0.57
  -6   2  -4    6.33    0.43
   6   2  -4    6.55    0.65
   6   2  -4    6.15    0.54
  -6  -2  -4    5.95    0.54
   6  -2   4    6.68    0.57
   6  -2   4    5.62    0.50
   6   2  -4    5.18    0.61
  -6  -3   4   -0.20    0.31
  -6   3  -4    0.00    0.16
   6   3   4   -0.05    0.19
   6  -3  -4    0.14    0.27
   6   3   4    0.02    0.29
   6  -3  -4    0.05    0.25
   6   3  -4    0.02    0.29
   6   3  -4   -0.61    0.33
   6  -3   4    0.27    0.27
  -6  -3  -4   -0.08    0.26
   6  -3   4   -0.22    0.25
   6   3  -4    0.00    0.34
  -6   4  -4    0.70    0.27
   6   4   4    0.25    0.34
   6  -4  -4    0.77    0.33
   6   4   4    1.28    0.29
  -6  -4   4    1.29    0.38
   6  -4  -4    0.90    0.30
   6  -4   4    0.95    0.31
  -6  -4  -4    1.05    0.36
   6  -4   4    0.83    0.34
   6   4  -4    0.53    0.47
   6   4  -4    0.50    0.39
   6   4  -4    1.11    0.38
   6  -5  -4    0.87    0.32
   6  -5  -4    0.89    0.35
  -6   5  -4    0.99    0.37
   6   5   4    0.78    0.40
  -6  -5   4    1.15    0.39
   6   5   4    0.83    0.29
   6   5  -4    1.49    0.51
   6   5  -4    1.30    0.39
  -6  -5  -4    1.29    0.41
   6  -5   4    0.96    0.39
   6  -5   4    0.44    0.33
  -6  -6   4   21.08    1.24
   6  -6  -4   19.66    1.22
  -6   6  -4   20.69    1.23
   6  -6  -4   21.06    1.21
   6   6   4   23.79    1.38
  -6  -6   4   22.10    1.26
   6   6   4   21.82    1.17
   6   6  -4   21.77    1.28
   6   6  -4   24.78    1.60
  -6  -6  -4   19.16    1.15
   6  -6   4   22.07    1.25
  -6  -6  -4   20.87    1.28
   6  -6   4   21.37    1.28
   6   7   4    0.02    0.32
   6   7   4   -0.13    0.45
   6  -7  -4   -0.06    0.36
  -6  -7   4    0.18    0.39
  -6   7  -4    0.01    0.38
   6  -7  -4   -0.30    0.38
  -6  -7   4   -0.04    0.39
  -6  -7  -4    0.24    0.45
   6   7  -4   -0.17    0.39
   6   7  -4    0.87    0.63
   6  -7   4    0.56    0.46
  -6  -7  -4    0.04    0.33
   6  -7   4    0.07    0.38
  -6  -8   4    3.53    0.67
   6  -8  -4    2.52    0.52
  -6  -8   4    3.77    0.61
  -6   8  -4    4.08    0.63
   6   8   4    4.56    0.58
   6   8   4    3.55    0.75
   6  -8  -4    2.60    0.51
  -6  -8  -4    3.24    0.53
   6  -8   4    4.12    0.63
  -6  -8  -4    3.71    0.66
   6   8  -4    3.47    0.67
   6  -8   4    3.91    0.72
   6   8  -4    4.23    0.97
   6  -9  -4    0.17    0.42
   6   9   4    0.26    0.43
  -6   9  -4    0.37    0.50
   6   9   4    0.51    0.66
   6  -9  -4    1.20    0.52
  -6  -9   4    1.23    0.61
  -6  -9   4    0.76    0.50
   6  -9   4    0.07    0.53
  -6  -9  -4    0.44    0.57
   6   9  -4    0.05    0.49
  -6  -9  -4   -0.21    0.42
   6   9  -4    0.38    0.84
   6 -10  -4   27.18    1.67
   6  10   4   31.99    2.01
   6 -10  -4   29.34    1.70
  -6 -10   4   28.28    1.77
  -6  10  -4   26.41    1.72
  -6 -10   4   28.92    1.67
  -6 -10  -4   27.49    1.77
   6  10  -4   28.33    2.17
   6  10  -4   30.21    1.80
   6 -10   4   28.26    1.79
   6  11   4    0.64    0.80
   6 -11  -4    0.62    0.57
  -6 -11   4    0.21    0.64
  -6 -11   4   -0.77    0.53
  -6 -11  -4    0.01    0.68
   6  11  -4   -0.12    0.95
   6 -11   4   -0.48    0.55
   7   0   4   10.84    0.74
  -7   0  -4   10.83    0.71
   7   0  -4   11.80    0.89
   7   0  -4   11.71    0.71
   7   0  -4    9.95    0.72
   7   0   4   12.01    0.70
   7  -1  -4    0.66    0.31
   7   1   4    0.21    0.30
   7  -1  -4    0.30    0.36
   7   1   4    0.25    0.23
  -7   1  -4    0.25    0.23
   7  -1   4    0.73    0.28
   7   1  -4    0.68    0.29
   7  -1   4    0.74    0.26
   7   1  -4    0.74    0.40
   7   1  -4    0.36    0.32
  -7  -1  -4    0.94    0.29
   7  -2  -4   63.27    2.76
   7   2   4   60.20    2.79
  -7   2  -4   61.90    2.65
   7   2   4   60.83    2.69
  -7  -2   4   63.11    2.83
   7  -2  -4   62.47    2.83
  -7  -2  -4   57.43    2.74
   7   2  -4   57.65    2.82
   7   2  -4   61.46    2.78
   7  -2   4   57.13    2.72
   7   2  -4   61.35    2.88
   7  -2   4   62.37    2.75
   7   3   4    0.31    0.24
  -7  -3   4   -0.17    0.32
  -7   3  -4    0.38    0.21
   7  -3  -4    0.50    0.34
   7   3   4    0.56    0.35
   7  -3  -4    0.97    0.33
  -7  -3  -4    1.00    0.38
   7  -3   4    0.48    0.32
   7   3  -4    0.65    0.41
   7   3  -4    0.61    0.34
   7   3  -4    0.79    0.44
   7  -3   4   -0.36    0.25
   7  -4  -4    2.12    0.44
  -7  -4   4    3.62    0.56
   7   4   4    2.18    0.49
   7  -4  -4    2.43    0.47
  -7   4  -4    3.23    0.45
   7   4   4    4.76    0.46
   7   4  -4    4.30    0.62
   7   4  -4    4.00    0.63
  -7  -4  -4    2.93    0.50
   7  -4   4    3.74    0.50
   7   4  -4    3.31    0.50
   7  -4   4    4.08    0.52
   7   5   4    0.68    0.48
  -7   5  -4    0.80    0.35
  -7  -5   4    0.97    0.43
   7  -5  -4    0.89    0.38
   7   5   4    1.11    0.33
   7  -5  -4    1.26    0.40
   7   5  -4    1.22    0.41
   7   5  -4    1.00    0.53
   7  -5   4    1.30    0.40
   7  -5   4    1.38    0.39
  -7  -5  -4    1.85    0.49
   7  -6  -4   19.64    1.14
   7  -6  -4   18.53    1.16
  -7  -6   4   17.45    1.18
  -7  -6   4   15.89    1.13
   7   6   4   19.25    1.09
  -7   6  -4   17.42    1.08
   7   6   4   20.47    1.30
  -7  -6  -4   16.74    1.19
   7   6  -4   18.41    1.21
   7  -6   4   17.90    1.15
   7  -6   4   18.26    1.15
   7   6  -4   17.91    1.39
  -7   7  -4   -0.69    0.33
   7  -7  -4   -0.20    0.36
   7   7   4    0.23    0.37
   7  -7  -4    0.38    0.43
  -7  -7   4    1.14    0.49
  -7  -7   4   -0.61    0.41
   7   7   4    0.01    0.51
   7  -7   4   -0.37    0.40
  -7  -7  -4    0.56    0.50
   7  -7   4    0.21    0.44
  -7  -7  -4   -0.15    0.35
   7   7  -4    0.09    0.43
   7   7  -4    1.35    0.76
  -7  -8   4    0.34    0.46
  -7   8  -4    0.30    0.43
   7  -8  -4    0.34    0.45
   7  -8  -4    0.32    0.46
   7   8   4    0.28    0.41
   7   8   4   -0.62    0.55
  -7  -8   4    0.06    0.52
  -7  -8  -4    2.01    0.63
   7  -8   4    0.89    0.48
   7  -8   4    0.85    0.48
   7   8  -4    0.19    0.79
   7   8  -4    0.26    0.48
  -7  -8  -4    0.39    0.42
   7  -9  -4   -0.20    0.41
   7  -9  -4   -0.43    0.46
  -7   9  -4   -0.50    0.53
   7   9   4   -0.68    0.70
  -7  -9   4   -0.62    0.48
  -7  -9   4    0.02    0.48
   7   9   4    0.31    0.81
  -7  -9  -4   -0.29    0.60
   7  -9   4    0.73    0.52
   7  -9   4    0.66    0.63
   7   9  -4   -1.36    0.80
   7   9  -4   -0.50    0.51
   7 -10  -4    2.65    0.64
   7  10   4    1.97    0.86
   7 -10  -4    2.48    0.67
  -7 -10   4    2.13    0.71
  -7 -10   4    3.91    0.83
   7  10  -4    3.08    1.07
   7 -10   4    1.70    0.64
   7  10  -4    2.33    0.77
  -7 -10  -4    1.83    0.75
   7  11   4    3.15    1.00
   7 -11  -4    1.60    0.65
  -7 -11   4    1.73    0.69
  -7 -11   4    0.74    0.66
   7 -11   4    1.83    0.75
  -7 -11  -4    1.32    0.79
   7  11  -4    1.45    1.11
  -8   0  -4    0.28    0.30
   8   0   4   -0.24    0.27
   8   0   4    0.15    0.27
   8   0  -4   -0.02    0.28
   8   0  -4    0.48    0.43
   8  -1  -4   -0.20    0.40
   8  -1  -4    0.49    0.31
  -8   1  -4    0.25    0.28
   8   1   4    0.55    0.30
  -8  -1   4   -0.05    0.38
   8   1   4    0.26    0.35
   8  -1   4    0.34    0.27
   8   1  -4   -0.08    0.32
   8   1  -4   -0.12    0.42
   8  -1   4    0.19    0.31
   8   1  -4    0.15    0.35
  -8  -1  -4    0.49    0.35
  -8   2  -4    0.39    0.27
   8  -2  -4    0.86    0.34
   8   2   4    0.38    0.29
  -8  -2   4   -0.03    0.37
   8   2   4    0.23    0.33
   8  -2  -4    0.70    0.44
   8   2  -4   -0.34    0.34
   8   2  -4    0.19    0.44
   8   2  -4    0.09    0.31
  -8  -2  -4    0.11    0.34
   8  -2   4    0.34    0.31
   8  -2   4   -0.07    0.27
   8   3   4   13.17    0.96
   8  -3  -4   12.53    0.94
   8   3   4   12.09    0.82
   8  -3  -4   13.10    0.87
  -8  -3   4   14.22    0.98
   8   3  -4   12.45    0.90
   8  -3   4   13.10    0.90
   8   3  -4   12.27    1.01
   8  -3   4   12.58    0.85
  -8  -3  -4   10.27    0.92
   8   3  -4   13.10    1.08
  -8  -4   4    0.42    0.41
   8   4   4    0.28    0.42
   8  -4  -4   -0.19    0.31
   8   4   4    0.61    0.33
   8  -4  -4    0.14    0.38
   8  -4   4   -0.08    0.33
   8   4  -4   -0.10    0.34
   8   4  -4    0.29    0.44
   8   4  -4    0.15    0.45
   8  -4   4   -0.09    0.32
  -8  -4  -4    0.42    0.43
   8   5   4    3.64    0.66
   8   5   4    2.95    0.49
   8  -5  -4    3.30    0.55
   8  -5  -4    2.43    0.51
  -8  -5   4    2.93    0.57
   8   5  -4    3.33    0.75
   8  -5   4    2.98    0.54
   8  -5   4    3.01    0.51
  -8  -5  -4    3.09    0.59
   8   5  -4    3.25    0.56
   8   6   4    1.05    0.41
  -8   6  -4    0.50    0.36
   8   6   4    0.33    0.52
   8  -6  -4    0.52    0.46
   8  -6  -4    0.46    0.46
  -8  -6   4    0.63    0.47
   8  -6   4    0.96    0.42
  -8  -6  -4    0.79    0.58
   8   6  -4    0.41    0.65
   8  -6   4   -0.07    0.38
   8   6  -4    0.47    0.45
   8  -7  -4   14.20    1.06
   8   7   4   13.68    1.00
  -8  -7   4   13.21    1.04
   8   7   4   13.90    1.27
  -8   7  -4   12.65    0.96
  -8  -7   4   13.37    1.11
   8  -7  -4   15.79    1.11
  -8  -7  -4   12.44    0.97
  -8  -7  -4   12.57    1.13
   8   7  -4   12.96    1.36
   8   7  -4   12.66    1.09
   8  -7   4   14.93    1.16
   8  -7   4   12.91    1.00
   8  -8  -4    1.73    0.53
  -8  -8   4    0.67    0.56
   8  -8  -4    1.36    0.55
   8   8   4    0.62    0.67
   8   8   4    1.61    0.52
  -8  -8   4    1.11    0.58
  -8  -8  -4    1.26    0.50
  -8  -8  -4    0.93    0.63
   8   8  -4    2.12    0.85
   8  -8   4    2.14    0.56
   8   8  -4    2.26    0.67
   8  -9  -4    1.47    0.55
   8   9   4    1.42    0.83
   8  -9  -4    1.14    0.53
  -8  -9   4    1.20    0.57
  -8  -9   4    1.28    0.63
  -8  -9  -4    1.89    0.74
   8   9  -4    0.54    0.86
   8  -9   4    1.58    0.60
   8   9  -4    2.12    0.67
   8 -10  -4    1.91    0.68
  -8 -10   4    1.26    0.71
   8  10   4    1.19    0.96
  -8 -10   4    1.15    0.73
   8  10  -4    1.34    0.75
   8  10  -4    1.87    1.01
  -8 -10  -4    1.13    0.81
   8 -10   4    1.82    0.70
   9   0   4    2.07    0.44
   9   0  -4    1.81    0.42
  -9   0  -4    1.26    0.42
   9   0   4    1.38    0.36
   9   0  -4    1.08    0.53
   9  -1  -4   32.13    1.86
   9   1   4   32.43    1.75
   9   1   4   33.54    1.68
  -9  -1   4   35.45    1.85
  -9   1  -4   31.70    1.67
   9  -1  -4   34.91    1.74
   9   1  -4   33.39    1.90
   9  -1   4   34.35    1.70
   9  -1   4   32.75    1.71
  -9  -1  -4   34.07    1.72
   9   1  -4   32.93    1.72
   9   2   4    1.29    0.38
   9  -2  -4    0.58    0.49
   9  -2  -4    0.34    0.39
  -9   2  -4    1.08    0.36
   9   2   4    1.26    0.46
  -9  -2   4    1.26    0.48
   9   2  -4    0.47    0.44
   9  -2   4    0.98    0.37
   9   2  -4    0.87    0.40
   9  -2   4    0.90    0.38
   9   2  -4    1.05    0.57
  -9  -2  -4    0.94    0.48
   9  -3  -4   36.82    1.88
   9  -3  -4   38.13    1.99
  -9  -3   4   36.88    1.92
   9   3   4   36.88    1.80
   9   3   4   37.31    1.92
  -9  -3  -4   34.76    1.90
   9   3  -4   35.24    1.87
   9   3  -4   37.72    2.04
   9  -3   4   34.58    1.80
   9   3  -4   34.96    1.98
   9  -3   4   35.33    1.84
   9  -4  -4    1.46    0.50
   9   4   4    2.18    0.55
   9   4   4    2.02    0.44
   9  -4  -4    1.82    0.47
  -9  -4   4    1.28    0.53
   9   4  -4    1.45    0.48
   9  -4   4    1.61    0.42
   9   4  -4    1.34    0.60
  -9  -4  -4    1.49    0.55
   9  -4   4    1.33    0.45
   9   4  -4    0.93    0.55
   9   5   4   24.92    1.37
   9  -5  -4   26.03    1.47
   9  -5  -4   22.89    1.43
   9   5   4   23.56    1.52
  -9  -5   4   26.38    1.49
   9   5  -4   26.25    1.51
   9  -5   4   22.33    1.36
   9   5  -4   19.66    1.56
   9  -5   4   22.00    1.43
  -9  -5  -4   25.52    1.55
   9   6   4    0.56    0.58
   9  -6  -4    0.42    0.45
   9  -6  -4    1.01    0.49
   9   6   4    1.22    0.46
  -9  -6   4    0.64    0.59
   9  -6   4    1.31    0.48
  -9  -6  -4    1.35    0.61
   9   6  -4    0.85    0.66
   9   6  -4    1.56    0.54
  -9  -7   4   12.42    1.12
   9   7   4   13.87    1.05
   9  -7  -4   15.06    1.14
   9  -7  -4   14.10    1.15
  -9  -7   4   15.43    1.21
   9   7   4   13.89    1.35
   9   7  -4   13.97    1.47
  -9  -7  -4   13.12    1.22
   9  -7   4   11.68    1.07
   9   7  -4   14.46    1.21
  -9  -7  -4   11.70    0.99
   9  -8  -4    1.02    0.57
  -9  -8   4    0.24    0.51
  -9  -8   4   -0.08    0.57
   9   8   4    0.94    0.53
   9   8   4    1.06    0.76
   9  -8  -4    0.61    0.56
   9  -8   4    1.81    0.64
   9   8  -4    0.98    0.57
  -9  -8  -4    1.75    0.75
   9   8  -4   -0.74    0.85
  -9  -8  -4    0.07    0.47
   9  -9  -4   29.76    1.74
   9  -9  -4   25.50    1.59
  -9  -9   4   27.59    1.69
   9   9   4   24.29    1.93
  -9  -9   4   26.16    1.78
   9   9  -4   24.75    1.72
   9  -9   4   25.30    1.66
   9   9  -4   29.11    2.27
  -9  -9  -4   28.09    1.87
  -9 -10   4    0.29    0.60
  -9 -10   4    0.49    0.67
   9 -10  -4    0.49    0.64
   9  10   4    0.62    0.88
   9  10  -4    3.31    1.14
   9  10  -4    0.88    0.70
  -9 -10  -4    1.28    0.84
   9 -10   4    1.34    0.72
  10   0   4   33.44    1.81
  10   0   4   33.75    1.76
 -10   0   4   37.40    1.96
  10   0  -4   36.34    1.83
 -10   0  -4   32.12    1.79
  10   0  -4   36.36    2.08
  10   1   4   -0.05    0.40
 -10  -1   4    0.16    0.49
  10   1   4    0.03    0.37
  10  -1  -4   -0.63    0.50
  10  -1  -4    0.27    0.42
 -10   1  -4    0.03    0.37
  10  -1   4   -0.24    0.36
  10   1  -4   -0.01    0.42
  10  -1   4   -0.23    0.37
  10   1  -4    0.58    0.61
 -10  -1  -4   -0.18    0.44
  10   2   4   10.87    0.91
  10  -2  -4   10.58    0.90
  10  -2  -4   11.80    1.11
  10   2   4   11.75    0.91
 -10   2  -4   10.62    1.11
 -10  -2   4   10.74    1.03
  10  -2   4   10.84    0.85
  10   2  -4   11.52    0.97
  10  -2   4   11.34    0.88
  10   2  -4   12.26    1.16
 -10  -2  -4   12.17    1.00
  10   3   4   13.29    0.96
 -10  -3   4   16.11    1.22
  10  -3  -4   13.03    1.15
  10   3   4   15.28    1.14
  10  -3  -4   12.40    1.03
 -10  -3  -4   12.17    1.09
  10   3  -4   10.90    0.99
  10  -3   4   12.47    0.92
  10   3  -4   12.75    1.15
  10  -3   4   13.15    0.98
  10   3  -4   12.08    1.18
  10  -4  -4   17.97    1.28
  10   4   4   18.27    1.28
  10  -4  -4   19.34    1.23
 -10  -4   4   17.71    1.29
  10   4   4   17.52    1.15
  10   4  -4   18.72    1.43
  10  -4   4   17.23    1.19
  10   4  -4   19.82    1.46
  10   4  -4   17.62    1.29
 -10  -4  -4   17.32    1.30
  10  -5  -4    6.52    0.80
 -10  -5   4    6.17    0.83
  10  -5  -4    5.62    0.74
  10   5   4    6.52    0.90
  10   5   4    5.62    0.69
 -10  -5  -4    6.30    0.87
  10   5  -4    5.56    0.76
  10  -5   4    4.65    0.69
  10   5  -4    4.46    0.91
  10  -6  -4    1.22    0.60
  10   6   4    1.95    0.56
 -10  -6   4    0.82    0.59
  10   6   4    0.85    0.68
  10  -6  -4    0.08    0.54
  10   6  -4    0.96    0.79
 -10  -6  -4    1.48    0.67
  10   6  -4    1.58    0.59
  10  -6   4    1.27    0.59
 -10  -7   4   18.48    1.39
  10  -7  -4   20.36    1.35
 -10  -7   4   17.29    1.37
  10   7   4   17.92    1.51
  10  -7  -4   21.06    1.38
  10   7   4   19.92    1.32
  10   7  -4   19.28    1.79
 -10  -7  -4   18.37    1.52
  10  -7   4   17.09    1.31
  10   7  -4   20.28    1.46
  10   8   4    1.73    0.81
  10   8   4    2.50    1.00
 -10  -8   4    3.52    0.83
  10  -8  -4    2.18    0.69
  10  -8  -4    1.48    0.59
 -10  -8   4    3.09    0.69
  10   8  -4    2.25    0.70
  10   8  -4    1.21    0.98
  10  -8   4    2.82    0.69
 -10  -8  -4    1.58    0.79
  10  -9  -4    5.17    0.88
 -10  -9   4    4.75    0.82
 -10  -9   4    5.76    0.94
  10   9   4    6.74    1.23
  10  -9   4    4.78    0.85
  10   9  -4    6.08    1.34
 -10  -9  -4    5.93    1.12
  10   9  -4    3.38    0.82
  11   0   4   27.08    1.62
 -11   0  -4   29.74    1.66
 -11   0   4   31.24    1.79
  11   0  -4   27.45    1.64
  11   0  -4   33.72    1.93
  11   0   4   29.17    1.59
  11  -1  -4    8.32    1.10
  11   1   4    8.14    0.81
 -11   1  -4    7.84    0.79
 -11  -1   4    6.48    0.88
  11   1   4    8.61    0.87
  11  -1  -4    8.31    0.84
  11   1  -4    6.98    0.80
 -11  -1  -4    8.73    0.91
  11  -1   4    7.52    0.80
 -11   1   4    7.34    0.92
  11  -1   4    6.57    0.75
  11   1  -4    8.08    1.04
  11  -2  -4   39.26    2.07
  11   2   4   40.35    2.11
  11   2   4   41.04    2.01
  11  -2  -4   40.19    2.25
 -11  -2   4   35.03    2.12
 -11  -2  -4   38.56    2.12
  11  -2   4   38.40    2.00
  11  -2   4   40.23    2.03
  11   2  -4   38.82    2.08
  11   2  -4   37.11    2.25
  11  -3  -4    2.98    0.63
  11  -3  -4    2.55    0.71
 -11  -3   4    2.93    0.69
  11   3   4    3.34    0.61
  11   3   4    4.73    0.77
  11   3  -4    4.69    0.74
  11  -3   4    2.88    0.58
  11   3  -4    3.21    0.81
 -11  -3  -4    5.99    0.87
  11   4   4   12.29    1.15
  11  -4  -4   12.21    1.18
  11  -4  -4   13.62    1.15
 -11  -4   4   14.25    1.22
  11   4   4   12.44    0.95
  11   4  -4   10.75    1.23
  11  -4   4   12.61    1.06
 -11  -4  -4   11.59    1.17
  11   4  -4   10.57    1.06
  11  -5  -4    9.64    1.01
  11  -5  -4    6.63    0.92
 -11  -5   4   10.81    1.07
  11   5   4    7.95    0.84
  11   5   4    9.81    1.10
  11   5  -4    7.76    1.10
 -11  -5  -4    7.85    1.02
  11  -5   4   11.95    1.04
  11   5  -4    8.61    0.98
  11   6   4    8.45    0.89
 -11  -6   4   10.51    1.08
  11  -6  -4   11.35    1.09
  11  -6  -4   10.53    1.05
  11   6   4    8.47    1.10
  11  -6   4    8.06    0.93
 -11  -6  -4    9.66    1.12
  11   6  -4    8.90    1.04
  11   6  -4    7.61    1.19
  11   7   4    1.46    0.63
 -11  -7   4    0.66    0.66
  11   7   4    1.28    0.77
  11  -7  -4    0.42    0.64
  11  -7  -4    1.27    0.69
  11   7  -4   -0.16    0.88
 -11  -7  -4   -0.16    0.75
  11  -7   4    1.68    0.64
  11   7  -4    0.03    0.59
 -11  -8   4    0.18    0.68
  11  -8  -4   -0.38    0.61
 -11  -8   4   -0.16    0.56
  11   8   4    0.03    0.78
 -11  -8  -4   -0.71    0.76
  11   8  -4    1.26    0.94
  11  -8   4    0.66    0.62
  11   8  -4    0.76    0.65
  11   9   4    6.78    1.32
 -11  -9   4    5.95    1.06
  11  -9  -4    7.42    1.04
 -11  -9   4    6.69    1.01
  11   9  -4    4.78    1.24
 -11  -9  -4    8.33    1.21
  11  -9   4    6.58    0.99
  11   9  -4    6.90    1.06
  12   0   4   78.40    3.57
 -12   0   4   76.58    3.69
  12   0  -4   77.30    3.62
  12   0   4   73.61    3.56
  12   0  -4   77.44    3.83
 -12   0  -4   75.67    3.59
  12   1   4    0.38    0.46
  12   1   4    1.69    0.54
  12  -1  -4   -0.18    0.47
  12  -1  -4   -0.21    0.75
 -12  -1   4    0.71    0.63
  12   1  -4   -0.08    0.48
 -12  -1  -4    0.95    0.56
 -12   1   4   -0.42    0.57
  12  -1   4    0.25    0.46
  12   1  -4    2.02    0.80
  12  -2  -4   61.08    3.18
  12   2   4   62.41    2.93
 -12  -2   4   57.26    3.05
  12   2   4   63.03    3.01
  12  -2  -4   60.67    2.99
 -12  -2  -4   61.88    3.06
  12   2  -4   60.86    2.99
  12   2  -4   61.71    3.23
  12  -2   4   58.61    2.95
  12   3   4    1.15    0.57
  12  -3  -4    1.93    0.76
 -12  -3   4    1.42    0.75
  12  -3  -4    0.16    0.52
  12   3   4    1.26    0.65
  12  -3   4    1.72    0.63
  12   3  -4    1.21    0.62
 -12  -3  -4    2.54    0.81
  12   3  -4    0.52    0.74
  12  -4  -4   46.33    2.53
 -12  -4   4   45.62    2.51
  12  -4  -4   45.82    2.44
  12   4   4   44.60    2.34
  12   4   4   47.72    2.53
 -12  -4  -4   47.75    2.56
  12  -4   4   44.70    2.43
  12   4  -4   45.10    2.49
  12   5   4   -0.32    0.62
  12  -5  -4   -0.19    0.59
  12   5   4    0.52    0.56
 -12  -5   4    0.51    0.69
  12  -5  -4    0.56    0.73
  12   5  -4   -0.32    0.56
  12  -5   4   -0.76    0.49
 -12  -5  -4    0.78    0.75
  12  -6  -4   18.88    1.48
  12   6   4   19.11    1.55
  12  -6  -4   15.32    1.43
 -12  -6   4   17.58    1.50
  12   6   4   17.36    1.32
 -12  -6  -4   18.68    1.61
  12   6  -4   18.17    1.51
  12  -6   4   14.60    1.31
  12   7   4    0.57    0.89
 -12  -7   4    2.48    0.83
  12  -7  -4    1.07    0.75
  12   7   4    1.95    0.70
  12  -7  -4    1.96    0.78
  12   7  -4   -0.38    0.85
 -12  -7  -4    1.06    0.89
  12  -7   4    1.82    0.69
  12   7  -4    1.92    0.75
  12  -8  -4    5.72    0.91
  12   8   4    6.29    1.23
 -12  -8   4    4.89    1.06
 -12  -8   4    3.82    0.81
  12   8  -4    7.87    1.43
 -12  -8  -4    7.91    1.24
  12   8  -4    5.19    0.94
  12  -8   4    4.77    0.88
  13   0  -4    5.64    1.08
  13   0  -4    4.51    0.78
 -13   0   4    4.78    0.87
  13   0   4    4.64    0.72
 -13   0  -4    4.34    0.79
  13  -1  -4    1.45    0.68
  13  -1  -4    1.48    0.95
 -13  -1   4    0.80    0.71
  13   1   4    0.88    0.54
  13  -1   4    0.84    0.58
 -13   1   4    1.39    0.77
  13   1  -4    1.40    0.61
 -13  -1  -4    1.39    0.69
  13   1  -4    1.87    0.89
  13   2   4   41.36    2.25
 -13  -2   4   37.14    2.27
  13  -2  -4   35.82    2.38
  13  -2  -4   40.29    2.21
  13   2   4   41.46    2.17
  13  -2   4   40.60    2.16
  13   2  -4   38.25    2.43
  13   2  -4   42.11    2.27
 -13  -2  -4   36.25    2.20
 -13   2   4   39.89    2.26
 -13  -3   4    1.51    0.76
  13   3   4    1.55    0.72
  13  -3  -4   -0.23    0.74
  13  -3  -4    1.72    0.72
  13   3   4    1.74    0.65
  13  -3   4    1.32    0.65
 -13  -3  -4    2.15    0.86
  13   3  -4    1.05    0.60
  13   3  -4    1.22    0.89
 -13   3   4    1.79    0.72
  13  -4  -4    0.76    0.64
  13   4   4    0.80    0.75
  13  -4  -4    1.53    0.79
  13   4   4    1.05    0.62
 -13  -4   4    0.36    0.76
 -13  -4  -4    1.78    0.83
  13  -4   4    1.52    0.62
  13   4  -4    0.51    0.68
  13  -5  -4    0.44    0.71
  13  -5  -4   -0.39    0.60
  13   5   4    1.48    0.87
  13   5   4    0.26    0.62
 -13  -5   4    0.52    0.86
  13  -5   4    0.12    0.59
 -13  -5  -4    0.62    0.85
  13   5  -4    0.90    0.73
  13  -6  -4   14.44    1.36
  13   6   4   13.04    1.38
 -13  -6   4    9.92    1.30
  13   6   4   15.01    1.28
  13   6  -4   13.77    1.34
  13  -6   4   14.63    1.34
 -13  -6  -4   15.09    1.50
  13   7   4    4.06    1.12
 -13  -7   4    4.38    1.06
  13  -7  -4    2.39    0.85
  13   7  -4    3.38    0.88
 -13  -7  -4    4.58    1.23
  13  -7   4    1.81    0.79
 -14   0   4    5.63    1.01
  14   0   4    5.57    0.84
  14   0  -4    5.63    1.23
  14   0  -4    4.63    0.86
 -14  -1   4    0.95    0.77
  14  -1  -4    0.21    0.86
  14   1   4    0.96    0.66
  14  -1  -4    0.42    0.72
  14  -1   4    1.46    0.70
 -14   1   4    1.39    0.73
  14   1  -4    0.41    0.71
  14   1  -4   -0.20    0.87
 -14  -1  -4   -0.50    0.61
  14  -2  -4    4.23    1.06
  14  -2  -4    6.49    1.00
  14   2   4    5.34    0.88
 -14  -2   4    5.05    1.02
  14   2  -4    5.51    0.96
  14   2  -4    6.62    1.20
 -14  -2  -4    5.89    0.97
  14  -2   4    3.66    0.78
 -14   2   4    3.92    0.87
  14  -3  -4    4.51    1.15
  14  -3  -4    6.77    1.04
 -14  -3   4    6.05    1.08
  14   3   4    4.23    1.42
  14   3   4    5.03    0.79
  14   3  -4    2.47    1.07
 -14  -3  -4    6.80    1.17
 -14   3   4    4.62    0.98
  14  -3   4    5.89    0.89
  14   3  -4    6.37    1.02
  14  -4  -4    1.94    0.90
  14   4   4    3.81    0.96
  14  -4  -4    3.55    0.88
 -14  -4   4    3.73    0.96
  14   4   4    2.62    0.76
  14  -4   4    2.28    0.72
  14   4  -4    1.88    0.84
 -14  -4  -4    1.86    0.94
 -14   4   4    1.89    0.84
 -14  -5   4    8.77    1.21
  14  -5  -4    7.16    1.17
  14   5   4   10.03    1.27
  14  -5  -4    9.78    1.22
  14   5   4    9.70    1.10
  14   5  -4    9.50    1.23
 -14  -5  -4    8.30    1.27
  14  -5   4   11.58    1.21
  15   0  -4    3.80    1.13
  15   0   4    3.84    0.89
  15   0  -4    2.67    0.83
 -15   0   4    4.10    0.98
  15   1   4    4.63    0.84
  15  -1  -4    2.87    1.08
 -15  -1   4    6.67    1.11
  15  -1  -4    5.56    1.01
  15   1  -4    3.11    0.84
  15  -1   4    4.07    0.84
  15   1  -4    6.61    1.29
 -15   1   4    3.80    0.96
  15  -2  -4    1.95    1.02
  15   2   4    1.43    0.76
 -15  -2   4    1.64    0.90
  15  -2  -4    1.81    0.80
  15   2  -4    1.54    0.83
  15   2  -4   -0.26    0.99
 -15  -2  -4    0.96    0.90
  15  -2   4    1.49    0.77
 -15   2   4   -0.04    0.79
 -15  -3   4    5.22    1.08
  15  -3  -4    3.31    1.09
  15   3   4    4.96    0.93
  15  -3  -4    4.52    1.03
  15   3  -4    3.94    0.97
  15  -3   4    4.63    0.98
 -15   3   4    3.56    0.87
 -15  -3  -4    5.28    1.18
  15  -4  -4    0.63    1.03
 -15  -4   4    1.36    0.94
  15   4   4    1.79    0.79
  15  -4  -4    1.12    0.90
 -15  -4  -4    1.04    1.09
  15  -4   4    1.49    0.83
  15   4  -4    2.04    0.81
 -15   4   4    2.61    0.82
   0   0   5   -0.02    0.07
   0   0  -5    0.49    0.18
   0   0  -5   -0.01    0.13
   0   0   5    0.52    0.18
   0   1  -5   57.97    2.60
   0   1   5   60.83    2.55
   0  -1   5   57.34    2.49
   0  -1  -5   60.13    2.54
   0   1  -5   57.85    2.49
   0  -1   5   59.19    2.60
   0   2  -5    0.10    0.12
   0  -2  -5   -0.16    0.15
   0   2  -5   -0.18    0.20
   0  -2   5    0.05    0.14
   0   2   5   -0.20    0.15
   0   3   5   27.70    1.31
   0  -3  -5   26.06    1.31
   0  -3   5   27.81    1.30
   0  -3   5   27.34    1.22
   0   3  -5   28.11    1.47
   0  -3  -5   28.46    1.19
   0   3  -5   27.93    1.24
   0   4  -5    0.13    0.32
   0  -4  -5   -0.04    0.22
   0  -4   5   -0.08    0.12
   0   4   5   -0.14    0.16
   0  -4   5    0.14    0.22
   0  -4  -5    0.05    0.12
   0  -5  -5   47.03    2.18
   0   5   5   47.93    2.18
   0  -5  -5   47.72    2.08
   0  -5   5   44.94    2.03
   0   5  -5   48.97    2.41
   0  -5   5   48.88    2.20
   0   6  -5    0.29    0.43
   0  -6  -5    0.01    0.19
   0   6   5   -0.22    0.26
   0  -6   5   -0.01    0.28
   0  -6   5    0.39    0.18
   0  -6  -5   -0.14    0.27
   0   7  -5   13.69    1.22
   0  -7  -5   11.91    0.88
   0  -7  -5   13.58    0.80
   0   7   5   12.62    0.90
   0  -7   5   13.64    0.93
   0  -7   5   13.48    0.83
   0   8   5    0.03    0.37
   0  -8  -5   -0.01    0.37
   0  -8   5   -0.13    0.43
   0  -8  -5    0.28    0.29
   0   8  -5   -0.18    0.53
   0   9   5   18.32    1.32
   0   9  -5   20.94    1.69
   0  -9   5   18.80    1.36
   0  -9  -5   19.78    1.23
   0  10  -5   -0.15    0.66
   0 -10   5    0.05    0.59
   0  10   5    0.02    0.57
   0 -10  -5   -0.81    0.42
   0  11   5   10.84    1.15
   0 -11   5    9.47    1.08
   0 -11  -5   11.01    1.04
   0  11  -5   12.15    1.45
   0  12  -5    0.44    0.87
   0 -12  -5    0.37    0.67
   0  12   5    0.09    0.70
   0 -12   5    0.42    0.67
   1   0  -5    5.06    0.36
   1   0   5    4.64    0.40
   1   0   5    5.62    0.29
  -1   0  -5    5.66    0.34
   1   0  -5    5.35    0.40
   1   0  -5    4.96    0.31
  -1   0   5    5.25    0.39
  -1   1  -5   52.51    2.38
   1  -1  -5   52.88    2.31
  -1  -1   5   53.46    2.37
   1  -1  -5   53.06    2.22
   1   1   5   54.23    2.34
  -1  -1   5   55.27    2.28
  -1   1  -5   52.38    2.24
   1   1  -5   54.34    2.38
   1  -1   5   52.35    2.26
   1   1  -5   52.50    2.28
   1   1  -5   49.97    2.29
  -1  -1  -5   52.84    2.30
  -1   1   5   54.57    2.30
   1  -1   5   54.72    2.38
  -1   2  -5   13.83    0.64
   1  -2  -5   14.33    0.63
   1   2   5   13.48    0.75
   1  -2  -5   15.48    0.77
  -1   2  -5   13.75    0.83
  -1  -2   5   14.00    0.73
   1   2  -5   14.67    0.74
   1   2  -5   13.02    0.85
   1  -2   5   15.14    0.73
  -1  -2  -5   14.23    0.76
  -1   2   5   15.06    0.72
   1   2  -5   12.13    0.71
   1  -2   5   14.35    0.84
   1   3   5   88.37    4.10
  -1  -3   5   96.52    4.04
  -1   3  -5   94.91    4.23
   1  -3  -5   98.14    4.11
  -1  -3   5   96.53    4.10
   1  -3  -5   97.85    3.99
   1   3  -5   94.85    4.27
  -1  -3  -5   97.73    3.97
  -1   3   5  105.28    4.08
   1   3  -5   95.52    4.10
   1  -3   5   96.68    4.08
   1   3  -5   92.14    4.06
  -1  -3  -5   92.87    4.10
  -1  -4   5    1.98    0.25
   1  -4  -5    2.21    0.33
  -1  -4   5    1.76    0.32
  -1   4  -5    2.39    0.45
   1   4   5    2.13    0.33
   1  -4  -5    2.01    0.23
  -1  -4  -5    1.88    0.33
  -1  -4  -5    1.96    0.21
   1   4  -5    2.38    0.51
   1   4  -5    1.72    0.33
   1  -4   5    2.41    0.32
  -1   4   5    2.73    0.31
   1  -4   5    1.86    0.16
  -1   5  -5   14.60    1.01
  -1  -5   5   14.94    0.84
  -1  -5   5   13.25    0.70
   1   5   5   12.13    0.81
   1  -5  -5   13.87    0.72
   1  -5  -5   11.73    0.79
  -1  -5  -5   12.76    0.83
  -1  -5  -5   12.77    0.69
   1  -5   5   13.12    0.62
  -1   5   5   13.48    0.79
   1   5  -5   13.55    1.07
   1  -5   5   13.45    0.82
  -1  -6   5    4.37    0.53
  -1  -6   5    5.67    0.42
  -1   6  -5    5.68    0.73
   1   6   5    4.99    0.58
   1  -6  -5    5.08    0.45
   1  -6  -5    5.12    0.53
   1  -6   5    4.89    0.55
  -1  -6  -5    5.07    0.56
  -1  -6  -5    4.84    0.42
   1   6  -5    4.50    0.74
  -1   6   5    5.56    0.53
   1  -6   5    4.80    0.36
   1   7   5   59.66    2.82
   1  -7  -5   58.97    2.74
  -1   7  -5   59.54    3.00
  -1  -7   5   59.79    2.81
  -1  -7   5   63.33    2.63
   1  -7  -5   57.82    2.67
   1   7  -5   59.37    3.01
  -1  -7  -5   57.90    2.75
  -1  -7  -5   61.79    2.66
   1  -7   5   57.33    2.78
  -1   7   5   60.59    2.77
   1  -8  -5    0.43    0.39
   1   8   5    0.76    0.47
  -1   8  -5    0.60    0.56
   1  -8  -5    0.04    0.31
  -1  -8   5    0.43    0.41
   1   8  -5    1.24    0.67
  -1  -8  -5    0.71    0.33
  -1   8   5    1.11    0.46
  -1  -8  -5    0.06    0.39
   1  -8   5    1.27    0.45
  -1  -9   5    8.24    0.89
   1  -9  -5    8.66    0.82
   1  -9  -5    8.92    0.76
  -1   9  -5    8.95    1.14
   1   9   5    7.14    0.84
   1   9  -5    6.41    1.00
  -1  -9  -5    8.72    0.84
   1  -9   5    9.80    0.95
  -1   9   5    7.59    0.84
   1  10   5    1.64    0.62
  -1 -10   5    1.70    0.68
   1 -10  -5    2.79    0.60
  -1  10  -5    1.46    0.74
  -1  10   5    1.53    0.62
   1  10  -5    1.83    0.82
  -1 -10  -5    2.66    0.64
   1 -10   5    1.31    0.60
  -1 -11   5   15.26    1.35
  -1  11  -5   14.40    1.48
   1 -11  -5   17.38    1.22
   1  11   5   15.18    1.43
  -1 -11  -5   14.49    1.23
  -1  11   5   15.12    1.37
   1 -11   5   14.12    1.29
   1  11  -5   17.87    1.74
  -1 -12   5    0.19    0.75
  -1  12  -5    0.99    0.96
   1  12   5    0.95    0.73
   1 -12  -5    0.69    0.71
   1  12  -5    0.21    0.89
   1 -12   5    1.97    0.83
  -1 -12  -5    0.34    0.60
  -2   0  -5    4.39    0.31
   2   0   5    4.26    0.26
   2   0  -5    3.99    0.30
  -2   0   5    4.70    0.35
   2   0  -5    4.10    0.36
   2   0   5    4.79    0.42
   2   0  -5    3.73    0.36
   2  -1  -5    0.91    0.14
  -2   1  -5    0.76    0.13
   2   1   5    1.11    0.22
  -2   1  -5    0.72    0.23
   2  -1  -5    0.78    0.21
   2   1   5    1.09    0.10
   2  -1   5    0.92    0.16
   2   1  -5    1.01    0.18
  -2  -1  -5    0.75    0.20
  -2   1   5    0.72    0.15
   2   1  -5    1.00    0.23
   2  -1   5    0.82    0.24
   2   1  -5    0.65    0.21
   2  -2  -5   -0.04    0.18
  -2   2  -5    0.16    0.21
   2   2   5    0.33    0.21
   2  -2  -5    0.02    0.10
   2   2   5    0.31    0.07
  -2  -2   5   -0.07    0.16
   2   2  -5   -0.20    0.15
  -2   2   5   -0.11    0.11
   2   2  -5    0.49    0.28
   2  -2   5   -0.03    0.16
  -2  -2  -5   -0.01    0.17
   2  -2   5    0.01    0.21
   2   2  -5    0.37    0.19
   2  -3  -5   28.07    1.36
   2  -3  -5   28.32    1.26
  -2  -3   5   28.93    1.32
   2   3   5   29.02    1.22
  -2  -3   5   26.68    1.35
  -2   3  -5   27.89    1.45
   2   3   5   28.18    1.39
   2   3  -5   28.64    1.55
  -2  -3  -5   27.66    1.22
   2   3  -5   27.49    1.35
  -2   3   5   27.26    1.28
   2   3  -5   28.92    1.37
  -2  -3  -5   30.53    1.38
   2  -3   5   29.24    1.35
   2  -3   5   28.21    1.47
  -2   4  -5    0.20    0.30
   2  -4  -5    0.15    0.23
  -2  -4   5    0.19    0.20
   2  -4  -5    0.50    0.18
   2   4   5    0.25    0.26
  -2  -4   5    0.56    0.26
  -2  -4  -5    0.19    0.12
   2   4  -5    0.14    0.35
  -2   4   5    0.32    0.17
   2   4  -5    0.64    0.27
   2  -4   5    0.21    0.21
   2   4  -5   -0.04    0.22
  -2  -4  -5   -0.04    0.25
  -2  -5   5    5.60    0.55
  -2   5  -5    6.63    0.71
   2  -5  -5    5.43    0.54
   2   5   5    5.90    0.57
  -2  -5   5    6.62    0.49
   2  -5  -5    6.17    0.46
   2   5  -5    4.55    0.52
   2  -5   5    6.40    0.57
  -2  -5  -5    5.92    0.58
   2   5  -5    6.80    0.78
  -2   5   5    5.35    0.47
  -2  -5  -5    5.42    0.41
  -2  -6   5   10.32    0.79
   2  -6  -5   10.76    0.71
   2   6   5   12.83    0.85
  -2  -6   5   11.17    0.68
  -2   6  -5    9.78    0.94
   2  -6  -5   12.34    0.79
   2   6  -5   11.17    0.82
  -2   6   5   10.63    0.73
   2  -6   5   11.75    0.79
   2   6  -5   11.73    1.08
  -2  -6  -5   10.54    0.65
  -2  -6  -5   10.34    0.79
  -2   7  -5   30.73    1.77
   2   7   5   28.73    1.65
   2  -7  -5   30.75    1.59
  -2  -7   5   26.70    1.61
  -2  -7   5   33.16    1.50
   2  -7  -5   33.30    1.54
   2   7  -5   30.68    1.87
  -2  -7  -5   32.33    1.63
   2  -7   5   30.52    1.64
  -2   7   5   30.18    1.58
  -2  -7  -5   30.56    1.49
  -2  -8   5   10.98    0.93
  -2  -8   5    9.73    0.72
  -2   8  -5   11.50    1.12
   2  -8  -5   10.52    0.79
   2   8   5   10.47    0.96
   2  -8  -5   11.00    0.91
   2  -8   5    8.52    0.86
  -2   8   5   11.02    0.86
  -2  -8  -5    9.93    0.76
  -2  -8  -5   10.52    0.90
   2   8  -5    7.77    1.06
   2  -9  -5    5.59    0.70
   2  -9  -5    4.32    0.58
  -2  -9   5    3.96    0.73
  -2   9  -5    4.33    0.80
   2   9   5    3.84    0.73
   2  -9   5    5.42    0.72
   2   9  -5    3.62    0.86
  -2  -9  -5    4.26    0.68
  -2   9   5    6.06    0.74
  -2  10  -5   20.78    1.57
   2 -10  -5   21.35    1.35
  -2 -10   5   21.79    1.52
   2  10   5   19.90    1.53
   2  10  -5   21.59    1.75
  -2 -10  -5   21.41    1.43
   2 -10   5   18.97    1.39
  -2  10   5   18.28    1.41
  -2  11  -5    7.54    1.13
   2  11   5   10.62    1.19
   2 -11  -5   11.21    1.04
  -2 -11   5    9.57    1.15
   2 -11   5    9.07    1.04
  -2 -11  -5   12.13    1.11
   2  11  -5   10.83    1.42
  -2  12  -5    6.75    1.14
   2  12   5    9.95    1.26
  -2 -12   5    9.40    1.14
   2 -12  -5    9.91    1.04
  -2 -12  -5   10.22    1.15
   2 -12   5    9.16    1.15
   2  12  -5   10.68    1.55
   3   0  -5  111.71    4.83
   3   0   5  116.69    4.91
   3   0  -5  115.61    4.90
   3   0   5  117.01    4.80
   3   0  -5  112.84    4.85
  -3   0  -5  113.54    4.81
  -3   0   5  121.35    4.85
   3   1   5    5.05    0.30
   3  -1  -5    5.15    0.45
   3   1   5    5.20    0.43
   3  -1  -5    5.50    0.36
  -3   1  -5    5.32    0.31
   3  -1   5    5.30    0.37
   3   1  -5    5.07    0.45
  -3  -1  -5    5.70    0.39
   3   1  -5    5.39    0.50
   3  -1   5    5.67    0.47
   3   1  -5    4.16    0.37
  -3   1   5    5.65    0.34
   3  -2  -5   16.87    0.92
   3  -2  -5   16.30    0.83
   3   2   5   17.78    0.78
  -3   2  -5   17.07    0.97
   3   2   5   17.62    0.94
   3   2  -5   16.85    0.93
  -3  -2  -5   17.63    0.90
   3   2  -5   16.67    1.06
   3   2  -5   17.87    0.90
   3  -2   5   17.00    0.88
   3  -2   5   17.48    0.97
  -3   2   5   18.01    0.80
   3  -3  -5    0.40    0.23
   3   3   5    0.25    0.12
  -3  -3   5    0.28    0.24
  -3   3  -5    0.45    0.29
  -3  -3   5   -0.12    0.20
   3   3   5    0.15    0.23
   3  -3  -5    0.22    0.14
   3  -3   5    0.06    0.28
   3   3  -5    0.34    0.25
  -3  -3  -5    0.58    0.25
   3   3  -5   -0.24    0.36
   3  -3   5    0.20    0.19
  -3   3   5    0.12    0.12
   3   3  -5    0.00    0.22
   3   4   5  109.44    4.65
  -3  -4   5  105.48    4.61
  -3   4  -5  104.75    4.69
   3  -4  -5  111.95    4.61
   3  -4  -5  106.64    4.53
  -3  -4   5  105.36    4.57
   3   4   5  107.79    4.47
  -3   4   5  104.46    4.50
   3  -4   5  106.85    4.72
   3   4  -5  106.83    4.60
   3   4  -5  110.55    4.63
   3   4  -5  107.46    4.81
  -3  -4  -5  107.18    4.48
   3  -4   5  106.58    4.59
  -3  -4  -5  105.50    4.60
   3   5   5    9.29    0.51
  -3   5  -5    9.55    0.76
   3   5   5    7.48    0.69
   3  -5  -5    7.21    0.65
   3  -5  -5    8.69    0.59
  -3  -5   5    6.75    0.65
  -3  -5   5    7.87    0.58
  -3  -5  -5    8.52    0.69
  -3  -5  -5    7.87    0.51
  -3   5   5    9.19    0.57
   3   5  -5    8.04    0.90
   3  -5   5    8.04    0.64
   3   5  -5    7.70    0.68
   3  -6  -5    2.04    0.35
   3   6   5    1.63    0.46
   3  -6  -5    2.56    0.43
  -3   6  -5    1.94    0.48
  -3  -6   5    2.11    0.42
  -3  -6   5    2.37    0.38
  -3  -6  -5    2.12    0.43
   3  -6   5    2.10    0.42
  -3   6   5    2.48    0.38
   3   6  -5    2.75    0.65
   3   6  -5    1.96    0.43
  -3  -6  -5    2.30    0.31
  -3  -7   5    0.14    0.40
  -3  -7   5   -0.14    0.29
   3  -7  -5    0.07    0.29
   3  -7  -5   -0.16    0.33
  -3   7  -5   -0.58    0.37
   3   7   5    0.29    0.40
   3  -7   5    0.60    0.38
  -3  -7  -5   -0.09    0.23
   3   7  -5   -0.12    0.51
  -3   7   5   -0.25    0.29
  -3  -7  -5    0.29    0.37
   3   7  -5    0.35    0.41
   3   8   5   69.45    3.42
   3  -8  -5   68.42    3.24
  -3  -8   5   72.09    3.21
  -3   8  -5   76.60    3.51
   3  -8  -5   75.52    3.32
  -3  -8   5   72.01    3.38
  -3  -8  -5   70.87    3.20
  -3   8   5   74.72    3.31
   3   8  -5   69.25    3.62
   3  -8   5   73.82    3.36
  -3  -8  -5   69.86    3.33
   3   9   5    4.43    0.80
   3  -9  -5    5.11    0.63
  -3  -9   5    3.96    0.58
  -3   9  -5    2.82    0.69
  -3  -9   5    4.47    0.70
   3  -9  -5    4.09    0.64
   3   9  -5    4.40    0.95
   3  -9   5    4.34    0.68
  -3  -9  -5    4.62    0.70
   3  10   5    0.27    0.66
  -3  10  -5    0.60    0.67
  -3 -10   5   -0.75    0.58
   3 -10  -5    0.27    0.56
  -3 -10  -5   -0.21    0.56
   3  10  -5    1.68    0.84
   3 -10   5   -0.20    0.51
   3 -11  -5    0.20    0.54
   3  11   5   -0.74    0.61
  -3 -11   5    0.75    0.65
  -3  11  -5   -0.05    0.64
   3 -11   5    0.24    0.58
   3  11  -5    1.04    0.97
  -3 -11  -5    0.82    0.64
   3  12   5   25.99    2.03
  -3 -12   5   26.78    1.88
   3 -12  -5   30.24    1.81
   3  12  -5   27.57    2.37
  -3 -12  -5   25.87    1.84
   3 -12   5   28.21    1.84
   4   0  -5  113.91    4.78
   4   0   5  112.57    4.66
   4   0  -5  112.85    4.69
  -4   0  -5  109.06    4.66
  -4   0   5  112.94    4.67
   4   0   5  111.76    4.77
   4   0  -5  106.23    4.67
   4   1   5    0.48    0.15
   4  -1  -5    0.48    0.25
   4  -1  -5    0.66    0.19
  -4   1  -5    0.63    0.15
   4   1   5    0.93    0.25
   4   1  -5    0.60    0.27
   4  -1   5    0.41    0.17
  -4   1   5    0.78    0.13
   4   1  -5    0.45    0.26
   4  -1   5    0.95    0.27
  -4  -1  -5    0.71    0.21
   4   1  -5    0.45    0.21
   4  -2  -5  134.54    5.68
  -4   2  -5  137.55    5.71
   4  -2  -5  133.42    5.59
   4   2   5  130.64    5.69
   4   2   5  134.18    5.55
   4   2  -5  134.63    5.66
   4  -2   5  131.97    5.62
   4   2  -5  125.38    5.70
   4   2  -5  132.34    5.79
  -4   2   5  138.14    5.51
  -4  -2  -5  134.31    5.64
   4  -2   5  134.53    5.72
  -4   3  -5    0.22    0.27
   4   3   5   -0.03    0.24
   4   3   5    0.13    0.13
   4  -3  -5    0.27    0.18
  -4  -3   5    0.06    0.22
   4  -3  -5    0.07    0.24
   4  -3   5    0.13    0.21
  -4  -3  -5   -0.09    0.23
   4  -3   5    0.25    0.27
  -4   3   5    0.09    0.10
   4   3  -5    0.15    0.34
   4   3  -5   -0.11    0.24
   4   3  -5    0.12    0.24
   4  -4  -5   55.78    2.51
  -4  -4   5   53.39    2.49
   4   4   5   56.58    2.38
   4  -4  -5   53.58    2.43
  -4  -4   5   53.90    2.47
   4   4   5   55.65    2.55
  -4   4  -5   56.74    2.58
  -4  -4  -5   54.85    2.51
   4  -4   5   54.17    2.48
   4   4  -5   55.65    2.54
   4  -4   5   55.34    2.58
  -4   4   5   55.45    2.36
   4   4  -5   54.14    2.52
   4   4  -5   55.09    2.71
  -4   5  -5    0.99    0.41
   4  -5  -5    1.07    0.29
  -4  -5   5    1.02    0.31
   4   5   5    0.89    0.23
   4  -5  -5    1.14    0.35
  -4  -5   5    1.47    0.40
   4   5   5    1.25    0.42
   4   5  -5   -0.08    0.49
   4  -5   5    1.41    0.45
  -4   5   5    1.31    0.25
  -4  -5  -5    1.05    0.25
   4  -5   5    0.93    0.33
  -4  -5  -5    1.36    0.39
   4   5  -5    1.56    0.40
  -4  -6   5   41.96    2.02
   4  -6  -5   44.73    2.02
   4   6   5   43.25    1.93
  -4   6  -5   44.98    2.18
   4   6   5   42.21    2.14
  -4  -6   5   42.88    2.08
   4  -6  -5   42.98    2.06
  -4  -6  -5   41.48    1.94
   4   6  -5   42.24    2.10
  -4   6   5   42.86    1.95
  -4  -6  -5   39.24    2.06
   4  -6   5   41.51    2.06
   4   6  -5   42.62    2.33
   4  -7  -5   -0.03    0.32
  -4  -7   5    0.53    0.36
   4  -7  -5    0.09    0.37
  -4   7  -5    0.16    0.45
   4   7   5    0.04    0.41
  -4  -7   5    0.11    0.37
   4   7  -5    0.12    0.56
   4   7  -5    0.14    0.38
   4  -7   5    0.12    0.40
  -4  -7  -5   -0.01    0.27
  -4  -7  -5   -0.10    0.40
   4  -8  -5    7.44    0.70
   4  -8  -5    6.65    0.74
   4   8   5    7.36    0.88
  -4  -8   5    6.38    0.67
  -4  -8   5    6.36    0.78
  -4   8  -5    6.77    0.83
   4   8  -5    6.44    0.77
   4   8  -5    6.00    0.98
  -4  -8  -5    6.70    0.63
   4  -8   5    6.79    0.77
  -4  -8  -5    6.25    0.74
   4   9   5   -0.04    0.55
   4  -9  -5    0.22    0.49
  -4  -9   5   -0.82    0.39
  -4   9  -5   -0.07    0.49
   4  -9  -5   -0.12    0.39
  -4  -9   5    0.49    0.56
  -4  -9  -5   -0.02    0.53
   4   9  -5    0.20    0.72
   4  -9   5    0.55    0.49
  -4  10  -5    5.83    0.92
   4 -10  -5    5.15    0.71
  -4 -10   5    2.72    0.72
   4  10   5    5.81    0.94
   4  10  -5    4.74    1.14
  -4 -10  -5    4.43    0.80
   4 -10   5    3.86    0.72
   4  11   5    0.35    0.77
  -4 -11   5    1.14    0.68
  -4  11  -5    0.30    0.65
   4 -11  -5   -0.36    0.49
  -4 -11  -5    0.21    0.72
   4 -11   5   -0.16    0.64
   4  11  -5    0.38    1.03
  -4 -12   5    0.65    0.81
   4  12   5   -0.59    0.84
   4 -12  -5    0.47    0.66
  -4  12  -5    0.80    0.81
   4  12  -5    0.14    1.08
  -4 -12  -5   -0.25    0.66
   4 -12   5   -0.17    0.64
   5   0   5   33.47    1.49
   5   0  -5   32.32    1.48
   5   0  -5   32.79    1.63
   5   0  -5   31.48    1.52
   5   0   5   31.54    1.57
  -5   0  -5   33.80    1.49
   5  -1  -5   28.39    1.37
  -5   1  -5   27.03    1.30
   5  -1  -5   29.22    1.46
   5   1   5   29.50    1.32
   5   1   5   29.18    1.45
   5  -1   5   30.47    1.37
   5   1  -5   29.00    1.49
  -5  -1  -5   27.34    1.37
   5   1  -5   26.18    1.46
  -5   1   5   30.48    1.25
   5  -1   5   29.55    1.43
   5   1  -5   29.54    1.39
   5   2   5   21.95    1.27
   5  -2  -5   26.43    1.32
   5   2   5   25.42    1.16
   5  -2  -5   25.07    1.21
   5   2  -5   25.19    1.27
   5  -2   5   24.94    1.29
   5  -2   5   26.58    1.24
   5   2  -5   25.27    1.36
   5   2  -5   23.76    1.39
  -5  -2  -5   23.53    1.23
  -5  -3   5   48.85    2.15
   5   3   5   45.86    2.18
   5   3   5   46.35    2.01
   5  -3  -5   46.58    2.15
   5  -3  -5   43.73    2.06
  -5   3  -5   46.09    2.15
   5  -3   5   46.84    2.10
   5   3  -5   46.79    2.30
  -5  -3  -5   45.76    2.12
   5   3  -5   44.49    2.18
   5  -3   5   42.89    2.17
   5   3  -5   45.27    2.13
   5  -4  -5   15.62    0.93
   5   4   5   14.07    0.95
   5   4   5   14.44    0.79
  -5   4  -5   15.26    0.98
   5  -4  -5   15.34    0.86
  -5  -4   5   15.86    0.91
   5  -4   5   15.67    0.91
   5  -4   5   14.98    0.96
   5   4  -5   14.51    0.93
   5   4  -5   14.43    1.10
  -5  -4  -5   14.93    0.94
   5   4  -5   16.03    1.01
   5  -5  -5   11.29    0.80
  -5  -5   5   11.57    0.80
   5  -5  -5   12.01    0.76
   5   5   5    9.74    0.83
  -5  -5   5   10.33    0.76
   5   5   5   12.05    0.67
  -5   5  -5   11.47    0.86
   5   5  -5    9.96    0.81
   5   5  -5   10.29    1.04
  -5  -5  -5   11.27    0.69
   5  -5   5   10.88    0.78
  -5  -5  -5   10.22    0.81
   5  -5   5   10.72    0.88
   5   6   5    3.90    0.45
  -5   6  -5    4.81    0.63
   5   6   5    4.76    0.68
  -5  -6   5    5.36    0.60
  -5  -6   5    3.89    0.52
   5  -6  -5    4.00    0.54
   5  -6  -5    3.87    0.50
   5  -6   5    4.76    0.57
   5   6  -5    4.17    0.82
  -5  -6  -5    3.55    0.45
   5   6  -5    4.58    0.61
   5  -6   5    3.64    0.63
  -5  -6  -5    4.93    0.63
   5   7   5   27.89    1.65
   5  -7  -5   26.94    1.47
   5   7   5   26.86    1.37
   5  -7  -5   26.07    1.43
  -5   7  -5   28.87    1.55
  -5  -7   5   25.95    1.49
  -5  -7   5   26.72    1.44
   5  -7   5   27.12    1.53
   5   7  -5   24.73    1.51
   5  -7   5   23.74    1.57
  -5  -7  -5   28.79    1.53
   5   7  -5   29.20    1.84
  -5  -7  -5   25.34    1.37
   5  -8  -5    1.83    0.47
   5  -8  -5    2.25    0.52
  -5   8  -5    2.17    0.60
  -5  -8   5    1.84    0.55
  -5  -8   5    3.59    0.58
   5   8   5    2.57    0.66
   5   8  -5    1.94    0.78
  -5  -8  -5    3.16    0.60
   5  -8   5    1.64    0.50
   5   8  -5    2.27    0.61
   5  -9  -5    8.55    0.84
  -5   9  -5    8.03    0.92
  -5  -9   5    7.55    0.80
  -5  -9   5    7.00    0.84
   5   9   5    8.00    0.99
   5  -9  -5    7.07    0.77
   5   9  -5    8.38    0.91
   5  -9   5    7.24    0.83
  -5  -9  -5    7.13    0.88
   5   9  -5    8.73    1.23
  -5 -10   5    0.96    0.60
   5  10   5   -0.05    0.63
  -5 -10   5   -0.72    0.46
   5 -10  -5    0.83    0.60
  -5  10  -5   -0.96    0.49
   5  10  -5    0.42    0.85
  -5 -10  -5    0.22    0.69
   5 -10   5   -0.26    0.58
   5 -11  -5    7.46    0.88
  -5 -11   5    6.05    0.93
  -5  11  -5    6.17    0.93
   5  11   5    4.77    1.02
   5 -11   5    7.86    1.00
  -5 -11  -5    7.75    1.03
   5  11  -5    5.89    1.26
  -6   0  -5    2.55    0.33
   6   0  -5    2.00    0.27
   6   0  -5    1.90    0.43
   6   0  -5    2.25    0.36
   6   0   5    2.19    0.39
   6   0   5    1.91    0.29
  -6   1  -5    3.83    0.35
   6   1   5    3.69    0.50
   6  -1  -5    3.30    0.39
   6   1   5    4.92    0.41
   6  -1  -5    3.24    0.50
   6   1  -5    4.09    0.44
   6   1  -5    2.87    0.50
   6  -1   5    3.67    0.48
   6   1  -5    4.16    0.51
   6  -1   5    3.74    0.41
  -6  -1  -5    4.01    0.40
   6  -2  -5    4.52    0.43
  -6  -2   5    4.10    0.54
   6  -2  -5    4.08    0.52
   6   2   5    4.31    0.50
  -6   2  -5    4.44    0.34
   6   2   5    3.25    0.35
   6   2  -5    4.03    0.59
   6  -2   5    4.42    0.46
   6   2  -5    4.11    0.47
  -6  -2  -5    4.34    0.47
   6  -2   5    2.51    0.42
   6   2  -5    4.44    0.58
   6   3   5   92.61    4.01
   6  -3  -5   97.19    4.15
  -6  -3   5   88.91    4.12
   6  -3  -5   92.60    4.07
   6   3   5   93.64    4.17
   6   3  -5   93.16    4.21
  -6  -3  -5   93.11    4.10
   6   3  -5   97.16    4.13
   6  -3   5   96.16    4.10
   6   3  -5   96.95    4.29
   6  -3   5   92.75    4.13
  -6  -4   5    2.39    0.44
   6  -4  -5    2.76    0.47
   6   4   5    1.59    0.42
  -6   4  -5    1.81    0.39
   6  -4  -5    2.04    0.35
   6   4   5    2.26    0.33
   6   4  -5    2.55    0.62
  -6  -4  -5    2.17    0.44
   6   4  -5    2.32    0.51
   6  -4   5    2.05    0.42
   6   4  -5    2.31    0.43
   6  -4   5    1.81    0.40
   6   5   5   17.39    0.97
   6  -5  -5   19.19    1.12
   6   5   5   17.74    1.15
  -6  -5   5   17.25    1.08
   6  -5  -5   18.99    1.07
  -6   5  -5   18.08    1.09
  -6  -5   5   15.38    1.04
   6   5  -5   17.38    1.36
  -6  -5  -5   18.60    1.12
   6  -5   5   17.61    1.11
   6   5  -5   16.23    1.09
   6  -5   5   17.53    1.07
  -6   6  -5    1.32    0.44
   6  -6  -5    1.42    0.39
   6  -6  -5    1.14    0.42
   6   6   5    1.46    0.35
   6   6   5    2.29    0.58
  -6  -6   5    1.76    0.44
  -6  -6   5    1.24    0.42
  -6  -6  -5    0.88    0.34
   6   6  -5    2.20    0.72
   6   6  -5    0.46    0.42
  -6  -6  -5    1.16    0.47
   6  -6   5    1.90    0.45
   6  -6   5    1.23    0.49
   6   7   5  111.13    4.81
   6  -7  -5  115.52    4.91
  -6  -7   5  112.51    4.90
   6   7   5  108.91    5.05
  -6  -7   5  112.75    4.96
  -6   7  -5  110.61    4.95
   6  -7  -5  113.67    4.90
   6  -7   5  108.66    4.92
  -6  -7  -5  108.04    4.82
   6   7  -5  112.12    5.25
   6  -7   5  107.44    4.98
   6   7  -5  114.43    4.99
  -6  -7  -5  111.13    4.96
   6  -8  -5    2.07    0.54
   6  -8  -5    2.79    0.56
  -6   8  -5    1.71    0.56
  -6  -8   5    2.05    0.61
  -6  -8   5    2.02    0.54
   6   8   5    2.43    0.74
   6  -8   5    1.63    0.53
   6   8  -5    2.38    0.64
  -6  -8  -5    2.54    0.62
   6   8  -5    1.89    0.82
   6  -8   5    1.79    0.62
   6  -9  -5   14.37    1.09
  -6  -9   5   13.00    1.12
  -6  -9   5   16.49    1.20
  -6   9  -5   14.93    1.20
   6  -9  -5   14.20    1.14
   6   9   5   15.59    1.42
   6   9  -5   15.86    1.66
   6  -9   5   15.15    1.17
   6  -9   5   12.57    1.20
  -6  -9  -5   14.67    1.23
   6   9  -5   14.31    1.21
   6  10   5    1.59    0.79
  -6 -10   5    0.38    0.51
  -6 -10   5    0.38    0.67
   6 -10  -5   -0.61    0.49
  -6  10  -5    1.22    0.62
   6 -10  -5    1.02    0.60
  -6 -10  -5   -0.09    0.63
   6 -10   5    0.31    0.56
   6  10  -5   -1.02    0.92
   6  10  -5    1.50    0.72
   6 -10   5    0.31    0.69
   6 -11  -5   43.41    2.36
   6  11   5   46.93    2.68
  -6  11  -5   43.94    2.47
  -6 -11   5   47.64    2.56
   6 -11   5   36.67    2.60
  -6 -11  -5   47.51    2.52
   6  11  -5   42.66    3.01
   6 -11   5   42.20    2.45
   7   0  -5    5.10    0.66
   7   0   5    5.19    0.58
   7   0   5    5.78    0.50
   7   0  -5    5.14    0.54
   7   0  -5    4.87    0.42
  -7   0  -5    4.78    0.48
   7  -1  -5   15.07    1.03
   7   1   5   14.52    0.98
  -7   1  -5   16.06    0.86
   7   1   5   16.73    0.87
   7  -1  -5   14.71    0.92
   7   1  -5   16.42    0.97
  -7  -1  -5   15.80    0.93
   7   1  -5   15.81    0.99
   7   1  -5   14.36    1.07
   7  -1   5   15.39    0.90
   7  -1   5   14.42    0.96
   7   2   5   55.89    2.58
   7  -2  -5   58.83    2.65
   7  -2  -5   59.79    2.76
   7   2   5   59.45    2.74
  -7   2  -5   60.03    2.55
  -7  -2   5   60.59    2.76
   7   2  -5   58.87    2.79
   7   2  -5   54.52    2.79
   7   2  -5   57.05    2.68
  -7  -2  -5   59.31    2.66
   7  -2   5   58.87    2.65
   7  -2   5   58.81    2.70
   7  -3  -5   22.00    1.22
   7   3   5   23.59    1.18
  -7  -3   5   23.34    1.32
   7   3   5   24.26    1.33
   7  -3  -5   23.02    1.32
   7   3  -5   22.07    1.45
   7  -3   5   22.23    1.29
   7   3  -5   21.96    1.39
  -7  -3  -5   24.47    1.31
   7   3  -5   23.81    1.29
   7  -3   5   22.82    1.24
  -7  -4   5    0.36    0.37
   7   4   5    0.52    0.39
   7  -4  -5    0.16    0.31
   7  -4  -5    0.77    0.39
   7   4   5    1.46    0.33
   7   4  -5    0.87    0.52
   7  -4   5    0.95    0.38
   7   4  -5    1.02    0.41
  -7  -4  -5    0.55    0.41
   7  -4   5    0.87    0.39
   7   4  -5    0.98    0.47
   7  -5  -5    6.10    0.69
   7   5   5    7.38    0.79
   7   5   5    6.34    0.58
  -7   5  -5    6.57    0.68
  -7  -5   5    7.20    0.72
   7  -5  -5    7.96    0.72
   7   5  -5    5.87    0.69
  -7  -5  -5    5.23    0.72
   7   5  -5    6.01    0.85
   7  -5   5    5.73    0.63
   7  -5   5    6.62    0.74
   7   6   5   15.65    1.23
   7  -6  -5   16.25    1.12
  -7  -6   5   17.50    1.14
  -7   6  -5   19.70    1.17
   7   6   5   18.49    1.05
  -7  -6   5   17.68    1.13
   7  -6   5   17.52    1.14
   7   6  -5   17.73    1.18
   7   6  -5   16.85    1.40
  -7  -6  -5   18.11    1.21
   7  -6   5   16.92    1.12
  -7  -6  -5   17.60    1.07
   7  -7  -5   12.31    1.05
  -7   7  -5   14.44    1.04
  -7  -7   5   14.25    1.04
  -7  -7   5   14.10    1.04
   7   7   5   14.75    0.94
   7   7   5   14.05    1.25
   7  -7  -5   14.51    1.00
   7   7  -5   14.48    1.08
  -7  -7  -5   12.51    0.93
  -7  -7  -5   14.27    1.15
   7   7  -5   13.08    1.37
   7  -7   5   12.63    1.09
   7  -7   5   12.75    1.09
   7  -8  -5    0.46    0.46
  -7   8  -5    1.07    0.53
  -7  -8   5    0.90    0.51
   7   8   5    0.90    0.69
  -7  -8   5    0.89    0.50
   7  -8  -5    1.76    0.49
   7   8  -5    1.38    0.55
   7   8  -5   -0.62    0.71
  -7  -8  -5    0.83    0.59
   7  -8   5    0.83    0.50
   7  -8   5    0.88    0.55
  -7  -9   5    4.80    0.77
  -7   9  -5    3.75    0.70
   7   9   5    2.54    0.82
   7  -9  -5    4.96    0.73
   7  -9  -5    4.17    0.69
  -7  -9   5    5.38    0.79
   7  -9   5    4.90    0.80
   7   9  -5    6.60    1.27
  -7  -9  -5    6.10    0.89
   7   9  -5    4.24    0.82
   7  -9   5    5.68    0.85
   7  10   5    2.95    1.00
  -7 -10   5    1.83    0.70
  -7 -10   5    3.49    0.76
   7 -10  -5    3.02    0.73
   7 -10  -5    3.58    0.73
   7  10  -5    2.56    1.16
   7  10  -5    3.18    0.75
   7 -10   5    4.51    0.82
  -7 -10  -5    3.77    0.87
  -7 -11   5    3.86    0.90
  -7 -11   5    3.00    0.77
   7 -11  -5    3.51    0.88
   7  11   5    3.82    1.05
  -7 -11  -5    4.94    0.95
   7 -11   5    3.77    0.82
   7  11  -5    2.86    1.30
   8   0   5   99.09    4.26
   8   0   5   94.43    4.34
   8   0  -5   97.09    4.31
   8   0  -5  106.05    4.50
  -8   0  -5   96.52    4.26
   8  -1  -5    1.54    0.51
   8   1   5    1.92    0.36
  -8   1  -5    1.51    0.33
   8  -1  -5    1.34    0.39
   8   1   5    2.64    0.49
   8  -1   5    2.10    0.38
   8   1  -5    2.28    0.56
  -8  -1  -5    2.47    0.45
   8   1  -5    1.76    0.45
   8  -1   5    1.14    0.42
   8   1  -5    1.48    0.42
  -8  -2   5   81.71    3.67
   8  -2  -5   80.24    3.57
   8   2   5   77.24    3.64
   8   2   5   81.62    3.52
  -8   2  -5   80.63    3.49
   8  -2  -5   82.10    3.70
   8  -2   5   79.56    3.60
   8   2  -5   79.58    3.69
   8   2  -5   82.90    3.77
  -8  -2  -5   76.80    3.58
   8  -2   5   79.96    3.57
   8   2  -5   80.47    3.61
   8   3   5    1.27    0.34
   8  -3  -5    0.38    0.33
   8  -3  -5    0.14    0.41
  -8  -3   5    0.32    0.40
   8   3   5    0.64    0.41
   8  -3   5    0.40    0.33
   8   3  -5    0.93    0.52
   8  -3   5    0.96    0.39
   8   3  -5    0.24    0.48
  -8  -3  -5    0.44    0.43
   8   3  -5    0.70    0.42
   8  -4  -5   53.35    2.60
   8   4   5   59.27    2.76
  -8  -4   5   55.37    2.67
   8   4   5   56.60    2.55
   8  -4  -5   55.26    2.67
   8  -4   5   54.69    2.61
  -8  -4  -5   54.55    2.66
   8   4  -5   52.99    2.74
   8   4  -5   59.44    2.87
   8   4  -5   56.23    2.69
   8  -4   5   54.32    2.61
  -8  -5   5    2.22    0.52
   8   5   5    1.95    0.41
   8  -5  -5    1.66    0.44
   8  -5  -5    1.32    0.47
   8   5   5    1.59    0.59
  -8  -5  -5    1.86    0.56
   8   5  -5    1.44    0.48
   8  -5   5    1.71    0.46
   8  -5   5    1.41    0.47
   8   5  -5    1.72    0.64
  -8  -6   5   25.80    1.53
   8   6   5   25.31    1.38
   8  -6  -5   25.68    1.44
  -8   6  -5   25.45    1.42
   8  -6  -5   26.45    1.48
  -8  -6   5   25.12    1.46
   8   6   5   25.79    1.61
   8   6  -5   24.54    1.50
   8   6  -5   23.10    1.78
   8  -6   5   24.66    1.45
  -8  -6  -5   23.49    1.51
   8  -6   5   22.20    1.44
   8  -7  -5   -0.08    0.48
  -8  -7   5    0.12    0.47
   8  -7  -5    0.43    0.42
  -8  -7   5    0.36    0.50
  -8   7  -5    1.23    0.46
   8   7   5    1.42    0.63
   8   7   5    0.19    0.42
   8   7  -5   -0.01    0.52
  -8  -7  -5    0.14    0.57
   8  -7   5    0.66    0.46
  -8  -7  -5    0.43    0.46
   8   7  -5   -0.12    0.68
   8  -7   5    0.78    0.47
   8   8   5   11.78    1.22
   8  -8  -5    9.77    0.91
   8  -8  -5    8.75    0.92
  -8   8  -5   10.35    0.92
  -8  -8   5    9.99    1.02
  -8  -8   5    7.73    0.90
  -8  -8  -5    7.84    1.00
   8  -8   5    8.17    0.91
   8   8  -5    8.03    0.94
   8  -8   5    7.84    0.88
   8   8  -5    9.74    1.31
   8  -9  -5    0.44    0.56
   8   9   5    0.06    0.71
  -8  -9   5    0.58    0.65
  -8  -9   5    0.90    0.57
   8  -9  -5    0.55    0.60
   8   9  -5    0.51    0.61
  -8  -9  -5    0.26    0.75
   8  -9   5    0.51    0.55
   8   9  -5    0.29    0.90
  -8 -10   5   -0.03    0.66
  -8 -10   5    1.36    0.73
   8 -10  -5    1.14    0.68
   8 -10  -5    1.57    0.61
   8  10   5    0.89    0.92
   8  10  -5    1.15    1.00
   8  10  -5    0.46    0.72
   8 -10   5    1.40    0.72
  -8 -10  -5   -0.25    0.73
   9   0   5   32.95    1.72
   9   0  -5   33.19    1.88
  -9   0  -5   29.59    1.62
   9   0  -5   33.50    1.70
   9   0   5   32.48    1.62
   9  -1  -5    4.42    0.72
   9  -1  -5    4.13    0.58
  -9   1  -5    4.09    0.51
   9   1   5    4.08    0.52
  -9  -1   5    5.28    0.72
   9   1   5    5.09    0.67
   9   1  -5    4.45    0.75
  -9  -1  -5    4.68    0.60
   9   1  -5    3.47    0.55
   9  -1   5    4.12    0.56
   9  -1   5    3.95    0.55
  -9  -2   5    2.78    0.57
   9   2   5    3.50    0.60
   9  -2  -5    2.63    0.62
   9   2   5    2.97    0.43
   9  -2  -5    2.66    0.49
   9  -2   5    2.75    0.49
  -9  -2  -5    1.93    0.51
   9  -2   5    2.58    0.46
   9   2  -5    2.34    0.66
   9   2  -5    2.13    0.49
   9   3   5    6.67    0.75
   9  -3  -5    5.27    0.63
  -9  -3   5    5.48    0.76
   9  -3  -5    5.46    0.74
   9   3   5    7.29    0.65
   9  -3   5    6.05    0.65
   9   3  -5    5.51    0.81
  -9  -3  -5    7.06    0.78
   9   3  -5    4.47    0.66
   9   3  -5    6.42    0.84
   9  -3   5    4.27    0.60
   9  -4  -5   35.79    1.83
   9  -4  -5   30.54    1.84
   9   4   5   36.50    1.75
  -9  -4   5   37.08    1.90
   9   4   5   33.59    1.92
   9   4  -5   35.13    1.88
   9   4  -5   35.20    1.98
   9  -4   5   32.30    1.80
  -9  -4  -5   33.75    1.85
   9   4  -5   34.24    2.03
   9  -4   5   31.75    1.75
   9   5   5    2.09    0.47
   9  -5  -5    1.10    0.51
   9  -5  -5    0.98    0.45
  -9  -5   5    1.51    0.56
   9   5   5    1.52    0.58
   9   5  -5    0.19    0.47
   9  -5   5    1.04    0.47
   9   5  -5    2.30    0.77
   9  -5   5    1.57    0.48
  -9  -5  -5    1.57    0.57
   9   6   5   -0.33    0.53
   9   6   5    0.22    0.43
   9  -6  -5    0.24    0.46
  -9  -6   5    0.61    0.55
   9  -6  -5   -0.51    0.45
   9  -6   5    0.42    0.44
   9   6  -5   -0.03    0.54
   9  -6   5    0.16    0.43
  -9  -6  -5   -0.37    0.53
   9   6  -5    0.35    0.72
   9  -7  -5    4.71    0.76
   9   7   5    5.39    0.89
  -9  -7   5    5.09    0.77
   9  -7  -5    3.82    0.68
  -9  -7   5    4.95    0.73
   9   7  -5    7.12    1.18
   9   7  -5    4.88    0.78
  -9  -7  -5    5.28    0.88
   9  -7   5    5.01    0.78
   9   8   5   30.67    2.11
  -9  -8   5   30.79    1.81
   9  -8  -5   29.36    1.77
  -9  -8   5   28.38    1.84
   9  -8  -5   30.69    1.82
   9   8  -5   31.60    1.87
   9   8  -5   32.39    2.25
   9  -8   5   31.41    1.86
  -9  -8  -5   34.26    1.98
   9  -9  -5    0.80    0.58
  -9  -9   5   -0.07    0.69
   9  -9  -5    0.60    0.62
  -9  -9   5   -0.08    0.55
   9   9   5    0.84    0.80
   9  -9   5    0.54    0.65
   9   9  -5    1.21    0.67
  -9  -9  -5    0.44    0.86
   9   9  -5    1.33    1.09
  -9 -10   5    0.33    0.63
  -9 -10   5    0.67    0.69
   9 -10  -5   -0.48    0.63
   9  10   5    1.18    0.92
   9  10  -5    0.70    1.15
   9 -10   5    0.30    0.61
   9  10  -5   -0.02    0.66
  -9 -10  -5    1.53    0.95
  10   0   5    0.39    0.40
 -10   0  -5    0.56    0.39
 -10   0   5   -0.18    0.48
  10   0  -5    0.39    0.45
  10   0  -5    0.82    0.61
  10   0   5    0.46    0.43
  10   1   5    1.72    0.57
  10   1   5    2.86    0.47
  10  -1  -5    2.97    0.76
  10  -1  -5    3.25    0.55
 -10   1  -5    2.73    0.49
 -10  -1   5    2.44    0.64
  10  -1   5    3.77    0.56
  10  -1   5    3.56    0.59
 -10  -1  -5    3.02    0.56
  10   1  -5    2.47    0.53
  10   1  -5    4.22    0.77
 -10  -2   5    0.51    0.48
  10  -2  -5    0.00    0.55
  10  -2  -5    0.27    0.41
  10   2   5   -0.11    0.33
  10   2   5   -0.06    0.46
  10  -2   5    0.04    0.40
  10  -2   5    0.04    0.37
  10   2  -5    0.44    0.62
  10   2  -5   -0.74    0.43
 -10  -2  -5   -0.31    0.48
 -10  -3   5    4.24    0.76
  10  -3  -5    5.18    0.81
  10   3   5    5.88    0.81
  10   3   5    4.16    0.59
  10  -3  -5    6.74    0.75
 -10  -3  -5    5.03    0.73
  10  -3   5    6.59    0.74
  10   3  -5    3.97    0.81
  10   3  -5    4.78    0.69
  10  -3   5    4.40    0.62
  10  -4  -5    0.64    0.55
  10  -4  -5   -0.03    0.43
  10   4   5    0.11    0.49
 -10  -4   5    0.48    0.54
  10   4   5    0.83    0.40
 -10  -4  -5    0.21    0.58
  10  -4   5    1.02    0.46
  10   4  -5    0.36    0.65
  10   4  -5    1.17    0.71
  10   4  -5    0.04    0.46
  10  -4   5    0.17    0.42
  10  -5  -5   20.17    1.34
 -10  -5   5   18.76    1.33
  10  -5  -5   17.72    1.32
  10   5   5   19.05    1.21
  10   5   5   19.52    1.39
 -10  -5  -5   17.97    1.37
  10   5  -5   19.48    1.60
  10  -5   5   20.85    1.33
  10   5  -5   15.57    1.27
  10   6   5    4.16    0.64
  10  -6  -5    2.53    0.68
  10  -6  -5    3.70    0.70
 -10  -6   5    3.34    0.72
  10   6   5    5.12    0.88
  10   6  -5    2.20    0.71
  10  -6   5    4.54    0.71
 -10  -6  -5    2.88    0.79
  10   6  -5    2.58    0.88
  10  -7  -5    9.68    1.01
 -10  -7   5   11.43    1.04
  10  -7  -5    9.57    1.05
  10   7   5   10.75    1.21
 -10  -7   5   12.22    1.15
  10   7  -5    8.72    1.00
  10  -7   5    9.84    0.99
 -10  -7  -5    9.67    1.22
  10   7  -5    8.95    1.36
 -10  -8   5    4.84    0.81
 -10  -8   5    6.08    0.88
  10  -8  -5    5.75    0.89
  10   8   5    5.35    1.12
  10  -8  -5    4.02    0.75
  10   8  -5    4.21    0.81
  10   8  -5    6.43    1.19
  10  -8   5    5.25    0.81
 -10  -8  -5    7.12    1.08
  10  -9  -5   14.51    1.27
 -10  -9   5   14.01    1.33
  10   9   5   20.04    1.77
  10  -9  -5   13.43    1.25
 -10  -9   5   13.24    1.22
  10   9  -5   11.53    1.24
  10  -9   5   14.61    1.33
  10   9  -5   12.43    1.75
 -10  -9  -5   14.12    1.47
  11   0   5    0.19    0.46
 -11   0   5   -0.60    0.59
 -11   0  -5    0.47    0.48
  11   0  -5    0.64    0.64
  11   0  -5    0.76    0.53
  11   0   5   -0.22    0.40
  11   1   5    0.87    0.50
  11   1   5   -0.06    0.42
  11  -1  -5   -0.23    0.48
  11  -1  -5    0.77    0.67
 -11  -1   5    0.17    0.55
 -11  -1  -5   -0.03    0.51
  11   1  -5   -0.01    0.44
  11  -1   5    0.25    0.45
  11   1  -5    0.57    0.64
  11  -1   5    0.53    0.46
  11   2   5    3.71    0.71
 -11  -2   5    3.92    0.74
  11  -2  -5    2.29    0.76
  11  -2  -5    3.96    0.69
  11   2   5    4.49    0.62
  11   2  -5    3.39    0.65
  11  -2   5    3.78    0.65
  11   2  -5    3.82    0.84
 -11  -2  -5    4.85    0.73
  11  -2   5    4.01    0.67
  11  -3  -5    5.49    0.79
  11   3   5    6.81    0.89
  11   3   5    4.36    0.65
  11  -3  -5    4.35    0.86
 -11  -3   5    6.25    0.83
  11   3  -5    3.75    0.89
  11   3  -5    4.86    0.74
 -11  -3  -5    4.83    0.78
  11  -3   5    5.62    0.72
  11  -3   5    4.82    0.72
  11   4   5   -0.03    0.60
  11  -4  -5    0.68    0.62
 -11  -4   5    1.00    0.61
  11  -4  -5    0.66    0.51
  11   4   5    0.14    0.44
  11  -4   5    0.20    0.46
  11   4  -5    1.64    0.76
  11   4  -5   -0.27    0.48
 -11  -4  -5    0.59    0.61
  11   5   5    0.97    0.63
  11   5   5    1.15    0.53
 -11  -5   5    0.67    0.62
  11  -5  -5    1.56    0.62
  11  -5  -5    1.01    0.63
  11   5  -5    1.52    0.65
  11  -5   5    1.10    0.60
 -11  -5  -5    0.53    0.67
  11   6   5    2.05    0.62
 -11  -6   5    3.87    0.83
  11  -6  -5    2.07    0.69
  11  -6  -5    2.86    0.72
  11   6   5    3.26    0.90
  11  -6   5    2.78    0.66
  11   6  -5    4.21    1.06
  11   6  -5    0.99    0.62
 -11  -6  -5    1.64    0.80
 -11  -7   5    4.41    0.84
 -11  -7   5    3.80    0.84
  11   7   5    5.53    1.06
  11  -7  -5    4.14    0.77
  11  -7  -5    4.95    0.88
  11   7  -5    4.75    1.14
  11   7  -5    3.58    0.86
 -11  -7  -5    5.93    1.12
  11  -7   5    3.91    0.75
  11   8   5    0.32    0.91
 -11  -8   5    1.15    0.72
  11  -8  -5    1.00    0.67
 -11  -8   5    0.23    0.69
  11  -8  -5    0.55    0.71
  11  -8   5   -0.46    0.56
 -11  -8  -5   -0.61    0.82
  11   8  -5   -0.71    0.68
  11   8  -5    1.13    1.05
  12   0   5    6.99    0.84
  12   0  -5    6.32    0.86
  12   0   5    6.57    0.81
 -12   0  -5    6.28    0.80
 -12   0   5    6.07    0.93
  12   0  -5    6.71    1.05
  12   1   5    0.48    0.52
 -12  -1   5    1.59    0.72
  12   1   5    2.28    0.61
  12  -1  -5    1.81    0.79
  12  -1  -5    2.54    0.69
  12   1  -5    1.96    0.61
  12  -1   5    1.51    0.58
  12  -1   5    2.75    0.62
 -12   1   5    0.07    0.63
  12   1  -5    1.08    0.88
 -12  -1  -5    0.94    0.60
  12  -2  -5   -0.63    0.54
  12   2   5   -0.30    0.40
 -12  -2   5    0.68    0.67
  12  -2  -5    0.64    0.74
  12   2   5    0.10    0.50
  12   2  -5   -0.17    0.56
 -12  -2  -5    0.07    0.61
  12  -2   5    0.56    0.52
  12   2  -5    0.59    0.78
  12   3   5    0.82    0.54
  12  -3  -5    0.18    0.66
  12   3   5    0.02    0.61
 -12  -3   5   -0.09    0.63
  12  -3  -5    0.29    0.54
  12   3  -5   -0.23    0.51
  12  -3   5   -0.10    0.47
  12   3  -5    0.16    0.77
 -12  -3  -5    0.04    0.64
  12   4   5    4.76    0.85
  12   4   5    5.11    0.73
 -12  -4   5    3.25    0.80
  12  -4  -5    5.19    0.91
  12  -4  -5    4.93    0.79
  12   4  -5    3.94    0.97
  12   4  -5    3.75    0.82
  12  -4   5    2.63    0.67
 -12  -4  -5    3.47    0.82
  12  -5  -5    1.79    0.84
  12   5   5    2.12    0.84
  12   5   5    1.44    0.61
 -12  -5   5    3.64    0.88
  12  -5  -5    3.96    0.80
  12   5  -5    0.54    0.61
  12  -5   5    3.47    0.75
 -12  -5  -5    1.97    0.88
 -12  -6   5    0.75    0.78
  12  -6  -5    0.39    0.74
  12   6   5   -0.14    0.79
  12  -6  -5    0.23    0.59
  12   6  -5   -0.40    0.61
  12  -6   5   -0.43    0.55
 -12  -6  -5   -0.42    0.79
  12   7   5    0.13    0.86
  12  -7  -5   -0.12    0.66
  12  -7  -5   -0.48    0.71
 -12  -7   5    0.91    0.81
  12   7  -5   -0.31    0.64
 -12  -7  -5   -1.05    0.79
  12  -7   5    0.18    0.66
 -12  -8   5    2.08    0.91
 -12  -8  -5    1.64    0.98
  13   0  -5    0.44    0.81
  13   0   5    0.71    0.57
  13   0  -5   -0.25    0.53
 -13   0   5    0.23    0.65
  13   1   5    1.40    0.62
  13  -1  -5    0.80    0.60
  13   1   5    1.53    0.55
  13  -1  -5    0.45    0.82
 -13  -1   5    1.34    0.73
  13   1  -5    0.84    0.85
 -13  -1  -5    1.19    0.61
  13   1  -5   -0.15    0.57
 -13   1   5    1.65    0.75
  13  -1   5    1.36    0.61
 -13  -2   5   13.77    1.35
  13   2   5   13.85    1.31
  13  -2  -5   17.46    1.31
  13   2   5   15.91    1.22
  13  -2  -5   14.69    1.54
 -13  -2  -5   15.06    1.31
  13   2  -5   12.49    1.48
  13   2  -5   12.63    1.23
  13  -2   5   14.84    1.26
 -13   2   5   13.61    1.32
  13   3   5    5.66    0.92
 -13  -3   5    7.38    1.03
  13  -3  -5    6.60    0.93
  13  -3  -5    5.53    1.11
  13   3   5    7.93    0.93
  13   3  -5    7.36    1.15
  13  -3   5    5.61    0.81
  13   3  -5    6.04    0.90
 -13  -3  -5    7.18    1.02
  13  -4  -5   -0.12    0.71
  13   4   5    0.53    0.68
  13  -4  -5    1.15    0.65
  13   4   5    0.98    0.57
 -13  -4   5    0.02    0.81
 -13  -4  -5   -0.29    0.72
  13   4  -5   -0.44    0.65
  13  -4   5   -0.94    0.59
  13  -5  -5    0.51    0.66
 -13  -5   5    0.25    0.78
  13  -5  -5    0.49    0.72
  13   5   5   -0.08    0.70
  13   5   5    0.35    0.63
  13  -5   5    0.26    0.60
 -13  -5  -5   -1.31    0.85
  13   5  -5    0.87    0.73
  13   6   5    7.03    1.22
  13  -6  -5    7.16    1.05
 -13  -6   5    6.38    1.03
  13  -6  -5    3.62    0.94
  13  -6   5    5.40    0.90
  13   6  -5    6.74    1.07
 -13  -6  -5    4.78    1.13
 -14   0   5    0.88    0.77
  14   0   5    1.90    0.72
  14   0  -5    0.72    0.95
  14   0  -5   -0.08    0.71
  14  -1  -5   -0.25    0.86
  14  -1  -5    0.16    0.62
  14   1   5    0.33    0.63
 -14  -1   5   -0.09    0.73
  14   1  -5    1.01    0.67
  14  -1   5    0.58    0.58
 -14   1   5    0.22    0.70
  14   1  -5    0.10    0.89
  14   2   5    0.39    0.64
  14  -2  -5   -1.42    0.77
 -14  -2   5    0.34    0.84
  14  -2  -5   -0.55    0.60
 -14  -2  -5    1.05    0.82
  14  -2   5   -0.18    0.64
 -14   2   5    1.32    0.75
  14   2  -5    0.00    0.62
  14   2  -5   -0.94    0.98
  14  -3  -5    0.98    0.79
  14  -3  -5   -0.72    0.80
 -14  -3   5   -0.25    0.86
  14   3   5    0.43    0.74
  14   3   5   -0.09    0.53
 -14   3   5    1.08    0.74
 -14  -3  -5    0.36    0.88
  14   3  -5    1.51    1.07
  14   3  -5    0.83    0.78
  14  -3   5    0.10    0.58
  14  -4  -5    0.36    0.91
 -14  -4   5    0.79    0.87
  14   4   5   -0.35    0.61
  14  -4  -5   -0.39    0.65
  14   4   5   -0.44    0.69
 -14  -4  -5    0.29    0.93
  14  -4   5   -0.24    0.66
  14   4  -5   -0.94    0.70
  14  -5  -5    1.26    0.87
  14   5   5    2.05    0.98
  14  -5  -5    2.04    0.86
 -14  -5   5    0.18    0.82
  14  -5   5    2.36    0.81
 -14  -5  -5    1.49    1.01
  14   5  -5    1.62    0.85
 -15   0   5    6.51    1.19
  15   0  -5    6.12    1.36
  15   0   5   11.24    1.18
  15   0  -5    7.04    1.04
  15   1   5    0.18    0.69
  15  -1  -5   -0.21    1.05
 -15  -1   5    0.86    0.83
  15  -1  -5    0.54    0.72
 -15   1   5    0.91    0.87
  15   1  -5   -0.02    0.76
  15   1  -5    0.68    1.01
  15  -1   5    1.29    0.75
  15  -2  -5    1.57    0.85
 -15  -2   5    1.14    0.88
  15   2   5    0.54    0.70
  15  -2  -5    0.21    0.95
  15   2  -5    0.63    0.70
 -15   2   5    1.28    0.79
  15   2  -5   -0.65    0.94
  15  -2   5    0.86    0.65
  15  -3  -5   -0.20    0.99
  15  -3  -5    0.07    0.73
 -15  -3   5   -0.02    0.86
  15   3   5   -0.24    0.68
 -15   3   5   -0.20    0.81
  15  -3   5   -0.28    0.63
  15   3  -5   -0.18    0.80
  15   3  -5   -0.79    1.00
 -15  -3  -5   -0.86    0.79
   0   0  -6   28.93    1.33
   0   0   6   28.88    1.25
   0   0   6   29.87    1.39
   0   1  -6   -0.32    0.19
   0  -1   6   -0.22    0.18
   0   1  -6    0.03    0.14
   0  -1  -6   -0.07    0.15
   0  -1   6    0.06    0.11
   0   1   6   -0.08    0.15
   0   1   6    0.06    0.05
   0   2  -6    1.67    0.21
   0   2   6    1.65    0.27
   0  -2   6    0.97    0.20
   0   2  -6    1.47    0.36
   0  -2  -6    1.24    0.25
   0  -2   6    1.32    0.32
   0  -3  -6    0.08    0.06
   0   3  -6    0.04    0.15
   0  -3   6    0.05    0.13
   0  -3   6    0.05    0.19
   0   3   6    0.10    0.16
   0  -3  -6   -0.33    0.18
   0   3  -6    0.23    0.31
   0  -4  -6   13.34    0.63
   0  -4  -6   14.07    0.80
   0  -4   6   12.14    0.76
   0   4  -6   12.87    0.97
   0  -4   6   13.38    0.65
   0  -5   6    0.20    0.27
   0   5   6    0.08    0.22
   0  -5  -6    0.25    0.16
   0   5  -6    0.60    0.43
   0  -5   6   -0.01    0.14
   0  -5  -6   -0.06    0.26
   0  -6   6    4.07    0.44
   0  -6  -6    4.00    0.38
   0   6   6    3.30    0.48
   0   6  -6    5.44    0.75
   0  -6   6    4.98    0.55
   0  -6  -6    4.20    0.53
   0   7  -6    0.66    0.53
   0  -7  -6   -0.20    0.23
   0   7   6    0.18    0.32
   0  -7   6    0.07    0.40
   0  -7  -6   -0.63    0.32
   0   8  -6    1.17    0.70
   0  -8  -6    0.72    0.44
   0  -8   6    1.02    0.46
   0   8   6    2.77    0.56
   0  -9   6    0.01    0.50
   0   9   6   -0.02    0.49
   0   9  -6   -0.21    0.61
   0  -9  -6    0.86    0.52
   0 -10   6    9.35    0.99
   0 -10  -6    7.22    0.86
   0  10  -6    8.18    1.16
   0  10   6    8.27    0.98
   0 -11  -6    0.50    0.59
   0  11  -6   -1.34    0.78
   0 -11   6    0.46    0.61
   0  11   6    0.07    0.65
   0  12  -6    1.44    0.93
   0  12   6    1.90    0.80
   0 -12  -6    2.33    0.84
   0 -12   6    0.98    0.76
  -1   0  -6   17.35    0.86
   1   0  -6   18.04    0.93
   1   0   6   18.40    0.95
  -1   0   6   18.06    0.82
  -1   0   6   16.62    0.92
   1   0  -6   17.20    0.82
   1   0   6   18.64    0.80
   1   0  -6   17.73    0.89
  -1   1  -6    3.63    0.28
   1   1   6    3.33    0.37
   1  -1  -6    3.80    0.38
  -1   1  -6    3.64    0.42
  -1  -1   6    4.15    0.32
  -1  -1   6    3.27    0.40
   1  -1  -6    4.21    0.24
   1   1  -6    4.04    0.33
   1  -1   6    4.09    0.30
   1  -1   6    3.85    0.42
  -1  -1  -6    4.18    0.36
   1   1  -6    3.83    0.42
  -1   1   6    3.99    0.32
   1   1  -6    3.47    0.34
   1  -2  -6   17.73    0.89
  -1   2  -6   15.23    0.76
  -1  -2   6   17.38    0.84
   1  -2  -6   16.44    0.72
  -1   2  -6   16.18    0.96
   1   2   6   16.66    0.88
   1  -2   6   17.49    0.98
   1  -2   6   16.98    0.83
   1   2  -6   15.70    0.83
   1   2  -6   15.93    1.00
  -1  -2  -6   15.81    0.86
   1   2  -6   15.55    0.84
  -1   2   6   18.06    0.85
  -1  -3   6    6.38    0.47
  -1   3  -6    5.99    0.64
  -1   3  -6    6.34    0.35
   1  -3  -6    5.89    0.51
   1  -3  -6    5.99    0.33
  -1  -3   6    6.46    0.43
   1   3   6    6.21    0.48
   1   3  -6    6.82    0.72
   1  -3   6    6.60    0.34
   1   3  -6    6.15    0.46
  -1  -3  -6    5.91    0.51
   1  -3   6    5.68    0.65
   1   3  -6    6.37    0.48
  -1   3   6    5.77    0.44
   1  -3   6    6.40    0.46
  -1   4  -6   18.17    1.14
  -1  -4   6   15.97    0.86
   1  -4  -6   17.58    0.98
  -1  -4   6   18.32    0.97
   1   4   6   18.91    0.99
   1  -4  -6   17.47    0.82
   1   4  -6   18.52    1.20
  -1  -4  -6   17.53    0.98
   1   4  -6   17.01    0.89
   1  -4   6   17.64    0.78
  -1   4   6   18.80    0.94
   1  -4   6   17.70    0.97
   1   4  -6   17.10    0.98
  -1  -4  -6   17.48    0.80
   1   5   6    1.06    0.34
   1  -5  -6    1.44    0.34
  -1  -5   6    0.59    0.31
   1  -5  -6    0.87    0.21
  -1  -5   6    1.30    0.24
  -1   5  -6    1.16    0.45
  -1  -5  -6    0.94    0.20
  -1  -5  -6    0.87    0.33
   1  -5   6    1.36    0.35
   1  -5   6    0.81    0.21
  -1   5   6    0.98    0.29
   1   5  -6    0.93    0.49
  -1  -6   6   15.29    1.00
   1   6   6   16.91    1.04
  -1   6  -6   17.14    1.21
  -1  -6   6   16.54    0.85
   1  -6  -6   15.60    0.99
   1  -6  -6   17.45    0.89
  -1  -6  -6   16.31    0.86
  -1  -6  -6   17.14    1.02
   1   6  -6   17.29    1.28
  -1   6   6   15.81    0.96
   1  -6   6   15.48    1.00
   1  -7  -6    3.92    0.45
  -1   7  -6    4.53    0.77
   1   7   6    5.35    0.62
   1  -7  -6    4.58    0.59
  -1  -7   6    5.51    0.67
   1  -7   6    4.49    0.62
  -1  -7  -6    5.04    0.55
   1   7  -6    5.43    0.84
  -1   7   6    4.85    0.56
  -1  -7  -6    3.44    0.55
   1  -8  -6   16.10    1.04
   1   8   6   14.00    1.11
  -1  -8   6   14.60    1.08
  -1   8  -6   16.29    1.40
   1   8  -6   13.61    1.35
   1  -8   6   13.97    1.11
  -1   8   6   15.27    1.06
  -1  -8  -6   14.72    1.03
  -1   9  -6    0.12    0.60
  -1  -9   6    0.12    0.53
   1  -9  -6    0.12    0.46
   1   9   6    0.58    0.53
  -1  -9  -6    0.45    0.47
   1  -9   6    0.81    0.49
   1   9  -6    0.66    0.70
  -1   9   6    0.19    0.47
  -1 -10   6   11.12    1.13
   1  10   6   11.31    1.15
   1 -10  -6   13.65    1.12
  -1  10  -6    9.10    1.19
  -1 -10  -6   10.12    0.99
   1  10  -6    9.48    1.32
  -1  10   6   10.96    1.08
   1 -10   6   10.62    1.05
   1 -11  -6    2.88    0.71
  -1 -11   6    2.82    0.77
   1  11   6    1.83    0.77
  -1  11  -6    1.96    0.84
   1  11  -6    1.73    1.02
  -1 -11  -6    2.72    0.76
   1 -11   6    2.00    0.70
  -1  12  -6    2.36    0.93
   1  12   6    2.72    0.86
  -1 -12   6    3.91    0.93
   1 -12  -6    4.45    0.92
   1 -12   6    4.52    0.96
   1  12  -6    5.63    1.20
  -1 -12  -6    3.93    0.83
  -2   0  -6   11.25    0.58
   2   0  -6   10.35    0.64
   2   0  -6   11.12    0.58
  -2   0   6   11.49    0.63
   2   0   6   10.74    0.68
   2   0  -6    9.95    0.63
   2   0   6   11.13    0.54
   2   1   6    2.34    0.17
   2   1   6    2.54    0.34
  -2  -1   6    1.92    0.31
   2  -1  -6    2.58    0.33
  -2   1  -6    2.62    0.37
  -2   1  -6    2.96    0.24
   2  -1  -6    3.29    0.25
   2   1  -6    2.37    0.35
   2   1  -6    3.02    0.29
   2   1  -6    2.73    0.34
   2  -1   6    3.15    0.27
  -2   1   6    2.82    0.28
  -2  -1  -6    3.31    0.32
   2  -1   6    2.73    0.38
   2   2   6    8.71    0.60
  -2   2  -6    8.45    0.66
   2  -2  -6    9.90    0.62
  -2  -2   6    9.02    0.57
   2  -2  -6    9.56    0.48
  -2   2  -6    8.74    0.44
   2   2  -6    9.67    0.59
   2   2  -6    9.68    0.75
   2  -2   6    9.02    0.67
  -2   2   6    9.95    0.53
  -2  -2  -6    9.40    0.59
   2   2  -6    8.58    0.58
   2  -2   6    9.71    0.56
   2  -3  -6   65.16    2.88
   2  -3  -6   69.38    3.02
   2   3   6   68.82    3.02
  -2  -3   6   65.04    2.98
  -2   3  -6   70.07    3.14
  -2  -3   6   69.62    2.96
  -2   3   6   69.82    2.94
  -2  -3  -6   68.99    2.83
  -2  -3  -6   68.52    3.01
   2   3  -6   67.53    2.99
   2   3  -6   68.17    3.20
   2   3  -6   69.79    3.02
   2  -3   6   68.94    3.13
   2  -3   6   68.07    2.98
   2   4   6    1.70    0.37
  -2  -4   6    2.23    0.37
   2  -4  -6    2.21    0.24
  -2   4  -6    3.03    0.53
   2  -4  -6    1.62    0.35
  -2  -4   6    1.42    0.26
  -2   4   6    1.99    0.27
  -2  -4  -6    1.87    0.36
   2   4  -6    1.85    0.34
  -2  -4  -6    2.47    0.21
   2  -4   6    2.32    0.36
   2   4  -6    1.51    0.37
   2   4  -6    3.30    0.63
  -2  -5   6   11.67    0.66
   2  -5  -6   10.70    0.62
  -2   5  -6   10.94    0.90
  -2  -5   6   10.71    0.75
   2   5   6    9.73    0.75
   2  -5  -6    9.22    0.73
  -2  -5  -6   10.50    0.76
   2   5  -6    9.61    0.99
  -2  -5  -6   10.13    0.57
  -2   5   6   10.51    0.67
   2   5  -6   11.12    0.77
   2  -5   6   10.86    0.72
   2   6   6   20.46    1.19
  -2  -6   6   19.18    1.02
  -2  -6   6   18.35    1.17
  -2   6  -6   20.72    1.32
   2  -6  -6   19.10    1.02
   2  -6  -6   19.57    1.13
   2   6  -6   21.99    1.43
  -2  -6  -6   19.36    0.97
   2  -6   6   18.90    1.12
  -2  -6  -6   17.66    1.13
  -2   6   6   19.37    1.07
   2  -7  -6   65.92    3.09
   2   7   6   69.92    3.17
  -2  -7   6   69.47    2.97
   2  -7  -6   66.87    2.99
  -2  -7   6   68.44    3.15
  -2   7  -6   67.34    3.28
   2   7  -6   63.33    3.35
  -2  -7  -6   65.15    3.10
  -2   7   6   69.41    3.06
   2  -7   6   66.33    3.11
  -2  -8   6    0.05    0.43
   2   8   6    0.73    0.46
   2  -8  -6    0.59    0.44
  -2   8  -6    0.87    0.56
   2  -8   6   -0.55    0.38
  -2  -8  -6    0.52    0.46
  -2   8   6    0.50    0.41
   2   8  -6   -0.28    0.65
  -2   9  -6    3.50    0.81
   2   9   6    3.32    0.66
   2  -9  -6    3.86    0.66
  -2  -9   6    2.88    0.65
  -2  -9  -6    3.44    0.65
  -2   9   6    4.49    0.67
   2   9  -6    3.57    0.88
   2  -9   6    4.12    0.69
   2 -10  -6   21.20    1.34
  -2  10  -6   19.96    1.54
   2  10   6   18.54    1.42
  -2 -10   6   19.76    1.42
   2  10  -6   17.65    1.72
  -2 -10  -6   19.62    1.39
   2 -10   6   18.15    1.39
   2 -11  -6   17.06    1.34
   2  11   6   11.84    1.29
  -2  11  -6   17.18    1.53
  -2 -11   6   15.37    1.39
   2  11  -6   12.56    1.53
  -2 -11  -6   14.84    1.26
   2 -11   6   15.40    1.33
  -2  12  -6    1.02    0.91
   2  12   6    1.18    0.85
  -2 -12   6    2.93    0.93
   2 -12  -6    0.72    0.74
  -2 -12  -6    1.64    0.73
   2  12  -6    1.46    1.14
   2 -12   6    1.21    0.80
   3   0   6    4.55    0.46
   3   0  -6    4.23    0.35
   3   0   6    4.57    0.31
   3   0  -6    4.89    0.46
  -3   0  -6    3.93    0.35
   3   0  -6    4.73    0.40
  -3   0   6    5.40    0.38
   3  -1  -6    0.06    0.14
   3  -1  -6    0.32    0.22
   3   1   6    0.11    0.22
   3   1   6    0.06    0.10
  -3   1  -6    0.27    0.12
   3  -1   6    0.09    0.23
  -3  -1  -6    0.29    0.20
   3  -1   6   -0.02    0.14
   3   1  -6    0.19    0.24
   3   1  -6    0.50    0.26
   3   1  -6    0.09    0.18
  -3   1   6    0.20    0.14
  -3   2  -6    3.83    0.46
   3  -2  -6    3.50    0.40
   3   2   6    2.94    0.22
   3   2   6    4.16    0.45
   3  -2  -6    3.87    0.31
   3  -2   6    2.77    0.42
   3  -2   6    2.87    0.33
   3   2  -6    3.53    0.39
  -3   2   6    3.81    0.29
   3   2  -6    3.73    0.52
  -3  -2  -6    4.00    0.39
   3   2  -6    3.23    0.41
  -3  -3   6   14.78    0.86
   3  -3  -6   15.03    0.77
  -3   3  -6   14.67    0.96
   3  -3  -6   16.47    0.91
  -3  -3   6   15.16    0.85
   3   3   6   16.20    0.71
   3   3   6   14.79    0.89
   3  -3   6   14.73    0.96
   3   3  -6   13.22    1.08
   3  -3   6   15.47    0.84
  -3  -3  -6   15.52    0.88
   3   3  -6   14.38    0.88
  -3   3   6   17.42    0.78
   3   3  -6   15.03    0.88
   3   4   6    1.08    0.17
  -3  -4   6    1.22    0.31
   3  -4  -6    1.17    0.23
  -3   4  -6    1.02    0.39
  -3  -4   6    1.65    0.31
   3  -4  -6    1.92    0.36
   3   4   6    1.57    0.38
  -3  -4  -6    1.39    0.18
  -3   4   6    1.24    0.23
   3  -4   6    1.08    0.29
   3   4  -6    1.38    0.54
   3  -4   6    0.94    0.39
   3   4  -6    1.69    0.35
   3   4  -6    0.73    0.30
  -3  -4  -6    1.51    0.36
   3   5   6    9.47    0.77
  -3  -5   6    8.35    0.70
  -3   5  -6    8.28    0.81
  -3  -5   6    8.18    0.61
   3  -5  -6    9.47    0.59
   3  -5  -6    8.69    0.71
   3  -5   6    7.30    0.81
  -3  -5  -6    8.10    0.72
   3   5  -6    8.15    0.72
  -3   5   6    7.72    0.56
   3   5  -6    8.10    0.92
   3  -5   6    7.63    0.66
  -3  -5  -6    8.89    0.51
   3  -6  -6    0.01    0.24
   3   6   6   -0.57    0.30
   3  -6  -6    0.25    0.34
  -3  -6   6   -0.05    0.33
  -3  -6   6    0.44    0.30
  -3   6  -6   -0.47    0.38
  -3  -6  -6    0.05    0.20
   3  -6   6   -0.37    0.29
  -3  -6  -6    0.11    0.38
  -3   6   6    0.25    0.25
   3   6  -6    0.26    0.35
   3   6  -6    0.23    0.57
   3   7   6   20.18    1.27
   3  -7  -6   21.20    1.21
  -3  -7   6   20.80    1.24
  -3  -7   6   19.83    1.09
  -3   7  -6   19.88    1.34
   3  -7  -6   19.04    1.11
   3   7  -6   19.26    1.25
   3   7  -6   18.61    1.48
   3  -7   6   18.91    1.20
  -3  -7  -6   19.20    1.22
  -3   7   6   19.77    1.14
   3  -8  -6    0.13    0.42
  -3   8  -6    0.04    0.50
  -3  -8   6   -0.07    0.47
   3   8   6   -0.45    0.47
  -3  -8   6    0.65    0.38
   3  -8  -6   -0.03    0.35
   3  -8   6    0.32    0.42
  -3  -8  -6    0.21    0.45
   3   8  -6   -0.04    0.61
  -3  -9   6    7.17    0.85
   3   9   6    6.09    0.88
   3  -9  -6    8.17    0.82
  -3   9  -6    5.57    0.88
   3  -9   6    6.98    0.82
  -3  -9  -6    8.99    0.95
   3   9  -6    6.83    1.08
  -3 -10   6    0.02    0.55
   3  10   6    0.06    0.61
   3 -10  -6   -0.11    0.53
  -3  10  -6    0.29    0.74
  -3 -10  -6    0.51    0.59
   3 -10   6    0.57    0.54
   3  10  -6   -0.66    0.72
  -3  11  -6    7.47    1.09
   3 -11  -6    8.96    0.96
   3  11   6    6.41    1.04
  -3 -11   6    9.73    1.12
   3 -11   6    7.93    0.98
   3  11  -6   10.01    1.40
  -3 -11  -6    8.37    1.01
  -3  12  -6    1.50    0.91
   3  12   6    0.05    0.81
   3 -12  -6    0.66    0.73
  -3 -12   6    1.48    0.84
   3 -12   6   -0.44    0.67
   3  12  -6    0.43    1.08
  -3 -12  -6    0.96    0.72
   4   0   6   55.74    2.36
   4   0  -6   55.58    2.50
   4   0  -6   53.93    2.40
  -4   0   6   58.24    2.40
  -4   0  -6   52.80    2.37
   4   0  -6   55.71    2.41
   4   0   6   52.12    2.49
  -4   1  -6   12.18    0.61
   4   1   6   12.27    0.77
   4  -1  -6   11.00    0.76
   4   1   6   12.04    0.61
   4  -1  -6   11.85    0.66
  -4  -1  -6   12.99    0.70
   4   1  -6   13.01    0.80
   4  -1   6   12.17    0.67
   4   1  -6   12.69    0.78
   4  -1   6   10.56    0.76
   4   1  -6   11.73    0.71
  -4   1   6   13.24    0.63
   4  -2  -6   36.21    1.76
   4   2   6   35.87    1.77
   4   2   6   35.34    1.59
  -4   2  -6   37.81    1.81
   4  -2  -6   36.72    1.66
  -4  -2  -6   36.80    1.72
   4   2  -6   35.68    1.78
   4  -2   6   38.23    1.70
   4   2  -6   36.82    1.88
   4  -2   6   38.02    1.81
   4   2  -6   36.80    1.73
  -4   2   6   37.06    1.59
   4  -3  -6    1.47    0.35
  -4   3  -6    1.17    0.36
   4   3   6    1.83    0.21
  -4  -3   6    1.39    0.34
   4  -3  -6    1.24    0.24
   4   3   6    1.22    0.34
  -4   3   6    1.68    0.19
   4   3  -6    1.65    0.36
   4   3  -6    0.97    0.50
  -4  -3  -6    1.21    0.34
   4   3  -6    1.53    0.33
   4  -3   6    1.20    0.29
   4  -3   6    1.30    0.37
   4  -4  -6   32.20    1.64
   4  -4  -6   31.80    1.52
  -4  -4   6   32.71    1.61
   4   4   6   33.21    1.67
  -4  -4   6   34.74    1.61
  -4   4  -6   32.83    1.71
   4   4   6   33.04    1.46
  -4  -4  -6   33.79    1.63
  -4  -4  -6   32.56    1.47
   4  -4   6   31.14    1.58
   4   4  -6   31.99    1.63
   4   4  -6   33.05    1.88
  -4   4   6   32.85    1.46
   4   4  -6   33.44    1.64
   4  -4   6   31.95    1.71
  -4  -5   6   20.83    1.17
   4   5   6   20.62    1.01
   4   5   6   19.59    1.21
  -4   5  -6   20.41    1.26
   4  -5  -6   21.16    1.19
  -4  -5   6   22.17    1.15
   4  -5  -6   22.29    1.10
   4   5  -6   22.05    1.19
   4  -5   6   20.44    1.17
  -4  -5  -6   19.91    1.19
  -4   5   6   19.97    1.03
  -4  -5  -6   20.92    1.02
   4   5  -6   21.23    1.20
   4   5  -6   20.67    1.43
   4  -5   6   19.58    1.31
   4   6   6   12.23    0.97
   4   6   6   13.35    0.74
  -4  -6   6   14.81    0.94
   4  -6  -6   12.87    0.83
   4  -6  -6   13.51    0.93
  -4   6  -6   14.42    1.04
  -4  -6   6   13.13    0.86
   4   6  -6   15.32    1.35
   4  -6   6   11.53    0.88
   4  -6   6   13.06    1.06
   4   6  -6   13.06    0.96
  -4  -6  -6   13.16    0.76
  -4  -6  -6   12.93    0.94
  -4   7  -6    0.38    0.50
   4   7   6    0.18    0.44
  -4  -7   6    0.24    0.35
  -4  -7   6    0.40    0.40
   4  -7  -6    0.02    0.30
   4  -7  -6    0.22    0.38
   4  -7   6   -0.30    0.36
   4   7  -6    0.02    0.38
  -4  -7  -6   -0.78    0.37
   4   7  -6    0.07    0.57
  -4  -8   6    8.80    0.90
   4   8   6    8.81    0.94
  -4  -8   6    8.94    0.78
  -4   8  -6    9.82    0.97
   4  -8  -6    8.29    0.82
   4  -8  -6    9.40    0.78
  -4  -8  -6    9.16    0.90
   4  -8   6    8.37    0.84
   4   8  -6    9.36    0.95
   4   8  -6    8.58    1.14
  -4  -9   6   15.42    1.21
   4  -9  -6   15.97    1.19
  -4   9  -6   15.21    1.26
  -4  -9   6   18.20    1.55
   4   9   6   15.69    1.38
  -4  -9  -6   16.72    1.22
   4  -9   6   14.58    1.15
   4   9  -6   12.03    1.42
   4 -10  -6    0.99    0.56
   4  10   6    1.91    0.78
  -4  10  -6    1.29    0.73
  -4 -10   6    2.51    0.67
   4 -10   6    1.14    0.62
  -4 -10  -6    1.01    0.64
   4  10  -6    2.25    0.94
   4 -11  -6   -0.03    0.58
  -4 -11   6    0.54    0.72
  -4  11  -6   -0.04    0.72
   4  11   6    0.75    0.81
   4 -11   6   -0.45    0.58
   4  11  -6   -0.37    0.86
  -4 -11  -6    0.26    0.67
   5   0   6   25.22    1.22
  -5   0   6   28.08    1.22
   5   0  -6   27.76    1.29
  -5   0  -6   25.30    1.23
   5   0   6   25.81    1.34
   5   0  -6   24.98    1.37
   5   0  -6   24.48    1.23
   5  -1  -6    5.07    0.57
   5   1   6    5.96    0.42
  -5   1  -6    5.59    0.40
   5   1   6    6.32    0.59
   5  -1  -6    6.13    0.48
   5  -1   6    5.19    0.54
   5   1  -6    5.92    0.51
   5   1  -6    5.95    0.58
  -5   1   6    6.12    0.36
  -5  -1  -6    7.03    0.53
   5  -1   6    6.71    0.47
   5   1  -6    5.03    0.57
   5   2   6   33.59    1.69
   5   2   6   35.60    1.51
  -5   2  -6   32.19    1.45
  -5   2  -6   32.13    1.45
   5  -2  -6   34.33    1.68
   5  -2  -6   34.95    1.58
   5   2  -6   30.14    1.61
   5   2  -6   34.06    1.73
   5  -2   6   34.27    1.60
  -5  -2  -6   34.43    1.63
  -5   2   6   34.59    1.44
   5   2  -6   35.54    1.80
   5  -2   6   34.28    1.70
   5   3   6   26.89    1.20
  -5   3  -6   25.94    1.39
   5  -3  -6   26.64    1.38
   5   3   6   24.61    1.39
   5  -3  -6   26.12    1.26
  -5  -3   6   24.98    1.35
   5  -3   6   26.59    1.32
   5   3  -6   24.52    1.33
   5   3  -6   24.84    1.39
   5   3  -6   27.03    1.57
  -5  -3  -6   25.31    1.34
   5  -3   6   25.76    1.43
  -5  -4   6   20.70    1.17
   5   4   6   20.39    1.22
  -5   4  -6   20.67    1.23
   5  -4  -6   21.20    1.18
   5  -4  -6   21.41    1.09
   5   4   6   20.06    1.02
  -5  -4   6   19.85    1.14
   5   4  -6   18.69    1.15
   5  -4   6   22.47    1.17
   5   4  -6   21.17    1.44
   5  -4   6   20.03    1.23
   5   4  -6   22.58    1.26
  -5  -4  -6   22.25    1.20
   5   5   6   -0.19    0.32
   5   5   6    0.19    0.22
   5  -5  -6    0.05    0.24
   5  -5  -6    0.38    0.34
  -5  -5   6   -0.32    0.28
  -5  -5   6    0.15    0.32
  -5   5  -6    0.45    0.37
   5   5  -6    0.37    0.36
   5   5  -6    0.61    0.43
  -5  -5  -6   -0.06    0.22
   5   5  -6   -0.73    0.51
   5  -5   6   -0.19    0.35
   5  -5   6    0.19    0.30
  -5  -5  -6    0.43    0.39
  -5   6  -6   24.11    1.40
  -5  -6   6   20.63    1.26
   5   6   6   24.18    1.45
   5   6   6   23.59    1.17
  -5  -6   6   23.37    1.35
   5  -6  -6   22.88    1.32
   5  -6  -6   24.22    1.25
   5  -6   6   24.52    1.34
  -5  -6  -6   21.52    1.32
   5  -6   6   19.45    1.37
   5   6  -6   24.56    1.63
  -5  -6  -6   20.96    1.20
   5   6  -6   24.67    1.40
  -5   7  -6   26.70    1.57
  -5  -7   6   24.42    1.36
   5  -7  -6   25.69    1.37
   5  -7  -6   23.75    1.42
  -5  -7   6   23.92    1.46
   5   7   6   24.50    1.53
  -5  -7  -6   27.46    1.50
   5  -7   6   23.86    1.42
   5   7  -6   23.42    1.51
   5   7  -6   24.27    1.75
   5  -7   6   24.65    1.59
  -5   8  -6    8.54    0.94
  -5  -8   6   10.32    0.95
   5   8   6    8.95    1.05
  -5  -8   6    9.22    0.82
   5  -8  -6   10.84    0.96
   5  -8  -6    9.05    0.83
   5  -8   6    9.88    1.07
  -5  -8  -6    9.90    0.94
   5   8  -6    9.40    1.23
   5   8  -6   10.29    0.98
   5  -8   6   12.71    1.01
  -5  -9   6   -0.88    0.46
   5   9   6   -0.14    0.56
   5  -9  -6    0.01    0.48
  -5  -9   6    0.90    0.51
  -5   9  -6   -0.29    0.58
   5  -9   6   -0.29    0.63
  -5  -9  -6   -0.69    0.54
   5  -9   6    0.75    0.50
   5   9  -6   -0.40    0.75
   5   9  -6    0.15    0.54
  -5  10  -6    8.56    1.06
   5 -10  -6    9.12    0.94
   5  10   6    5.74    1.05
  -5 -10   6    8.46    1.00
  -5 -10  -6    8.16    1.02
   5  10  -6    9.02    1.40
   5 -10   6    7.15    0.93
   5 -11  -6   10.58    1.10
   5  11   6    7.42    1.14
  -5 -11   6   11.90    1.20
  -5  11  -6    8.63    1.12
   5  11  -6    8.82    1.41
  -5 -11  -6    9.10    1.14
   5 -11   6    9.83    1.11
  -6   0   6   76.87    3.18
  -6   0  -6   73.60    3.22
   6   0  -6   72.22    3.27
   6   0   6   75.59    3.35
   6   0   6   76.32    3.22
   6   0  -6   71.24    3.19
   6   0  -6   74.91    3.39
   6  -1  -6    4.63    0.48
   6  -1  -6    4.96    0.59
   6   1   6    4.36    0.40
   6   1   6    5.00    0.55
  -6   1  -6    4.71    0.40
  -6  -1  -6    5.34    0.50
   6  -1   6    5.55    0.59
  -6   1   6    4.35    0.31
   6  -1   6    5.47    0.48
   6   1  -6    4.99    0.51
   6   1  -6    4.76    0.60
   6   1  -6    4.11    0.52
   6  -2  -6  129.62    5.60
   6   2   6  130.83    5.70
   6  -2  -6  140.15    5.74
   6   2   6  129.09    5.53
   6  -2   6  126.74    5.68
   6  -2   6  132.40    5.61
   6   2  -6  130.18    5.75
  -6  -2  -6  133.58    5.64
   6   2  -6  132.15    5.66
   6   2  -6  134.36    5.79
   6   3   6    1.91    0.29
   6  -3  -6    2.77    0.38
  -6  -3   6    2.08    0.43
   6  -3  -6    2.30    0.47
   6   3   6    1.54    0.42
   6   3  -6    1.91    0.53
   6  -3   6    2.32    0.45
  -6  -3  -6    1.65    0.41
   6   3  -6    1.37    0.46
   6  -3   6    1.98    0.40
   6   3  -6    1.80    0.39
   6   4   6   24.28    1.36
   6   4   6   22.24    1.14
   6  -4  -6   23.51    1.22
  -6   4  -6   21.62    1.29
   6  -4  -6   23.63    1.31
  -6  -4   6   22.13    1.28
   6   4  -6   24.11    1.31
   6  -4   6   22.84    1.26
   6   4  -6   24.31    1.37
   6   4  -6   23.46    1.55
  -6  -4  -6   22.72    1.30
   6  -4   6   21.59    1.32
   6   5   6    5.96    0.52
  -6  -5   6    5.48    0.64
   6   5   6    5.10    0.71
  -6  -5   6    6.35    0.68
  -6   5  -6    5.85    0.71
   6  -5  -6    5.90    0.67
   6  -5  -6    5.89    0.59
   6  -5   6    6.96    0.69
   6   5  -6    5.45    0.86
   6   5  -6    5.27    0.67
   6  -5   6    6.33    0.74
   6   5  -6    4.71    0.66
  -6  -5  -6    6.89    0.72
  -6   6  -6   22.24    1.41
   6  -6  -6   24.56    1.37
   6   6   6   21.45    1.44
  -6  -6   6   23.76    1.34
  -6  -6   6   23.95    1.36
   6  -6  -6   24.83    1.32
   6  -6   6   20.96    1.35
   6   6  -6   24.02    1.40
  -6  -6  -6   24.76    1.42
   6   6  -6   25.51    1.76
   6  -6   6   23.05    1.44
  -6   7  -6    0.89    0.51
  -6  -7   6    0.31    0.42
   6   7   6    0.90    0.54
   6  -7  -6    0.83    0.46
  -6  -7   6    0.89    0.43
   6  -7  -6    0.09    0.36
   6  -7   6    0.98    0.56
  -6  -7  -6    0.43    0.50
   6   7  -6    0.08    0.46
   6  -7   6    0.25    0.41
   6   7  -6    0.86    0.70
   6   8   6    0.64    0.59
   6  -8  -6    1.64    0.52
  -6   8  -6    0.78    0.51
  -6  -8   6    0.64    0.49
  -6  -8   6    1.26    0.52
   6  -8  -6    0.59    0.45
  -6  -8  -6    1.06    0.58
   6   8  -6    1.64    0.58
   6  -8   6    0.08    0.50
   6   8  -6    0.79    0.76
   6  -8   6    1.04    0.51
  -6  -9   6    3.99    0.73
   6  -9  -6    3.47    0.73
  -6  -9   6    3.52    0.66
  -6   9  -6    2.59    0.64
   6   9   6    2.61    0.78
  -6  -9  -6    4.23    0.82
   6   9  -6    3.28    1.02
   6  -9   6    3.62    0.73
   6  -9   6    3.10    0.73
   6   9  -6    2.77    0.69
   6 -10  -6    0.43    0.60
   6  10   6   -0.73    0.67
  -6  10  -6    0.34    0.63
  -6 -10   6   -0.12    0.65
  -6 -10   6    0.03    0.52
  -6 -10  -6    0.93    0.70
   6 -10   6    1.02    0.74
   6  10  -6   -0.69    0.88
   6 -10   6   -0.14    0.55
   6 -11  -6    0.19    0.69
  -6  11  -6    0.50    0.73
  -6 -11   6    1.38    0.79
   6  11   6    0.74    0.91
   6  11  -6    0.75    1.02
  -6 -11  -6    0.75    0.79
   6 -11   6   -0.05    0.79
   6 -11   6    0.13    0.72
   7   0  -6   38.70    1.90
   7   0  -6   41.81    2.06
  -7   0  -6   40.42    1.84
   7   0   6   38.50    1.94
   7   0   6   38.95    1.84
   7  -1  -6    1.46    0.47
   7   1   6    1.89    0.47
  -7   1  -6    1.30    0.29
   7  -1  -6    1.96    0.36
   7   1   6    1.79    0.31
   7  -1   6    1.44    0.31
  -7  -1  -6    1.39    0.37
   7   1  -6    1.76    0.38
   7   1  -6    1.69    0.40
   7  -1   6    2.16    0.42
   7   1  -6    1.91    0.51
   7  -2  -6   11.97    0.92
   7   2   6   12.00    0.90
  -7  -2   6   11.34    0.95
   7  -2  -6   11.77    0.81
   7   2   6   11.92    0.71
  -7  -2  -6   12.55    0.86
   7   2  -6   10.32    0.96
   7   2  -6   11.67    0.83
   7   2  -6   12.09    1.01
   7  -2   6   11.15    0.84
   7  -2   6   12.29    0.78
   7  -3  -6    3.06    0.45
   7   3   6    3.15    0.37
   7   3   6    2.93    0.52
   7  -3  -6    2.33    0.51
  -7  -3   6    3.60    0.54
   7   3  -6    2.34    0.60
  -7  -3  -6    3.01    0.51
   7   3  -6    2.57    0.51
   7  -3   6    2.46    0.48
   7   3  -6    3.02    0.60
   7  -3   6    3.13    0.44
   7  -4  -6   31.32    1.65
   7   4   6   29.89    1.68
  -7  -4   6   32.15    1.64
   7   4   6   30.13    1.49
   7  -4  -6   29.94    1.55
   7   4  -6   30.43    1.72
   7   4  -6   35.46    1.94
   7  -4   6   27.94    1.56
  -7  -4  -6   31.49    1.65
   7  -4   6   28.71    1.65
   7   4  -6   32.31    1.65
   7  -5  -6   11.77    0.85
   7  -5  -6   10.48    0.94
  -7   5  -6   11.23    0.94
   7   5   6   11.85    0.78
   7   5   6   11.27    1.04
  -7  -5   6   11.91    0.97
   7  -5   6   11.29    1.00
   7   5  -6    9.79    1.15
  -7  -5  -6   10.82    0.94
   7   5  -6   10.92    0.96
   7   5  -6   10.57    0.99
   7  -5   6   11.82    0.91
   7   6   6    9.15    0.97
   7  -6  -6    8.91    0.83
  -7   6  -6    8.18    0.83
  -7  -6   6    6.95    0.76
   7  -6  -6    8.61    0.77
  -7  -6   6    7.47    0.78
   7  -6   6    9.20    0.84
   7  -6   6    5.87    0.76
   7   6  -6    7.20    0.99
  -7  -6  -6    5.98    0.79
   7   6  -6    6.79    0.78
  -7  -7   6    6.52    0.77
  -7   7  -6    5.59    0.76
   7  -7  -6    6.10    0.70
  -7  -7   6    7.41    0.83
   7  -7  -6    5.90    0.78
   7   7   6    6.13    0.85
   7   7  -6    7.54    0.86
   7  -7   6    4.63    0.73
   7   7  -6    5.32    0.97
  -7  -7  -6    6.32    0.83
   7  -7   6    4.57    0.66
   7  -8  -6   13.27    1.09
  -7  -8   6   13.68    1.16
   7  -8  -6   14.73    1.09
  -7   8  -6   12.41    1.10
   7   8   6   13.02    1.27
  -7  -8   6   13.56    1.11
   7  -8   6   12.25    1.09
   7  -8   6   13.92    1.12
  -7  -8  -6   14.74    1.24
   7   8  -6   14.46    1.21
   7   8  -6   16.19    1.64
  -7  -9   6    6.09    0.78
  -7   9  -6    5.97    0.81
   7   9   6    7.25    1.05
  -7  -9   6    4.89    0.78
   7  -9  -6    6.29    0.83
   7   9  -6    7.93    0.95
   7  -9   6    6.22    0.83
   7   9  -6    8.13    1.29
   7  -9   6    6.84    0.92
  -7  -9  -6    6.88    0.96
   7  10   6    1.82    0.85
  -7  10  -6    0.87    0.67
  -7 -10   6    1.57    0.66
   7 -10  -6    1.43    0.71
  -7 -10   6    1.29    0.66
   7 -10   6    0.75    0.63
   7  10  -6    2.70    1.07
  -7 -10  -6    1.54    0.78
   7  10  -6    1.50    0.69
   7 -10   6    1.42    0.77
   8   0   6    4.54    0.48
  -8   0  -6    4.89    0.51
   8   0  -6    4.83    0.71
   8   0   6    4.38    0.58
   8   0  -6    4.38    0.54
   8   1   6    0.76    0.30
   8   1   6    1.07    0.45
   8  -1  -6    0.64    0.37
   8  -1  -6    0.45    0.46
  -8   1  -6    0.18    0.27
   8   1  -6    0.60    0.38
   8  -1   6    0.69    0.32
   8  -1   6   -0.15    0.37
   8   1  -6    0.10    0.48
  -8  -1  -6    0.72    0.36
   8   2   6   45.73    2.00
  -8  -2   6   43.17    2.19
   8  -2  -6   40.48    2.04
   8   2   6   45.19    2.18
   8  -2  -6   43.40    2.21
   8  -2   6   43.01    2.05
   8   2  -6   44.67    2.27
   8   2  -6   40.90    2.09
   8   2  -6   43.49    2.22
  -8  -2  -6   38.44    2.05
   8  -2   6   42.06    2.11
   8  -3  -6    1.39    0.49
  -8  -3   6    1.04    0.46
   8   3   6    1.38    0.34
   8   3   6    1.17    0.51
   8  -3  -6    0.69    0.38
   8   3  -6    1.68    0.60
  -8  -3  -6    0.99    0.48
   8  -3   6    1.70    0.43
   8   3  -6    0.72    0.55
   8  -3   6    0.68    0.42
   8   3  -6    1.56    0.45
   8  -4  -6    1.74    0.45
   8  -4  -6    3.26    0.60
   8   4   6    2.46    0.42
   8   4   6    2.20    0.54
  -8  -4   6    3.79    0.59
   8  -4   6    3.48    0.58
   8   4  -6    3.47    0.77
  -8  -4  -6    2.74    0.55
   8   4  -6    3.03    0.67
   8   4  -6    2.14    0.54
   8  -4   6    3.05    0.54
   8  -5  -6    4.59    0.58
   8   5   6    4.98    0.54
   8  -5  -6    4.33    0.67
   8   5   6    3.12    0.65
  -8  -5   6    4.70    0.66
   8  -5   6    3.96    0.58
   8   5  -6    4.96    0.76
   8   5  -6    4.78    0.72
   8   5  -6    2.95    0.84
  -8  -5  -6    4.54    0.70
   8  -5   6    3.65    0.62
   8   6   6   23.96    1.56
   8  -6  -6   20.43    1.33
  -8  -6   6   23.13    1.37
  -8   6  -6   21.60    1.35
  -8  -6   6   19.86    1.32
   8  -6  -6   23.75    1.45
   8   6  -6   22.04    1.40
   8  -6   6   23.06    1.37
   8  -6   6   18.45    1.30
  -8  -6  -6   21.70    1.43
   8   6  -6   24.04    1.70
   8   7   6    3.95    0.80
  -8  -7   6    3.89    0.72
  -8   7  -6    3.29    0.59
  -8  -7   6    3.24    0.67
   8  -7  -6    3.51    0.65
   8  -7  -6    3.97    0.68
   8   7  -6    4.06    0.75
  -8  -7  -6    5.69    0.84
   8   7  -6    4.11    0.97
   8  -7   6    3.56    0.67
   8  -7   6    4.97    0.69
   8  -8  -6   -0.08    0.50
   8   8   6   -0.78    0.61
  -8  -8   6    0.84    0.53
  -8   8  -6    0.39    0.51
  -8  -8   6    0.57    0.58
   8  -8  -6    0.74    0.54
   8  -8   6    0.72    0.58
   8   8  -6   -0.81    0.49
   8   8  -6    0.58    0.84
  -8  -8  -6    0.54    0.66
   8  -8   6   -0.69    0.51
  -8  -9   6    5.74    0.81
   8  -9  -6    4.58    0.77
   8   9   6    3.58    0.99
  -8  -9   6    3.64    0.77
  -8  -9  -6    2.94    0.82
   8  -9   6    4.63    0.78
   8   9  -6    4.36    0.83
   8   9  -6    3.37    1.11
  -8 -10   6    6.50    0.95
  -8 -10   6    6.25    0.99
   8  10   6    5.48    1.11
   8 -10  -6    6.50    0.97
  -8 -10  -6    7.39    1.11
   8  10  -6    6.32    1.43
   8  10  -6    7.65    1.07
   8 -10   6    6.73    0.97
   9   0   6    1.97    0.53
   9   0  -6    1.78    0.61
   9   0  -6    1.92    0.46
  -9   0  -6    1.20    0.42
   9   0   6    1.60    0.40
   9  -1  -6    0.10    0.34
  -9  -1   6    0.26    0.51
   9  -1  -6   -0.30    0.51
   9   1   6    0.32    0.33
   9   1   6    0.29    0.43
   9  -1   6    0.99    0.43
  -9  -1  -6    0.38    0.39
   9   1  -6    0.49    0.56
   9   1  -6    0.38    0.41
   9  -1   6    0.16    0.30
   9  -2  -6    4.22    0.60
  -9  -2   6    5.48    0.74
   9   2   6    4.35    0.65
   9  -2  -6    5.22    0.74
   9   2   6    4.18    0.50
   9  -2   6    4.25    0.58
   9  -2   6    5.32    0.62
   9   2  -6    3.49    0.61
  -9  -2  -6    3.70    0.61
   9   2  -6    4.74    0.78
   9  -3  -6   11.63    1.09
   9   3   6   11.49    0.82
   9  -3  -6   12.10    0.95
  -9  -3   6   11.91    1.04
   9   3   6   12.64    1.01
   9   3  -6   10.58    1.09
   9   3  -6   10.83    0.97
   9  -3   6   11.19    0.97
   9   3  -6   10.57    1.09
  -9  -3  -6   13.41    0.99
   9  -3   6   11.88    0.93
   9  -4  -6    0.13    0.51
   9  -4  -6    0.45    0.44
   9   4   6    0.55    0.38
   9   4   6    0.47    0.51
  -9  -4   6    1.63    0.53
   9  -4   6    0.94    0.46
   9   4  -6    1.14    0.67
  -9  -4  -6    0.83    0.52
   9   4  -6    0.71    0.45
   9   4  -6    0.40    0.56
   9  -4   6    0.37    0.44
   9  -5  -6    3.72    0.68
  -9  -5   6    4.00    0.68
   9   5   6    3.96    0.72
   9  -5  -6    3.72    0.63
   9   5   6    3.85    0.55
   9   5  -6    3.15    0.76
   9   5  -6    2.38    0.82
   9  -5   6    3.21    0.61
   9   5  -6    2.26    0.59
   9  -5   6    2.31    0.53
  -9  -5  -6    3.53    0.71
   9  -6  -6    1.88    0.55
   9  -6  -6    0.65    0.56
   9   6   6    1.64    0.66
  -9  -6   6    0.56    0.54
   9  -6   6    0.69    0.50
   9  -6   6    1.39    0.50
   9   6  -6    2.59    0.93
  -9  -6  -6    1.69    0.65
   9   6  -6    0.97    0.59
  -9  -7   6   14.60    1.20
  -9  -7   6   15.69    1.18
   9   7   6   16.56    1.45
  -9   7  -6   17.37    1.16
   9  -7  -6   15.27    1.19
   9  -7  -6   16.09    1.22
   9  -7   6   12.39    1.15
   9   7  -6   17.47    1.67
   9   7  -6   13.69    1.24
  -9  -7  -6   16.03    1.40
   9  -7   6   14.64    1.16
   9   8   6   -0.44    0.74
  -9  -8   6   -0.66    0.60
  -9  -8   6   -0.17    0.51
   9  -8  -6    0.93    0.63
   9  -8  -6    0.29    0.56
   9   8  -6   -0.23    0.55
   9  -8   6    0.34    0.54
   9   8  -6    0.88    1.00
  -9  -8  -6   -0.40    0.70
   9  -9  -6    4.39    0.77
  -9  -9   6    3.48    0.81
  -9  -9   6    2.24    0.78
   9   9   6    5.36    1.10
   9  -9   6    3.63    0.75
   9   9  -6    5.08    1.31
   9   9  -6    3.01    0.87
  -9  -9  -6    3.43    0.91
 -10   0  -6    1.17    0.46
  10   0  -6    1.48    0.49
  10   0  -6    1.39    0.68
  10   0   6    1.67    0.43
  10   0   6    1.31    0.52
  10   1   6   -0.26    0.45
 -10  -1   6    0.72    0.55
  10  -1  -6    0.32    0.41
  10   1   6    0.43    0.37
  10  -1  -6    0.99    0.60
  10   1  -6    1.25    0.51
  10  -1   6    0.49    0.40
  10   1  -6    0.22    0.63
 -10  -1  -6    0.35    0.41
  10  -1   6    0.75    0.48
  10   2   6    9.57    0.95
  10   2   6    8.30    0.74
  10  -2  -6   10.01    0.89
 -10  -2   6    7.29    0.88
  10  -2  -6    7.40    0.97
  10  -2   6    8.15    0.83
  10   2  -6    9.75    0.92
  10   2  -6    8.59    1.04
 -10  -2  -6    8.13    0.87
  10  -2   6    9.19    0.84
  10  -3  -6   11.45    0.93
  10   3   6    8.65    0.95
 -10  -3   6    8.47    0.95
  10  -3  -6    9.50    1.02
  10   3   6    8.93    0.77
 -10  -3  -6   10.05    0.98
  10   3  -6   11.32    1.15
  10   3  -6   10.18    0.99
  10  -3   6    8.68    0.87
  10  -3   6   10.47    0.88
  10   4   6    6.64    0.90
  10  -4  -6    6.61    0.76
  10   4   6    6.79    0.69
 -10  -4   6    6.08    0.81
  10  -4  -6    5.29    0.89
  10  -4   6    5.92    0.76
  10   4  -6    5.99    0.84
 -10  -4  -6    5.50    0.79
  10  -4   6    5.06    0.71
  10   4  -6    4.99    0.90
  10  -5  -6   10.61    1.04
  10  -5  -6    9.44    0.92
  10   5   6   11.81    1.17
 -10  -5   6   10.51    1.01
  10  -5   6    8.78    0.90
  10   5  -6    9.54    0.99
 -10  -5  -6   11.88    1.16
  10   5  -6    8.87    1.19
  10  -5   6    8.30    0.88
  10   5  -6    9.80    1.12
  10  -6  -6   -0.04    0.54
  10  -6  -6   -0.48    0.54
  10   6   6    0.44    0.70
 -10  -6   6   -0.37    0.60
  10  -6   6    0.93    0.57
  10   6  -6    0.54    0.84
  10   6  -6    1.08    0.64
 -10  -6  -6   -0.19    0.71
 -10  -7   6   13.84    1.23
  10  -7  -6   15.56    1.33
 -10  -7   6   14.91    1.26
  10   7   6   12.79    1.35
  10  -7  -6   17.77    1.25
  10   7  -6   15.30    1.33
  10  -7   6   16.81    1.33
  10   7  -6   14.48    1.65
 -10  -7  -6   16.30    1.46
  10  -8  -6   10.91    1.14
 -10  -8   6   15.66    1.30
  10   8   6   14.47    1.55
  10  -8  -6   16.01    1.39
 -10  -8   6   17.46    1.41
  10   8  -6   17.03    1.45
  10  -8   6   16.12    1.34
  10   8  -6   16.85    1.80
 -10  -8  -6   16.07    1.46
  10  -9  -6    5.87    0.95
  10   9   6    3.53    1.05
 -10  -9   6    4.75    0.88
 -10  -9   6    4.29    0.88
  10  -9   6    4.07    0.85
 -10  -9  -6    4.64    1.06
  10   9  -6    4.79    0.97
  10   9  -6    5.60    1.37
 -11   0   6    6.80    0.94
  11   0  -6    6.27    0.78
  11   0  -6    9.15    1.11
  11   0   6    8.46    0.87
  11   0   6    7.96    0.79
  11  -1  -6    3.25    0.67
  11   1   6    2.40    0.54
  11  -1  -6    4.01    0.86
 -11  -1   6    3.66    0.76
  11   1   6    4.58    0.75
 -11  -1  -6    3.02    0.63
  11  -1   6    3.73    0.61
  11   1  -6    4.48    0.74
  11  -1   6    5.44    0.74
  11   1  -6    3.56    0.89
  11  -2  -6    4.86    0.71
 -11  -2   6    5.42    0.82
  11   2   6    4.92    0.74
  11   2   6    6.37    0.69
  11  -2  -6    4.09    0.84
 -11  -2  -6    4.71    0.78
  11   2  -6    4.64    0.70
  11   2  -6    5.64    0.97
  11  -2   6    5.34    0.71
  11  -2   6    3.82    0.63
  11  -3  -6    3.74    0.70
  11   3   6    3.32    0.57
 -11  -3   6    3.31    0.73
  11  -3  -6    3.24    0.79
  11   3   6    3.17    0.70
  11  -3   6    3.09    0.64
  11  -3   6    2.36    0.58
 -11  -3  -6    1.83    0.63
  11   3  -6    3.52    0.70
  11   3  -6    2.40    0.80
  11  -4  -6   10.77    1.16
  11   4   6    9.72    1.06
 -11  -4   6    9.17    1.08
  11  -4  -6    9.75    0.95
  11   4   6    9.70    0.87
  11   4  -6    8.57    1.15
  11   4  -6   10.25    1.08
  11  -4   6   12.40    1.05
 -11  -4  -6    9.33    1.06
  11  -5  -6    4.83    0.88
 -11  -5   6    2.22    0.75
  11  -5  -6    4.19    0.76
  11   5   6    3.88    0.84
 -11  -5  -6    3.42    0.83
  11   5  -6    3.29    0.72
  11  -5   6    2.03    0.61
 -11  -6   6    5.42    0.87
  11  -6  -6    5.23    0.95
  11  -6  -6    5.19    0.83
  11   6   6    7.81    1.05
 -11  -6  -6    3.96    1.00
  11   6  -6    5.86    0.88
  11  -6   6    6.11    0.87
  11  -7  -6    0.52    0.64
  11   7   6    1.11    0.90
  11  -7  -6    1.03    0.69
 -11  -7   6    2.89    0.74
 -11  -7   6    3.61    0.76
  11  -7   6    2.18    0.66
  11   7  -6    2.04    0.71
  11   7  -6    1.99    1.02
 -11  -7  -6    3.53    0.94
 -11  -8   6    7.18    0.96
 -11  -8   6    7.19    1.00
  11  -8  -6    6.62    0.92
  11  -8  -6    6.50    1.04
  11   8   6   11.08    1.35
  11   8  -6    6.72    1.01
  11  -8   6    9.45    1.03
  11   8  -6    7.00    1.42
 -11  -8  -6    6.81    1.18
  12   0  -6    3.66    0.71
  12   0   6    4.50    0.71
 -12   0   6    4.63    0.87
  12   0  -6    3.80    0.96
  12   0   6    4.25    0.78
  12  -1  -6    0.56    0.77
  12  -1  -6    0.41    0.58
 -12  -1   6    0.05    0.64
  12   1   6    0.45    0.58
  12   1   6   -0.78    0.45
  12  -1   6    0.08    0.51
 -12   1   6   -0.34    0.60
  12   1  -6    0.60    0.76
 -12  -1  -6    0.88    0.59
  12   1  -6    1.03    0.55
  12  -1   6    0.58    0.47
  12   2   6   -0.11    0.57
  12  -2  -6    0.05    0.72
 -12  -2   6   -0.08    0.59
  12  -2  -6    1.17    0.58
  12   2   6    0.27    0.47
  12  -2   6   -0.11    0.51
  12  -2   6    0.03    0.51
 -12  -2  -6    0.26    0.55
  12   2  -6   -0.74    0.48
  12   2  -6   -0.66    0.73
 -12  -3   6    0.68    0.71
  12   3   6    0.47    0.48
  12  -3  -6    0.96    0.64
  12   3   6    0.61    0.60
  12  -3  -6    0.32    0.71
  12  -3   6    1.45    0.61
  12   3  -6   -0.17    0.78
  12   3  -6    1.07    0.68
 -12  -3  -6    1.75    0.73
  12   4   6    2.37    0.75
  12   4   6    2.14    0.80
  12  -4  -6    2.46    0.73
  12  -4  -6    1.24    0.76
 -12  -4   6    2.51    0.76
 -12  -4  -6    1.65    0.85
  12   4  -6    1.58    0.65
  12  -4   6    1.85    0.65
  12   4  -6    0.78    0.91
  12   5   6    0.03    0.68
  12  -5  -6   -0.81    0.62
  12  -5  -6    1.12    0.69
 -12  -5   6    0.31    0.67
 -12  -5  -6    0.75    0.88
  12  -5   6   -0.37    0.51
  12   5  -6    0.55    0.62
  12  -6  -6    0.95    0.70
 -12  -6   6    0.30    0.68
  12   6   6    0.01    0.82
  12  -6  -6    0.80    0.70
  12   6  -6   -0.07    0.64
 -12  -6  -6    0.23    0.90
  12  -6   6   -0.14    0.63
  12  -7  -6   -0.04    0.68
  12   7   6    0.80    0.94
 -12  -7   6    0.22    0.81
 -12  -7   6    0.64    0.67
  12  -7  -6    1.40    0.76
  12  -7   6    0.62    0.64
 -12  -7  -6    1.26    0.95
  12   7  -6    0.95    0.72
  13   0   6    6.31    0.92
  13   0  -6    5.14    0.85
  13   0   6    8.58    0.94
 -13   0   6    7.88    1.09
  13   0  -6    9.02    1.35
  13  -1  -6    1.24    0.69
  13   1   6    3.38    0.75
  13  -1  -6    0.88    0.86
 -13  -1   6    0.48    0.67
  13   1   6    0.43    0.50
 -13   1   6    1.26    0.76
  13   1  -6    0.91    0.88
  13   1  -6    1.13    0.70
  13  -1   6    2.18    0.66
  13  -2  -6    0.64    0.60
  13   2   6   -0.81    0.49
 -13  -2   6    1.42    0.85
  13   2   6    0.71    0.66
  13  -2  -6   -0.03    0.88
  13   2  -6    0.09    0.63
  13   2  -6    2.36    0.94
 -13  -2  -6   -0.18    0.59
  13  -2   6    0.65    0.60
  13   3   6    1.26    0.76
  13  -3  -6    0.39    0.61
  13  -3  -6   -1.24    0.81
 -13  -3   6    0.83    0.76
  13   3   6    0.47    0.54
  13  -3   6   -0.08    0.58
  13   3  -6   -0.64    0.84
  13   3  -6    0.63    0.72
 -13  -3  -6    0.23    0.77
  13  -4  -6    6.59    1.05
  13   4   6    8.71    1.20
 -13  -4   6    6.56    1.06
  13  -4  -6    6.72    1.10
  13   4  -6   10.39    1.17
  13   4  -6    9.58    1.36
 -13  -4  -6    8.90    1.14
  13  -4   6    6.19    0.88
  13  -5  -6    3.25    0.88
  13   5   6    3.18    0.99
  13  -5  -6    1.91    0.84
 -13  -5   6    2.66    0.87
  13   5  -6    2.66    0.85
  13  -5   6    0.86    0.64
 -13  -5  -6    4.09    1.01
  13  -6  -6    0.62    0.86
 -13  -6   6    1.33    0.89
  13   6   6    1.16    0.94
  13  -6  -6    0.41    0.69
  13   6  -6    1.56    0.82
  13  -6   6    0.80    0.72
 -13  -6  -6    1.53    0.93
  14   0  -6   -0.29    0.91
  14   0   6    0.22    0.63
  14   0  -6    0.23    0.70
 -14   0   6    1.34    0.80
  14  -1  -6    6.57    0.95
  14  -1  -6    7.78    1.27
 -14  -1   6    7.82    1.16
  14   1   6    7.01    0.93
  14   1  -6    4.35    1.26
  14  -1   6    5.25    0.84
  14   1  -6    5.73    0.96
 -14   1   6    7.26    1.04
  14  -2  -6    1.98    0.75
 -14  -2   6    0.77    0.78
  14  -2  -6    3.04    1.02
  14   2   6    2.41    0.71
  14   2   6    2.02    0.77
 -14   2   6    1.84    0.79
  14   2  -6    1.19    1.10
  14  -2   6    0.79    0.67
  14   2  -6    1.29    0.77
 -14  -3   6    2.45    0.86
  14  -3  -6   -0.20    0.84
  14  -3  -6    1.88    0.84
  14   3   6    1.17    0.73
  14  -3   6    1.63    0.67
  14   3  -6    1.42    0.75
  14   3  -6    0.63    1.08
 -14   3   6    0.73    0.75
 -14  -3  -6    1.77    0.88
  14  -4  -6    0.52    0.78
  14  -4  -6   -0.25    0.83
 -14  -4   6    0.66    0.92
  14   4   6    0.03    0.83
 -14  -4  -6    0.43    0.94
  14  -4   6   -0.32    0.66
  14   4  -6   -0.03    0.74
  15   0  -6    2.77    0.86
 -15   0   6    2.70    1.04
  15   0   6    3.77    0.86
  15   0  -6    3.03    1.24
 -15  -1   6    1.26    0.85
  15  -1  -6    1.36    1.12
  15   1   6    0.70    0.68
  15  -1  -6   -0.44    0.68
 -15   1   6   -0.15    0.85
  15   1  -6   -0.19    0.68
  15   1  -6    1.20    1.06
  15  -1   6    0.86    0.73
  15  -2  -6   -0.37    0.93
  15   2   6    0.29    0.69
 -15  -2   6   -0.99    0.79
  15  -2  -6    0.59    0.81
  15   2  -6    0.84    0.74
  15   2  -6    0.61    1.05
 -15   2   6    0.09    0.74
  15  -2   6   -0.40    0.60
   0   0  -7    0.08    0.18
   0   0   7    0.15    0.10
   0   0   7    0.05    0.19
   0   1  -7    2.02    0.25
   0   1   7    1.45    0.27
   0   1  -7    2.11    0.37
   0  -1   7    1.87    0.34
   0   1   7    1.71    0.12
   0  -1   7    1.35    0.20
   0  -1  -7    1.47    0.26
   0   2   7    0.13    0.19
   0   2  -7    0.14    0.16
   0  -2   7    0.55    0.29
   0   2  -7   -0.04    0.27
   0  -2  -7   -0.01    0.21
   0  -2   7   -0.01    0.16
   0   3  -7   10.98    0.86
   0  -3  -7   11.88    0.72
   0  -3   7    9.62    0.83
   0  -3   7   10.18    0.66
   0   3  -7   10.93    0.61
   0   3   7   11.12    0.68
   0   4  -7   -0.06    0.17
   0  -4  -7    0.16    0.26
   0  -4   7    0.01    0.14
   0  -4  -7    0.07    0.08
   0   4   7   -0.01    0.20
   0  -4   7    0.33    0.26
   0   4  -7    0.85    0.43
   0   5  -7   20.01    1.44
   0  -5  -7   23.26    1.25
   0  -5   7   24.16    1.09
   0   5   7   22.63    1.21
   0  -5   7   23.09    1.25
   0  -6   7   -0.28    0.29
   0   6   7    0.34    0.33
   0   6  -7    0.34    0.50
   0  -6  -7    0.37    0.34
   0  -7  -7   28.01    1.56
   0   7   7   32.42    1.61
   0  -7   7   29.10    1.60
   0   7  -7   26.90    1.80
   0   8   7    0.31    0.43
   0   8  -7    0.69    0.69
   0  -8  -7    0.70    0.46
   0  -8   7   -0.20    0.43
   0   9   7   32.15    1.89
   0  -9  -7   36.76    1.88
   0  -9   7   33.33    1.96
   0  10   7   -0.01    0.57
   0 -10   7   -0.07    0.61
   0 -10  -7    0.53    0.55
   0  10  -7    0.32    0.74
   0  11  -7   22.68    1.85
   0 -11  -7   21.50    1.59
   0 -11   7   22.21    1.68
   0  11   7   21.71    1.60
   0 -12   7   -0.27    0.79
   0  12  -7    0.60    0.88
   0 -12  -7    0.46    0.67
  -1   0   7   62.32    2.63
   1   0  -7   60.37    2.71
  -1   0  -7   61.20    2.68
   1   0   7   64.07    2.61
   1   0   7   61.96    2.78
  -1   0   7   63.44    2.76
   1   0  -7   60.79    2.63
   1   0  -7   63.38    2.77
  -1  -1   7    0.27    0.15
  -1  -1   7   -0.03    0.21
   1  -1  -7    0.52    0.23
  -1   1  -7    0.42    0.16
  -1   1  -7    0.10    0.25
   1  -1  -7    0.14    0.10
   1   1   7    0.14    0.21
   1   1  -7    0.19    0.15
  -1   1   7    0.22    0.10
   1  -1   7    0.27    0.14
   1   1  -7    0.34    0.25
   1  -1   7    0.19    0.25
  -1  -1  -7    0.51    0.23
  -1   1   7    0.33    0.20
   1   1  -7    0.51    0.20
  -1  -2   7   34.86    1.73
   1  -2  -7   35.65    1.65
   1   2   7   34.91    1.65
  -1  -2   7   34.99    1.58
   1  -2  -7   34.80    1.45
  -1   2  -7   33.50    1.73
  -1   2  -7   31.47    1.50
   1   2  -7   33.95    1.58
   1  -2   7   39.17    1.76
   1   2  -7   32.30    1.74
   1   2  -7   33.36    1.58
  -1  -2  -7   34.93    1.62
  -1   2   7   34.65    1.60
   1  -2   7   35.60    1.57
  -1   3  -7    3.74    0.54
  -1  -3   7    3.68    0.38
  -1   3  -7    3.80    0.29
   1   3   7    3.68    0.42
   1  -3  -7    3.45    0.44
   1  -3  -7    3.49    0.21
   1  -3   7    3.79    0.38
   1   3  -7    2.83    0.36
  -1   3   7    3.26    0.37
   1   3  -7    4.12    0.39
   1  -3   7    4.29    0.57
  -1  -3  -7    2.92    0.39
   1   3  -7    3.23    0.56
   1   4   7   35.35    1.76
  -1  -4   7   37.96    1.66
   1  -4  -7   37.39    1.79
   1  -4  -7   35.83    1.58
  -1  -4   7   38.76    1.77
  -1   4  -7   35.94    1.95
  -1   4   7   40.73    1.74
   1  -4   7   34.71    1.73
   1   4  -7   35.89    1.99
  -1  -4  -7   35.66    1.77
   1  -4   7   36.90    1.57
   1   4  -7   36.68    1.69
  -1  -5   7    4.48    0.51
   1   5   7    4.36    0.51
  -1  -5   7    4.92    0.40
   1  -5  -7    5.36    0.59
   1  -5  -7    4.82    0.36
  -1   5  -7    3.19    0.64
   1  -5   7    4.72    0.54
  -1  -5  -7    5.03    0.56
   1   5  -7    5.36    0.77
  -1   5   7    3.98    0.46
  -1   6  -7   13.02    1.16
   1   6   7   13.69    0.89
   1  -6  -7   11.84    0.87
  -1  -6   7   11.58    0.86
  -1   6   7   12.86    0.84
   1   6  -7   13.28    1.21
   1  -6   7   11.58    0.90
  -1  -6  -7   10.52    0.89
   1  -7  -7    4.79    0.62
  -1  -7   7    4.78    0.68
   1   7   7    6.06    0.69
  -1   7  -7    5.24    0.85
  -1  -7  -7    5.58    0.68
   1  -7   7    5.72    0.67
  -1   7   7    4.96    0.60
   1   7  -7    5.26    0.88
  -1  -8   7    9.85    0.93
  -1   8  -7    9.82    1.10
   1  -8  -7    9.52    0.88
   1   8   7    9.62    0.94
   1  -8   7    9.85    0.92
  -1   8   7   11.02    0.91
   1   8  -7    9.95    1.13
  -1  -8  -7   10.01    0.91
   1   9   7    2.39    0.59
   1  -9  -7    4.36    0.68
  -1  -9   7    2.40    0.63
  -1   9  -7    3.68    0.86
  -1   9   7    2.45    0.61
  -1  -9  -7    3.32    0.65
   1  -9   7    3.60    0.69
   1   9  -7    1.83    0.79
  -1 -10   7    2.97    0.77
   1  10   7    2.61    0.73
   1 -10  -7    2.77    0.68
  -1  10  -7    1.81    0.87
   1  10  -7    1.91    0.84
   1 -10   7    0.74    0.59
  -1 -10  -7    2.49    0.66
  -1  10   7    0.52    0.57
  -1  11  -7    1.83    0.85
  -1 -11   7    1.85    0.75
   1 -11  -7    2.32    0.79
   1  11   7    1.44    0.74
  -1 -11  -7    1.85    0.70
   1 -11   7    2.05    0.73
   1  11  -7    0.76    0.87
   2   0  -7  365.63   15.49
  -2   0  -7  376.94   15.43
   2   0  -7  362.77   15.49
   2   0   7  390.79   15.37
   2   0   7  376.19   15.54
  -2   0   7  385.43   15.50
   2   0  -7  365.73   15.41
   2   1   7    3.34    0.42
  -2  -1   7    3.78    0.33
  -2  -1   7    3.63    0.44
   2   1   7    2.67    0.17
  -2   1  -7    3.06    0.27
   2  -1  -7    3.08    0.25
   2  -1  -7    2.80    0.36
  -2   1  -7    2.28    0.39
   2  -1   7    2.94    0.44
   2  -1   7    2.42    0.26
   2   1  -7    3.29    0.44
   2   1  -7    3.41    0.33
   2   1  -7    2.66    0.35
  -2   1   7    3.03    0.33
  -2  -1  -7    2.75    0.32
   2  -2  -7   50.58    2.31
  -2  -2   7   50.68    2.25
   2  -2  -7   51.68    2.15
  -2   2  -7   49.59    2.40
  -2   2  -7   48.13    2.14
   2   2   7   53.46    2.34
   2  -2   7   52.50    2.24
   2   2  -7   49.64    2.42
  -2   2   7   51.76    2.23
   2   2  -7   49.77    2.28
   2  -2   7   48.75    2.38
   2   2  -7   49.86    2.26
  -2  -2  -7   52.90    2.28
  -2   3  -7   15.58    1.03
   2  -3  -7   16.31    0.75
   2  -3  -7   14.98    0.92
  -2  -3   7   14.11    0.85
   2   3   7   15.26    0.92
   2   3  -7   17.00    0.91
   2  -3   7   15.55    1.03
  -2   3   7   16.98    0.84
  -2  -3  -7   16.70    0.92
   2   3  -7   15.53    0.88
   2   3  -7   14.28    1.11
   2  -3   7   16.62    0.88
   2  -4  -7  186.53    7.94
   2  -4  -7  191.41    8.11
  -2  -4   7  198.65    8.02
   2   4   7  192.30    8.13
  -2   4  -7  192.42    8.27
  -2  -4   7  192.66    8.09
   2  -4   7  185.92    8.07
  -2   4   7  196.57    8.03
   2   4  -7  193.72    8.06
   2  -4   7  192.20    8.27
  -2  -4  -7  191.13    8.10
   2   4  -7  191.99    8.34
   2   4  -7  192.54    8.11
  -2  -5   7   -0.31    0.21
  -2  -5   7    0.00    0.28
   2  -5  -7    0.03    0.17
   2   5   7    0.37    0.31
   2  -5  -7    0.21    0.34
  -2   5  -7    0.33    0.43
  -2  -5  -7   -0.02    0.32
   2  -5   7   -0.13    0.30
   2   5  -7   -0.27    0.28
  -2   5   7    0.35    0.24
   2   5  -7    0.17    0.46
  -2  -6   7    0.09    0.34
   2   6   7    0.62    0.40
   2  -6  -7    0.10    0.36
  -2   6  -7    0.64    0.51
  -2  -6   7    0.32    0.26
  -2   6   7    0.71    0.30
  -2  -6  -7    0.08    0.37
   2   6  -7    0.75    0.58
   2  -6   7    0.59    0.37
   2   7   7   10.72    0.90
  -2   7  -7   12.22    1.15
  -2  -7   7    9.16    0.88
   2  -7  -7   11.69    0.95
   2   7  -7   11.92    1.29
  -2  -7  -7   13.09    0.93
   2  -7   7   11.16    0.94
  -2   7   7   10.58    0.83
  -2  -8   7   29.69    1.65
   2  -8  -7   27.42    1.59
   2   8   7   30.91    1.71
  -2   8  -7   27.11    1.85
   2  -8   7   27.15    1.64
  -2  -8  -7   26.74    1.58
  -2   8   7   30.30    1.57
   2   8  -7   26.45    1.90
   2  -9  -7    0.36    0.50
  -2  -9   7    0.55    0.53
  -2   9  -7    0.75    0.72
   2   9   7    0.91    0.59
   2  -9   7    0.70    0.50
  -2  -9  -7    0.52    0.53
   2   9  -7    0.28    0.73
   2 -10  -7   13.02    1.15
   2  10   7   11.42    1.18
  -2 -10   7   13.75    1.25
  -2  10  -7   13.05    1.35
   2  10  -7   12.56    1.45
  -2 -10  -7   13.08    1.19
   2 -10   7   12.66    1.16
   2 -11  -7    0.83    0.74
  -2  11  -7    0.59    0.86
   2  11   7    1.15    0.74
  -2 -11   7    1.19    0.77
   2 -11   7    1.58    0.70
  -2 -11  -7    1.24    0.67
   2  11  -7    2.72    0.98
   3   0   7   22.75    1.17
   3   0  -7   21.99    1.11
  -3   0  -7   21.14    1.04
   3   0  -7   21.00    1.05
  -3   0   7   21.60    1.08
   3   0  -7   21.43    1.14
   3   0   7   22.42    1.00
   3  -1  -7    0.19    0.15
  -3  -1   7    0.25    0.22
  -3   1  -7    0.15    0.13
   3   1   7    0.11    0.10
   3  -1  -7    0.27    0.26
   3   1   7    0.06    0.25
  -3  -1  -7   -0.24    0.19
   3   1  -7    0.08    0.22
   3   1  -7    0.39    0.25
   3  -1   7    0.00    0.17
   3  -1   7    0.24    0.27
  -3   1   7   -0.01    0.15
   3   1  -7   -0.04    0.17
  -3  -2   7    3.63    0.37
   3   2   7    2.27    0.38
   3  -2  -7    2.91    0.40
  -3   2  -7    1.97    0.44
   3   2   7    2.33    0.18
   3  -2  -7    2.78    0.26
  -3   2  -7    2.49    0.19
   3  -2   7    2.37    0.31
   3   2  -7    2.22    0.40
   3   2  -7    3.18    0.38
   3   2  -7    2.90    0.50
  -3   2   7    2.22    0.27
   3  -2   7    2.29    0.45
  -3  -2  -7    2.74    0.38
  -3  -3   7    2.82    0.37
  -3   3  -7    1.78    0.45
   3  -3  -7    2.89    0.43
   3   3   7    2.52    0.18
  -3  -3   7    2.57    0.38
   3   3   7    2.83    0.41
   3  -3  -7    2.29    0.25
   3  -3   7    1.91    0.44
   3   3  -7    2.42    0.37
  -3   3   7    2.12    0.27
   3   3  -7    2.10    0.37
   3  -3   7    2.06    0.33
  -3  -3  -7    2.31    0.39
   3   3  -7    2.47    0.56
  -3  -3  -7    2.45    0.18
   3  -4  -7   15.03    0.75
  -3  -4   7   14.65    0.87
  -3  -4   7   13.97    0.81
   3   4   7   13.90    0.91
  -3   4  -7   13.23    1.00
   3  -4  -7   14.46    0.92
   3   4  -7   15.10    0.90
  -3  -4  -7   13.74    0.90
   3  -4   7   14.50    0.87
   3  -4   7   12.59    0.99
   3   4  -7   13.70    1.12
  -3   4   7   14.47    0.77
   3   4  -7   14.54    0.91
   3  -5  -7    2.30    0.43
  -3  -5   7    2.87    0.47
  -3  -5   7    2.52    0.37
   3  -5  -7    2.23    0.30
  -3   5  -7    1.38    0.49
   3   5   7    1.83    0.41
   3  -5   7    2.04    0.57
   3   5  -7    2.23    0.48
   3   5  -7    1.96    0.40
  -3  -5  -7    2.06    0.47
  -3   5   7    2.59    0.34
   3  -5   7    2.10    0.42
   3   5  -7    1.30    0.58
   3  -6  -7    2.67    0.36
  -3  -6   7    2.01    0.48
  -3   6  -7    2.99    0.62
   3   6   7    2.11    0.52
  -3  -6   7    2.23    0.38
   3  -6  -7    3.82    0.55
   3   6  -7    2.88    0.73
   3   6  -7    2.72    0.53
  -3   6   7    2.27    0.38
   3  -6   7    2.90    0.65
   3  -6   7    2.38    0.50
  -3  -6  -7    2.55    0.53
  -3   7  -7    3.18    0.68
  -3  -7   7    3.42    0.46
  -3  -7   7    2.80    0.57
   3  -7  -7    3.63    0.58
   3   7   7    3.57    0.65
   3   7  -7    3.33    0.79
  -3  -7  -7    3.34    0.59
   3  -7   7    2.73    0.56
   3   8   7    6.84    0.84
  -3  -8   7    6.49    0.78
   3  -8  -7    5.95    0.76
  -3   8  -7    7.67    0.94
  -3  -8  -7    6.66    0.78
   3  -8   7    5.61    0.73
   3   8  -7    5.21    0.98
   3   9   7    1.61    0.60
  -3   9  -7    1.70    0.68
  -3  -9   7    1.99    0.60
   3  -9  -7    1.09    0.55
   3  -9   7    1.62    0.58
  -3  -9  -7    1.90    0.61
   3   9  -7    0.52    0.76
   3 -10  -7    1.90    0.64
   3  10   7    0.92    0.64
  -3 -10   7    2.25    0.68
  -3  10  -7    1.70    0.82
   3 -10   7    1.92    0.71
   3  10  -7    2.61    0.95
  -3 -10  -7    1.57    0.65
   3 -11  -7    0.43    0.71
   3  11   7    1.45    0.79
  -3 -11   7    1.10    0.69
  -3  11  -7    2.08    0.91
  -3 -11  -7    2.13    0.74
   3  11  -7    1.03    0.96
   3 -11   7    0.59    0.64
  -4   0  -7   35.10    1.66
   4   0  -7   37.99    1.69
   4   0   7   36.08    1.79
   4   0  -7   36.46    1.79
   4   0   7   37.85    1.63
   4   0  -7   35.11    1.70
  -4   0   7   38.87    1.69
  -4  -1   7   -0.36    0.20
   4  -1  -7    0.03    0.17
   4  -1  -7    0.19    0.28
  -4   1  -7    0.06    0.15
   4   1   7    0.05    0.13
   4   1   7    0.10    0.26
   4   1  -7    0.14    0.27
   4  -1   7    0.19    0.30
  -4  -1  -7    0.28    0.22
   4  -1   7   -0.07    0.16
  -4   1   7   -0.12    0.14
   4   1  -7    0.12    0.28
   4   1  -7   -0.05    0.21
  -4   2  -7    5.09    0.59
   4  -2  -7    4.67    0.53
   4   2   7    5.08    0.56
   4   2   7    4.93    0.33
   4  -2  -7    5.63    0.42
   4  -2   7    6.51    0.50
  -4   2   7    5.57    0.37
   4  -2   7    5.01    0.59
   4   2  -7    4.84    0.47
  -4  -2  -7    6.67    0.56
   4   2  -7    5.23    0.55
   4   2  -7    5.16    0.64
  -4   3  -7    3.69    0.56
   4  -3  -7    5.28    0.42
   4  -3  -7    3.72    0.51
  -4  -3   7    3.69    0.47
  -4  -3   7    4.35    0.46
   4   3   7    4.89    0.32
   4   3   7    5.04    0.55
   4  -3   7    4.69    0.46
   4  -3   7    5.13    0.61
   4   3  -7    4.36    0.54
  -4  -3  -7    5.42    0.56
   4   3  -7    5.03    0.50
  -4   3   7    4.87    0.36
   4   3  -7    4.86    0.72
   4  -4  -7   29.35    1.35
  -4   4  -7   28.55    1.58
  -4  -4   7   30.46    1.45
   4   4   7   27.66    1.50
   4  -4  -7   29.67    1.51
   4   4   7   27.56    1.26
  -4  -4   7   28.72    1.43
   4  -4   7   26.63    1.56
  -4   4   7   28.99    1.30
   4   4  -7   28.55    1.48
   4   4  -7   28.93    1.48
  -4  -4  -7   24.48    1.36
   4  -4   7   27.29    1.41
   4   4  -7   30.10    1.78
  -4  -4  -7   28.53    1.47
   4   5   7    3.34    0.52
  -4  -5   7    2.97    0.45
  -4   5  -7    3.17    0.58
  -4  -5   7    3.79    0.45
   4  -5  -7    3.57    0.40
   4  -5  -7    3.53    0.53
   4   5  -7    3.18    0.72
   4  -5   7    3.04    0.45
   4   5  -7    3.55    0.53
  -4  -5  -7    3.27    0.57
   4  -5   7    3.18    0.60
   4   5  -7    3.23    0.51
  -4  -6   7    3.10    0.46
  -4  -6   7    3.19    0.51
   4  -6  -7    2.46    0.38
   4  -6  -7    2.20    0.49
  -4   6  -7    3.79    0.65
   4   6   7    2.57    0.54
   4  -6   7    2.29    0.60
   4  -6   7    2.21    0.45
   4   6  -7    2.12    0.50
   4   6  -7    1.70    0.67
  -4  -6  -7    2.27    0.52
   4  -7  -7   11.24    0.93
  -4  -7   7   10.36    0.78
  -4   7  -7   11.20    1.06
  -4  -7   7    8.76    0.84
   4   7   7    9.24    0.92
   4   7  -7    8.18    1.09
   4  -7   7    9.27    0.87
   4  -7   7   10.50    1.10
   4   7  -7    6.77    0.80
  -4  -7  -7    9.99    0.91
   4   8   7   20.50    1.37
  -4  -8   7   17.23    1.26
   4  -8  -7   20.62    1.27
  -4   8  -7   19.99    1.40
  -4  -8   7   17.37    1.12
   4   8  -7   20.54    1.63
   4  -8   7   18.40    1.29
  -4  -8  -7   17.38    1.28
   4   8  -7   18.94    1.33
   4  -8   7   18.90    1.47
  -4   9  -7    5.10    0.92
   4   9   7    5.51    0.91
   4  -9  -7    6.38    0.82
  -4  -9   7    7.98    0.94
   4  -9   7    4.65    0.73
   4   9  -7    7.14    1.14
  -4  -9  -7    6.92    0.90
   4 -10  -7    0.11    0.56
  -4  10  -7    1.11    0.69
  -4 -10   7    0.93    0.60
   4  10   7   -0.08    0.61
  -4 -10  -7    1.35    0.75
   4  10  -7    1.63    0.93
   4 -10   7    1.30    0.64
   4  11   7    6.90    1.08
  -4  11  -7    7.10    1.14
   4 -11  -7    7.22    0.95
  -4 -11   7    8.70    1.04
   4 -11   7    6.77    0.99
   4  11  -7    5.37    1.23
  -4 -11  -7    5.42    0.95
   5   0  -7    8.56    0.76
  -5   0   7   10.34    0.60
   5   0  -7    8.74    0.63
  -5   0  -7    9.19    0.60
   5   0   7    9.42    0.73
   5   0  -7    9.81    0.62
   5   0   7    9.56    0.56
   5   1   7    0.13    0.31
  -5   1  -7    0.24    0.17
   5  -1  -7    0.38    0.23
   5   1   7    0.40    0.17
   5  -1  -7    0.06    0.32
   5  -1   7   -0.08    0.29
   5  -1   7    0.40    0.22
   5   1  -7    0.32    0.27
   5   1  -7    0.12    0.28
   5   1  -7   -0.34    0.35
  -5   1   7    1.28    0.20
  -5  -1  -7    0.14    0.24
   5   2   7    0.97    0.20
   5  -2  -7    1.03    0.26
   5  -2  -7    1.58    0.40
   5   2   7    0.56    0.34
   5   2  -7    1.30    0.34
  -5  -2  -7    0.92    0.30
   5   2  -7    0.41    0.39
   5  -2   7    0.91    0.36
  -5   2   7    1.23    0.18
   5   2  -7    0.76    0.38
   5  -2   7    1.06    0.29
  -5   3  -7    0.82    0.39
  -5  -3   7    1.26    0.37
   5  -3  -7    0.86    0.27
   5  -3  -7    1.27    0.41
   5   3   7    1.86    0.42
   5   3   7    1.27    0.22
  -5  -3  -7    1.71    0.38
   5   3  -7    1.16    0.53
   5   3  -7    0.84    0.39
   5   3  -7    1.23    0.35
   5  -3   7    0.97    0.32
   5  -3   7    1.16    0.42
  -5   4  -7   10.33    0.85
  -5  -4   7   10.42    0.74
  -5  -4   7    9.71    0.74
   5  -4  -7    9.57    0.83
   5   4   7    9.62    0.60
   5  -4  -7   10.01    0.67
   5   4   7   11.32    0.84
   5   4  -7   11.68    0.90
  -5  -4  -7   10.05    0.79
   5  -4   7    8.56    0.86
   5   4  -7   10.56    1.09
   5  -4   7    9.48    0.75
   5   4  -7    9.13    0.78
   5  -5  -7    0.13    0.36
  -5   5  -7    0.08    0.41
   5   5   7    0.04    0.35
  -5  -5   7    0.08    0.31
   5  -5  -7    0.12    0.26
  -5  -5   7   -0.10    0.35
  -5  -5  -7    0.84    0.42
   5  -5   7    0.32    0.32
   5   5  -7   -0.72    0.55
   5  -5   7   -0.21    0.39
   5   5  -7    0.34    0.44
   5   5  -7    0.06    0.39
  -5   6  -7    3.91    0.67
  -5  -6   7    2.12    0.51
   5   6   7    1.95    0.52
   5  -6  -7    2.53    0.54
   5  -6  -7    1.96    0.39
  -5  -6   7    2.49    0.48
   5   6  -7    1.78    0.72
  -5  -6  -7    0.96    0.47
   5  -6   7    3.25    0.54
   5   6  -7    3.43    0.60
   5  -6   7    2.43    0.62
  -5   7  -7    0.85    0.51
   5  -7  -7    1.29    0.51
  -5  -7   7    1.57    0.46
   5   7   7    1.82    0.63
  -5  -7   7    1.20    0.47
   5  -7   7    1.21    0.56
   5  -7   7    0.87    0.46
   5   7  -7    1.76    0.54
  -5  -7  -7    1.07    0.57
   5   7  -7    1.68    0.74
  -5   8  -7   10.77    1.08
  -5  -8   7    9.83    0.97
  -5  -8   7    9.35    0.84
   5   8   7   11.08    1.12
   5  -8  -7   10.78    0.97
   5  -8   7    7.71    1.06
   5   8  -7    9.17    1.22
   5  -8   7    7.67    0.85
  -5  -8  -7   10.35    1.01
   5   8  -7   10.54    1.04
  -5   9  -7    0.18    0.63
   5  -9  -7    0.23    0.54
  -5  -9   7    0.38    0.61
   5   9   7   -0.54    0.53
   5   9  -7    0.30    0.57
   5   9  -7   -0.85    0.82
   5  -9   7    0.15    0.71
   5  -9   7    0.49    0.51
  -5  -9  -7   -0.40    0.55
  -5 -10   7    2.80    0.74
   5 -10  -7    2.81    0.72
   5  10   7    2.33    0.80
  -5  10  -7    2.12    0.78
   5 -10   7    1.51    0.69
  -5 -10  -7    2.59    0.78
   5 -10   7    1.95    0.89
   5  10  -7    3.45    1.04
  -5  11  -7    0.89    0.81
  -5 -11   7    0.87    0.76
   5 -11  -7    1.07    0.74
   5  11   7    0.98    0.87
   5 -11   7    0.63    0.74
   5 -11   7    1.31    0.90
  -5 -11  -7    1.64    0.80
   5  11  -7   -0.63    1.01
   6   0  -7    0.91    0.24
  -6   0  -7    1.04    0.29
   6   0   7    1.19    0.38
  -6   0   7    0.52    0.21
   6   0  -7    0.89    0.42
   6   0  -7    0.85    0.31
   6   0   7    0.46    0.23
   6   1   7    1.53    0.41
   6   1   7    1.81    0.27
   6  -1  -7    2.03    0.34
  -6   1  -7    1.72    0.27
   6  -1  -7    1.38    0.45
   6   1  -7    1.33    0.47
   6  -1   7    2.00    0.42
   6   1  -7    1.09    0.32
  -6  -1  -7    2.16    0.38
   6  -1   7    2.10    0.32
   6   1  -7    1.70    0.37
   6   2   7   11.06    0.63
   6  -2  -7   10.40    0.71
   6  -2  -7   11.27    0.86
   6   2   7   11.63    0.85
   6   2  -7   10.80    0.93
   6   2  -7   10.68    0.77
  -6  -2  -7   10.38    0.79
   6   2  -7   10.71    0.95
   6  -2   7   10.40    0.72
   6  -2   7   10.54    0.86
  -6  -3   7   11.01    0.83
   6  -3  -7   11.34    0.86
   6   3   7    9.85    0.63
   6  -3  -7    8.72    0.68
   6   3   7   10.77    0.86
   6   3  -7    9.54    1.00
  -6  -3  -7   11.46    0.82
   6   3  -7   11.76    0.94
   6  -3   7   11.22    0.77
   6  -3   7   10.92    0.90
   6   3  -7   11.60    0.81
  -6   4  -7    1.49    0.46
   6   4   7    1.25    0.44
   6  -4  -7    1.44    0.35
   6  -4  -7    1.80    0.48
   6   4   7    1.44    0.31
  -6  -4   7    1.03    0.40
   6  -4   7    1.07    0.38
   6   4  -7    0.79    0.46
   6   4  -7    1.22    0.41
   6  -4   7    1.43    0.46
  -6  -4  -7    1.45    0.49
   6   4  -7    1.32    0.66
   6  -5  -7   14.92    0.92
   6   5   7   15.19    1.06
  -6  -5   7   14.60    0.95
   6  -5  -7   12.93    0.99
  -6   5  -7   13.43    1.03
  -6  -5   7   14.86    1.01
   6  -5   7   11.55    0.95
   6   5  -7   16.17    1.40
   6   5  -7   14.23    1.02
   6  -5   7   12.06    1.02
   6   5  -7   14.00    1.05
  -6  -5  -7   14.08    1.01
  -6  -6   7    5.23    0.59
   6   6   7    3.94    0.67
  -6  -6   7    4.63    0.61
   6  -6  -7    4.02    0.55
  -6   6  -7    4.55    0.71
   6  -6  -7    4.55    0.66
   6   6  -7    3.63    0.80
   6  -6   7    4.24    0.73
  -6  -6  -7    4.21    0.66
   6   6  -7    4.04    0.62
   6  -6   7    4.67    0.63
  -6   7  -7    7.99    0.91
  -6  -7   7    7.87    0.80
   6   7   7    9.21    0.99
   6  -7  -7    9.66    0.87
   6  -7  -7    9.27    0.89
  -6  -7   7    5.75    0.75
   6   7  -7    9.00    0.91
   6  -7   7    8.69    0.98
  -6  -7  -7    8.76    0.90
   6  -7   7    7.92    0.81
   6   7  -7    9.79    1.27
   6  -8  -7    2.16    0.59
   6   8   7    2.59    0.71
  -6   8  -7    1.30    0.57
  -6  -8   7    2.14    0.63
  -6  -8   7    1.62    0.51
   6   8  -7    0.95    0.87
   6   8  -7    2.40    0.69
   6  -8   7    2.28    0.57
  -6  -8  -7    1.37    0.71
   6  -8   7    1.42    0.64
   6   9   7    1.46    0.77
  -6  -9   7    2.27    0.70
  -6   9  -7    1.20    0.60
  -6  -9   7    1.15    0.57
   6  -9  -7    1.74    0.63
   6   9  -7    2.23    0.75
  -6  -9  -7    2.45    0.76
   6  -9   7    2.05    0.70
   6   9  -7    0.10    0.82
   6  -9   7    1.63    0.67
  -6 -10   7    0.93    0.71
   6  10   7    1.35    0.87
  -6  10  -7    1.28    0.73
   6 -10  -7    2.29    0.69
   6 -10   7    1.63    0.65
   6  10  -7    1.58    0.98
   6 -10   7    0.78    0.79
  -6 -10  -7    1.00    0.75
   6 -11  -7   -0.24    0.67
  -6 -11  -7   -0.78    0.75
  -7   0  -7    3.71    0.45
   7   0   7    2.77    0.51
   7   0  -7    2.52    0.42
   7   0   7    3.34    0.39
   7   0  -7    2.66    0.58
   7  -1  -7    0.44    0.41
   7   1   7    0.05    0.35
  -7   1  -7   -0.24    0.24
   7  -1  -7    0.37    0.28
   7   1   7   -0.01    0.21
   7   1  -7   -0.21    0.31
   7  -1   7    0.49    0.28
  -7  -1  -7   -0.30    0.30
   7   1  -7   -0.17    0.42
   7   1  -7   -0.09    0.28
   7  -1   7    0.30    0.36
   7  -2  -7    5.80    0.73
   7  -2  -7    7.50    0.63
   7   2   7    7.19    0.74
   7   2   7    6.69    0.53
   7  -2   7    7.75    0.65
   7  -2   7    5.56    0.66
   7   2  -7    6.54    0.77
   7   2  -7    6.99    0.81
   7   2  -7    7.37    0.70
  -7  -2  -7    6.23    0.66
   7   3   7    0.09    0.24
   7   3   7   -0.06    0.38
  -7  -3   7    0.54    0.41
   7  -3  -7    0.28    0.43
   7  -3  -7    0.01    0.31
   7   3  -7   -0.26    0.44
   7  -3   7    0.33    0.44
   7  -3   7    0.05    0.31
   7   3  -7    0.18    0.35
  -7  -3  -7    0.63    0.38
   7   3  -7   -0.13    0.53
   7  -4  -7    5.35    0.57
   7   4   7    4.65    0.66
   7  -4  -7    2.68    0.59
  -7  -4   7    4.57    0.62
   7   4  -7    4.98    0.65
   7  -4   7    4.26    0.64
   7   4  -7    4.43    0.83
   7   4  -7    3.73    0.66
  -7  -4  -7    5.16    0.69
   7  -4   7    3.71    0.52
   7  -5  -7   -0.03    0.34
   7  -5  -7   -0.28    0.42
   7   5   7   -0.20    0.46
  -7  -5   7   -0.27    0.36
  -7   5  -7    0.70    0.43
  -7  -5   7    0.60    0.43
   7   5  -7   -0.26    0.45
   7  -5   7    0.04    0.41
  -7  -5  -7    0.03    0.46
   7   5  -7    0.11    0.58
   7  -5   7    0.34    0.39
   7   5  -7    0.26    0.40
   7  -6  -7    6.76    0.72
  -7   6  -7    8.88    0.89
   7  -6  -7    8.58    0.87
  -7  -6   7    7.93    0.83
   7   6   7    7.34    0.92
  -7  -6   7    7.75    0.81
   7  -6   7    8.59    0.92
  -7  -6  -7    6.79    0.84
   7  -6   7    7.29    0.78
   7   6  -7    9.06    0.92
   7   6  -7    9.38    1.19
  -7  -7   7    0.18    0.49
  -7  -7   7    0.42    0.44
   7   7   7   -0.20    0.54
   7  -7  -7    0.49    0.50
   7  -7  -7    0.36    0.43
  -7   7  -7   -0.33    0.50
  -7  -7  -7   -0.14    0.51
   7  -7   7    0.09    0.45
   7   7  -7   -0.39    0.51
   7  -7   7    0.89    0.58
   7   7  -7   -0.16    0.70
  -7   8  -7    5.56    0.83
  -7  -8   7    4.47    0.73
  -7  -8   7    5.27    0.74
   7   8   7    3.85    0.88
   7  -8  -7    4.60    0.76
   7  -8   7    5.17    0.86
   7  -8   7    4.56    0.71
   7   8  -7    2.69    0.92
  -7  -8  -7    7.12    0.92
   7   8  -7    3.82    0.75
  -7   9  -7   -0.58    0.58
  -7  -9   7    0.80    0.63
  -7  -9   7    0.72    0.56
   7   9   7   -0.51    0.74
   7  -9  -7   -0.47    0.53
   7  -9   7   -0.22    0.51
   7   9  -7   -0.03    0.87
   7   9  -7   -0.07    0.56
  -7  -9  -7   -0.35    0.70
   7  -9   7    0.02    0.65
   7  10   7    5.43    1.05
  -7  10  -7    5.81    0.93
  -7 -10   7    7.36    1.00
   7 -10  -7    5.71    0.88
  -7 -10  -7    5.11    1.07
   7  10  -7    5.63    0.98
   7 -10   7    3.51    0.89
   7  10  -7    4.56    1.22
   7 -10   7    3.75    0.79
   8   0  -7   18.42    1.28
   8   0  -7   16.81    1.08
   8   0   7   16.49    0.99
  -8   0  -7   17.21    1.01
   8   0   7   16.35    1.11
   8  -1  -7    2.86    0.49
   8   1   7    3.24    0.42
   8  -1  -7    1.48    0.54
   8   1   7    2.75    0.55
   8   1  -7    2.91    0.49
   8  -1   7    2.62    0.52
  -8  -1  -7    2.50    0.49
   8   1  -7    2.86    0.65
   8  -1   7    3.25    0.43
   8  -2  -7    1.60    0.43
  -8  -2   7    1.44    0.53
   8   2   7    0.50    0.30
   8   2   7    0.93    0.45
   8  -2  -7    1.79    0.54
  -8  -2  -7    0.58    0.43
   8   2  -7    1.32    0.43
   8   2  -7    1.47    0.56
   8   2  -7    0.78    0.75
   8  -2   7    2.14    0.54
   8  -2   7    1.48    0.39
  -8  -3   7    0.63    0.45
   8  -3  -7    0.63    0.48
   8   3   7    0.03    0.28
   8  -3  -7    0.07    0.35
   8   3   7    0.47    0.43
   8   3  -7   -0.07    0.47
   8  -3   7   -0.08    0.34
   8   3  -7    0.14    0.57
   8  -3   7   -0.24    0.42
  -8  -3  -7    0.72    0.48
   8   3  -7    0.48    0.39
  -8  -4   7   13.17    1.03
   8  -4  -7   13.57    0.97
   8  -4  -7   11.36    1.05
   8   4   7   11.42    1.07
   8  -4   7   12.63    1.00
   8   4  -7   15.84    1.11
   8   4  -7   14.47    1.32
   8  -4   7   15.04    1.01
   8   4  -7   12.61    1.18
  -8  -4  -7   13.87    1.12
   8  -5  -7    6.23    0.80
   8  -5  -7    7.79    0.76
  -8  -5   7    8.63    0.85
   8   5   7    5.86    0.81
   8   5  -7    5.73    0.76
   8  -5   7    5.33    0.67
   8   5  -7    6.75    0.86
  -8  -5  -7    5.90    0.79
   8  -5   7    7.89    0.84
   8   5  -7    6.72    0.96
   8  -6  -7    0.52    0.43
   8  -6  -7    1.30    0.55
  -8   6  -7    0.62    0.50
   8   6   7    0.81    0.56
  -8  -6   7    0.18    0.43
  -8  -6   7    0.85    0.53
   8  -6   7    1.57    0.53
   8  -6   7    0.85    0.54
   8   6  -7    0.69    0.51
   8   6  -7    0.25    0.73
  -8  -6  -7   -0.22    0.61
  -8  -7   7    0.23    0.47
   8  -7  -7    0.38    0.54
   8   7   7    0.86    0.65
   8  -7  -7    0.56    0.49
  -8  -7   7   -0.01    0.54
  -8   7  -7    0.60    0.52
   8   7  -7    1.10    0.87
  -8  -7  -7    0.60    0.63
   8  -7   7    0.16    0.44
   8  -7   7    0.07    0.55
   8   7  -7    0.91    0.55
  -8  -8   7    9.18    0.98
  -8  -8   7   10.44    0.97
  -8   8  -7    8.50    0.97
   8  -8  -7   12.94    1.10
   8   8   7    9.74    1.18
   8  -8   7    8.79    1.06
   8  -8   7   11.08    1.07
   8   8  -7   11.20    1.50
   8   8  -7   11.65    1.12
  -8  -8  -7   11.10    1.16
   8   9   7    6.05    1.12
  -8  -9   7    6.57    0.94
  -8   9  -7    6.98    0.95
   8  -9  -7    7.22    0.94
  -8  -9   7    7.36    0.90
   8   9  -7    7.36    1.30
   8  -9   7    6.39    0.97
   8   9  -7    6.60    1.01
  -8  -9  -7    5.53    0.98
   8  -9   7    7.25    0.94
   8  10   7    0.51    0.83
  -8 -10   7   -0.63    0.55
  -8 -10   7    0.52    0.72
   8 -10  -7   -0.12    0.68
   8  10  -7   -0.82    0.70
  -8 -10  -7   -1.01    0.72
   8  10  -7   -0.18    0.96
   8 -10   7    0.29    0.68
  -9   0  -7    9.52    0.77
   9   0  -7    8.14    0.78
   9   0   7    9.67    0.75
   9   0   7    9.52    0.93
   9   0  -7    9.13    0.99
   9  -1  -7   -0.53    0.50
   9  -1  -7   -0.18    0.38
   9   1   7   -0.23    0.29
   9   1   7    0.50    0.44
  -9  -1  -7    0.13    0.40
   9   1  -7    0.60    0.59
   9  -1   7    0.84    0.49
   9  -1   7    0.04    0.33
   9   1  -7    0.60    0.45
   9   2   7    0.27    0.43
   9  -2  -7   -0.62    0.45
   9  -2  -7   -0.11    0.40
  -9  -2   7   -0.35    0.47
   9   2   7    0.62    0.34
  -9  -2  -7   -0.06    0.42
   9   2  -7   -0.13    0.41
   9  -2   7    0.79    0.44
   9  -2   7   -0.16    0.36
   9   2  -7   -0.80    0.51
   9  -3  -7    0.38    0.42
  -9  -3   7   -0.18    0.44
   9  -3  -7    0.87    0.54
   9   3   7    0.19    0.50
   9   3   7    0.46    0.34
   9   3  -7    0.89    0.45
   9  -3   7    0.20    0.41
  -9  -3  -7    0.78    0.48
   9  -3   7    0.00    0.47
   9   3  -7    1.25    0.64
   9   4   7    6.17    0.80
   9  -4  -7    6.38    0.72
   9  -4  -7    6.67    0.85
  -9  -4   7    4.54    0.73
   9  -4   7    6.87    0.75
   9   4  -7    5.22    0.91
  -9  -4  -7    6.93    0.83
   9   4  -7    5.91    0.76
   9   4  -7    5.75    0.88
   9  -4   7    5.27    0.73
   9  -5  -7    0.87    0.49
   9  -5  -7    1.69    0.61
   9   5   7    1.44    0.61
  -9  -5   7    1.30    0.54
   9  -5   7    0.96    0.46
  -9  -5  -7    0.68    0.65
   9   5  -7    0.80    0.75
   9   5  -7    0.55    0.68
   9   5  -7   -0.02    0.53
   9  -5   7    0.43    0.53
   9  -6  -7   -0.01    0.54
  -9  -6   7    0.05    0.45
   9   6   7    0.28    0.60
   9  -6  -7   -0.59    0.43
  -9  -6   7    0.70    0.54
   9   6  -7    0.64    0.54
   9  -6   7    0.88    0.52
   9  -6   7    0.11    0.47
  -9  -6  -7   -0.29    0.60
   9   6  -7    0.78    0.84
   9  -7  -7    0.99    0.58
   9  -7  -7    1.19    0.61
  -9  -7   7    0.79    0.54
   9   7   7    0.47    0.68
  -9  -7   7    1.20    0.56
   9   7  -7    0.65    0.90
   9  -7   7    0.69    0.57
   9   7  -7    2.18    0.72
   9  -7   7    0.79    0.52
  -9  -7  -7    0.06    0.68
   9  -8  -7    2.43    0.71
  -9  -8   7    2.76    0.73
   9   8   7    2.33    0.86
  -9  -8   7    3.48    0.75
   9   8  -7    1.24    0.92
   9  -8   7    3.01    0.67
   9   8  -7    2.44    0.78
  -9  -8  -7    1.61    0.82
   9   9   7    1.82    0.95
  -9  -9   7    0.18    0.60
   9  -9  -7    0.90    0.64
  -9  -9   7    0.13    0.68
   9   9  -7    0.26    0.69
  -9  -9  -7    0.61    0.80
   9   9  -7    0.19    1.04
   9  -9   7   -0.01    0.56
  10   0   7   81.88    4.08
  10   0  -7   93.23    4.30
  10   0   7   94.49    4.00
  10   0  -7   88.81    4.06
  10   1   7    7.08    0.83
  10   1   7    7.86    0.72
  10  -1  -7    8.50    1.03
 -10  -1   7    7.95    0.95
  10  -1  -7    8.06    0.84
  10  -1   7    8.91    0.90
  10   1  -7    8.06    1.02
 -10  -1  -7    8.55    0.78
  10   1  -7    6.52    0.78
  10  -1   7    7.95    0.75
  10  -2  -7   35.59    2.14
  10  -2  -7   39.10    2.01
  10   2   7   38.27    1.90
 -10  -2   7   40.65    2.11
  10   2   7   33.20    2.07
  10  -2   7   39.58    1.97
  10   2  -7   38.58    2.03
  10  -2   7   37.38    2.03
 -10  -2  -7   38.22    2.01
  10   2  -7   38.27    2.24
  10  -3  -7    0.20    0.47
  10  -3  -7   -0.80    0.53
 -10  -3   7   -0.33    0.49
  10   3   7    0.34    0.38
  10   3   7    0.51    0.53
 -10  -3  -7    0.64    0.52
  10  -3   7    0.26    0.50
  10   3  -7    1.10    0.74
  10  -3   7   -0.77    0.40
  10   3  -7    0.60    0.53
  10  -4  -7   47.31    2.28
  10   4   7   42.45    2.39
  10  -4  -7   43.33    2.36
 -10  -4   7   46.38    2.35
  10  -4   7   41.76    2.20
 -10  -4  -7   45.26    2.33
  10   4  -7   40.65    2.42
  10  -4   7   41.69    2.26
  10   4  -7   42.20    2.29
  10  -5  -7   15.72    1.23
  10   5   7   15.85    1.38
  10  -5  -7   15.36    1.35
 -10  -5   7   17.28    1.33
  10  -5   7   15.32    1.19
 -10  -5  -7   17.07    1.37
  10  -5   7   15.40    1.20
  10   5  -7   17.48    1.36
  10   5  -7   13.19    1.34
 -10  -6   7    4.44    0.83
  10   6   7    3.82    0.85
  10  -6  -7    4.55    0.73
  10  -6  -7    4.09    0.79
 -10  -6   7    4.79    0.75
  10  -6   7    4.06    0.69
  10   6  -7    3.22    1.00
  10  -6   7    4.37    0.76
 -10  -6  -7    5.61    1.00
  10   6  -7    3.97    0.78
  10  -7  -7    0.31    0.59
  10   7   7   -0.45    0.74
 -10  -7   7   -0.96    0.60
  10  -7  -7    0.22    0.66
 -10  -7   7   -0.11    0.60
  10  -7   7   -0.06    0.58
  10   7  -7    0.74    0.95
  10   7  -7   -0.14    0.65
 -10  -7  -7   -0.65    0.69
  10  -8  -7    3.68    0.81
 -10  -8   7    3.47    0.81
  10   8   7    2.95    0.97
 -10  -8   7    2.92    0.74
  10   8  -7    2.20    1.02
 -10  -8  -7    4.54    0.98
  10   8  -7    4.27    0.89
  10  -8   7    2.32    0.74
  11   0  -7   22.68    1.47
  11   0   7   20.97    1.47
  11   0   7   24.26    1.36
  11   0  -7   19.85    1.71
 -11  -1   7    0.96    0.64
  11   1   7    1.59    0.48
  11  -1  -7   -0.50    0.65
  11   1   7    0.36    0.52
  11  -1  -7   -0.10    0.44
  11  -1   7    0.02    0.43
  11  -1   7    0.65    0.55
  11   1  -7    0.27    0.74
  11   1  -7    0.94    0.52
 -11  -1  -7    0.07    0.51
 -11  -2   7   10.37    1.09
  11   2   7    9.13    1.00
  11  -2  -7    9.03    1.14
  11   2   7    9.92    0.85
  11  -2  -7    9.76    0.96
  11  -2   7   10.63    0.91
  11   2  -7   13.26    1.12
 -11  -2  -7   10.68    1.03
  11  -2   7   10.95    1.02
  11  -3  -7    4.33    0.76
 -11  -3   7    4.09    0.78
  11  -3  -7    2.86    0.89
  11   3   7    4.26    0.77
  11   3  -7    4.94    0.78
  11  -3   7    4.57    0.73
  11   3  -7    4.88    0.96
 -11  -3  -7    3.64    0.80
  11  -3   7    3.32    0.67
  11   4   7   11.86    1.22
 -11  -4   7   13.32    1.21
  11  -4  -7   13.08    1.30
  11  -4   7   13.16    1.11
  11   4  -7   13.11    1.18
 -11  -4  -7   18.41    1.31
  11  -4   7   12.07    1.12
  11   4  -7   13.29    1.33
  11  -5  -7    0.22    0.63
  11  -5  -7    1.03    0.61
 -11  -5   7   -0.04    0.62
  11   5   7   -0.04    0.64
  11  -5   7    0.41    0.51
  11   5  -7    0.15    0.56
  11   5  -7   -0.62    0.74
 -11  -5  -7    1.01    0.83
  11  -6  -7    4.40    0.94
  11  -6  -7    4.38    0.83
  11   6   7    5.05    1.03
 -11  -6   7    3.62    0.79
 -11  -6  -7    3.86    0.92
  11   6  -7    2.99    0.78
  11  -6   7    4.22    0.78
 -11  -7   7    3.82    0.80
  11  -7  -7    3.78    0.79
  11  -7  -7    4.15    0.87
  11   7   7    3.48    0.97
 -11  -7   7    4.42    0.84
 -11  -7  -7    4.71    1.03
  11   7  -7    6.04    0.94
  11  -7   7    5.12    0.87
  11   8   7    2.57    0.98
  11  -8  -7    3.95    0.98
 -11  -8   7    3.54    0.87
 -11  -8   7    4.45    0.93
  11   8  -7    3.70    0.93
  11   8  -7    2.09    1.19
  11  -8   7    4.79    0.89
 -11  -8  -7    3.93    1.05
 -12   0   7    1.28    0.72
  12   0   7    0.37    0.53
  12   0  -7    0.27    0.54
  12   0  -7    1.65    0.83
  12   0   7    1.11    0.62
  12  -1  -7   -0.13    0.56
 -12  -1   7    1.07    0.66
  12  -1  -7    0.85    0.81
  12   1   7    0.66    0.56
  12   1   7    0.69    0.49
  12   1  -7    0.72    0.81
  12  -1   7    0.51    0.47
  12   1  -7    0.39    0.54
  12  -1   7    0.87    0.61
 -12  -2   7    0.73    0.66
  12  -2  -7   -1.08    0.78
  12   2   7    0.83    0.51
  12   2   7    2.02    0.75
  12  -2  -7   -0.06    0.58
 -12  -2  -7    0.34    0.63
  12  -2   7    0.83    0.60
  12   2  -7    0.84    0.85
  12   2  -7    0.63    0.62
  12  -2   7    1.20    0.56
  12  -3  -7    3.52    0.78
  12  -3  -7    2.84    0.85
 -12  -3   7    3.77    0.88
  12   3   7    4.70    0.90
  12  -3   7    2.90    0.99
 -12  -3  -7    5.54    0.92
  12  -3   7    3.47    0.72
  12   3  -7    3.51    0.98
  12   3  -7    3.31    0.80
  12   4   7    1.33    0.71
 -12  -4   7    0.80    0.69
  12  -4  -7    0.45    0.72
  12  -4  -7   -0.10    0.63
  12  -4   7    0.47    0.59
 -12  -4  -7    0.78    0.73
  12   4  -7    0.79    0.93
  12   4  -7    0.34    0.67
  12  -5  -7    9.33    1.09
  12   5   7    6.52    1.11
  12  -5  -7    7.97    1.18
 -12  -5   7    9.25    1.07
  12  -5   7    7.93    0.92
  12   5  -7    8.99    1.05
 -12  -5  -7    6.72    1.18
  12  -6  -7   -0.01    0.69
 -12  -6   7    0.41    0.80
  12   6   7    0.06    0.85
  12  -6  -7    1.39    0.76
 -12  -6  -7    0.22    0.80
  12  -6   7   -0.89    0.61
  12   6  -7   -0.17    0.64
 -12  -7   7   12.29    1.28
 -12  -7   7   11.98    1.25
  12   7   7   15.29    1.54
  12  -7  -7   10.93    1.27
  12  -7  -7   10.72    1.31
 -12  -7  -7   11.96    1.41
  12   7  -7    9.40    1.20
  12  -7   7   11.05    1.21
  13   0   7    8.48    0.95
  13   0  -7    7.07    0.94
  13   0   7    7.28    1.02
  13   0  -7    7.31    1.22
 -13   0   7    9.74    1.16
  13  -1  -7   -0.38    0.60
 -13  -1   7    0.86    0.79
  13   1   7    0.36    0.63
  13  -1  -7    0.74    0.86
  13   1   7    0.45    0.56
  13   1  -7   -1.07    0.91
  13  -1   7    0.47    0.64
  13  -1   7    0.16    0.55
 -13   1   7   -0.97    0.68
  13   1  -7   -0.33    0.61
 -13  -2   7   17.51    1.50
  13  -2  -7   19.37    1.52
  13   2   7   19.58    1.51
  13  -2  -7   14.93    1.59
  13  -2   7   15.40    1.32
  13   2  -7   17.47    1.49
  13   2  -7   16.87    1.72
 -13  -3   7    2.58    0.83
  13  -3  -7    0.93    0.71
  13  -3  -7    1.08    0.85
  13   3   7    0.52    0.76
  13   3  -7   -0.42    0.89
 -13  -3  -7    0.33    0.67
  13   3  -7    0.38    0.64
  13  -3   7    1.02    0.65
 -13  -4   7    6.99    1.11
  13   4   7    6.16    1.04
  13  -4  -7    6.23    0.97
  13  -4  -7    6.25    1.16
 -13  -4  -7    5.15    1.06
  13   4  -7    4.77    1.11
  13   4  -7    5.15    0.92
  13  -4   7    3.58    0.76
  13  -5  -7    2.68    0.83
  13   5   7    1.24    0.80
  13  -5  -7    1.08    0.92
 -13  -5   7    1.39    0.82
  13   5  -7   -0.08    0.75
  13  -5   7    0.62    0.66
 -13  -5  -7    1.78    0.92
  14   0   7   54.08    2.86
  14   0  -7   61.26    3.04
  14   0  -7   60.84    3.29
 -14   0   7   49.90    2.96
 -14  -1   7    0.49    0.78
  14   1   7    0.80    0.63
  14   1   7    0.09    0.69
  14  -1  -7    0.05    0.70
  14  -1  -7   -0.06    0.90
 -14   1   7    0.69    0.81
  14  -1   7    0.15    0.63
  14   1  -7   -0.26    0.70
  14   1  -7    0.11    0.98
  14   2   7   41.34    2.51
  14  -2  -7   42.07    2.69
 -14  -2   7   44.15    2.63
  14  -2  -7   41.20    2.50
  14   2  -7   42.35    2.86
  14   2  -7   48.22    2.53
 -14   2   7   42.82    2.52
  14  -2   7   44.13    2.42
 -14  -3   7   -0.08    0.88
  14  -3  -7    1.46    1.03
  14  -3  -7   -0.64    0.64
  14   3   7    1.10    0.80
  14  -3   7   -0.10    0.58
  14   3  -7    0.43    0.79
  14   3  -7    0.16    0.98
  14   4   7   21.34    1.80
  14  -4  -7   24.69    1.84
 -14  -4   7   26.19    1.87
 -14  -4  -7   26.53    2.00
  14   4  -7   24.96    2.09
  14   4  -7   21.83    1.76
  14  -4   7   24.87    1.74
   0   0   8   21.79    1.18
   0   0   8   22.95    1.00
   0   0  -8   21.79    1.11
   0  -1   8    0.41    0.27
   0   1   8    0.20    0.24
   0   1  -8   -0.15    0.26
   0  -1   8    0.13    0.15
   0   1   8    0.07    0.06
   0  -1  -8    0.09    0.21
   0   1  -8   -0.04    0.18
   0   2  -8  122.17    5.25
   0  -2   8  120.58    5.03
   0   2  -8  116.80    5.02
   0   2   8  118.64    5.10
   0  -2  -8  122.21    5.11
   0  -2   8  115.84    5.20
   0  -3  -8   -0.31    0.26
   0  -3   8   -0.31    0.32
   0  -3   8    0.09    0.21
   0   3  -8    0.32    0.38
   0   3  -8    0.04    0.19
   0   3   8    0.57    0.28
   0  -4   8   19.63    1.07
   0  -4  -8   18.94    1.13
   0  -4   8   19.20    0.92
   0   4  -8   18.52    0.94
   0   4   8   19.23    1.08
   0   4  -8   20.43    1.33
   0   5  -8    0.11    0.54
   0   5   8    0.31    0.26
   0  -5  -8    0.25    0.33
   0  -5   8   -0.36    0.29
   0  -6   8   65.27    3.04
   0  -6  -8   61.86    3.02
   0   6   8   67.24    3.02
   0   6  -8   69.13    3.32
   0   7  -8   -0.20    0.56
   0  -7   8   -0.18    0.42
   0  -7  -8    0.76    0.44
   0   7   8    0.50    0.39
   0   8   8   13.62    1.01
   0   8  -8   15.97    1.42
   0  -8   8   11.89    1.08
   0  -8  -8   14.49    1.07
   0   9  -8   -0.14    0.73
   0  -9   8    0.04    0.56
   0  -9  -8   -0.01    0.52
   0   9   8   -0.28    0.47
   0 -10  -8   25.59    1.56
   0 -10   8   24.22    1.67
   0  10   8   21.58    1.57
   0  10  -8   21.70    1.89
   0 -11   8   -0.54    0.61
   0 -11  -8   -0.46    0.65
   0  11  -8    0.23    0.81
  -1   0   8   14.01    0.83
   1   0   8   14.42    0.65
   1   0   8   13.01    0.84
  -1   0  -8   12.34    0.73
   1   0  -8   14.12    0.67
   1   0  -8   11.64    0.75
  -1   0   8   13.98    0.67
   1  -1  -8    0.62    0.12
   1  -1  -8    0.45    0.29
  -1  -1   8    0.76    0.19
  -1  -1   8    0.55    0.27
  -1   1  -8    0.72    0.20
  -1   1  -8    0.90    0.34
   1   1   8    0.49    0.26
   1  -1   8    0.43    0.30
  -1  -1  -8    1.11    0.27
   1   1  -8    0.36    0.23
  -1   1   8    0.82    0.12
   1   1  -8    0.71    0.31
  -1   1   8    0.47    0.22
   1   1  -8    0.63    0.19
   1  -1   8    0.82    0.19
   1  -2  -8   54.39    2.41
  -1   2  -8   56.00    2.57
  -1  -2   8   52.85    2.33
  -1   2  -8   49.89    2.27
  -1  -2   8   52.45    2.50
   1   2   8   52.22    2.41
   1  -2   8   52.88    2.32
  -1   2   8   54.65    2.37
   1   2  -8   49.10    2.34
  -1  -2  -8   51.63    2.38
   1  -2   8   53.93    2.52
   1   2  -8   53.42    2.54
   1   2  -8   53.52    2.34
   1   3   8   11.60    0.75
  -1   3  -8   11.60    0.91
  -1  -3   8   11.03    0.88
   1  -3  -8   10.33    0.75
  -1  -3   8   11.80    0.71
  -1   3  -8   10.76    0.60
   1  -3   8   11.09    0.69
   1  -3   8   10.65    0.87
   1   3  -8   10.28    0.96
  -1  -3  -8   10.99    0.74
   1   3  -8   10.85    0.69
  -1   3   8   11.06    0.71
  -1  -4   8    7.05    0.49
  -1  -4   8    6.56    0.59
   1  -4  -8    7.03    0.67
   1   4   8    7.45    0.67
  -1   4  -8    6.48    0.80
   1  -4   8    7.55    0.62
  -1   4   8    7.45    0.58
   1   4  -8    6.05    0.82
   1   4  -8    7.27    0.55
  -1  -4  -8    7.54    0.67
   1  -4   8    6.54    0.78
  -1  -5   8    2.03    0.39
   1  -5  -8    1.50    0.42
   1   5   8    1.62    0.41
  -1  -5   8    1.90    0.29
  -1   5  -8    1.17    0.57
  -1   5   8    1.52    0.34
  -1  -5  -8    0.98    0.39
   1   5  -8    1.68    0.65
   1  -5   8    1.44    0.37
  -1   6  -8   24.92    1.66
   1  -6  -8   23.72    1.46
  -1  -6   8   25.03    1.42
   1   6   8   27.43    1.46
  -1  -6  -8   24.57    1.42
  -1   6   8   27.04    1.39
   1  -6   8   26.36    1.42
   1   6  -8   26.60    1.72
   1   7   8   14.03    1.04
  -1   7  -8   14.34    1.33
   1  -7  -8   13.87    1.03
  -1  -7   8   12.76    0.99
  -1   7   8   14.06    0.96
   1  -7   8   13.98    1.06
  -1  -7  -8   12.97    0.99
   1   7  -8   12.44    1.26
   1  -8  -8    0.96    0.53
  -1   8  -8    0.80    0.66
  -1  -8   8    0.86    0.52
   1   8   8    0.74    0.53
  -1   8   8    1.83    0.50
   1  -8   8    0.63    0.48
  -1  -8  -8    1.52    0.52
   1   8  -8    0.96    0.70
   1   9   8    2.85    0.67
   1  -9  -8    2.13    0.64
  -1  -9   8    1.41    0.60
  -1   9  -8    2.10    0.79
  -1  -9  -8    1.92    0.60
   1   9  -8    1.83    0.88
  -1   9   8    1.46    0.54
   1  -9   8    1.47    0.57
   1 -10  -8    7.09    0.91
  -1  10  -8    8.76    1.23
   1  10   8    5.33    0.88
  -1 -10   8    8.79    1.07
  -1 -10  -8    7.44    0.94
   1  10  -8    4.31    1.10
   1 -10   8    6.58    0.97
   1  11   8    3.88    0.82
   1 -11  -8    6.75    1.00
  -1  11  -8    4.57    1.02
  -1 -11   8    5.14    0.99
   1  11  -8    6.65    1.19
  -1 -11  -8    5.27    0.98
   1 -11   8    5.90    0.94
  -2   0   8  179.28    7.10
   2   0  -8  162.27    7.21
   2   0   8  178.93    7.06
   2   0  -8  170.01    7.21
  -2   0  -8  162.07    7.13
   2   0   8  168.92    7.26
   2   0  -8  171.43    7.11
  -2   0   8  174.02    7.21
   2  -1  -8    2.62    0.25
   2   1   8    2.85    0.16
  -2   1  -8    2.27    0.27
  -2  -1   8    2.97    0.31
   2   1   8    2.78    0.41
  -2  -1   8    2.70    0.40
   2  -1  -8    3.26    0.42
   2  -1   8    3.11    0.29
  -2   1   8    2.51    0.32
  -2  -1  -8    3.07    0.37
   2  -1   8    2.84    0.45
   2   1  -8    2.22    0.35
   2   1  -8    3.00    0.43
   2   1  -8    3.01    0.32
  -2   2  -8   24.83    1.40
   2  -2  -8   25.65    1.32
   2   2   8   24.16    1.30
  -2  -2   8   24.40    1.38
   2  -2  -8   26.35    1.10
  -2   2  -8   22.20    1.11
  -2  -2   8   24.27    1.21
   2   2  -8   25.96    1.27
  -2  -2  -8   26.17    1.27
   2  -2   8   25.44    1.38
  -2   2   8   23.39    1.20
   2   2  -8   25.05    1.41
   2   2  -8   24.53    1.23
   2  -2   8   25.12    1.20
  -2   3  -8    9.90    0.91
   2   3   8   10.42    0.76
   2  -3  -8   10.53    0.51
   2  -3  -8    9.96    0.75
  -2  -3   8    9.73    0.68
  -2   3   8   10.40    0.64
  -2  -3  -8    9.93    0.72
   2   3  -8    9.73    0.69
   2   3  -8   10.02    0.72
   2   3  -8   11.71    0.95
   2  -3   8    9.83    0.66
   2  -3   8    9.03    0.86
  -2  -4   8   96.86    4.16
   2  -4  -8   94.15    4.20
  -2  -4   8   97.34    4.08
  -2   4  -8   92.14    4.36
   2   4   8   98.80    4.23
   2  -4   8   97.08    4.14
   2   4  -8   88.40    4.40
   2   4  -8   95.42    4.18
  -2  -4  -8   98.62    4.20
   2  -4   8   93.22    4.35
  -2   4   8   95.40    4.10
   2   4  -8   94.96    4.13
  -2  -5   8   18.05    1.10
  -2  -5   8   18.34    0.97
   2   5   8   15.61    1.07
  -2   5  -8   21.42    1.40
   2  -5  -8   17.69    1.11
   2  -5   8   18.12    1.08
   2   5  -8   18.08    1.02
   2  -5   8   19.37    1.30
   2   5  -8   17.17    1.36
  -2  -5  -8   18.95    1.11
  -2   5   8   17.98    1.01
  -2  -6   8    0.54    0.40
  -2   6  -8    1.81    0.61
   2   6   8    2.14    0.48
   2  -6  -8    1.42    0.47
  -2  -6  -8    2.33    0.48
   2  -6   8    1.95    0.63
   2  -6   8    2.49    0.49
  -2   6   8    2.43    0.41
   2   6  -8    0.69    0.62
  -2   7  -8    9.64    1.09
   2  -7  -8   11.38    0.94
   2   7   8   10.70    0.96
  -2  -7   8    9.19    0.89
   2  -7   8   10.93    0.92
  -2  -7  -8    8.71    0.87
   2   7  -8   11.57    1.21
  -2   7   8   11.54    0.82
  -2  -8   8   21.23    1.43
  -2   8  -8   21.39    1.57
   2   8   8   20.02    1.40
   2  -8  -8   23.62    1.39
   2  -8   8   21.27    1.41
   2   8  -8   19.16    1.64
  -2  -8  -8   22.72    1.39
  -2   9  -8    3.73    0.88
  -2  -9   8    2.78    0.66
   2  -9  -8    1.63    0.69
   2   9   8    4.28    0.77
   2   9  -8    2.92    0.88
   2  -9   8    2.03    0.62
  -2  -9  -8    3.31    0.69
   2  10   8    1.50    0.67
  -2 -10   8    0.60    0.69
  -2  10  -8    0.88    0.78
   2 -10  -8    0.51    0.60
  -2 -10  -8   -0.33    0.65
   2 -10   8    0.51    0.67
   2  10  -8    0.77    0.84
  -2  11  -8    0.72    0.87
   2 -11  -8   -0.44    0.71
  -2 -11   8   -1.07    0.59
   2  11   8    0.84    0.74
   2  11  -8    0.60    1.00
  -2 -11  -8   -0.52    0.70
   2 -11   8   -0.10    0.61
   3   0   8   15.96    0.96
   3   0   8   14.46    0.71
  -3   0   8   14.87    0.85
  -3   0  -8   14.01    0.78
   3   0  -8   15.53    0.88
   3   0  -8   14.15    0.89
   3   0  -8   15.09    0.79
   3   1   8    0.83    0.33
  -3   1  -8    1.83    0.24
   3  -1  -8    1.77    0.24
  -3  -1   8    1.46    0.34
   3   1   8    1.66    0.16
   3  -1  -8    1.80    0.36
  -3  -1  -8    1.13    0.30
  -3   1   8    1.70    0.28
   3  -1   8    2.22    0.42
   3  -1   8    2.33    0.27
   3   1  -8    1.16    0.28
   3   1  -8    2.09    0.39
   3   1  -8    2.23    0.41
   3   2   8    2.26    0.42
  -3   2  -8    1.62    0.19
   3  -2  -8    1.81    0.23
  -3   2  -8    2.10    0.47
  -3  -2   8    1.78    0.44
  -3  -2   8    1.50    0.30
   3  -2  -8    1.39    0.37
  -3  -2  -8    2.11    0.38
   3   2  -8    1.27    0.45
   3   2  -8    1.68    0.36
   3  -2   8    2.03    0.44
   3  -2   8    1.85    0.30
   3   2  -8    1.42    0.32
  -3   2   8    2.22    0.29
   3  -3  -8   10.64    0.78
  -3   3  -8   10.42    0.93
  -3  -3   8    9.27    0.69
   3   3   8    9.83    0.76
   3  -3  -8    9.43    0.56
  -3  -3  -8   10.19    0.73
   3   3  -8    9.68    0.73
  -3   3   8   10.75    0.62
   3   3  -8   10.10    0.72
   3  -3   8   11.04    0.68
   3  -3   8    9.85    0.88
   3   3  -8   11.07    1.03
  -3  -4   8    6.59    0.57
  -3   4  -8    7.55    0.82
   3  -4  -8    6.49    0.66
   3  -4  -8    6.71    0.45
  -3  -4   8    6.62    0.60
   3   4   8    6.58    0.68
  -3  -4  -8    5.56    0.61
   3  -4   8    8.27    0.64
   3  -4   8    6.81    0.78
   3   4  -8    7.82    0.66
  -3   4   8    6.11    0.50
   3   4  -8    6.29    0.62
   3   4  -8    5.98    0.84
  -3   5  -8    0.59    0.53
   3  -5  -8   -0.03    0.37
  -3  -5   8    0.18    0.32
   3   5   8    0.23    0.35
  -3  -5   8    0.10    0.28
   3   5  -8   -0.22    0.33
  -3  -5  -8    0.45    0.40
   3   5  -8    0.93    0.38
   3   5  -8    0.87    0.57
   3  -5   8    0.48    0.34
  -3   5   8    0.28    0.24
   3  -5   8    0.40    0.49
  -3  -6   8    0.12    0.30
   3   6   8   -0.16    0.41
  -3  -6   8   -0.04    0.35
   3  -6  -8    0.82    0.41
  -3   6  -8    0.07    0.47
  -3  -6  -8   -0.10    0.38
   3   6  -8    0.49    0.41
   3  -6   8   -0.65    0.49
   3   6  -8   -0.27    0.57
   3  -6   8    0.12    0.38
   3   7   8   13.70    1.09
   3  -7  -8   11.81    1.03
  -3   7  -8   14.48    1.25
  -3  -7   8   10.43    0.97
  -3  -7  -8   14.08    1.10
   3   7  -8   14.10    1.36
   3  -7   8   13.06    0.99
   3  -7   8   14.39    1.33
   3  -8  -8    1.14    0.54
  -3  -8   8   -0.07    0.50
  -3   8  -8   -0.16    0.56
   3   8   8    1.08    0.53
   3  -8   8    0.66    0.53
   3   8  -8    1.40    0.81
  -3  -8  -8    1.34    0.54
   3  -9  -8    1.00    0.60
  -3  -9   8    0.24    0.59
   3   9   8    0.79    0.57
  -3   9  -8    0.18    0.67
   3  -9   8    0.35    0.59
  -3  -9  -8   -0.55    0.60
   3   9  -8    1.47    0.84
  -3 -10   8    0.64    0.61
   3  10   8    0.55    0.70
  -3  10  -8    0.25    0.71
   3 -10  -8    1.71    0.73
   3  10  -8    1.58    0.99
   3 -10   8    1.79    0.66
  -3 -10  -8    0.44    0.70
   3  11   8    7.28    1.14
  -3 -11   8    5.59    0.97
   3 -11  -8    8.98    1.07
  -3 -11  -8    8.34    1.08
   3  11  -8    6.76    1.34
   3 -11   8    8.08    1.08
   4   0  -8   14.65    0.95
   4   0   8   15.78    0.77
   4   0  -8   14.80    0.87
  -4   0   8   16.77    0.87
   4   0  -8   15.00    0.84
   4   0   8   15.97    1.01
  -4   0  -8   14.51    0.82
  -4  -1   8    0.06    0.26
   4  -1  -8    0.07    0.19
   4   1   8    0.72    0.16
  -4   1  -8    0.38    0.18
   4  -1  -8   -0.18    0.29
   4   1   8    0.44    0.35
   4   1  -8    0.13    0.29
  -4   1   8    0.46    0.20
   4  -1   8    0.64    0.21
   4   1  -8    0.63    0.37
   4  -1   8   -0.13    0.31
  -4  -1  -8    0.71    0.28
   4   1  -8    0.13    0.23
   4  -2  -8    6.01    0.45
   4  -2  -8    5.88    0.62
   4   2   8    5.66    0.62
   4   2   8    5.81    0.35
  -4  -2  -8    5.68    0.54
   4   2  -8    5.21    0.59
   4  -2   8    6.09    0.50
  -4   2   8    6.31    0.43
   4  -2   8    5.69    0.66
   4   2  -8    5.44    0.67
   4   2  -8    5.61    0.53
  -4   3  -8   11.09    0.96
   4  -3  -8    9.16    0.60
   4   3   8    9.76    0.84
   4  -3  -8    9.88    0.82
  -4  -3   8    9.17    0.67
   4  -3   8    9.70    0.68
   4   3  -8   10.23    0.73
   4  -3   8    9.68    0.92
   4   3  -8    9.98    0.77
  -4  -3  -8    9.43    0.73
  -4   3   8   10.47    0.58
   4   3  -8    9.29    0.96
   4  -4  -8   10.77    0.69
  -4  -4   8   12.50    0.82
  -4  -4   8   12.91    0.85
   4  -4  -8   11.95    0.89
  -4   4  -8   11.76    1.04
   4   4   8   12.88    0.91
   4   4  -8   14.56    1.26
  -4  -4  -8   11.49    0.93
   4   4  -8   11.49    0.85
   4   4  -8   11.32    0.88
   4  -4   8   13.63    0.83
   4  -4   8   10.02    0.98
  -4   5  -8    4.41    0.72
   4   5   8    3.83    0.59
   4  -5  -8    5.28    0.64
  -4  -5   8    3.28    0.50
  -4  -5   8    3.98    0.49
  -4  -5  -8    4.20    0.61
   4   5  -8    4.10    0.56
   4  -5   8    3.39    0.70
   4   5  -8    4.51    0.82
   4   5  -8    4.17    0.59
   4  -5   8    5.09    0.59
   4  -6  -8    2.94    0.59
   4   6   8    4.45    0.64
  -4  -6   8    3.95    0.51
  -4   6  -8    3.38    0.75
  -4  -6   8    3.72    0.55
   4  -6   8    4.28    0.76
  -4  -6  -8    4.46    0.66
   4   6  -8    3.09    0.58
   4  -6   8    3.59    0.53
   4   6  -8    3.61    0.86
   4   7   8   14.39    1.14
   4  -7  -8   16.21    1.14
  -4  -7   8   15.63    0.99
  -4  -7   8   15.99    1.11
  -4   7  -8   16.40    1.28
  -4  -7  -8   14.67    1.15
   4  -7   8   14.20    1.33
   4   7  -8   17.62    1.55
   4   7  -8   16.57    1.17
   4  -7   8   15.15    1.07
  -4   8  -8    6.66    0.95
   4   8   8    5.83    0.83
   4  -8  -8    6.08    0.82
  -4  -8   8    6.60    0.84
  -4  -8  -8    5.66    0.82
   4   8  -8    7.17    1.13
   4  -8   8    5.58    0.72
   4  -8   8    7.14    1.04
   4   9   8   10.62    1.13
  -4   9  -8    9.31    1.10
  -4  -9   8    8.72    0.96
   4  -9  -8   10.85    1.05
   4  -9   8    8.94    0.99
   4  -9   8    9.98    1.24
  -4  -9  -8    9.77    1.02
   4   9  -8    7.68    1.23
  -4  10  -8    3.03    0.92
   4 -10  -8    2.34    0.72
   4  10   8    2.30    0.83
  -4 -10   8    2.77    0.71
  -4 -10  -8    3.79    0.82
   4  10  -8    1.82    1.10
   4 -10   8    1.69    0.72
   4 -10   8    3.71    1.03
   4 -11  -8   12.72    1.30
  -4 -11   8   11.29    1.24
  -4  11  -8   13.19    1.37
   4  11   8    9.74    1.28
  -4 -11  -8   11.96    1.23
   4  11  -8   11.19    1.64
   4 -11   8    9.66    1.17
   4 -11   8   10.79    1.40
  -5   0   8    0.32    0.21
   5   0  -8    0.41    0.26
   5   0   8    0.31    0.19
  -5   0  -8    0.50    0.24
   5   0  -8    0.20    0.36
   5   0  -8    0.43    0.25
   5   0   8    0.17    0.36
   5   1   8    2.76    0.29
  -5   1  -8    3.05    0.32
   5  -1  -8    2.71    0.37
   5   1   8    3.50    0.52
  -5  -1   8    3.85    0.45
   5  -1  -8    3.58    0.57
   5   1  -8    3.57    0.55
   5   1  -8    3.51    0.48
  -5   1   8    3.86    0.34
   5  -1   8    3.44    0.38
  -5  -1  -8    3.38    0.42
   5  -1   8    4.10    0.56
   5   1  -8    2.81    0.41
   5   2   8   26.27    1.20
   5  -2  -8   25.94    1.45
   5   2   8   27.21    1.47
   5  -2  -8   26.10    1.30
   5   2  -8   26.58    1.38
   5  -2   8   27.84    1.32
   5   2  -8   24.47    1.45
  -5  -2  -8   25.80    1.39
   5  -2   8   26.22    1.48
   5   2  -8   27.46    1.53
   5  -3  -8    1.26    0.29
  -5   3  -8    1.31    0.47
   5   3   8    1.74    0.42
   5  -3  -8    1.29    0.43
  -5  -3   8    1.45    0.44
   5  -3   8    0.66    0.43
   5  -3   8    1.32    0.34
   5   3  -8    2.10    0.62
   5   3  -8    0.46    0.39
  -5  -3  -8    0.49    0.41
   5   3  -8    1.50    0.39
  -5  -4   8    0.19    0.35
  -5  -4   8    0.18    0.34
   5  -4  -8    0.61    0.27
   5  -4  -8    0.43    0.39
  -5   4  -8    0.13    0.40
   5   4   8    0.17    0.39
   5   4  -8    0.54    0.44
   5   4  -8    0.39    0.53
   5   4  -8    0.48    0.39
  -5  -4  -8    0.52    0.45
   5  -4   8    0.19    0.30
   5  -4   8    0.00    0.41
  -5   5  -8    4.83    0.71
  -5  -5   8    3.77    0.50
   5   5   8    4.67    0.65
   5  -5  -8    3.29    0.63
   5  -5  -8    4.44    0.63
  -5  -5   8    5.04    0.61
   5  -5   8    4.27    0.69
   5   5  -8    4.50    0.91
   5   5  -8    3.53    0.60
  -5  -5  -8    4.88    0.66
   5   5  -8    4.09    0.64
   5  -5   8    2.91    0.53
   5  -6  -8   21.39    1.33
  -5   6  -8   20.82    1.46
  -5  -6   8   22.15    1.27
  -5  -6   8   20.75    1.22
   5   6   8   20.06    1.40
   5  -6   8   20.07    1.46
   5  -6   8   21.68    1.25
  -5  -6  -8   20.87    1.34
   5   6  -8   20.97    1.34
   5   6  -8   20.19    1.61
   5  -7  -8    0.40    0.51
  -5  -7   8    0.36    0.44
   5   7   8   -0.36    0.47
  -5   7  -8    1.29    0.58
  -5  -7   8    0.39    0.40
   5  -7   8    1.02    0.61
   5   7  -8    1.70    0.80
   5   7  -8    0.03    0.46
   5  -7   8    0.20    0.45
  -5  -7  -8    0.05    0.53
   5  -8  -8    0.71    0.56
   5   8   8    0.84    0.57
  -5  -8   8    0.96    0.53
  -5   8  -8    0.06    0.60
  -5  -8  -8    0.96    0.62
   5  -8   8   -0.10    0.45
   5   8  -8   -0.84    0.47
   5  -8   8    1.19    0.70
   5   8  -8    0.37    0.84
   5  -9  -8    2.26    0.68
  -5   9  -8    1.55    0.70
  -5  -9   8    1.36    0.60
   5   9   8    1.81    0.71
   5  -9   8    1.96    0.60
  -5  -9  -8    1.80    0.72
   5  -9   8    0.80    0.71
   5   9  -8    1.01    0.98
  -5  10  -8   11.68    1.23
  -5 -10   8   10.00    1.13
   5 -10  -8   11.23    1.15
   5  10   8   11.12    1.30
  -5 -10  -8   13.42    1.29
   5 -10   8   10.31    1.28
   5  10  -8    7.92    1.40
   5 -10   8   10.49    1.15
   6   0   8  183.71    7.89
   6   0  -8  184.95    7.92
   6   0  -8  176.15    7.71
   6   0   8  187.33    7.69
   6   0  -8  188.81    7.77
  -6   0  -8  180.89    7.71
  -6   0   8  188.41    7.70
   6  -1  -8    0.93    0.32
   6   1   8    0.72    0.23
   6  -1  -8    0.61    0.43
  -6  -1   8    0.69    0.29
   6   1   8    0.32    0.36
   6   1  -8    0.27    0.43
   6   1  -8    0.74    0.36
   6  -1   8    0.89    0.41
  -6  -1  -8    0.70    0.31
   6  -1   8    0.74    0.26
   6   1  -8    0.68    0.33
   6  -2  -8    1.42    0.33
   6  -2  -8    1.65    0.46
   6   2   8    1.36    0.26
   6   2   8    2.02    0.48
   6   2  -8    1.51    0.41
  -6  -2  -8    1.77    0.43
   6  -2   8    1.31    0.43
   6   2  -8    1.05    0.47
   6  -2   8    1.39    0.34
   6   2  -8    1.27    0.49
  -6  -3   8   -0.17    0.34
   6   3   8    0.46    0.43
   6  -3  -8    0.31    0.41
   6  -3  -8   -0.14    0.26
   6   3  -8   -0.44    0.39
   6   3  -8   -0.46    0.48
  -6  -3  -8    0.64    0.44
   6   3  -8   -0.25    0.34
   6  -3   8    0.02    0.29
   6  -3   8   -0.10    0.40
   6   4   8   84.99    3.94
   6  -4  -8   85.66    3.93
  -6  -4   8   89.60    3.85
  -6   4  -8   86.56    3.97
  -6  -4   8   87.53    3.86
   6  -4  -8   86.67    3.76
   6   4  -8   88.63    4.14
   6  -4   8   84.16    3.96
   6   4  -8   84.04    3.95
   6  -4   8   81.75    3.80
   6   4  -8   88.59    3.90
  -6   5  -8    1.34    0.58
   6  -5  -8    1.05    0.48
  -6  -5   8    1.97    0.44
   6  -5  -8    1.27    0.36
  -6  -5   8    1.13    0.41
   6   5   8    1.12    0.49
  -6  -5  -8    1.46    0.51
   6  -5   8    1.45    0.58
   6   5  -8    0.89    0.55
   6   5  -8    0.50    0.73
   6   5  -8    1.38    0.49
   6  -5   8    1.39    0.43
  -6   6  -8   11.81    1.06
  -6  -6   8   11.20    0.91
   6   6   8   10.85    1.04
   6  -6  -8   12.44    1.05
  -6  -6   8   13.18    0.99
   6   6  -8   12.84    1.07
   6   6  -8   12.88    1.38
   6  -6   8    7.88    0.82
   6  -6   8   10.90    1.08
  -6  -6  -8   10.96    1.00
  -6  -7   8    0.80    0.46
  -6  -7   8    0.29    0.39
  -6   7  -8    0.60    0.61
   6  -7  -8   -0.89    0.44
   6   7   8   -0.24    0.51
   6  -7   8   -0.44    0.40
   6   7  -8   -0.17    0.48
  -6  -7  -8   -0.04    0.61
   6  -7   8   -0.29    0.59
   6   7  -8    0.22    0.79
   6   8   8    6.61    0.96
   6  -8  -8    6.41    0.87
  -6  -8   8    5.68    0.70
  -6  -8   8    7.93    0.86
  -6   8  -8    6.16    0.89
  -6  -8  -8    6.93    0.93
   6   8  -8    7.87    0.92
   6  -8   8    8.57    0.87
   6   8  -8    5.74    1.10
   6  -8   8    6.34    0.94
  -6  -9   8   -0.04    0.55
   6  -9  -8    2.17    0.67
  -6   9  -8    0.59    0.62
   6   9   8    0.32    0.69
   6   9  -8   -0.45    0.59
   6  -9   8    1.02    0.57
   6   9  -8    0.87    0.93
   6  -9   8   -0.10    0.63
  -6  -9  -8    1.05    0.70
  -6  10  -8   36.41    2.16
   6  10   8   31.29    2.15
  -6 -10   8   33.55    2.01
   6 -10  -8   34.29    2.00
   6 -10   8   30.12    2.22
   6  10  -8   38.53    2.55
  -6 -10  -8   34.97    2.11
   6 -10   8   31.82    1.98
   7   0  -8    3.51    0.64
   7   0  -8    3.36    0.48
  -7   0  -8    2.06    0.39
   7   0   8    3.85    0.58
   7   0   8    3.41    0.38
   7   1   8    0.72    0.42
   7  -1  -8    0.66    0.33
   7  -1  -8    0.35    0.45
   7   1   8    0.45    0.25
   7   1  -8    0.06    0.46
  -7  -1  -8    0.53    0.32
   7   1  -8    0.22    0.34
   7  -1   8    0.00    0.28
   7  -1   8    0.72    0.42
   7   2   8    4.33    0.64
   7  -2  -8    4.52    0.67
   7  -2  -8    5.76    0.58
   7   2   8    4.53    0.47
   7  -2   8    4.38    0.68
   7   2  -8    4.52    0.60
   7   2  -8    5.68    0.82
  -7  -2  -8    6.49    0.65
   7   2  -8    4.24    0.68
   7  -2   8    4.21    0.51
   7  -3  -8    1.92    0.41
   7   3   8    1.47    0.50
   7  -3  -8    0.39    0.45
  -7  -3   8    0.81    0.45
   7   3  -8    0.54    0.39
   7   3  -8    1.61    0.64
  -7  -3  -8    1.47    0.46
   7  -3   8    0.39    0.48
   7  -3   8    0.75    0.32
   7   3  -8    0.54    0.50
   7   4   8    4.75    0.71
   7  -4  -8    4.37    0.69
   7  -4  -8    3.68    0.51
  -7  -4   8    3.32    0.57
  -7  -4  -8    3.89    0.63
   7   4  -8    5.44    0.92
   7  -4   8    5.58    0.75
   7  -4   8    3.28    0.50
   7   4  -8    3.81    0.68
   7   4  -8    4.31    0.65
   7   5   8    1.06    0.50
   7  -5  -8   -0.16    0.34
  -7  -5   8    0.11    0.44
  -7   5  -8   -0.22    0.44
   7  -5  -8   -0.41    0.43
  -7  -5   8    0.10    0.38
   7   5  -8    0.24    0.71
   7   5  -8    0.21    0.43
  -7  -5  -8    0.31    0.48
   7  -5   8    0.15    0.45
   7  -5   8   -0.25    0.39
   7   5  -8   -0.48    0.47
  -7   6  -8    4.77    0.77
  -7  -6   8    5.59    0.70
  -7  -6   8    5.22    0.69
   7   6   8    4.76    0.78
   7  -6  -8    6.28    0.80
   7  -6   8    4.27    0.66
   7   6  -8    2.67    0.85
   7   6  -8    5.31    0.74
  -7  -6  -8    3.87    0.73
   7  -6   8    5.71    0.85
  -7  -7   8    0.43    0.52
  -7  -7   8    0.70    0.47
   7   7   8    1.06    0.68
   7  -7  -8    1.13    0.60
  -7   7  -8    0.17    0.51
   7   7  -8    0.91    0.78
   7  -7   8    1.11    0.53
   7  -7   8    0.31    0.55
   7   7  -8    1.20    0.64
  -7  -7  -8    0.98    0.69
   7  -8  -8    3.27    0.77
  -7  -8   8    2.45    0.65
   7   8   8    2.47    0.78
  -7   8  -8    2.58    0.75
  -7  -8   8    4.07    0.67
   7  -8   8    2.77    0.63
  -7  -8  -8    3.16    0.81
   7   8  -8    1.70    0.70
   7  -8   8    2.58    0.76
   7   8  -8    3.65    1.10
  -7  -9   8    0.93    0.62
   7   9   8   -0.12    0.72
   7  -9  -8    0.06    0.60
  -7   9  -8   -0.66    0.62
   7  -9   8   -0.12    0.60
   7   9  -8    0.64    0.64
  -7  -9  -8    0.42    0.71
   7   9  -8   -0.61    0.88
   7  -9   8    0.27    0.65
  -7 -10   8    3.12    0.79
   7 -10  -8    3.16    0.86
  -7  10  -8    3.48    0.86
   7  10   8    3.91    1.00
   7 -10   8    4.06    1.01
   7 -10   8    3.51    0.83
   7  10  -8    4.32    0.92
  -7 -10  -8    3.27    0.93
   7  10  -8    4.23    1.26
   8   0   8   36.41    1.70
   8   0  -8   32.35    1.78
   8   0  -8   35.26    1.98
   8   0   8   35.27    1.88
   8  -1  -8   -0.24    0.46
   8   1   8    0.06    0.27
   8   1   8   -0.85    0.43
   8  -1  -8    0.36    0.32
  -8  -1  -8    0.18    0.38
   8  -1   8    0.30    0.46
   8   1  -8    0.16    0.54
   8   1  -8    0.01    0.39
   8  -1   8   -0.31    0.29
   8  -2  -8   -0.04    0.36
  -8  -2   8   -0.03    0.46
   8   2   8    0.25    0.43
   8  -2  -8   -0.61    0.45
  -8  -2  -8    0.33    0.45
   8  -2   8    0.19    0.33
   8   2  -8    0.20    0.37
   8   2  -8    0.91    0.64
   8  -2   8    1.02    0.52
   8  -3  -8    4.17    0.56
  -8  -3   8    4.95    0.67
   8   3   8    5.08    0.78
   8  -3  -8    3.53    0.67
   8  -3   8    6.07    0.64
  -8  -3  -8    5.77    0.73
   8   3  -8    4.75    0.83
   8   3  -8    4.46    0.63
   8   3  -8    4.78    0.77
   8  -3   8    3.66    0.63
   8   4   8   29.13    1.75
   8  -4  -8   29.46    1.56
   8  -4  -8   28.19    1.70
  -8  -4   8   29.96    1.64
   8   4  -8   29.46    1.68
   8   4  -8   31.99    1.86
   8  -4   8   27.47    1.56
   8  -4   8   27.37    1.65
   8   4  -8   26.60    1.88
  -8  -4  -8   27.22    1.68
  -8  -5   8    4.65    0.68
   8  -5  -8    6.23    0.84
   8  -5  -8    4.98    0.65
  -8  -5   8    5.97    0.71
   8   5   8    6.74    0.89
   8   5  -8    2.99    0.78
   8   5  -8    5.48    1.02
   8  -5   8    5.40    0.76
  -8  -5  -8    6.06    0.80
   8  -5   8    4.98    0.65
   8   5  -8    5.84    0.76
   8   6   8    0.86    0.60
   8  -6  -8   -0.04    0.51
  -8  -6   8    0.55    0.53
  -8  -6   8    0.44    0.46
   8  -6   8   -0.71    0.52
  -8  -6  -8    1.34    0.69
   8   6  -8   -0.08    0.77
   8   6  -8    0.44    0.52
   8  -6   8    0.49    0.49
   8  -7  -8   12.63    1.15
  -8   7  -8   11.66    1.10
   8   7   8   12.28    1.28
  -8  -7   8   12.87    1.07
  -8  -7   8   13.29    1.14
  -8  -7  -8    9.96    1.13
   8   7  -8    9.77    1.11
   8  -7   8   12.49    1.08
   8  -7   8   11.85    1.18
   8   7  -8   13.57    1.52
  -8  -8   8   16.95    1.30
  -8   8  -8   18.11    1.33
   8   8   8   18.36    1.63
  -8  -8   8   18.92    1.32
   8  -8  -8   17.97    1.45
   8   8  -8   13.66    1.59
   8   8  -8   16.20    1.42
  -8  -8  -8   18.72    1.50
   8  -8   8   16.56    1.33
   8  -8   8   16.63    1.47
   8   9   8    9.75    1.31
  -8   9  -8    8.19    1.05
  -8  -9   8    9.74    0.97
   8  -9  -8   10.75    1.17
  -8  -9   8   10.49    1.04
  -8  -9  -8    9.23    1.18
   8  -9   8    8.65    0.99
   8   9  -8    7.28    1.03
   8  -9   8    7.84    1.11
   8   9  -8    7.45    1.41
   9   0  -8    0.59    0.61
   9   0   8    0.10    0.45
   9   0  -8    0.09    0.41
   9   0   8    0.76    0.35
   9  -1  -8    0.97    0.62
   9   1   8    1.33    0.53
   9  -1  -8    0.81    0.46
   9   1   8    1.41    0.38
  -9  -1  -8    1.49    0.46
   9  -1   8    1.39    0.39
   9   1  -8    0.69    0.42
   9   1  -8    2.31    0.73
   9  -1   8    1.07    0.55
  -9  -2   8    6.55    0.84
   9  -2  -8    4.91    0.81
   9  -2  -8    6.61    0.71
   9   2   8    5.99    0.80
   9  -2   8    6.40    0.68
   9  -2   8    5.15    0.77
  -9  -2  -8    5.36    0.73
   9   2  -8    4.67    0.69
   9   2  -8    7.26    0.99
   9   3   8    5.14    0.77
   9  -3  -8    6.11    0.88
  -9  -3   8    5.92    0.81
   9  -3  -8    3.59    0.61
   9   3  -8    7.41    0.83
   9  -3   8    6.24    0.83
   9   3  -8    5.39    0.89
   9  -3   8    7.12    0.72
  -9  -3  -8    5.52    0.77
   9  -4  -8   -0.19    0.50
  -9  -4   8    0.67    0.53
   9   4   8    0.01    0.51
   9  -4  -8    0.29    0.44
   9   4  -8    0.22    0.50
   9   4  -8    0.54    0.66
   9  -4   8    0.44    0.52
  -9  -4  -8    0.17    0.53
   9  -4   8   -0.78    0.40
  -9  -5   8   -0.03    0.55
   9  -5  -8    0.19    0.44
   9   5   8    0.98    0.60
   9  -5  -8   -0.13    0.56
   9   5  -8    0.36    0.51
  -9  -5  -8    0.47    0.61
   9   5  -8   -0.45    0.71
   9  -5   8    0.03    0.42
   9   5  -8   -0.91    0.58
   9  -5   8    0.32    0.55
  -9  -6   8    1.17    0.58
  -9  -6   8    1.13    0.54
   9  -6  -8    2.26    0.69
   9   6   8    1.14    0.75
  -9  -6  -8    2.37    0.75
   9   6  -8    1.76    0.63
   9  -6   8    1.52    0.64
   9   6  -8    1.93    0.92
   9  -6   8    1.49    0.57
   9  -7  -8    5.08    0.88
  -9  -7   8    7.29    0.89
  -9  -7   8    4.72    0.79
   9   7   8    8.30    1.15
   9   7  -8    7.04    0.94
   9  -7   8    5.81    0.79
   9   7  -8    7.46    1.28
   9  -7   8    6.18    0.92
  -9  -7  -8    8.17    1.11
  -9   8  -8    1.11    0.65
  -9  -8   8    1.14    0.64
   9   8   8    0.77    0.88
   9  -8  -8    1.39    0.70
  -9  -8   8    1.03    0.67
   9  -8   8    0.63    0.68
  -9  -8  -8    1.11    0.79
   9  -8   8    0.68    0.62
   9   8  -8    0.28    0.70
   9   8  -8    0.78    1.01
   9  -9  -8    1.83    0.74
  -9  -9   8   -0.74    0.57
   9   9   8    0.73    0.86
  -9  -9   8   -0.17    0.66
  -9  -9  -8   -0.66    0.79
   9  -9   8    1.25    0.64
   9   9  -8    0.76    0.98
   9   9  -8    0.60    0.80
  10   0  -8   49.70    2.40
  10   0   8   45.91    2.46
  10   0   8   45.82    2.27
  10  -1  -8    8.96    1.05
  10   1   8    6.91    0.69
  10  -1  -8    7.65    0.82
 -10  -1   8    6.83    0.90
  10   1   8    5.34    0.79
  10  -1   8    6.74    0.84
  10  -1   8    8.44    0.77
  10   1  -8    6.03    0.75
  10   1  -8    6.95    1.03
  10  -2  -8   73.33    3.36
  10  -2  -8   68.90    3.54
  10   2   8   71.30    3.50
 -10  -2   8   76.04    3.50
  10   2  -8   70.87    3.58
 -10  -2  -8   70.92    3.34
  10   2  -8   72.45    3.43
  10  -2   8   72.55    3.32
  10  -2   8   67.73    3.38
  10  -3  -8    0.54    0.50
  10  -3  -8    0.41    0.63
 -10  -3   8   -0.55    0.53
  10   3   8    0.27    0.53
  10  -3   8    0.40    0.44
 -10  -3  -8    0.33    0.58
  10  -3   8    0.45    0.49
  10   3  -8   -0.77    0.67
  10   3  -8    0.40    0.49
 -10  -4   8   20.27    1.41
  10   4   8   23.06    1.51
  10  -4  -8   19.31    1.48
  10  -4  -8   21.23    1.36
  10  -4   8   21.35    1.35
  10   4  -8   18.95    1.39
  10  -4   8   20.19    1.42
  10   4  -8   16.53    1.52
 -10  -4  -8   19.47    1.41
  10  -5  -8   18.71    1.28
  10  -5  -8   16.44    1.41
  10   5   8   17.14    1.50
 -10  -5   8   17.08    1.29
  10  -5   8   17.87    1.27
 -10  -5  -8   17.56    1.41
  10   5  -8   14.28    1.39
  10   5  -8   17.09    1.32
  10  -5   8   15.15    1.32
 -10  -6   8   17.96    1.37
 -10  -6   8   21.23    1.48
  10  -6  -8   20.80    1.58
  10   6   8   20.47    1.59
  10  -6   8   17.04    1.36
 -10  -6  -8   20.82    1.55
  10  -6   8   18.17    1.40
  10   6  -8   20.89    2.84
  10   6  -8   19.24    1.44
 -10  -7   8    1.07    0.68
 -10  -7   8    0.20    0.56
  10  -7  -8    0.85    0.68
  10   7   8    1.25    0.82
  10   7  -8    0.25    0.68
 -10  -7  -8    1.74    0.85
  10  -7   8    1.28    0.65
  10   7  -8   -0.08    0.95
  10   8   8    1.47    0.95
  10  -8  -8    1.40    0.79
 -10  -8   8    0.42    0.62
 -10  -8   8    0.75    0.69
  10   8  -8    0.37    0.68
  10   8  -8    0.35    1.05
 -10  -8  -8    1.15    0.95
  10  -8   8    1.07    0.68
  11   0   8    6.45    0.87
  11   0  -8    6.65    1.05
  11   0   8    5.27    0.68
  11   0  -8    6.74    0.83
  11  -1  -8    0.20    0.67
 -11  -1   8    0.29    0.59
  11   1   8    0.32    0.54
  11  -1  -8    0.28    0.53
  11   1  -8    1.40    0.78
  11  -1   8    0.13    0.53
  11  -1   8   -0.05    0.45
  11   1  -8    0.25    0.54
  11  -2  -8   17.08    1.26
  11   2   8   13.43    1.29
  11  -2  -8   17.13    1.51
 -11  -2   8   18.38    1.34
  11   2  -8   18.82    1.57
  11   2  -8   14.84    1.27
  11  -2   8   13.98    1.19
 -11  -2  -8   15.59    1.25
  11  -2   8   17.09    1.18
  11   3   8    1.42    0.67
 -11  -3   8    0.79    0.64
  11  -3  -8    0.38    0.80
  11  -3  -8    0.83    0.53
  11   3  -8    2.04    0.94
  11  -3   8    0.98    0.53
 -11  -3  -8    1.12    0.67
  11  -3   8    1.42    0.63
  11   3  -8    0.20    0.54
  11  -4  -8    3.95    0.74
 -11  -4   8    4.47    0.81
  11  -4  -8    1.50    0.76
  11   4   8    6.32    0.95
  11   4  -8    3.23    0.93
 -11  -4  -8    5.47    0.94
  11  -4   8    4.98    0.76
  11  -4   8    3.66    0.76
  11   4  -8    3.19    0.74
  11  -5  -8    1.72    0.84
  11  -5  -8    2.42    0.69
  11   5   8    3.28    0.91
 -11  -5   8    2.28    0.75
  11  -5   8    2.69    0.63
  11   5  -8    2.51    0.73
 -11  -5  -8    2.16    0.87
  11  -5   8    3.22    0.76
  11   5  -8    1.20    0.80
  11  -6  -8    6.11    1.03
 -11  -6   8    9.51    1.08
 -11  -6   8    8.86    1.06
  11   6   8    7.14    1.09
  11   6  -8    9.26    1.13
 -11  -6  -8    7.50    1.15
  11  -6   8    9.83    1.05
  11  -7  -8    1.17    0.85
 -11  -7   8    3.04    0.77
 -11  -7   8    2.78    0.74
  11   7   8    3.90    1.08
  11  -7   8    1.90    0.72
  11   7  -8    2.18    0.78
 -11  -7  -8    4.44    1.11
  12   0  -8    1.87    0.62
  12   0  -8   -0.95    0.83
  12   0   8    0.16    0.50
 -12   0   8    0.94    0.77
  12   0   8    0.64    0.62
  12  -1  -8   -0.95    0.52
 -12  -1   8   -0.25    0.63
  12   1   8    0.58    0.59
  12  -1  -8   -0.06    0.79
  12  -1   8    0.25    0.62
  12  -1   8   -0.09    0.52
  12   1  -8   -0.02    0.58
  12   1  -8    0.53    0.83
  12  -2  -8   21.90    1.48
 -12  -2   8   20.70    1.53
  12   2   8   20.73    1.56
  12  -2  -8   18.92    1.66
  12  -2   8   19.51    1.36
  12  -2   8   16.65    1.43
  12   2  -8   16.85    1.65
  12   2  -8   19.79    1.53
  12  -3  -8   -0.43    0.72
  12   3   8    0.08    0.61
 -12  -3   8   -0.07    0.66
  12  -3  -8    0.37    0.63
 -12  -3  -8   -0.31    0.68
  12  -3   8    0.81    0.61
  12   3  -8    0.35    0.86
  12   3  -8    0.53    0.67
  12  -3   8    1.14    0.60
  12  -4  -8    0.11    0.73
  12   4   8    1.79    0.85
  12  -4  -8   -0.13    0.55
 -12  -4   8   -0.10    0.68
  12   4  -8   -0.17    0.61
 -12  -4  -8   -0.19    0.79
  12   4  -8    2.04    0.93
  12  -4   8    0.03    0.59
  12  -5  -8    0.43    0.68
  12   5   8    0.53    0.75
  12  -5  -8   -0.03    0.82
 -12  -5   8    0.08    0.70
  12  -5   8    0.18    0.53
 -12  -5  -8   -1.92    0.77
  12   5  -8    0.42    0.87
  12   5  -8   -0.01    0.68
  12   6   8   11.57    1.40
  12  -6  -8    9.78    1.25
 -12  -6   8   12.97    1.25
  12   6  -8   10.26    1.23
 -12  -6  -8    9.70    1.29
  12  -6   8   11.74    1.20
  13   0  -8   10.66    1.18
  13   0   8   13.62    1.34
 -13   0   8    8.76    1.15
  13   0  -8    8.94    1.33
 -13  -1   8    0.47    0.72
  13  -1  -8    1.75    0.72
  13  -1  -8    0.19    0.87
  13   1   8    1.67    0.70
 -13   1   8    1.76    0.83
  13   1  -8    1.06    0.64
  13   1  -8    0.92    0.96
  13  -1   8    1.33    0.60
  13  -1   8    1.09    0.71
  13  -2  -8    6.12    1.29
  13   2   8    5.11    0.93
 -13  -2   8    7.98    1.09
  13  -2  -8    7.56    0.98
  13   2  -8    4.25    1.13
  13  -2   8    7.26    0.90
  13   2  -8    8.27    1.10
  13   3   8    1.40    0.80
 -13  -3   8    0.04    0.72
  13  -3  -8   -0.61    0.79
  13  -3  -8   -0.91    0.63
  13   3  -8    0.21    1.00
  13  -3   8   -0.22    0.53
  13   3  -8    0.34    0.66
  13  -4  -8    6.64    0.99
  13  -4  -8    6.83    1.24
 -13  -4   8    8.62    1.14
  13   4   8    9.09    1.24
  13   4  -8    5.56    1.04
 -13  -4  -8    6.12    1.04
  13  -4   8    5.61    0.84
  13   4  -8    5.01    1.18
 -13  -5   8    4.51    1.03
  13  -5  -8    4.87    0.95
  13  -5  -8    6.39    1.19
  13   5   8    4.29    1.08
  13   5  -8    3.67    0.88
 -13  -5  -8    3.70    1.01
  13  -5   8    3.91    0.78
  14   0  -8   26.41    1.78
 -14   0   8   19.25    1.69
  14   0  -8   20.83    1.98
  14   0   8   17.75    2.06
 -14  -1   8    1.76    0.82
  14   1   8    1.30    0.71
  14  -1  -8   -0.34    1.04
  14  -1  -8    1.71    0.83
 -14   1   8    1.10    0.91
  14   1  -8    1.56    0.79
  14  -1   8    1.91    0.77
  14   1  -8    2.92    1.13
  14   2   8    2.90    0.88
  14  -2  -8    4.25    1.12
 -14  -2   8    2.44    0.93
  14  -2  -8    4.04    0.87
  14   2  -8    1.75    1.09
 -14   2   8    3.44    0.94
  14  -2   8    2.30    0.78
  14   2  -8    2.14    0.81
 -14  -3   8    1.92    0.89
  14  -3  -8    3.61    0.93
  14  -3  -8    1.34    0.99
  14   3   8    2.82    0.94
  14   3  -8    1.61    1.09
  14  -3   8    3.34    0.81
  14   3  -8    1.81    0.78
   0   0   9    0.16    0.30
   0   0  -9    0.03    0.23
   0   0   9    0.12    0.13
   0  -1  -9   22.56    1.21
   0   1  -9   21.39    1.13
   0  -1   9   22.38    1.30
   0  -1   9   23.97    1.08
   0   1   9   22.94    1.23
   0   1  -9   24.08    1.35
   0  -2   9    0.01    0.20
   0   2  -9    0.21    0.21
   0   2  -9    0.33    0.40
   0  -2  -9    0.42    0.29
   0   2   9    0.36    0.26
   0  -2   9    0.06    0.33
   0   3  -9   31.40    1.77
   0   3   9   31.11    1.52
   0  -3   9   30.82    1.46
   0  -3  -9   28.64    1.52
   0  -3   9   28.52    1.69
   0   3  -9   28.90    1.40
   0  -4   9    0.23    0.28
   0  -4  -9    0.27    0.34
   0   4  -9   -0.72    0.42
   0  -4   9   -0.34    0.47
   0   4   9   -0.09    0.29
   0   5   9    8.51    0.68
   0  -5  -9    7.93    0.78
   0  -5   9    8.45    0.97
   0   5  -9    8.57    1.02
   0  -5   9    9.48    0.78
   0  -6  -9    0.59    0.43
   0   6  -9    0.39    0.60
   0   6   9    0.04    0.35
   0  -6   9    0.27    0.36
   0  -7   9   22.78    1.34
   0  -7  -9   18.38    1.31
   0   7  -9   23.65    1.74
   0   7   9   22.02    1.31
   0   8  -9   -0.53    0.64
   0   8   9    0.30    0.40
   0  -8  -9   -0.01    0.49
   0  -8   9   -0.30    0.51
   0  -9   9    1.94    0.64
   0   9  -9    1.77    0.86
   0  -9  -9    2.71    0.72
   0   9   9    3.06    0.67
   0 -10   9   -0.02    0.65
   0  10  -9   -0.64    0.84
   0 -10  -9   -0.04    0.63
   0  10   9   -0.24    0.62
   0 -11   9    9.18    1.11
   0 -11  -9   10.33    1.22
   0  11  -9    9.23    1.38
  -1   0  -9    3.16    0.38
   1   0  -9    3.45    0.43
   1   0   9    3.60    0.27
  -1   0   9    3.26    0.28
  -1   0   9    3.03    0.45
   1   0   9    3.53    0.49
  -1   1  -9    1.71    0.28
  -1  -1   9    2.26    0.41
  -1  -1   9    2.29    0.27
   1   1   9    2.35    0.41
  -1   1  -9    2.44    0.47
   1  -1  -9    1.59    0.35
   1   1  -9    2.23    0.33
  -1   1   9    2.50    0.38
   1   1  -9    1.84    0.42
   1  -1   9    2.09    0.26
  -1   1   9    2.22    0.19
   1  -1   9    1.75    0.41
  -1  -1  -9    1.57    0.35
   1  -2  -9   14.43    0.94
  -1  -2   9   14.75    0.80
  -1   2  -9   14.81    1.04
  -1  -2   9   15.52    1.02
  -1   2  -9   13.64    0.76
   1   2   9   13.90    0.91
  -1  -2  -9   15.17    0.91
   1   2  -9   14.00    0.84
   1   2  -9   13.66    1.05
   1  -2   9   14.60    0.78
   1  -2   9   13.83    0.99
  -1   2   9   14.78    0.84
   1  -3  -9    8.14    0.72
   1   3   9    7.84    0.70
  -1   3  -9    7.94    0.86
  -1  -3   9    6.42    0.77
  -1  -3   9    8.18    0.62
  -1   3   9    9.52    0.66
   1   3  -9    7.42    0.59
   1  -3   9    7.88    0.59
   1   3  -9    9.40    0.97
  -1  -3  -9    9.91    0.71
   1  -3   9    8.23    0.83
  -1  -4   9    5.33    0.75
  -1   4  -9    3.62    0.73
   1  -4  -9    5.51    0.62
   1   4   9    5.93    0.60
  -1  -4   9    5.63    0.45
  -1  -4   9    5.12    0.53
  -1   4   9    5.04    0.53
   1   4  -9    5.01    0.85
  -1  -4  -9    5.69    0.62
   1   4  -9    4.64    0.47
   1  -4   9    5.91    0.78
   1  -4   9    5.06    0.52
   1  -5  -9    0.45    0.39
   1   5   9   -0.77    0.30
  -1  -5   9   -0.04    0.33
  -1   5  -9   -0.11    0.55
  -1   5   9   -0.11    0.27
   1  -5   9   -0.51    0.30
  -1  -5  -9    0.10    0.38
   1  -5   9    0.33    0.47
   1   5  -9   -0.14    0.56
  -1   6  -9   16.16    1.45
   1   6   9   18.42    1.17
   1  -6  -9   16.98    1.17
  -1  -6   9   16.91    1.12
   1   6  -9   18.79    1.60
   1  -6   9   17.85    1.40
   1  -6   9   19.06    1.17
  -1   6   9   17.85    1.08
  -1  -6  -9   20.53    1.20
   1  -7  -9    9.90    0.92
  -1   7  -9    8.22    1.10
  -1  -7   9    9.00    0.86
   1   7   9    8.82    0.87
   1  -7   9    8.65    0.86
  -1  -7  -9    8.51    0.88
   1   7  -9   10.33    1.19
  -1   7   9    9.72    0.84
  -1   8  -9    7.78    1.10
   1  -8  -9   10.00    0.94
  -1  -8   9    9.00    0.95
   1   8   9    9.84    0.97
  -1  -8  -9    8.95    0.93
  -1   8   9    6.52    0.77
   1  -8   9    6.69    0.83
   1   8  -9    7.29    1.10
  -1  -9   9    0.36    0.61
   1  -9  -9    0.32    0.57
   1   9   9   -0.51    0.46
  -1   9  -9   -0.50    0.67
  -1  -9  -9   -0.31    0.54
   1  -9   9   -0.26    0.55
   1   9  -9   -0.32    0.72
   1 -10  -9   16.00    1.36
   1  10   9   12.22    1.22
  -1 -10   9   16.16    1.40
  -1  10  -9   13.94    1.50
   1  10  -9   13.53    1.54
  -1 -10  -9   15.73    1.32
   1 -10   9   15.30    1.35
   1  11   9    3.30    0.87
   1 -11  -9    5.15    0.94
  -1 -11   9    3.36    0.93
  -1  11  -9    5.98    1.16
  -1 -11  -9    4.50    0.88
   1 -11   9    4.14    0.90
   1  11  -9    5.33    1.18
   2   0  -9   53.59    2.36
   2   0   9   51.80    2.53
  -2   0  -9   54.25    2.41
   2   0   9   54.89    2.31
  -2   0   9   54.66    2.36
  -2   0   9   54.14    2.49
   2   0  -9   57.68    2.50
  -2  -1   9    7.99    0.70
  -2  -1   9    8.32    0.53
   2   1   9    8.49    0.72
   2  -1  -9    6.93    0.64
  -2   1  -9    7.26    0.51
   2  -1  -9    7.89    0.46
   2   1  -9    7.71    0.60
   2  -1   9    7.47    0.49
  -2   1   9    7.17    0.45
   2   1  -9    9.30    0.78
   2   1  -9    8.35    0.55
  -2  -1  -9    7.05    0.60
  -2   1   9    9.34    0.61
   2  -1   9    7.20    0.72
  -2   2  -9    0.48    0.19
  -2  -2   9    0.53    0.25
  -2   2  -9    0.12    0.40
  -2  -2   9    1.30    0.39
   2  -2  -9    0.88    0.35
   2   2   9    0.75    0.33
   2   2  -9    0.78    0.41
  -2   2   9    1.21    0.29
   2   2  -9    0.79    0.27
   2   2  -9    0.73    0.31
  -2  -2  -9    0.83    0.31
   2  -2   9    0.84    0.24
   2  -2   9    1.10    0.42
  -2   3  -9    0.15    0.44
  -2  -3   9   -0.09    0.24
   2   3   9    0.15    0.32
  -2  -3   9   -0.46    0.34
   2  -3  -9    0.53    0.36
   2   3  -9   -0.03    0.28
   2   3  -9   -0.22    0.42
  -2   3   9    0.69    0.27
  -2  -3  -9    0.44    0.32
   2  -3   9    0.49    0.41
   2  -3   9    0.64    0.27
   2   3  -9    0.41    0.31
   2   4   9   18.46    1.16
  -2  -4   9   18.23    1.09
  -2   4  -9   16.47    1.29
   2  -4  -9   18.50    1.14
  -2  -4   9   17.89    0.99
   2   4  -9   20.09    1.06
  -2  -4  -9   20.05    1.13
   2   4  -9   16.11    1.35
   2   4  -9   19.36    1.13
   2  -4   9   18.59    1.06
  -2   4   9   21.04    1.06
   2  -4   9   18.31    1.29
  -2   5  -9   21.32    1.48
   2   5   9   21.28    1.27
   2  -5  -9   22.38    1.30
  -2  -5   9   20.13    1.21
  -2  -5   9   21.40    1.12
   2  -5   9   23.38    1.25
   2  -5   9   23.11    1.48
  -2  -5  -9   19.47    1.25
  -2   5   9   22.67    1.17
   2   5  -9   20.11    1.60
  -2   6  -9   11.59    1.22
  -2  -6   9   15.52    1.06
   2  -6  -9   14.86    1.12
   2   6   9   15.05    1.08
  -2  -6  -9   15.67    1.07
   2   6  -9   16.65    1.49
  -2   6   9   15.74    0.94
   2  -6   9   14.74    0.99
   2  -6   9   11.76    1.22
   2  -7  -9    2.32    0.58
   2   7   9    3.11    0.61
  -2   7  -9    2.19    0.75
  -2  -7   9    2.28    0.53
   2   7  -9    2.17    0.79
  -2  -7  -9    2.51    0.59
   2  -7   9    1.23    0.69
   2  -7   9    2.34    0.57
  -2   8  -9   -0.63    0.60
   2   8   9   -0.33    0.48
  -2  -8   9   -0.44    0.44
   2  -8  -9    0.74    0.53
   2  -8   9    0.58    0.53
   2   8  -9    0.54    0.74
  -2  -8  -9    0.80    0.52
   2   9   9    9.88    1.04
  -2   9  -9   12.41    1.33
   2  -9  -9   13.00    1.15
  -2  -9   9   10.52    1.11
  -2  -9  -9   11.32    1.07
   2   9  -9   10.22    1.30
   2  -9   9    8.77    1.00
  -2 -10   9   25.76    1.74
   2 -10  -9   25.08    1.70
   2  10   9   27.36    1.74
  -2  10  -9   26.33    1.97
   2  10  -9   29.53    2.09
  -2 -10  -9   26.86    1.80
   2 -10   9   27.75    1.81
  -2 -11   9    0.73    0.80
   2  11   9   -0.19    0.69
  -2  11  -9    0.66    0.87
   2 -11  -9    0.38    0.78
   2  11  -9    0.29    0.91
   2 -11   9    0.62    0.74
  -2 -11  -9    1.04    0.73
   3   0   9    2.49    0.46
   3   0  -9    2.01    0.39
  -3   0   9    2.51    0.39
   3   0   9    3.11    0.26
   3   0  -9    2.79    0.48
  -3   0  -9    3.06    0.36
   3   0  -9    2.51    0.32
  -3  -1   9    0.54    0.23
  -3   1  -9    0.59    0.21
   3   1   9    0.39    0.32
   3  -1  -9    0.43    0.19
  -3  -1   9    0.52    0.32
   3  -1  -9    0.31    0.33
   3  -1   9    0.19    0.34
  -3  -1  -9    0.05    0.25
   3   1  -9    0.09    0.35
   3  -1   9    0.48    0.21
   3   1  -9    0.20    0.30
   3   1  -9    0.11    0.23
  -3   1   9    0.25    0.22
   3  -2  -9    6.86    0.44
  -3  -2   9    6.99    0.56
   3   2   9    7.18    0.69
  -3  -2   9    5.80    0.67
  -3   2  -9    5.17    0.71
   3  -2  -9    5.59    0.61
   3   2  -9    6.48    0.62
  -3   2   9    6.03    0.49
   3  -2   9    6.35    0.73
  -3  -2  -9    5.88    0.58
   3   2  -9    5.90    0.56
   3   2  -9    8.13    0.81
   3  -2   9    6.23    0.49
  -3   3  -9    6.05    0.77
   3   3   9    4.22    0.57
  -3  -3   9    4.67    0.66
  -3  -3   9    5.22    0.53
   3  -3  -9    4.47    0.60
   3   3  -9    6.11    0.80
   3   3  -9    5.46    0.57
  -3  -3  -9    5.10    0.60
  -3   3   9    5.83    0.49
   3  -3   9    5.14    0.71
   3  -3   9    5.31    0.50
   3   3  -9    3.68    0.53
  -3  -4   9    0.86    0.35
  -3   4  -9    1.63    0.55
   3  -4  -9    1.13    0.43
   3   4   9    0.94    0.41
  -3  -4   9    0.46    0.30
   3   4  -9    0.96    0.58
   3   4  -9    0.37    0.37
   3  -4   9    1.17    0.51
  -3   4   9    0.90    0.28
   3   4  -9    1.38    0.39
  -3  -4  -9    1.27    0.41
   3  -4   9    1.03    0.33
   3   5   9    0.52    0.39
  -3   5  -9   -0.13    0.50
   3  -5  -9    0.37    0.42
  -3  -5   9    0.37    0.30
  -3  -5   9    0.28    0.33
   3   5  -9    1.26    0.43
   3   5  -9    0.39    0.38
  -3  -5  -9    0.67    0.43
   3  -5   9    0.44    0.35
   3  -5   9    0.61    0.52
   3   5  -9   -0.34    0.55
  -3  -6   9    5.68    0.69
   3  -6  -9    9.45    0.85
   3   6   9    6.97    0.79
  -3   6  -9    7.21    0.95
   3  -6   9    7.39    0.77
  -3  -6  -9    6.81    0.76
   3  -6   9    7.78    0.97
   3   6  -9    7.59    1.05
   3   6  -9    6.31    0.75
  -3  -7   9    5.23    0.70
  -3   7  -9    6.10    0.92
   3   7   9    5.15    0.75
   3  -7  -9    5.36    0.73
   3  -7   9    6.51    0.71
   3  -7   9    6.38    0.97
  -3  -7  -9    5.03    0.76
   3   7  -9    5.12    0.99
  -3   8  -9    0.46    0.66
   3  -8  -9   -0.05    0.49
   3   8   9    0.43    0.60
  -3  -8   9    0.14    0.48
  -3  -8  -9    0.42    0.61
   3   8  -9   -0.32    0.81
   3  -8   9    0.63    0.52
   3  -8   9    0.50    0.68
  -3   9  -9    0.45    0.79
   3  -9  -9   -0.02    0.57
  -3  -9   9    0.28    0.55
   3   9   9    0.20    0.63
  -3  -9  -9    1.44    0.68
   3   9  -9   -1.12    0.74
   3  -9   9    1.87    0.79
   3  -9   9    0.75    0.60
   3  10   9    3.43    0.83
  -3 -10   9    2.50    0.81
   3 -10  -9    3.72    0.79
  -3  10  -9    4.14    0.96
   3 -10   9    3.59    0.76
   3  10  -9    3.77    1.05
  -3 -10  -9    3.26    0.82
   3 -10   9    3.01    0.98
   3 -11  -9    0.71    0.70
  -3  11  -9    1.10    0.96
  -3 -11   9    2.64    0.85
   3  11   9    0.98    0.80
   3 -11   9    1.61    0.80
  -3 -11  -9    2.29    0.80
   3 -11   9    2.89    1.14
   3  11  -9    0.89    1.08
   4   0   9    1.29    0.21
  -4   0   9    0.65    0.28
   4   0  -9    0.60    0.25
   4   0  -9    0.79    0.37
  -4   0  -9    0.62    0.25
   4   0   9    0.17    0.35
   4   0  -9    0.85    0.32
  -4   1  -9    2.90    0.31
   4  -1  -9    3.07    0.35
   4  -1  -9    3.17    0.52
   4   1   9    3.00    0.50
  -4  -1   9    3.02    0.45
   4   1  -9    2.57    0.47
   4  -1   9    2.69    0.31
   4   1  -9    2.14    0.37
   4  -1   9    2.80    0.49
   4   1  -9    2.64    0.47
  -4   1   9    2.80    0.35
  -4  -1  -9    2.86    0.41
   4   2   9  115.06    5.07
  -4  -2   9  116.93    4.94
   4  -2  -9  117.27    4.88
   4  -2  -9  113.24    5.05
  -4  -2   9  114.71    5.07
   4   2  -9  117.07    5.15
  -4   2   9  116.65    4.89
   4  -2   9  116.00    5.14
  -4  -2  -9  112.40    4.97
   4   2  -9  111.72    5.06
   4  -2   9  117.92    4.92
   4   2  -9  116.04    4.98
   4  -3  -9    4.20    0.58
  -4   3  -9    4.47    0.68
  -4  -3   9    4.80    0.50
   4   3   9    3.58    0.57
   4   3  -9    4.72    0.59
  -4  -3  -9    4.75    0.59
   4  -3   9    4.32    0.67
   4   3  -9    3.89    0.52
   4  -3   9    4.65    0.50
   4   3  -9    3.83    0.69
  -4  -4   9    0.00    0.31
  -4  -4   9    0.20    0.33
   4  -4  -9    0.17    0.38
   4   4   9    0.63    0.42
  -4   4  -9   -0.43    0.43
  -4  -4  -9    0.31    0.38
   4   4  -9    0.16    0.37
   4  -4   9    0.33    0.33
   4  -4   9    0.25    0.46
   4   4  -9    0.54    0.39
   4   4  -9    0.91    0.59
   4   5   9    1.04    0.48
  -4  -5   9    0.85    0.35
   4  -5  -9    1.11    0.48
  -4  -5   9   -0.02    0.34
  -4   5  -9    0.80    0.55
  -4  -5  -9    0.54    0.46
   4  -5   9    1.09    0.39
   4  -5   9    0.29    0.50
   4   5  -9    1.54    0.68
   4   5  -9    1.04    0.43
   4   5  -9    0.62    0.42
  -4  -6   9   56.21    2.77
   4   6   9   56.27    2.84
  -4   6  -9   61.37    3.00
   4  -6  -9   59.30    2.86
  -4  -6   9   60.36    2.67
   4  -6   9   55.38    2.74
   4   6  -9   60.83    2.86
   4  -6   9   56.58    2.98
   4   6  -9   55.81    3.09
  -4  -6  -9   60.92    2.83
  -4   7  -9    4.79    0.84
   4  -7  -9    3.86    0.69
  -4  -7   9    3.55    0.62
   4   7   9    4.20    0.76
  -4  -7  -9    4.31    0.70
   4   7  -9    4.54    1.01
   4  -7   9    2.56    0.55
   4  -7   9    3.62    0.81
   4   7  -9    3.90    0.69
  -4   8  -9    1.86    0.79
  -4  -8   9    1.37    0.60
   4  -8  -9    1.09    0.62
   4   8   9    0.92    0.61
   4   8  -9    0.96    0.88
   4  -8   9    1.26    0.78
  -4  -8  -9    0.41    0.62
   4  -8   9    0.34    0.52
   4   9   9    0.39    0.70
  -4  -9   9   -0.65    0.57
  -4   9  -9   -0.30    0.66
   4  -9  -9    1.12    0.65
   4  -9   9    0.27    0.53
   4  -9   9    0.21    0.71
   4   9  -9    0.09    0.80
  -4  -9  -9   -0.33    0.57
   4 -10  -9   18.00    1.49
  -4 -10   9   19.40    1.50
   4  10   9   14.94    1.45
  -4  10  -9   14.10    1.50
   4 -10   9   15.83    1.62
  -4 -10  -9   15.42    1.38
   4 -10   9   18.88    1.38
   4  10  -9   17.08    1.73
   5   0  -9   19.07    1.03
   5   0  -9   18.95    1.18
  -5   0  -9   16.38    0.98
   5   0   9   19.36    0.94
   5   0  -9   18.28    1.05
  -5   0   9   19.52    1.02
   5   0   9   18.61    1.17
   5  -1  -9    1.51    0.44
   5   1   9    1.01    0.42
   5  -1  -9    1.35    0.30
  -5  -1   9    0.89    0.33
   5   1  -9    1.36    0.41
   5   1  -9    1.17    0.45
   5  -1   9    1.22    0.27
   5   1  -9    1.09    0.33
  -5   1   9    0.72    0.24
  -5  -1  -9    1.27    0.34
   5  -1   9    1.55    0.48
  -5  -2   9   78.02    3.43
   5   2   9   73.23    3.46
   5  -2  -9   78.66    3.47
   5  -2  -9   76.31    3.28
   5  -2   9   76.40    3.29
   5   2  -9   76.20    3.51
   5   2  -9   74.88    3.37
   5   2  -9   70.95    3.44
   5  -2   9   74.69    3.50
  -5  -2  -9   71.63    3.36
   5   3   9   14.17    1.07
   5  -3  -9   19.42    0.98
   5  -3  -9   17.62    1.13
  -5  -3   9   16.74    0.97
  -5  -3  -9   17.35    1.06
   5  -3   9   15.82    0.96
   5   3  -9   14.47    1.08
   5   3  -9   14.97    1.01
   5   3  -9   18.82    1.34
   5  -3   9   14.64    1.14
   5  -4  -9   10.29    0.92
   5   4   9    9.52    0.91
  -5  -4   9    9.61    0.80
  -5   4  -9   10.25    1.00
  -5  -4   9    9.38    0.75
   5   4  -9   10.12    0.89
   5  -4   9   10.62    0.78
   5   4  -9    9.21    0.83
   5  -4   9    9.46    0.98
  -5  -4  -9   10.75    0.90
   5   4  -9    8.81    1.08
   5   5   9    1.73    0.56
  -5   5  -9    1.65    0.59
   5  -5  -9    1.31    0.54
  -5  -5   9    1.54    0.40
  -5  -5   9    2.06    0.48
   5   5  -9    1.87    0.55
   5   5  -9    1.69    0.70
   5  -5   9    0.74    0.53
   5   5  -9    1.88    0.57
   5  -5   9    2.48    0.48
  -5  -5  -9    2.91    0.64
  -5  -6   9   37.94    1.86
  -5  -6   9   36.73    1.94
  -5   6  -9   36.83    2.12
   5   6   9   36.69    2.03
   5  -6  -9   38.72    2.04
   5  -6   9   33.66    1.87
   5   6  -9   39.28    2.05
  -5  -6  -9   39.94    2.03
   5  -6   9   34.86    2.10
   5   6  -9   36.36    2.27
   5   7   9   20.71    1.52
  -5  -7   9   21.98    1.27
   5  -7  -9   21.71    1.49
  -5  -7   9   22.09    1.41
  -5   7  -9   21.43    1.61
   5  -7   9   21.52    1.38
   5  -7   9   18.65    1.58
  -5  -7  -9   23.36    1.48
   5   7  -9   21.53    1.48
   5   7  -9   23.81    1.88
  -5  -8   9    1.32    0.55
   5  -8  -9    1.17    0.63
  -5   8  -9    0.74    0.66
   5   8   9    0.60    0.69
  -5  -8  -9    1.71    0.69
   5   8  -9    1.84    0.63
   5  -8   9    1.58    0.75
   5   8  -9    1.94    0.96
   5  -8   9    1.99    0.57
  -5   9  -9    2.02    0.78
   5  -9  -9    2.20    0.72
   5   9   9    3.07    0.83
  -5  -9   9    3.27    0.77
   5  -9   9    2.35    0.66
   5   9  -9    2.64    1.08
  -5  -9  -9    1.64    0.74
   5  -9   9    2.38    0.84
   5 -10  -9    9.94    1.19
   5  10   9    8.67    1.18
  -5 -10   9    7.99    1.03
  -5  10  -9   11.30    1.25
  -5 -10  -9   11.66    1.23
   5 -10   9    9.31    1.26
   5 -10   9    9.77    1.10
   5  10  -9   11.42    1.60
   6   0   9   -0.09    0.21
   6   0  -9   -0.04    0.43
   6   0   9   -0.28    0.41
   6   0  -9    0.44    0.32
  -6   0  -9   -0.28    0.27
   6  -1  -9   38.44    2.05
   6   1   9   36.61    2.03
  -6  -1   9   41.88    1.91
   6  -1  -9   40.16    1.90
   6  -1   9   39.05    2.04
   6   1  -9   40.99    2.08
   6  -1   9   40.74    1.84
  -6  -1  -9   37.87    1.88
   6   1  -9   39.16    1.93
   6   1  -9   38.53    1.93
   6  -2  -9    1.71    0.52
   6   2   9    2.29    0.54
  -6  -2   9    1.83    0.45
   6  -2  -9    1.76    0.37
   6   2  -9    1.67    0.55
   6   2  -9    2.14    0.45
   6  -2   9    1.70    0.36
  -6  -2  -9    1.69    0.46
   6  -2   9    1.61    0.54
   6   2  -9    0.83    0.50
   6   3   9    0.22    0.42
   6  -3  -9    0.24    0.29
  -6  -3   9   -0.27    0.38
   6  -3  -9   -0.18    0.43
   6  -3   9    0.08    0.43
   6  -3   9    0.38    0.33
   6   3  -9   -0.72    0.39
   6   3  -9   -0.68    0.50
   6   3  -9    0.01    0.32
  -6  -3  -9    0.27    0.39
  -6  -4   9   -0.13    0.32
   6  -4  -9    0.92    0.49
  -6  -4   9    0.15    0.41
   6   4   9    0.21    0.45
   6   4  -9    0.36    0.40
  -6  -4  -9    0.05    0.45
   6   4  -9   -0.49    0.60
   6   4  -9    0.22    0.47
   6  -4   9   -0.13    0.45
   6  -4   9    0.90    0.41
  -6  -5   9   93.35    4.14
   6  -5  -9   94.14    4.25
  -6   5  -9   89.95    4.30
   6   5   9   97.32    4.30
  -6  -5   9   92.83    4.11
  -6  -5  -9   93.99    4.24
   6  -5   9   86.19    4.30
   6   5  -9   94.74    4.52
   6   5  -9   91.42    4.23
   6   5  -9   93.73    4.20
   6  -5   9   89.89    4.12
  -6  -6   9    0.57    0.41
   6  -6  -9   -0.41    0.47
  -6   6  -9    0.29    0.54
  -6  -6   9   -0.23    0.41
   6   6   9    0.01    0.50
   6   6  -9    0.14    0.77
   6  -6   9    1.08    0.66
   6   6  -9    0.21    0.48
   6  -6   9   -0.48    0.41
   6   6  -9   -0.46    0.45
  -6  -6  -9    0.20    0.60
  -6  -7   9    7.37    0.82
  -6  -7   9    5.78    0.69
  -6   7  -9    5.62    0.93
   6  -7  -9    6.11    0.84
   6   7   9    5.79    0.86
   6   7  -9    4.71    0.81
  -6  -7  -9    5.56    0.85
   6   7  -9    4.58    1.03
   6  -7   9    5.75    0.94
   6  -7   9    3.67    0.62
   6   8   9    0.76    0.73
   6  -8  -9    1.54    0.65
  -6  -8   9    0.04    0.51
  -6   8  -9    1.16    0.66
  -6  -8  -9    0.05    0.64
   6   8  -9    0.46    0.81
   6  -8   9    0.80    0.53
   6  -8   9   -0.10    0.71
   6   8  -9    0.61    0.58
   6  -9  -9   46.45    2.59
   6   9   9   48.09    2.74
  -6  -9   9   51.19    2.59
  -6   9  -9   53.47    2.73
   6  -9   9   46.53    2.58
   6   9  -9   49.75    2.69
  -6  -9  -9   50.45    2.70
   6  -9   9   48.23    2.75
  -6 -10   9    0.68    0.73
   6 -10  -9    0.18    0.66
  -6  10  -9   -0.69    0.72
   6  10   9   -0.03    0.73
   6 -10   9    0.56    0.84
  -6 -10  -9    0.49    0.77
   6  10  -9    0.43    1.10
   6 -10   9   -0.35    0.66
   7   0   9   64.06    3.16
   7   0  -9   68.55    3.04
   7   0   9   65.83    2.93
   7   0  -9   67.88    3.21
   7   1   9    1.14    0.48
   7  -1  -9    0.80    0.35
   7  -1  -9    0.61    0.51
  -7  -1  -9    0.60    0.38
   7  -1   9    1.17    0.34
   7   1  -9    1.65    0.59
   7  -1   9    1.36    0.50
   7   1  -9    0.67    0.35
   7   2   9   16.08    1.18
   7  -2  -9   17.35    1.23
   7  -2  -9   17.22    1.06
   7  -2   9   17.01    1.02
   7  -2   9   16.95    1.19
   7   2  -9   16.17    1.22
   7   2  -9   17.87    1.09
  -7  -2  -9   16.38    1.09
   7   2  -9   19.64    1.32
   7  -3  -9    3.61    0.69
   7   3   9    4.30    0.68
   7  -3  -9    4.63    0.53
  -7  -3   9    5.16    0.67
  -7  -3  -9    3.40    0.59
   7  -3   9    4.61    0.55
   7   3  -9    3.89    0.77
   7   3  -9    2.85    0.57
   7  -3   9    2.95    0.61
   7   3  -9    3.14    0.73
  -7  -4   9   48.33    2.31
  -7  -4   9   44.91    2.25
   7   4   9   46.40    2.40
   7  -4  -9   47.11    2.40
  -7  -4  -9   44.62    2.31
   7  -4   9   45.33    2.41
   7  -4   9   46.24    2.25
   7   4  -9   47.83    2.44
   7   4  -9   46.59    2.33
   7   4  -9   47.57    2.61
  -7  -5   9    6.95    0.74
  -7  -5   9    9.28    0.87
   7   5   9    8.28    0.95
   7  -5  -9    8.52    0.93
   7   5  -9    7.26    1.06
   7  -5   9    8.48    0.78
  -7  -5  -9    8.69    0.93
   7   5  -9    7.75    0.89
   7  -5   9    7.52    0.93
   7   5  -9    6.63    0.82
   7  -6  -9    8.03    0.92
  -7  -6   9    5.99    0.78
   7   6   9    8.52    0.98
  -7  -6   9    6.66    0.78
  -7   6  -9    6.29    0.89
   7  -6   9    6.34    0.88
   7  -6   9    7.61    0.76
   7   6  -9    6.95    0.88
   7   6  -9    5.43    0.81
  -7  -6  -9    6.95    0.89
   7   6  -9    6.83    1.16
   7  -7  -9    9.02    1.01
   7   7   9    8.78    1.10
  -7  -7   9    8.08    0.84
  -7   7  -9    6.44    0.98
  -7  -7   9    9.26    0.87
   7   7  -9    6.96    0.93
  -7  -7  -9    9.09    1.05
   7  -7   9    7.15    0.81
   7   7  -9    6.37    1.16
   7  -7   9    7.77    1.06
   7  -8  -9   21.31    1.53
  -7  -8   9   16.95    1.26
   7   8   9   16.33    1.54
  -7  -8   9   18.00    1.33
  -7   8  -9   20.63    1.47
  -7  -8  -9   20.30    1.54
   7  -8   9   17.64    1.36
   7   8  -9   19.14    1.44
   7  -8   9   17.26    1.57
   7   8  -9   18.15    1.76
  -7   9  -9    4.43    0.93
   7   9   9    6.45    1.09
   7  -9  -9    5.19    0.97
  -7  -9   9    6.10    0.91
   7  -9   9    3.52    0.97
   7   9  -9    4.02    1.16
   7  -9   9    5.44    0.82
   7   9  -9    5.52    0.97
  -7  -9  -9    6.08    1.02
   8   0  -9   23.46    1.53
   8   0   9   22.83    1.22
   8   0  -9   20.91    1.26
   8   0   9   21.51    1.41
   8  -1  -9    1.26    0.57
   8  -1  -9    0.65    0.39
   8   1   9    0.19    0.52
   8  -1   9    0.90    0.37
   8   1  -9    0.13    0.41
   8  -1   9    0.88    0.53
   8   1  -9    1.18    0.60
  -8  -1  -9   -0.05    0.39
   8  -2  -9   32.06    1.87
   8   2   9   32.38    1.86
   8  -2  -9   33.40    1.68
   8  -2   9   29.93    1.62
  -8  -2  -9   31.90    1.68
   8  -2   9   29.02    1.79
   8   2  -9   33.62    1.74
   8   2  -9   33.37    1.93
   8  -3  -9    0.46    0.40
   8  -3  -9    0.79    0.56
   8   3   9    0.63    0.53
  -8  -3   9    1.06    0.52
   8   3  -9    0.16    0.57
   8  -3   9    1.39    0.42
   8   3  -9    1.30    0.54
   8  -3   9    1.42    0.53
  -8  -3  -9    1.02    0.50
   8  -4  -9   13.59    1.18
  -8  -4   9   10.91    1.03
   8   4   9   13.75    1.12
   8  -4   9   14.37    0.98
   8  -4   9   11.73    1.09
   8   4  -9   11.40    1.03
  -8  -4  -9   10.55    1.03
   8   4  -9   11.40    1.25
   8   4  -9   11.88    1.13
   8  -5  -9   -0.14    0.51
   8   5   9   -0.67    0.55
  -8  -5   9    0.91    0.53
  -8  -5   9   -0.24    0.45
  -8  -5  -9    1.26    0.60
   8   5  -9    0.05    0.74
   8  -5   9    0.07    0.45
   8  -5   9   -0.72    0.54
   8   5  -9    0.22    0.53
   8   5  -9   -0.92    0.55
   8  -6  -9   14.15    1.24
  -8  -6   9   14.28    1.12
   8   6   9   12.01    1.21
  -8  -6   9   13.60    1.11
   8   6  -9   13.09    1.19
   8  -6   9   14.68    1.12
  -8  -6  -9   13.16    1.25
   8   6  -9   12.60    1.51
   8  -6   9   12.62    1.20
   8   6  -9   12.56    1.18
   8   7   9    0.96    0.77
   8  -7  -9    0.99    0.71
  -8  -7   9    0.60    0.57
  -8  -7   9    0.40    0.51
  -8   7  -9   -0.11    0.56
  -8  -7  -9    0.92    0.77
   8   7  -9    1.51    0.96
   8   7  -9    0.19    0.64
   8  -7   9    0.09    0.66
   8  -7   9    0.50    0.49
  -8  -8   9    2.39    0.65
   8  -8  -9    2.13    0.77
  -8   8  -9    1.65    0.68
  -8  -8   9    2.22    0.65
   8   8   9    2.33    0.92
   8   8  -9    1.82    0.71
   8   8  -9    1.88    1.14
  -8  -8  -9    2.92    0.96
   8  -8   9    2.00    0.63
   8  -8   9    1.54    0.73
   8   9   9   -0.18    0.88
  -8  -9   9   -0.76    0.58
  -8   9  -9    0.42    0.64
   8  -9  -9    0.34    0.70
   8  -9   9   -0.57    0.66
   8  -9   9    0.05    0.62
  -8  -9  -9    0.71    0.85
   8   9  -9    0.57    0.68
   8   9  -9    0.62    1.11
   9   0   9    0.92    0.56
   9   0  -9    0.20    0.45
   9   0  -9    0.36    0.65
   9  -1  -9    3.28    0.75
   9  -1  -9    2.67    0.55
   9   1   9    1.53    0.59
   9  -1   9    1.91    0.45
   9   1  -9    3.18    0.62
   9   1  -9    1.53    0.70
   9  -1   9    2.63    0.62
  -9  -2   9    3.86    0.75
   9  -2  -9    3.66    0.77
   9   2   9    3.19    0.67
   9  -2  -9    3.49    0.58
   9   2  -9    2.70    0.59
   9  -2   9    2.91    0.71
   9  -2   9    5.04    0.61
   9   2  -9    6.51    0.94
  -9  -2  -9    3.52    0.63
   9   3   9   -0.24    0.49
   9  -3  -9    0.51    0.58
  -9  -3   9    1.43    0.57
   9  -3  -9    0.35    0.43
   9  -3   9    0.04    0.38
   9  -3   9   -0.91    0.46
   9   3  -9   -0.02    0.63
  -9  -3  -9    0.04    0.47
   9   3  -9    0.32    0.49
  -9  -4   9   -0.50    0.48
   9   4   9    0.37    0.57
   9  -4  -9    0.01    0.50
   9  -4  -9    0.41    0.62
   9  -4   9   -0.03    0.44
   9  -4   9   -0.41    0.55
   9   4  -9   -0.52    0.71
   9   4  -9    0.34    0.55
  -9  -4  -9    0.07    0.54
  -9  -5   9    6.33    0.77
  -9  -5   9    7.01    0.85
   9  -5  -9    6.59    0.95
   9   5   9    6.28    0.93
   9  -5   9    5.40    0.76
  -9  -5  -9    9.54    1.04
   9   5  -9    6.46    0.84
   9  -5   9    6.25    0.90
   9   5  -9    6.37    0.96
   9  -6  -9    2.81    0.79
   9   6   9    3.44    0.90
  -9  -6   9    5.50    0.79
  -9  -6   9    3.72    0.69
   9  -6   9    3.58    0.63
   9   6  -9    2.07    1.00
  -9  -6  -9    3.07    0.80
   9  -6   9    4.13    0.83
   9   6  -9    2.81    0.75
   9  -7  -9   -0.13    0.67
  -9  -7   9    0.14    0.55
  -9  -7   9    0.58    0.55
   9   7   9    2.07    0.87
   9   7  -9    0.33    0.94
  -9  -7  -9    0.36    0.73
   9  -7   9   -0.36    0.62
   9  -7   9   -0.07    0.56
   9   7  -9    0.28    0.62
  -9  -8   9    0.45    0.62
   9   8   9    0.59    0.88
   9  -8  -9    0.48    0.68
  -9  -8   9   -0.42    0.62
   9   8  -9    0.70    0.77
   9  -8   9   -0.70    0.57
  -9  -8  -9    0.02    0.87
   9  -8   9    0.05    0.70
   9   8  -9    1.33    1.11
  10   0   9   26.37    1.72
  10   0  -9   26.53    1.60
  10   0  -9   26.79    1.84
  10  -1  -9    1.73    0.57
  10  -1  -9    2.62    0.89
  10   1   9    1.80    0.70
  10  -1   9    2.09    0.49
  10   1  -9    2.17    0.80
  10  -1   9    0.77    0.63
  10   1  -9    2.66    0.63
  10   2   9    1.32    0.64
  10  -2  -9    3.01    0.88
 -10  -2   9    2.20    0.71
  10  -2  -9    2.91    0.61
  10   2  -9    3.34    0.85
  10   2  -9    2.83    0.66
 -10  -2  -9    3.78    0.80
  10  -2   9    1.88    0.52
  10  -2   9    2.36    0.70
 -10  -3   9    3.82    0.78
  10  -3  -9    2.50    0.76
  10   3   9    1.53    0.64
  10  -3  -9    1.84    0.59
  10  -3   9    2.66    0.66
  10   3  -9    1.88    0.82
  10  -3   9    2.12    0.57
  10   3  -9    3.40    0.72
 -10  -3  -9    3.07    0.71
  10   4   9   10.69    1.16
  10  -4  -9   10.24    1.16
 -10  -4   9    8.98    1.02
  10   4  -9   11.12    1.30
  10   4  -9   12.06    1.14
 -10  -4  -9   12.07    1.12
  10  -4   9   10.37    1.08
  10  -4   9   10.49    0.98
  10   5   9   12.89    1.33
  10  -5  -9   10.81    1.23
 -10  -5   9   12.35    1.14
  10  -5   9   11.33    1.16
  10   5  -9   10.84    1.28
  10  -5   9   12.61    1.07
  10   5  -9   12.30    1.15
 -10  -5  -9   12.95    1.30
  10  -6  -9   12.39    1.24
 -10  -6   9   10.09    1.05
 -10  -6   9   14.12    1.23
  10   6   9   11.93    1.28
  10   6  -9   10.83    1.19
 -10  -6  -9    9.95    1.20
  10  -6   9   10.66    1.07
  10  -6   9    9.22    1.08
 -10  -7   9    3.69    0.76
 -10  -7   9    6.04    0.85
  10  -7  -9    5.22    0.95
  10   7   9    5.10    1.02
  10   7  -9    3.71    0.82
  10  -7   9    5.00    0.77
  10  -7   9    4.09    0.88
 -10  -7  -9    5.62    1.10
  11   0   9   -0.02    0.61
  11   0  -9    0.46    0.57
  11   0  -9    0.81    0.78
  11  -1  -9   -0.25    0.75
 -11  -1   9    0.68    0.67
  11  -1  -9    0.32    0.55
  11   1   9    0.54    0.65
  11   1  -9    0.16    0.57
  11  -1   9    0.06    0.69
  11  -1   9    0.66    0.61
  11   1  -9    0.11    0.79
  11  -2  -9    4.35    0.72
  11   2   9    3.60    0.79
  11  -2  -9    2.49    0.88
 -11  -2   9    4.18    0.85
  11   2  -9    4.36    0.80
  11  -2   9    4.42    0.84
  11   2  -9    3.66    1.00
  11  -2   9    3.07    0.62
 -11  -3   9    1.87    0.69
  11  -3  -9    1.47    0.78
  11  -3  -9    2.25    0.66
  11   3   9    0.57    0.64
 -11  -3  -9    0.57    0.60
  11   3  -9    0.62    0.63
  11   3  -9    2.01    0.84
  11  -3   9    0.47    0.54
  11  -3   9    0.38    0.57
  11  -4  -9   -0.56    0.66
  11   4   9   -0.11    0.62
 -11  -4   9    1.28    0.68
  11  -4  -9    0.45    0.69
  11   4  -9   -0.05    0.89
  11   4  -9    0.19    0.59
  11  -4   9    0.45    0.65
  11  -4   9    0.75    0.51
 -11  -4  -9    0.55    0.77
 -11  -5   9    2.15    0.72
  11   5   9    0.74    0.80
  11  -5  -9    0.60    0.77
 -11  -5  -9    1.02    0.77
  11  -5   9   -0.02    0.58
  11   5  -9    0.98    0.85
  11   5  -9   -0.41    0.65
  11  -5   9    1.20    0.66
 -11  -6   9    5.90    0.90
  11   6   9    7.10    1.09
  11  -6  -9    5.95    1.09
 -11  -6   9    7.51    0.96
  11   6  -9    6.10    0.95
 -11  -6  -9    6.93    1.11
  11  -6   9    5.72    0.81
  12   0   9    2.98    0.79
  12   0  -9    2.12    1.05
 -12   0   9    3.33    0.85
  12   0  -9    3.57    0.78
  12   1   9    8.97    1.10
  12  -1  -9    7.56    1.22
  12  -1  -9    6.86    0.96
 -12  -1   9    9.92    1.22
  12   1  -9    8.66    1.05
  12  -1   9    8.77    1.09
  12   1  -9    9.39    1.36
  12   2   9   -0.39    0.70
  12  -2  -9    0.56    0.61
  12  -2  -9    0.99    0.82
 -12  -2   9    0.17    0.67
  12   2  -9   -0.04    0.58
  12  -2   9    0.22    0.53
  12   2  -9    0.04    0.86
  12  -2   9   -0.50    0.64
  12  -3  -9   10.36    1.07
 -12  -3   9   12.49    1.30
  12  -3  -9   11.75    1.43
  12   3   9   10.38    1.19
  12   3  -9   11.22    1.40
  12  -3   9   11.12    1.19
  12  -3   9    8.87    0.98
  12   3  -9   12.80    1.28
  12   4   9    3.46    0.92
 -12  -4   9    2.09    0.78
  12  -4  -9    0.92    0.83
  12  -4   9    1.68    0.74
 -12  -4  -9    3.00    0.83
  12   4  -9    1.86    0.73
  12  -4   9    1.25    0.58
  12   4  -9    0.29    0.96
  12  -5  -9    2.54    0.91
 -12  -5   9    3.46    0.92
  12   5   9    2.12    0.86
  12  -5   9    3.44    0.78
  12   5  -9    2.39    0.89
 -12  -5  -9    2.68    0.89
  12   5  -9    2.34    1.06
  13   0  -9   10.66    1.17
 -13   0   9   10.40    1.26
  13   0   9   11.11    1.22
  13   0  -9   13.37    1.48
 -13  -1   9    0.77    0.75
  13  -1  -9    1.46    0.98
  13  -1  -9    0.46    0.68
  13   1   9    1.35    0.73
  13   1  -9    0.62    0.94
  13  -1   9    1.19    0.67
  13   1  -9    1.74    0.80
 -13   1   9    1.60    0.80
  13  -2  -9    0.84    0.69
 -13  -2   9    0.07    0.75
  13   2   9   -0.06    0.74
  13  -2  -9    0.41    1.01
  13   2  -9   -0.04    0.69
  13   2  -9    1.29    1.04
  13  -2   9    0.85    0.71
 -13  -3   9    0.50    0.79
  13  -3  -9    0.21    0.87
  13   3   9   -0.37    0.75
  13  -3  -9    0.42    0.70
  13   3  -9    0.05    0.94
  13   3  -9    0.39    0.66
  13  -3   9    0.30    0.63
 -13  -4   9   13.47    1.45
  13   4   9   16.73    1.60
  13  -4  -9   13.65    1.60
  13   4  -9    9.05    1.44
  13  -4   9   15.20    1.35
  13   4  -9   15.00    1.47
  14   0  -9    4.50    1.22
  14   0  -9    4.50    0.86
  14   0   9    3.36    0.92
 -14   0   9    3.70    1.05
   0   0  10    2.25    0.45
   0   0 -10    2.03    0.36
   0   1 -10    0.09    0.25
   0   1 -10    0.49    0.39
   0  -1  10   -0.29    0.30
   0   1  10   -0.23    0.29
   0  -1 -10   -0.05    0.27
   0  -1  10   -0.01    0.18
   0  -2  10  124.90    5.11
   0   2 -10  121.23    5.38
   0   2  10  124.16    5.22
   0  -2 -10  120.35    5.21
   0  -2  10  114.41    5.32
   0   2 -10  117.36    5.12
   0   3 -10   -0.35    0.45
   0   3  10    0.25    0.33
   0  -3 -10   -0.26    0.33
   0  -3  10    0.13    0.41
   0  -3  10   -0.19    0.24
   0   4 -10    1.63    0.63
   0   4  10    0.33    0.31
   0  -4  10    0.19    0.48
   0  -4  10    0.28    0.31
   0  -4 -10    0.19    0.39
   0  -5 -10    0.01    0.40
   0  -5  10   -0.02    0.56
   0   5  10   -0.62    0.31
   0   5 -10    1.26    0.64
   0  -5  10    0.28    0.37
   0  -6 -10   48.73    2.51
   0  -6  10   51.18    2.77
   0  -6  10   51.26    2.48
   0   6 -10   52.86    2.82
   0   7 -10   -0.47    0.66
   0  -7  10    0.01    0.43
   0   7  10    0.14    0.37
   0  -7 -10    0.75    0.59
   0   8  10    5.06    0.71
   0  -8 -10    4.97    0.81
   0   8 -10    3.64    0.94
   0  -8  10    3.46    0.67
   0  -9  10   -0.11    0.57
   0   9  10   -0.05    0.51
   0   9 -10   -0.33    0.76
   0  -9 -10    0.55    0.65
   0 -10  10    8.51    1.08
   0 -10 -10    9.80    1.12
   0  10 -10    8.19    1.31
  -1   0 -10   26.08    1.33
   1   0  10   27.85    1.47
  -1   0  10   27.08    1.26
   1   0 -10   25.31    1.38
  -1   0  10   27.48    1.42
  -1  -1  10    0.43    0.20
  -1  -1  10    0.15    0.32
   1  -1 -10    0.15    0.32
   1   1  10   -0.16    0.33
  -1   1 -10    0.58    0.25
  -1   1  10    0.30    0.29
   1   1 -10   -0.04    0.41
   1  -1  10    0.65    0.38
   1   1 -10    0.46    0.29
  -1  -1 -10    0.21    0.28
   1  -1  10    0.54    0.21
  -1   2 -10    3.41    0.37
  -1  -2  10    3.85    0.41
   1  -2 -10    3.39    0.54
  -1  -2  10    3.54    0.56
   1   2  10    4.56    0.56
  -1   2 -10    3.98    0.65
   1  -2  10    4.04    0.40
   1   2 -10    2.95    0.42
   1   2 -10    4.59    0.67
  -1  -2 -10    3.76    0.50
   1  -2  10    4.55    0.64
  -1   2  10    3.54    0.44
  -1  -3  10    3.44    0.44
   1   3  10    3.86    0.52
  -1   3 -10    2.89    0.67
  -1  -3  10    4.46    0.70
   1  -3 -10    4.80    0.58
   1  -3  10    5.03    0.47
   1   3 -10    3.08    0.43
   1  -3  10    4.21    0.66
   1   3 -10    4.23    0.77
  -1   3  10    3.85    0.50
  -1  -3 -10    3.58    0.55
   1  -4 -10   17.04    1.10
  -1  -4  10   16.25    1.01
   1   4  10   17.77    1.10
  -1  -4  10   16.19    1.24
  -1   4 -10   18.00    1.34
  -1  -4 -10   17.39    1.10
   1  -4  10   17.04    1.00
  -1   4  10   16.63    1.02
   1   4 -10   16.83    1.35
   1  -4  10   15.36    1.24
   1   5  10    2.71    0.53
  -1   5 -10    5.35    0.87
  -1  -5  10    4.03    0.52
  -1  -5  10    3.16    0.72
   1  -5 -10    3.76    0.63
   1  -5  10    2.30    0.67
   1  -5  10    4.19    0.54
  -1   5  10    4.01    0.52
   1   5 -10    3.56    0.82
  -1  -5 -10    3.90    0.61
  -1   6 -10    4.04    0.87
   1  -6 -10    6.49    0.75
   1   6  10    5.16    0.66
  -1  -6  10    5.97    0.69
   1  -6  10    3.94    0.82
  -1   6  10    5.63    0.62
  -1  -6 -10    4.81    0.71
   1  -6  10    4.72    0.64
   1   6 -10    2.98    0.93
  -1  -7  10    5.11    0.70
  -1   7 -10    5.23    1.02
   1   7  10    4.13    0.65
   1  -7 -10    4.72    0.72
   1  -7  10    4.23    0.88
   1   7 -10    3.68    0.94
   1  -7  10    5.04    0.70
  -1   7  10    5.00    0.64
  -1  -7 -10    4.65    0.71
  -1  -8  10    7.79    0.90
   1   8  10    6.30    0.83
  -1   8 -10    8.35    1.21
   1  -8 -10    7.14    0.88
   1  -8  10    4.65    0.73
   1  -8  10    7.00    1.09
  -1  -8 -10    7.95    0.91
   1   8 -10    7.19    1.18
   1  -9 -10    1.92    0.69
  -1   9 -10    0.86    0.82
   1   9  10    0.63    0.59
  -1  -9  10    0.73    0.59
   1  -9  10    0.78    0.65
   1   9 -10    1.87    0.97
  -1  -9 -10    1.52    0.66
  -1 -10  10    3.09    0.77
   1  10  10    3.73    0.80
  -1  10 -10    3.55    1.11
   1 -10 -10    3.41    0.84
   1 -10  10    4.91    0.89
  -1 -10 -10    5.93    0.99
   1  10 -10    5.37    1.15
   2   0  10    1.87    0.45
  -2   0  10    1.49    0.24
   2   0 -10    1.50    0.26
  -2   0 -10    1.38    0.31
  -2   0  10    1.47    0.36
   2   0 -10    1.46    0.37
   2   1  10   20.49    1.19
   2  -1 -10   19.68    1.15
  -2  -1  10   20.56    1.03
  -2   1 -10   18.85    1.01
  -2  -1  10   20.21    1.18
   2   1 -10   19.36    1.03
   2   1 -10   18.94    1.21
   2  -1  10   21.46    0.99
   2  -1  10   19.16    1.26
   2   1 -10   20.14    1.14
  -2   1  10   21.71    1.12
  -2  -1 -10   19.54    1.11
   2   2  10   15.06    0.99
   2  -2 -10   15.30    0.99
  -2  -2  10   15.04    0.86
  -2  -2  10   15.26    1.04
  -2   2 -10   14.14    1.11
   2  -2  10   15.39    1.13
   2   2 -10   15.98    0.88
   2   2 -10   13.90    1.09
  -2   2  10   15.92    0.90
  -2  -2 -10   14.59    0.97
   2   2 -10   14.00    0.94
   2  -2  10   15.14    0.83
  -2  -3  10    1.86    0.39
   2  -3 -10    2.69    0.54
  -2   3 -10    3.25    0.71
   2   3  10    2.27    0.46
  -2  -3  10    1.57    0.55
   2  -3  10    3.35    0.66
   2   3 -10    2.23    0.43
  -2   3  10    3.08    0.43
  -2  -3 -10    2.66    0.47
   2  -3  10    2.21    0.37
   2   3 -10    3.27    0.72
   2   3 -10    2.22    0.42
  -2   4 -10    3.19    0.72
   2   4  10    2.86    0.52
  -2  -4  10    2.41    0.45
  -2  -4  10    3.95    0.72
   2  -4 -10    3.17    0.56
  -2  -4  10    3.33    0.44
   2  -4  10    4.06    0.50
  -2   4  10    3.80    0.47
   2   4 -10    3.59    0.83
  -2  -4 -10    4.14    0.57
   2   4 -10    3.91    0.49
   2  -4  10    4.05    0.70
   2   5  10   66.04    3.07
  -2   5 -10   64.60    3.31
  -2  -5  10   66.84    3.04
   2  -5 -10   70.86    3.11
  -2   5  10   63.90    2.95
   2  -5  10   66.96    3.00
   2  -5  10   62.57    3.26
   2   5 -10   63.22    3.36
  -2  -5 -10   63.71    3.06
  -2   6 -10   17.73    1.44
  -2  -6  10   17.47    1.16
   2   6  10   17.39    1.19
   2  -6 -10   17.80    1.20
   2  -6  10   19.29    1.17
   2  -6  10   13.09    1.33
  -2   6  10   17.61    1.11
   2   6 -10   19.16    1.63
  -2  -6 -10   14.99    1.15
   2   7  10   14.51    1.10
  -2  -7  10   10.36    1.00
   2  -7 -10   11.77    1.08
  -2   7 -10   13.14    1.31
   2  -7  10   10.06    1.21
  -2  -7 -10   13.90    1.14
   2   7 -10   13.38    1.39
   2  -7  10   14.04    1.03
   2  -8 -10    7.73    0.90
  -2  -8  10    5.71    0.77
   2   8  10    5.40    0.83
  -2   8 -10    6.05    1.05
   2  -8  10    5.07    0.73
   2   8 -10    5.53    1.09
   2  -8  10    4.43    0.97
  -2  -8 -10    7.75    0.87
   2  -9 -10   45.16    2.39
  -2   9 -10   45.40    2.63
   2   9  10   41.55    2.33
  -2  -9  10   41.60    2.36
   2   9 -10   46.72    2.73
   2  -9  10   41.58    2.32
   2  -9  10   40.90    2.62
  -2  -9 -10   45.22    2.37
  -2 -10  10   13.20    1.31
   2 -10 -10   14.57    1.34
  -2  10 -10   14.40    1.52
   2  10  10   13.37    1.32
   2 -10  10   12.06    1.54
   2 -10  10   14.22    1.35
  -2 -10 -10   14.58    1.29
   2  10 -10   15.34    1.71
   3   0  10   10.96    0.91
  -3   0 -10   11.68    0.72
  -3   0  10   10.80    0.77
   3   0 -10   11.11    0.88
   3   0 -10   10.01    0.66
  -3   0  10   11.36    0.65
  -3  -1  10    6.71    0.53
   3  -1 -10    6.66    0.68
   3   1  10    5.32    0.69
  -3  -1  10    6.48    0.66
  -3  -1 -10    6.58    0.59
   3   1 -10    6.80    0.55
  -3   1  10    6.34    0.56
   3   1 -10    6.82    0.67
   3   1 -10    7.16    0.74
   3  -1  10    6.27    0.47
   3  -1  10    4.63    0.67
  -3  -2  10    3.76    0.43
   3  -2 -10    3.04    0.52
   3   2  10    3.02    0.52
  -3  -2  10    2.88    0.50
   3   2 -10    3.58    0.47
   3  -2  10    3.37    0.61
  -3  -2 -10    3.13    0.48
   3   2 -10    2.41    0.56
  -3   2  10    2.70    0.38
   3   2 -10    2.63    0.50
   3  -2  10    3.04    0.38
  -3  -3  10    0.80    0.50
  -3   3 -10    0.35    0.54
  -3  -3  10    1.16    0.34
   3   3  10    1.03    0.43
   3  -3 -10    2.08    0.49
   3   3 -10    1.56    0.40
  -3   3  10    0.29    0.28
   3   3 -10    0.42    0.40
  -3  -3 -10    0.97    0.38
   3  -3  10    0.40    0.52
   3  -3  10    0.96    0.31
   3   3 -10    1.29    0.64
  -3  -4  10    4.29    0.73
   3  -4 -10    3.40    0.60
  -3   4 -10    4.55    0.78
   3   4  10    5.98    0.72
  -3  -4  10    3.82    0.51
  -3  -4  10    3.89    0.51
   3   4 -10    3.80    0.56
  -3  -4 -10    5.55    0.66
   3  -4  10    5.58    0.56
   3   4 -10    4.23    0.84
  -3   4  10    5.75    0.52
   3   4 -10    5.45    0.60
   3  -4  10    4.13    0.72
   3   5  10    6.28    0.77
  -3   5 -10    8.98    1.01
  -3  -5  10    5.92    0.66
  -3  -5  10    8.07    0.69
   3  -5 -10    6.18    0.77
   3   5 -10    7.65    1.09
   3   5 -10    6.91    0.73
   3  -5  10    5.15    0.84
  -3  -5 -10    7.21    0.79
   3  -5  10    6.22    0.65
   3   6  10    0.35    0.44
  -3  -6  10   -0.61    0.41
   3  -6 -10   -0.50    0.46
  -3   6 -10   -0.09    0.62
  -3  -6 -10   -0.48    0.45
   3  -6  10    0.00    0.58
   3   6 -10   -1.09    0.63
   3  -6  10   -0.18    0.34
   3   7  10    0.26    0.48
  -3   7 -10    0.15    0.66
   3  -7 -10    0.54    0.52
  -3  -7  10    1.04    0.53
   3  -7  10    0.41    0.48
  -3  -7 -10    0.47    0.62
   3  -7  10    0.71    0.67
   3   7 -10    0.72    0.77
  -3  -8  10   -0.09    0.47
  -3   8 -10   -0.61    0.67
   3  -8 -10    0.51    0.57
   3   8  10    0.71    0.62
  -3  -8 -10    1.12    0.63
   3  -8  10    0.48    0.48
   3   8 -10   -0.23    0.86
   3  -8  10    0.45    0.69
   3   9  10    0.78    0.69
   3  -9 -10    0.84    0.65
  -3  -9  10    0.41    0.63
  -3   9 -10    1.88    0.84
   3   9 -10    2.06    0.95
  -3  -9 -10   -0.33    0.68
   3  -9  10   -0.09    0.84
   3  -9  10    2.02    0.68
   3  10  10    1.42    0.76
   3 -10 -10    0.17    0.67
  -3  10 -10    0.74    0.95
  -3 -10  10    0.33    0.62
  -3 -10 -10    0.89    0.72
   3 -10  10    1.34    1.00
   3 -10  10    1.10    0.63
   3  10 -10    1.82    1.09
   4   0  10   37.24    1.95
  -4   0  10   39.04    1.82
   4   0 -10   37.52    1.76
  -4   0 -10   35.11    1.75
   4   0 -10   38.90    1.94
  -4  -1  10    1.55    0.41
  -4  -1  10    1.58    0.31
   4   1  10    1.72    0.47
   4  -1 -10    1.69    0.48
   4   1 -10    1.91    0.48
  -4   1  10    1.21    0.31
   4  -1  10    0.78    0.42
   4   1 -10    1.35    0.48
  -4  -1 -10    1.17    0.36
   4  -1  10    1.43    0.28
   4   1 -10    1.44    0.35
   4  -2 -10   74.81    3.52
  -4  -2  10   77.87    3.53
  -4  -2  10   78.76    3.39
   4   2  10   76.54    3.54
   4  -2  10   76.42    3.60
   4   2 -10   75.81    3.42
  -4   2  10   74.54    3.34
  -4  -2 -10   77.76    3.44
   4  -2  10   75.05    3.35
   4   2 -10   80.93    3.63
   4   2 -10   78.93    3.53
  -4   3 -10    3.41    0.68
  -4  -3  10    2.86    0.59
   4   3  10    3.18    0.56
   4  -3 -10    3.51    0.58
  -4  -3  10    2.85    0.47
  -4  -3 -10    2.07    0.52
   4   3 -10    2.40    0.64
   4   3 -10    3.46    0.51
   4  -3  10    2.34    0.41
   4  -3  10    2.91    0.62
   4   3 -10    4.33    0.60
  -4   4 -10   23.16    1.56
  -4  -4  10   26.06    1.33
   4  -4 -10   24.65    1.43
  -4  -4  10   23.11    1.31
   4   4  10   23.21    1.46
   4   4 -10   22.97    1.72
  -4  -4 -10   25.33    1.39
   4  -4  10   22.57    1.28
   4   4 -10   22.69    1.37
   4  -4  10   21.43    1.52
   4   4 -10   23.23    1.39
  -4  -5  10    0.12    0.35
   4   5  10    0.63    0.45
  -4  -5  10    0.49    0.36
  -4   5 -10   -0.45    0.54
   4  -5 -10    0.88    0.50
   4   5 -10    0.67    0.42
  -4  -5 -10    0.62    0.48
   4  -5  10    0.25    0.37
   4   5 -10    0.52    0.67
   4  -5  10    0.29    0.56
   4   5 -10    0.37    0.41
   4  -6 -10   36.61    2.00
  -4  -6  10   37.01    1.94
   4   6  10   38.42    2.01
  -4   6 -10   36.24    2.17
   4  -6  10   36.35    2.17
   4   6 -10   34.63    1.99
   4   6 -10   37.59    2.31
   4  -6  10   36.03    1.87
  -4  -6 -10   37.01    1.98
   4  -7 -10    2.19    0.64
  -4  -7  10    1.56    0.58
   4   7  10    2.03    0.66
  -4   7 -10    2.93    0.80
   4  -7  10    0.94    0.69
  -4  -7 -10    1.50    0.67
   4   7 -10    1.86    0.86
   4  -7  10    0.93    0.47
  -4   8 -10    5.68    0.99
   4  -8 -10    6.46    0.91
   4   8  10    4.75    0.82
  -4  -8  10    6.37    0.86
   4  -8  10    3.53    0.66
  -4  -8 -10    6.30    0.95
   4  -8  10    4.28    0.95
   4   8 -10    6.13    1.21
  -4   9 -10    0.44    0.76
   4  -9 -10   -0.11    0.63
  -4  -9  10    1.17    0.65
   4   9  10   -0.63    0.66
   4   9 -10   -1.19    0.79
   4  -9  10    0.61    0.79
  -4  -9 -10    0.89    0.72
   4  -9  10   -0.29    0.54
   4 -10 -10    8.79    1.07
  -4 -10  10    6.56    0.91
   4  10  10    7.98    1.08
  -4  10 -10    5.76    1.12
  -4 -10 -10    7.38    1.13
   4 -10  10    6.29    1.19
   4  10 -10    8.98    1.40
   4 -10  10    7.59    0.97
   5   0 -10   28.67    1.43
   5   0 -10   25.76    1.61
  -5   0  10   29.60    1.43
   5   0  10   27.66    1.59
   5  -1 -10    3.39    0.63
   5   1  10    6.41    0.72
  -5  -1  10    4.79    0.55
   5  -1 -10    4.84    0.48
   5   1 -10    3.68    0.61
  -5  -1 -10    4.19    0.52
   5  -1  10    3.85    0.64
   5   1 -10    4.17    0.50
   5   1 -10    5.23    0.64
   5  -2 -10    6.79    0.78
  -5  -2  10    6.29    0.58
   5   2  10    6.24    0.78
  -5  -2  10    5.89    0.68
   5   2 -10    6.71    0.64
   5  -2  10    5.43    0.52
   5  -2  10    6.48    0.82
   5   2 -10    4.98    0.70
  -5  -2 -10    6.49    0.64
   5   2 -10    5.56    0.77
  -5  -3  10    0.81    0.46
  -5  -3  10    0.80    0.36
   5   3  10    0.52    0.45
   5  -3 -10    0.89    0.48
   5  -3  10    0.54    0.32
  -5  -3 -10    0.64    0.46
   5  -3  10    0.81    0.52
   5   3 -10    0.85    0.60
   5   3 -10    0.39    0.39
   5   3 -10    0.15    0.46
   5   4  10   10.74    1.03
   5  -4 -10    9.82    1.00
  -5  -4  10   13.26    0.93
  -5  -4  10   11.58    0.88
  -5   4 -10   10.66    1.15
   5  -4  10   13.21    0.88
   5  -4  10    9.93    1.09
  -5  -4 -10   13.13    0.97
   5   4 -10   12.70    1.30
   5   4 -10   11.12    0.96
   5   4 -10   13.28    1.01
   5  -5 -10    6.44    0.84
  -5  -5  10    7.97    0.74
   5   5  10    9.57    0.95
  -5  -5  10   10.48    0.86
  -5   5 -10    8.50    1.02
   5   5 -10    8.40    0.87
   5   5 -10    8.20    0.84
   5   5 -10    6.17    1.03
   5  -5  10    8.76    0.79
  -5  -5 -10    9.68    0.93
   5  -5  10    6.27    0.93
  -5   6 -10    0.03    0.59
   5  -6 -10   -1.02    0.45
  -5  -6  10   -0.19    0.38
  -5  -6  10    0.17    0.46
   5   6  10    0.03    0.47
   5  -6  10    0.55    0.40
   5   6 -10   -0.06    0.52
  -5  -6 -10    0.25    0.52
   5  -6  10    0.50    0.60
   5   6 -10   -0.28    0.51
   5   6 -10   -0.37    0.69
  -5   7 -10   -0.41    0.70
   5   7  10   -0.23    0.56
  -5  -7  10   -0.57    0.41
   5  -7 -10   -0.58    0.53
   5  -7  10   -0.09    0.46
   5  -7  10   -0.03    0.73
   5   7 -10    0.74    0.55
  -5  -7 -10    0.60    0.61
   5   7 -10   -0.59    0.76
   5   8  10    0.53    0.70
  -5   8 -10    1.40    0.75
   5  -8 -10   -0.38    0.58
  -5  -8  10    1.03    0.56
   5  -8  10    0.89    0.76
   5   8 -10    1.29    0.87
  -5  -8 -10    0.61    0.67
   5  -8  10    1.10    0.54
  -5  -9  10    8.67    1.01
  -5   9 -10    8.82    1.20
   5  -9 -10    6.39    0.97
   5   9  10    5.60    0.94
  -5  -9 -10    7.54    1.01
   5  -9  10    5.44    1.12
   5  -9  10    7.48    0.93
   5   9 -10    4.75    1.26
  -5  10 -10    1.41    0.83
   5  10  10    0.88    0.81
  -5 -10  10    1.22    0.72
   5 -10 -10    0.89    0.77
   5 -10  10    0.20    0.67
  -5 -10 -10    0.95    0.88
   5 -10  10    1.01    0.86
   5  10 -10    1.65    1.14
   6   0 -10   50.47    2.31
   6   0  10   44.86    2.44
   6   0 -10   51.98    2.50
   6   1  10    0.57    0.47
   6  -1 -10    0.68    0.35
   6  -1 -10    0.61    0.49
  -6  -1  10    0.23    0.34
   6   1 -10   -0.08    0.46
   6  -1  10    1.10    0.54
   6   1 -10    0.38    0.46
   6   1 -10    1.21    0.41
  -6  -1 -10    0.64    0.35
   6   2  10    0.25    0.46
   6  -2 -10    0.12    0.47
  -6  -2  10   -0.09    0.36
   6   2 -10    0.00    0.34
   6  -2  10    0.31    0.42
   6  -2  10   -0.19    0.28
   6   2 -10    0.09    0.47
   6   2 -10   -0.34    0.47
  -6  -2 -10    0.34    0.41
   6  -3 -10    2.24    0.60
   6   3  10    1.73    0.54
  -6  -3  10    2.59    0.43
  -6  -3  10    1.17    0.48
   6   3 -10    2.46    0.51
   6   3 -10    1.33    0.66
   6  -3  10    2.03    0.66
   6   3 -10    1.22    0.54
  -6  -3 -10    2.72    0.59
   6  -3  10    1.26    0.40
   6  -4 -10   24.15    1.43
  -6  -4  10   21.48    1.25
  -6  -4  10   18.47    1.21
   6   4  10   22.09    1.40
  -6  -4 -10   19.93    1.31
   6   4 -10   21.03    1.32
   6  -4  10   18.56    1.40
   6  -4  10   19.52    1.19
   6   4 -10   21.11    1.42
   6   4 -10   18.88    1.64
  -6   5 -10   -0.49    0.60
   6  -5 -10   -0.49    0.50
  -6  -5  10    0.54    0.45
  -6  -5  10    0.57    0.40
   6   5  10    0.24    0.50
   6   5 -10    0.86    0.79
   6   5 -10   -0.76    0.44
   6  -5  10    0.62    0.43
  -6  -5 -10    0.40    0.55
   6  -5  10    0.20    0.54
   6   5 -10    0.22    0.46
  -6  -6  10    7.32    0.74
  -6   6 -10    4.98    0.94
   6  -6 -10    7.10    0.94
   6   6  10    7.70    0.94
  -6  -6  10    5.84    0.71
   6  -6  10    7.95    0.82
  -6  -6 -10    8.64    1.01
   6  -6  10    6.69    1.01
   6   6 -10    6.25    1.17
   6   6 -10    5.82    0.82
   6   6 -10    6.26    0.82
   6  -7 -10    1.67    0.74
   6   7  10    2.23    0.71
  -6  -7  10    1.02    0.52
  -6   7 -10    1.14    0.67
   6  -7  10    1.07    0.54
   6   7 -10    2.43    1.03
   6   7 -10    1.76    0.61
  -6  -7 -10    1.95    0.77
   6  -7  10    1.08    0.72
  -6  -8  10    1.14    0.61
   6  -8 -10    0.89    0.67
   6   8  10    0.72    0.75
  -6   8 -10    1.05    0.82
   6  -8  10    1.19    0.58
   6   8 -10    1.22    0.71
   6   8 -10    1.81    1.04
   6  -8  10    1.42    0.86
  -6  -8 -10    1.89    0.77
  -6  -9  10   -0.45    0.54
   6  -9 -10    0.24    0.67
   6   9  10   -0.91    0.66
  -6   9 -10    0.84    0.75
   6  -9  10    0.32    0.61
   6  -9  10    0.37    0.83
   6   9 -10    0.36    0.96
  -6  -9 -10    1.15    0.75
   7   0  10   39.96    2.09
   7   0 -10   38.70    1.93
   7   0 -10   37.05    2.10
   7   1  10    1.87    0.61
   7  -1 -10    1.66    0.41
   7  -1 -10    2.27    0.62
   7   1 -10    0.91    0.63
   7  -1  10    1.63    0.59
   7   1 -10    1.08    0.43
   7  -2 -10    1.55    0.59
   7   2  10    1.62    0.58
   7   2 -10    3.34    0.56
   7  -2  10    1.21    0.54
   7  -2  10    1.77    0.40
  -7  -2 -10    1.63    0.50
   7   2 -10    1.65    0.63
  -7  -3  10    2.46    0.59
   7   3  10    3.46    0.66
   7  -3 -10    2.60    0.66
   7   3 -10    2.89    0.54
   7   3 -10    3.31    0.78
  -7  -3 -10    2.87    0.63
   7  -3  10    2.40    0.63
   7   3 -10    4.03    0.79
   7  -3  10    3.64    0.53
   7  -4 -10   19.28    1.39
   7   4  10   21.22    1.42
  -7  -4  10   19.28    1.24
  -7  -4  10   20.78    1.32
   7  -4  10   20.88    1.22
   7   4 -10   17.87    1.32
  -7  -4 -10   19.76    1.32
   7   4 -10   20.78    1.64
   7  -4  10   16.58    1.35
   7   4 -10   20.37    1.42
  -7  -5  10   -0.30    0.44
   7   5  10   -0.19    0.52
   7  -5 -10   -0.42    0.51
  -7  -5  10    0.37    0.42
   7   5 -10   -0.52    0.58
  -7  -5 -10    0.61    0.65
   7   5 -10    0.58    0.80
   7  -5  10    0.08    0.55
   7  -5  10    0.21    0.43
   7   5 -10   -0.31    0.44
  -7  -6  10    0.20    0.45
  -7  -6  10    0.06    0.48
   7  -6 -10    0.54    0.63
   7   6  10   -0.10    0.59
  -7   6 -10    0.35    0.59
   7   6 -10    0.64    0.88
   7  -6  10    0.14    0.42
   7  -6  10    0.59    0.64
   7   6 -10    1.02    0.61
  -7  -6 -10    0.13    0.60
   7   6 -10    0.99    0.66
   7   7  10    2.92    0.81
  -7  -7  10    4.62    0.74
  -7   7 -10    4.15    0.83
   7  -7 -10    4.07    0.85
  -7  -7  10    4.45    0.69
   7   7 -10    5.81    1.20
   7  -7  10    3.65    0.69
   7  -7  10    4.20    0.86
   7   7 -10    3.09    0.79
  -7  -7 -10    4.55    0.96
   7  -8 -10    3.10    0.79
  -7  -8  10    3.08    0.68
  -7   8 -10    2.81    0.87
   7   8  10    4.16    0.92
   7   8 -10    3.15    0.77
   7  -8  10    2.10    0.85
  -7  -8 -10    3.70    0.91
   7  -8  10    3.22    0.73
   7   8 -10    3.65    1.18
  -7  -9  10    1.18    0.69
   7  -9 -10    0.56    0.81
  -7   9 -10    0.97    0.81
   7   9  10    1.05    0.80
   7   9 -10   -0.34    0.73
   7   9 -10   -0.20    0.95
   7  -9  10   -0.25    0.61
  -7  -9 -10    0.85    0.81
   7  -9  10   -0.24    0.80
   8   0 -10   14.55    1.07
   8   0 -10   15.44    1.30
   8   0  10   14.43    1.17
   8  -1 -10    3.15    0.56
   8  -1 -10    3.72    0.76
   8   1  10    3.70    0.71
   8  -1  10    4.75    0.80
   8   1 -10    4.53    0.81
   8   1 -10    4.09    0.63
   8   2  10   42.57    2.30
   8  -2 -10   41.59    2.33
   8  -2 -10   43.81    2.14
  -8  -2 -10   42.18    2.16
   8  -2  10   41.55    2.09
   8   2 -10   46.20    2.41
   8  -2  10   41.14    2.33
   8   2 -10   44.96    2.23
  -8  -3  10    5.40    0.81
   8   3  10    6.13    0.91
   8  -3 -10    4.98    0.83
   8   3 -10    5.89    0.77
   8  -3  10    5.57    0.84
  -8  -3 -10    7.46    0.81
   8   3 -10    6.52    0.93
   8  -3  10    4.52    0.61
   8  -4 -10    7.14    0.97
  -8  -4  10    9.36    0.87
   8   4  10    8.38    0.98
  -8  -4  10    7.62    0.83
   8   4 -10    8.19    1.05
   8  -4  10    8.98    1.04
   8  -4  10    7.08    0.75
   8   4 -10    9.35    0.95
  -8  -4 -10    6.96    0.88
   8  -5 -10    2.66    0.75
  -8  -5  10    1.58    0.51
  -8  -5  10    2.45    0.60
   8   5  10    1.82    0.68
   8   5 -10    2.30    0.92
   8  -5  10    1.62    0.66
   8   5 -10    0.72    0.70
   8  -5  10    2.75    0.58
  -8  -5 -10    0.15    0.69
   8   5 -10    1.89    0.61
   8   6  10   21.79    1.68
  -8  -6  10   21.94    1.43
  -8  -6  10   19.55    1.36
   8  -6 -10   20.01    1.53
   8   6 -10   19.43    1.82
   8  -6  10   19.45    1.52
   8  -6  10   22.37    1.35
   8   6 -10   20.89    1.47
  -8  -6 -10   24.51    1.69
  -8  -7  10    5.32    0.78
   8   7  10    5.60    1.02
   8  -7 -10    3.35    0.85
  -8  -7  10    3.59    0.72
   8   7 -10    4.73    0.87
   8   7 -10    2.95    1.03
  -8  -7 -10    3.59    0.90
   8  -7  10    3.92    0.86
   8  -7  10    4.65    0.75
  -8  -8  10    2.70    0.67
   8  -8 -10    3.85    0.93
  -8   8 -10    1.82    0.81
   8   8  10    1.39    0.84
  -8  -8 -10    1.14    0.84
   8  -8  10    1.74    0.80
   8  -8  10    1.94    0.61
   8   8 -10   -0.19    0.65
   8   8 -10    1.18    0.99
   9   0  10    3.39    0.72
   9   0 -10    3.51    0.81
   9   0 -10    2.24    0.55
   9   1  10    3.92    0.77
   9  -1 -10    4.20    0.66
   9  -1 -10    4.16    0.87
   9  -1  10    3.29    0.73
   9   1 -10    3.99    0.62
   9   1 -10    4.67    0.95
   9   2  10    9.28    1.02
  -9  -2  10    7.65    0.95
   9  -2 -10    6.37    0.76
   9  -2 -10    6.33    1.00
   9  -2  10    9.34    1.00
   9   2 -10    6.84    0.81
   9   2 -10    7.90    1.05
   9   3  10    0.76    0.63
  -9  -3  10    1.37    0.62
   9  -3 -10    1.85    0.74
   9  -3  10    1.30    0.67
   9  -3  10    1.16    0.49
  -9  -3 -10    1.72    0.56
   9   3 -10    2.39    0.82
   9   3 -10    2.21    0.57
   9  -4 -10    0.71    0.66
   9   4  10   -0.32    0.62
  -9  -4  10    0.60    0.55
   9  -4  10    1.15    0.69
   9  -4  10    0.84    0.47
  -9  -4 -10    0.88    0.67
   9   4 -10   -0.27    0.78
   9   4 -10    0.62    0.57
  -9  -5  10    4.51    0.73
   9  -5 -10    3.43    0.85
  -9  -5  10    4.23    0.77
   9   5  10    4.51    0.89
   9   5 -10    4.46    0.87
   9   5 -10    4.04    0.80
  -9  -5 -10    5.38    0.86
   9  -5  10    4.64    0.72
   9  -5  10    2.89    0.75
   9  -6 -10    1.20    0.71
  -9  -6  10    1.34    0.60
   9   6  10    0.73    0.75
  -9  -6  10    1.63    0.65
   9  -6  10    1.55    0.55
   9   6 -10    0.24    0.81
   9   6 -10    0.43    0.67
  -9  -6 -10    2.12    0.78
   9  -6  10    0.70    0.67
   9   7  10    1.86    0.83
  -9  -7  10   -0.49    0.60
  -9  -7  10    1.39    0.67
   9  -7 -10    1.78    0.77
   9  -7  10    0.96    0.62
   9   7 -10    1.34    0.76
   9  -7  10    1.00    0.68
   9   7 -10    0.76    1.05
  -9  -7 -10    0.98    0.83
   9  -8 -10    0.79    0.77
   9   8  10    1.31    0.87
  -9  -8  10    0.77    0.69
  -9  -8  10   -0.11    0.62
   9  -8  10    0.14    0.75
   9  -8  10   -0.06    0.63
  -9  -8 -10   -0.19    0.83
   9   8 -10    0.17    1.08
   9   8 -10    0.68    0.80
  10   0 -10    0.17    0.51
  10   0  10    0.82    0.60
  10   0 -10    0.40    0.71
  10   1  10    2.02    0.69
  10  -1 -10    1.90    0.61
  10  -1 -10    2.78    0.88
  10   1 -10    2.21    0.84
  10  -1  10    1.59    0.66
  10   1 -10    1.53    0.62
  10  -2 -10    8.84    1.14
  10   2  10    9.68    1.10
 -10  -2  10   11.79    1.13
  10  -2 -10    7.14    0.86
  10   2 -10    7.46    1.11
  10   2 -10    8.53    0.97
  10  -2  10    9.41    1.09
  10  -3 -10    3.88    0.91
  10   3  10    4.37    0.86
 -10  -3  10    4.44    0.84
  10  -3  10    5.31    0.86
 -10  -3 -10    5.01    0.82
  10   3 -10    3.60    0.73
  10  -3  10    5.32    0.72
  10   3 -10    4.25    1.01
  10  -4 -10    0.49    0.71
 -10  -4  10    0.53    0.60
  10   4  10    0.45    0.67
  10  -4  10    0.81    0.70
  10   4 -10    0.68    0.64
  10   4 -10    0.27    0.73
  10  -4  10    0.71    0.55
 -10  -4 -10    0.68    0.61
 -10  -5  10   14.89    1.25
  10  -5 -10   15.83    1.45
 -10  -5  10   16.04    1.22
  10   5  10   10.93    1.29
  10  -5  10   14.92    1.12
  10   5 -10   12.43    1.32
  10   5 -10   13.09    1.23
  10  -5  10   12.52    1.25
 -10  -5 -10   15.34    1.35
  10   6  10   14.42    1.49
 -10  -6  10   11.10    1.11
 -10  -6  10   15.88    1.27
  10  -6 -10   14.53    1.44
  10   6 -10   13.88    1.35
  10  -6  10   13.50    1.30
  10  -6  10   11.82    1.13
 -10  -6 -10   12.12    1.36
  10   7  10   11.40    1.37
  10  -7 -10   11.70    1.36
 -10  -7  10    8.84    1.01
 -10  -7  10   11.25    1.19
  10  -7  10    8.41    1.11
  10   7 -10   10.74    1.25
 -10  -7 -10   11.40    1.31
  10  -7  10   10.53    1.09
  11   0 -10    1.01    0.54
  11   0  10    0.90    0.70
  11   0 -10    0.63    0.85
  11  -1 -10    0.80    0.60
  11  -1 -10   -0.15    0.77
 -11  -1  10   -0.01    0.67
  11   1  10    1.51    0.74
  11  -1  10    0.13    0.67
  11   1 -10    1.23    0.64
  11   1 -10    1.42    0.84
  11  -2 -10    3.90    1.05
 -11  -2  10    4.33    0.87
  11  -2 -10    3.72    0.75
  11   2  10    5.44    0.95
  11  -2  10    5.20    0.88
  11   2 -10    5.42    0.86
  11   2 -10    7.43    1.16
 -11  -3  10    6.55    0.93
  11   3  10    4.53    0.97
  11  -3 -10    5.38    1.13
  11   3 -10    4.80    0.86
  11   3 -10    5.99    1.12
  11  -3  10    3.71    0.81
  11   4  10   -0.37    0.73
  11  -4 -10    0.48    0.80
 -11  -4  10   -0.45    0.61
 -11  -4 -10    1.74    0.80
  11   4 -10   -1.16    0.53
  11   4 -10    0.82    0.81
  11  -4  10   -0.64    0.65
  11  -4  10   -0.24    0.52
  11  -5 -10    0.43    0.80
  11   5  10   -0.14    0.72
 -11  -5  10   -1.00    0.69
 -11  -5  10    0.56    0.69
  11   5 -10   -0.20    0.69
  11  -5  10    0.11    0.59
  11   5 -10    0.22    0.85
 -11  -5 -10    0.73    0.85
  11  -5  10    0.01    0.70
 -11  -6  10    2.07    0.71
 -11  -6  10    1.66    0.79
  11   6  10    2.06    0.98
  11  -6 -10    0.32    0.89
  11   6 -10    0.91    0.81
 -11  -6 -10    1.43    0.86
  11  -6  10    1.53    0.69
  11  -6  10    0.97    0.76
  12   0 -10    6.88    1.26
  12   0  10    8.88    1.14
  12   0 -10    7.99    0.99
  12  -1 -10   -0.04    0.86
  12  -1 -10    0.11    0.64
 -12  -1  10   -0.01    0.78
  12   1  10    1.02    0.76
  12   1 -10    0.99    0.96
  12   1 -10    0.32    0.64
  12  -1  10   -0.27    0.71
  12  -2 -10   18.74    1.50
  12  -2 -10   16.53    1.63
  12   2  10   17.44    1.56
 -12  -2  10   16.06    1.46
  12   2 -10   18.54    1.52
  12  -2  10   18.23    1.57
  12  -3 -10    0.94    0.91
  12   3  10    0.14    0.77
 -12  -3  10   -0.24    0.77
  12   3 -10   -0.29    0.89
  12  -3  10    0.07    0.64
  12   3 -10   -0.17    0.67
 -12  -4  10    3.41    0.82
  12   4  10    1.71    0.83
  12  -4 -10    5.00    1.13
  12  -4  10    3.66    0.89
  12   4 -10    4.03    1.16
  12   4 -10    2.90    0.79
  13   0 -10    0.37    0.69
  13   0  10    1.32    0.77
 -13   0  10    0.66    0.80
  13   0 -10    0.07    0.97
  13  -1 -10    3.22    1.11
  13  -1 -10    1.46    0.77
 -13  -1  10    2.10    0.86
  13   1  10    0.93    0.81
  13   1 -10    0.68    0.75
  13   1 -10    2.61    1.07
  13  -1  10    1.35    0.74
 -13  -2  10   -0.19    0.75
  13  -2 -10   -0.79    0.91
  13   2  10    0.58    0.71
  13  -2 -10    0.85    0.97
  13  -2  10   -0.40    0.72
  13   2 -10   -0.56    1.00
  13   2 -10    0.46    0.74
   0   0 -11    0.10    0.29
   0   0  11    0.28    0.34
   0  -1  11   11.56    0.89
   0   1 -11    9.79    0.72
   0  -1 -11    9.64    0.81
   0   1  11   10.22    0.80
   0  -2  11    0.62    0.27
   0  -2 -11   -0.24    0.38
   0   2  11    0.34    0.36
   0   2 -11   -0.19    0.46
   0   2 -11    0.27    0.28
   0  -2  11   -0.25    0.41
   0   3 -11    0.45    0.56
   0  -3 -11    0.04    0.41
   0   3  11    0.77    0.36
   0  -3  11   -0.16    0.27
   0  -3  11    0.57    0.47
   0  -4 -11   -0.04    0.41
   0   4  11    0.25    0.35
   0  -4  11    0.02    0.33
   0  -4  11   -0.42    0.49
   0   4 -11   -0.69    0.61
   0   5  11   23.47    1.35
   0  -5 -11   22.18    1.43
   0  -5  11   23.95    1.64
   0   5 -11   26.73    1.80
   0  -5  11   24.53    1.39
   0   6  11    0.27    0.39
   0  -6 -11    0.75    0.53
   0   6 -11   -0.30    0.64
   0  -6  11    0.26    0.46
   0  -6  11   -0.90    0.62
   0   7 -11    2.33    0.94
   0   7  11    1.22    0.50
   0  -7 -11    2.36    0.68
   0  -7  11    2.16    0.75
   0  -7  11    1.94    0.54
   0   8 -11   -0.36    0.71
   0   8  11   -0.03    0.50
   0  -8 -11   -0.28    0.66
   0  -8  11   -0.38    0.49
   0  -8  11   -0.27    0.72
   0  -9 -11   17.01    1.40
   0   9 -11   16.94    1.71
   0  -9  11   11.67    1.16
   0 -10  11   -0.95    0.64
   0 -10 -11    0.85    0.84
   0  10 -11   -0.07    0.88
   1   0  11   83.52    3.76
  -1   0  11   85.43    3.73
   1   0 -11   81.89    3.66
  -1   0 -11   79.89    3.61
  -1  -1  11    7.70    0.78
   1   1  11    7.25    0.73
  -1   1 -11    6.26    0.56
   1  -1 -11    6.88    0.68
   1   1 -11    7.34    0.65
  -1   1  11    6.43    0.66
  -1  -1 -11    6.64    0.64
   1  -1  11    6.60    0.76
   1   1 -11    7.00    0.78
  -1  -2  11   64.16    2.77
  -1   2 -11   63.81    3.10
   1  -2 -11   65.28    2.94
  -1  -2  11   64.56    3.01
   1   2  11   62.60    2.93
  -1  -2 -11   61.98    2.89
   1   2 -11   61.46    2.83
   1   2 -11   59.76    3.05
  -1   2  11   61.55    2.86
   1  -2  11   60.26    3.01
   1  -2  11   62.79    2.76
  -1   3 -11    1.74    0.64
   1  -3 -11    2.38    0.56
  -1  -3  11    2.95    0.63
   1   3  11    3.16    0.56
  -1  -3  11    2.94    0.42
  -1   3  11    3.16    0.49
   1   3 -11    2.83    0.71
   1  -3  11    2.97    0.42
   1  -3  11    1.78    0.59
  -1  -3 -11    2.96    0.55
  -1  -4  11   42.01    2.45
   1  -4 -11   47.24    2.32
  -1   4 -11   49.41    2.59
   1   4  11   47.26    2.27
  -1  -4  11   46.71    2.19
   1  -4  11   47.08    2.18
  -1   4  11   45.98    2.20
   1  -4  11   41.62    2.43
  -1  -4 -11   44.13    2.27
   1   4 -11   45.77    2.60
  -1   5 -11    8.77    1.16
   1  -5 -11   10.11    0.95
   1   5  11   10.07    0.88
  -1  -5  11    8.08    1.01
  -1  -5  11    9.16    0.82
   1  -5  11   10.95    0.84
  -1   5  11   10.53    0.82
  -1  -5 -11   11.95    1.00
   1  -5  11   10.14    1.12
   1   5 -11   10.50    1.24
   1  -6 -11   14.91    1.20
  -1  -6  11   16.19    1.46
   1   6  11   16.33    1.15
  -1  -6  11   15.20    1.12
  -1   6 -11   17.03    1.59
   1  -6  11   17.19    1.14
   1  -6  11   17.35    1.52
  -1   6  11   16.25    1.07
  -1  -6 -11   15.67    1.21
   1   6 -11   18.82    1.65
   1   7  11   -0.05    0.43
  -1   7 -11   -0.05    0.70
   1  -7 -11   -0.63    0.52
  -1  -7  11   -1.70    0.56
  -1  -7  11    0.23    0.45
  -1  -7 -11   -0.14    0.52
   1  -7  11    0.09    0.66
  -1   7  11    0.11    0.65
   1  -7  11    0.15    0.50
   1   7 -11    0.19    0.78
  -1   8 -11    7.69    1.22
   1  -8 -11    6.85    0.93
  -1  -8  11    5.84    0.88
   1   8  11    7.94    0.91
   1  -8  11    6.65    1.12
   1   8 -11    5.30    1.13
   1  -8  11   10.01    1.02
  -1  -8 -11    8.00    0.98
  -1  -9  11   12.48    1.22
  -1   9 -11   14.64    1.55
   1   9  11   13.46    1.26
   1  -9 -11   16.80    1.39
   1  -9  11   18.13    1.71
   1   9 -11   14.96    1.62
   1  -9  11   14.32    1.26
  -1  -9 -11   19.30    1.49
  -1 -10  11    0.57    0.73
  -1  10 -11    1.59    1.06
   1 -10 -11   -0.06    0.70
  -1 -10 -11    1.06    0.86
   1  10 -11    2.27    1.01
   1 -10  11    0.16    0.63
   1 -10  11    0.64    1.02
  -2   0 -11   13.57    0.86
   2   0 -11   12.38    0.95
  -2   0  11   15.73    0.95
   2   0  11   14.17    1.01
  -2  -1  11    4.53    0.59
   2   1  11    4.06    0.60
   2  -1 -11    4.32    0.56
   2  -1  11    4.29    0.64
   2   1 -11    3.99    0.56
   2   1 -11    3.90    0.63
  -2   1  11    4.75    0.53
  -2  -1 -11    3.55    0.50
   2  -2 -11   25.18    1.50
  -2  -2  11   28.45    1.58
   2   2  11   26.64    1.49
  -2  -2  11   25.23    1.33
  -2  -2 -11   27.78    1.47
   2   2 -11   25.35    1.42
   2   2 -11   29.18    1.70
  -2   2  11   27.82    1.40
   2  -2  11   25.05    1.57
  -2  -3  11   -0.35    0.30
  -2  -3  11   -0.56    0.47
   2   3  11   -0.91    0.37
  -2   3 -11   -0.07    0.54
   2  -3 -11    0.07    0.41
   2  -3  11    0.31    0.29
   2  -3  11   -0.20    0.49
   2   3 -11    0.27    0.61
  -2   3  11    0.34    0.31
  -2  -3 -11   -0.29    0.36
   2   3 -11    0.12    0.33
   2  -4 -11    4.61    0.67
   2   4  11    4.40    0.61
  -2  -4  11    4.00    0.72
  -2   4 -11    3.13    0.76
  -2  -4  11    4.20    0.55
  -2   4  11    3.77    0.50
   2   4 -11    4.09    0.91
  -2  -4 -11    4.17    0.63
   2  -4  11    4.68    0.78
   2  -4  11    3.51    0.51
  -2  -5  11    9.64    0.82
   2   5  11   10.30    0.91
  -2  -5  11    8.05    0.99
  -2   5 -11    6.99    1.06
   2  -5 -11    9.06    0.93
  -2   5  11    8.14    0.73
   2  -5  11    9.43    0.79
   2  -5  11    8.65    1.06
   2   5 -11    7.56    1.11
  -2  -5 -11    9.39    0.90
   2   6  11    4.69    0.71
   2  -6 -11    4.57    0.75
  -2  -6  11    4.91    0.70
  -2  -6  11    4.57    0.89
  -2   6 -11    4.09    0.90
  -2  -6 -11    4.79    0.73
   2  -6  11    3.78    0.86
   2  -6  11    5.44    0.69
   2   6 -11    5.07    1.00
  -2  -7  11   -0.02    0.50
   2  -7 -11    0.91    0.56
  -2   7 -11   -0.27    0.71
   2   7  11    0.31    0.47
   2  -7  11    1.50    0.75
   2   7 -11    0.27    0.76
  -2  -7 -11   -0.25    0.51
   2  -7  11    0.24    0.49
   2  -8 -11   -0.33    0.59
  -2   8 -11    0.86    0.80
   2   8  11    0.40    0.58
  -2  -8  11    0.78    0.57
  -2  -8 -11    0.03    0.60
   2  -8  11    0.77    0.58
   2  -8  11    0.43    0.78
   2   8 -11    1.36    0.99
  -2   9 -11    4.03    1.14
   2  -9 -11    6.15    0.94
  -2  -9  11    3.01    0.73
   2   9  11    5.40    0.84
   2  -9  11    5.76    0.89
   2   9 -11    5.81    1.27
   2  -9  11    5.12    1.20
  -2  -9 -11    5.28    0.89
   2  10  11   -0.03    0.58
  -2 -10  11    0.04    0.63
   2 -10 -11    0.01    0.71
  -2  10 -11   -0.63    0.92
   2  10 -11   -0.12    0.92
   2 -10  11    1.37    1.01
   2 -10  11   -0.64    0.59
  -2 -10 -11    0.32    0.70
  -3   0 -11   60.01    2.81
   3   0 -11   61.93    2.95
   3   0  11   62.57    3.00
  -3   0  11   68.52    2.92
  -3  -1  11   -0.05    0.33
  -3  -1  11   -0.22    0.24
   3  -1 -11    0.20    0.43
   3   1  11    0.48    0.41
   3   1 -11   -0.15    0.40
  -3   1  11   -0.40    0.28
   3  -1  11    0.03    0.40
  -3  -1 -11   -0.29    0.30
   3   1 -11    0.01    0.29
   3   1 -11    0.33    0.44
   3  -2 -11   -0.20    0.40
   3   2  11    0.27    0.41
  -3  -2  11   -0.35    0.35
  -3  -2  11    0.23    0.28
  -3  -2 -11    0.25    0.38
   3   2 -11    0.51    0.37
   3   2 -11   -0.22    0.46
   3  -2  11   -0.99    0.38
   3   2 -11    0.00    0.31
  -3   2  11   -0.17    0.27
   3  -3 -11    2.64    0.56
  -3  -3  11    2.90    0.46
  -3  -3  11    2.74    0.59
  -3   3 -11    3.11    0.77
   3   3  11    3.34    0.59
  -3   3  11    3.23    0.44
   3   3 -11    3.27    0.50
   3  -3  11    3.56    0.73
   3   3 -11    2.32    0.51
   3   3 -11    2.11    0.68
  -3  -3 -11    2.81    0.56
   3  -3  11    2.72    0.41
  -3  -4  11   34.25    1.69
  -3  -4  11   33.28    1.94
   3  -4 -11   36.74    1.88
   3   4  11   33.11    1.85
  -3  -4  11   33.99    1.73
  -3   4 -11   33.48    2.04
   3   4 -11   33.20    1.78
   3  -4  11   33.81    1.69
   3  -4  11   34.32    2.01
   3   4 -11   35.73    2.14
  -3  -4 -11   31.10    1.77
   3   4 -11   34.41    1.82
  -3   5 -11    1.64    0.78
   3  -5 -11    3.61    0.70
  -3  -5  11    3.59    0.74
  -3  -5  11    3.13    0.54
   3   5  11    3.22    0.60
   3   5 -11    0.71    0.82
   3  -5  11    2.41    0.48
   3  -5  11    2.00    0.73
  -3  -5 -11    2.08    0.56
   3   6  11    3.39    0.70
  -3   6 -11    4.40    0.91
   3  -6 -11    3.54    0.70
  -3  -6  11    4.47    0.68
   3   6 -11    5.27    1.11
   3  -6  11    4.13    0.88
   3  -6  11    4.72    0.65
  -3  -6 -11    4.09    0.75
  -3  -7  11    3.36    0.63
  -3   7 -11    4.79    0.98
   3   7  11    4.97    0.75
   3  -7 -11    4.31    0.79
   3  -7  11    4.77    0.69
   3   7 -11    3.95    1.02
   3  -7  11    4.97    0.99
  -3  -7 -11    5.08    0.85
   3   8  11    6.07    0.92
   3  -8 -11    5.27    0.89
  -3   8 -11    7.89    1.24
  -3  -8  11    5.97    0.83
   3   8 -11    5.95    1.15
  -3  -8 -11    9.45    1.00
   3  -8  11    6.59    1.19
   3  -8  11    8.21    0.91
   3   9  11    2.26    0.77
  -3  -9  11    1.43    0.69
  -3   9 -11    2.03    0.94
   3  -9 -11    1.87    0.75
   3  -9  11    0.99    0.60
   3   9 -11   -1.26    0.93
  -3  -9 -11    1.32    0.73
   3  -9  11    1.61    0.90
   4   0 -11   11.33    0.94
  -4   0  11   10.39    0.77
   4   0  11    8.53    0.90
  -4  -1  11    0.44    0.28
   4  -1 -11    0.37    0.44
   4   1  11    0.25    0.43
  -4  -1  11    0.55    0.38
  -4   1  11    0.47    0.31
   4  -1  11    0.63    0.43
   4   1 -11    0.62    0.45
   4   1 -11    0.25    0.42
   4   1 -11    0.15    0.30
  -4  -1 -11   -0.02    0.34
   4   2  11    5.91    0.73
  -4  -2  11    6.97    0.61
  -4  -2  11    6.57    0.75
   4  -2 -11    8.65    0.86
   4   2 -11    5.55    0.80
   4   2 -11    7.43    0.78
  -4  -2 -11    5.97    0.65
   4  -2  11    5.72    0.84
   4   2 -11    7.20    0.67
   4   3  11    0.61    0.46
   4  -3 -11    0.57    0.48
  -4  -3  11    0.91    0.37
  -4  -3  11    0.08    0.41
   4   3 -11    0.65    0.41
   4   3 -11    0.33    0.62
   4  -3  11    0.63    0.34
   4   3 -11    0.58    0.46
   4  -3  11    0.64    0.52
  -4  -3 -11    0.07    0.39
  -4  -4  11    3.27    0.64
  -4   4 -11    4.78    0.86
  -4  -4  11    4.93    0.59
   4  -4 -11    3.36    0.66
  -4  -4  11    4.16    0.56
   4   4  11    4.32    0.72
   4  -4  11    3.48    0.76
   4   4 -11    3.28    0.58
   4   4 -11    2.16    0.77
   4  -4  11    3.98    0.53
   4   4 -11    4.06    0.60
  -4  -4 -11    4.15    0.63
  -4  -5  11    2.51    0.51
   4  -5 -11    2.80    0.66
   4   5  11    2.53    0.64
  -4   5 -11    2.14    0.73
   4  -5  11    2.84    0.52
   4   5 -11    2.68    0.60
   4  -5  11    1.85    0.69
  -4  -5 -11    3.19    0.66
   4   5 -11    2.36    0.91
  -4  -6  11    0.21    0.46
  -4   6 -11    0.58    0.74
   4  -6 -11   -0.60    0.48
   4   6  11    0.40    0.58
  -4  -6 -11    0.06    0.61
   4  -6  11    0.89    0.72
   4  -6  11    0.76    0.46
   4   6 -11    1.20    0.88
   4  -7 -11    2.57    0.72
  -4   7 -11    2.01    0.92
  -4  -7  11    0.61    0.50
   4   7  11    1.70    0.64
  -4  -7 -11    0.72    0.63
   4  -7  11    2.38    0.59
   4  -7  11    1.13    0.84
   4   7 -11    0.30    0.84
   4  -8 -11    0.85    0.66
  -4  -8  11   -0.62    0.52
   4   8  11   -0.13    0.58
  -4   8 -11   -0.05    0.74
   4  -8  11   -1.00    0.69
   4   8 -11    0.02    0.94
  -4  -8 -11   -0.50    0.62
   4  -8  11    0.38    0.54
   4   9  11    2.16    0.75
  -4   9 -11    2.65    1.00
   4  -9 -11    2.38    0.82
  -4  -9  11    1.49    0.70
  -4  -9 -11    0.63    0.82
   4  -9  11    1.60    1.02
   4   9 -11    1.30    1.09
   4  -9  11    1.99    0.72
   5   0  11   15.87    1.18
   5   0 -11   17.44    1.20
  -5   0  11   16.50    1.08
   5  -1 -11    0.05    0.45
  -5  -1  11   -0.39    0.33
  -5  -1  11    0.09    0.29
   5   1  11   -0.45    0.46
   5   1 -11    0.27    0.45
   5   1 -11    0.02    0.32
   5  -1  11    0.25    0.45
  -5  -1 -11    0.19    0.35
   5   1 -11   -0.37    0.41
  -5  -2  11    3.61    0.48
  -5  -2  11    3.59    0.59
   5   2  11    2.72    0.60
   5  -2 -11    3.35    0.64
   5   2 -11    3.30    0.67
   5  -2  11    2.18    0.58
  -5  -2 -11    3.10    0.54
   5   2 -11    3.81    0.54
   5   2 -11    3.22    0.69
  -5  -3  11    0.80    0.49
   5  -3 -11    0.84    0.53
   5   3  11    1.11    0.51
  -5  -3  11    0.47    0.37
   5  -3  11    1.57    0.60
   5   3 -11    0.35    0.41
  -5  -3 -11    1.33    0.50
   5  -3  11    1.25    0.37
   5   3 -11    1.95    0.66
   5   3 -11    1.31    0.53
  -5  -4  11   13.52    0.97
  -5  -4  11   16.12    1.24
  -5  -4  11   15.33    1.04
   5   4  11   13.54    1.14
   5  -4 -11   16.29    1.18
   5   4 -11   13.23    1.09
  -5  -4 -11   15.47    1.19
   5   4 -11   13.17    1.09
   5  -4  11   10.95    1.18
   5  -4  11   14.13    0.99
   5   4 -11   12.06    1.35
  -5   5 -11    0.08    0.70
   5  -5 -11   -0.29    0.50
  -5  -5  11    0.19    0.38
   5   5  11    1.75    0.64
  -5  -5  11   -0.01    0.36
   5  -5  11    0.15    0.40
  -5  -5 -11    0.37    0.53
   5  -5  11   -0.43    0.65
   5   5 -11   -1.23    0.67
   5   5 -11    0.48    0.45
   5   5 -11    0.48    0.54
   5   6  11    2.76    0.66
   5  -6 -11    2.46    0.70
  -5  -6  11    1.71    0.55
  -5   6 -11    1.94    0.76
   5  -6  11    3.12    0.59
   5   6 -11    1.02    0.97
  -5  -6 -11    2.50    0.67
   5   6 -11    2.06    0.65
   5  -6  11    2.19    0.77
  -5  -7  11    0.17    0.53
   5   7  11    0.31    0.58
  -5   7 -11    0.68    0.80
   5  -7 -11    0.85    0.64
   5   7 -11   -0.13    0.61
   5   7 -11    0.51    0.93
   5  -7  11    0.14    0.49
   5  -7  11    0.84    0.80
  -5  -7 -11    0.26    0.63
  -5   8 -11   11.08    1.30
   5  -8 -11   10.16    1.15
  -5  -8  11   11.42    1.11
   5   8  11   11.22    1.19
   5  -8  11    8.34    1.19
   5  -8  11    8.78    0.93
   5   8 -11    8.78    1.39
  -5  -8 -11    9.97    1.14
  -5  -9  11    0.80    0.67
   5   9  11    1.44    0.84
   5  -9 -11    1.12    0.76
  -5   9 -11    0.38    0.92
   5  -9  11    2.50    0.67
   5  -9  11    0.20    0.94
  -5  -9 -11    0.91    0.77
   5   9 -11    1.80    1.03
   6   0  11    0.71    0.51
   6   0 -11    0.31    0.51
   6   1  11    0.64    0.56
   6  -1 -11    0.44    0.52
   6   1 -11    0.49    0.59
   6   1 -11    0.49    0.37
   6  -1  11    0.37    0.55
  -6  -2  11    0.34    0.41
   6   2  11   -0.13    0.48
  -6  -2  11    0.15    0.34
   6  -2 -11    0.40    0.53
   6   2 -11   -0.01    0.51
   6  -2  11    0.41    0.49
   6   2 -11   -0.13    0.36
   6   2 -11    0.07    0.55
  -6  -2 -11    0.79    0.44
   6  -3 -11   12.91    1.20
  -6  -3  11   14.26    1.08
  -6  -3  11   15.26    1.00
  -6  -3  11   15.35    1.14
   6   3  11   14.33    1.17
   6   3 -11   16.16    1.11
   6   3 -11   16.72    1.39
  -6  -3 -11   15.06    1.06
   6   3 -11   14.59    1.24
   6  -3  11   15.09    1.32
  -6  -4  11    0.14    0.39
   6   4  11    0.07    0.52
  -6  -4  11    0.31    0.42
   6  -4 -11    0.58    0.57
  -6  -4  11    0.44    0.49
  -6  -4 -11    0.12    0.54
   6   4 -11    0.56    0.49
   6  -4  11    0.37    0.39
   6   4 -11    0.43    0.75
   6   4 -11    1.01    0.63
   6  -4  11   -0.46    0.54
   6  -5 -11    3.52    0.80
  -6  -5  11    3.33    0.61
  -6  -5  11    3.80    0.62
   6   5  11    3.20    0.78
   6   5 -11    3.39    0.71
   6  -5  11    4.53    0.86
   6   5 -11    3.21    1.01
  -6  -5 -11    2.89    0.69
   6  -5  11    2.53    0.53
   6   5 -11    4.81    0.76
   6   6  11    0.03    0.57
  -6   6 -11   -0.36    0.65
   6  -6 -11   -0.44    0.57
  -6  -6  11    0.11    0.44
  -6  -6  11    0.04    0.45
   6  -6  11   -0.68    0.62
   6  -6  11    0.28    0.42
   6   6 -11    0.43    0.53
  -6  -6 -11   -0.33    0.59
   6   6 -11   -0.22    0.88
  -6   7 -11   21.59    1.59
  -6  -7  11   17.72    1.31
   6   7  11   19.14    1.54
   6  -7 -11   17.70    1.47
   6  -7  11   15.47    1.20
   6  -7  11   15.65    1.55
   6   7 -11   19.11    1.48
  -6  -7 -11   17.35    1.48
   6   8  11    0.12    0.66
  -6  -8  11   -0.37    0.50
   6  -8 -11    0.54    0.78
  -6   8 -11   -0.97    0.78
   6   8 -11   -0.02    0.62
   6  -8  11    0.07    0.56
  -6  -8 -11   -0.04    0.72
   6  -8  11    0.22    0.84
   6   8 -11   -0.11    0.98
   6  -9 -11    2.48    0.83
   6   9  11    2.01    0.93
  -6   9 -11    3.34    1.01
  -6  -9  11    2.21    0.69
   6   9 -11    1.92    1.08
  -6  -9 -11    1.31    0.89
   6  -9  11    1.33    0.70
   6  -9  11    1.62    0.99
   7   0 -11   13.29    1.06
   7   0  11   12.28    1.15
   7   0 -11   13.08    1.18
   7   1  11    4.65    0.77
   7  -1 -11    3.56    0.75
   7   1 -11    3.49    0.75
   7  -1  11    2.89    0.69
   7   1 -11    3.31    0.56
   7   2  11   11.85    1.16
   7  -2 -11   15.58    1.28
  -7  -2 -11   14.43    1.03
   7   2 -11   13.48    1.26
   7   2 -11   13.01    1.05
   7  -2  11   14.99    1.19
   7  -3 -11    8.04    1.02
  -7  -3  11    9.11    0.81
  -7  -3  11    9.82    0.97
   7   3  11    9.64    1.02
  -7  -3 -11    8.18    0.85
   7  -3  11   10.10    1.08
   7   3 -11   10.58    0.94
   7   3 -11    8.35    1.03
  -7  -4  11    9.75    0.90
   7   4  11    8.79    1.03
   7  -4 -11    9.62    1.10
  -7  -4  11    9.10    0.93
   7  -4  11    8.28    0.80
   7   4 -11   11.15    1.09
   7   4 -11    8.96    1.18
   7  -4  11   11.55    1.22
  -7  -4 -11    9.46    0.96
   7   4 -11   10.95    1.01
  -7  -5  11    1.53    0.58
   7   5  11    1.50    0.66
   7  -5 -11    1.64    0.70
  -7  -5  11    1.60    0.55
  -7  -5 -11    2.16    0.68
   7   5 -11    1.33    0.92
   7  -5  11    1.51    0.70
   7  -5  11    2.33    0.56
   7   5 -11    2.04    0.72
   7   5 -11    2.17    0.66
   7   6  11    7.64    1.03
  -7  -6  11    7.54    0.86
  -7  -6  11    8.12    0.81
   7  -6 -11    9.04    1.06
   7   6 -11    7.11    1.25
   7  -6  11    6.50    0.80
   7   6 -11    5.60    0.91
   7   6 -11    6.43    0.92
   7  -6  11    7.10    1.10
  -7  -6 -11    7.87    0.98
  -7   7 -11    5.69    1.04
   7  -7 -11    4.38    0.90
  -7  -7  11    4.36    0.70
   7   7  11    4.08    0.88
   7   7 -11    3.58    0.78
   7   7 -11    4.50    1.10
   7  -7  11    3.02    0.94
  -7  -7 -11    5.11    0.95
   7  -7  11    3.72    0.65
   7   8  11    5.42    1.07
   7  -8 -11    5.20    1.02
  -7   8 -11    3.92    0.93
  -7  -8  11    4.19    0.83
   7  -8  11    3.71    0.97
   7   8 -11    3.30    0.88
   7  -8  11    3.66    0.79
   7   8 -11    5.90    1.32
  -7  -8 -11    4.55    1.02
   8   0 -11    9.68    0.86
   8   0 -11    7.33    0.99
   8   0  11    7.61    0.96
   8  -1 -11    2.87    0.81
   8   1  11    2.50    0.76
   8   1 -11    1.40    0.52
   8  -1  11    3.03    0.70
   8   1 -11    2.40    0.76
   8  -2 -11    7.84    1.02
   8   2  11    7.51    0.94
   8  -2  11    8.33    0.97
   8   2 -11    6.97    1.06
   8   2 -11    7.24    0.82
   8  -3 -11    3.91    0.83
   8   3  11    4.49    0.86
  -8  -3  11    4.73    0.76
  -8  -3 -11    5.06    0.77
   8   3 -11    4.51    0.71
   8   3 -11    3.96    0.84
   8  -3  11    4.61    0.82
   8  -4 -11    2.89    0.80
   8   4  11    2.70    0.74
  -8  -4  11    2.52    0.55
  -8  -4  11    2.77    0.66
   8   4 -11    2.61    0.66
   8   4 -11    4.25    0.89
   8  -4  11    2.95    0.64
   8  -4  11    4.04    0.80
  -8  -4 -11    2.10    0.68
   8   5  11    0.93    0.67
  -8  -5  11    0.37    0.51
   8  -5 -11    0.25    0.66
  -8  -5  11    0.34    0.56
   8   5 -11   -0.29    0.70
   8  -5  11    0.66    0.49
   8  -5  11    0.11    0.64
  -8  -5 -11   -0.76    0.59
   8   5 -11    0.06    0.57
   8   5 -11   -0.26    1.36
   8   6  11    1.47    0.75
  -8  -6  11   -0.74    0.43
  -8  -6  11   -0.08    0.58
   8  -6 -11   -0.62    0.67
   8   6 -11    0.45    0.94
   8   6 -11    0.52    0.72
   8   6 -11    1.06    0.66
   8  -6  11    0.89    0.54
  -8  -6 -11    1.27    0.83
   8  -6  11    1.40    0.74
   8   7  11    4.56    0.94
  -8  -7  11    3.44    0.72
   8  -7 -11    2.99    0.90
   8   7 -11    3.50    1.21
  -8  -7 -11    6.32    1.09
   8  -7  11    3.82    0.74
   8  -7  11    3.97    0.91
   8   7 -11    5.20    0.90
   8  -8 -11   -1.14    0.80
  -8  -8 -11   -0.02    0.81
   9   0  11   12.79    1.21
   9   0 -11    9.17    1.19
   9   0 -11   10.68    0.97
   9   1  11    2.30    0.71
   9  -1 -11    1.71    0.77
   9   1 -11    2.05    0.57
   9  -1  11    1.39    0.67
   9   1 -11    1.95    0.81
   9  -2 -11    3.75    0.88
   9   2  11    3.18    0.76
  -9  -2  11    2.28    0.71
   9   2 -11    3.66    0.72
   9  -2  11    4.00    0.86
   9   2 -11    3.36    0.95
  -9  -3  11    0.07    0.57
   9  -3 -11   -0.69    0.59
   9   3  11   -0.90    0.59
   9   3 -11   -0.38    0.78
   9  -3  11   -0.04    0.65
   9   3 -11    0.34    0.51
   9  -4 -11    5.74    0.97
  -9  -4  11    4.81    0.77
  -9  -4  11    4.15    0.73
   9   4  11    4.59    0.87
  -9  -4 -11    4.57    0.87
   9   4 -11    3.92    0.98
   9  -4  11    6.34    0.98
   9   4 -11    4.39    0.82
  -9  -5  11    5.05    0.80
   9  -5 -11    3.76    0.98
  -9  -5  11    5.86    0.84
   9   5  11    4.97    1.01
   9   5 -11    4.15    0.91
   9  -5  11    5.46    0.96
   9   5 -11    5.81    0.92
  -9  -5 -11    4.38    0.94
   9  -5  11    3.30    0.69
   9  -6 -11    0.06    0.76
  -9  -6  11   -0.59    0.55
   9   6  11    0.54    0.84
  -9  -6  11    0.60    0.57
   9  -6  11    0.11    0.48
   9  -6  11   -0.18    0.63
   9   6 -11    1.90    0.88
  -9  -6 -11   -0.63    0.79
   9   6 -11   -0.66    0.65
  -9  -7  11    0.98    0.66
  -9  -7  11    0.35    0.62
   9  -7 -11    1.08    0.82
   9   7  11    0.13    0.87
   9  -7  11    1.06    0.83
   9  -7  11   -0.03    0.59
   9   7 -11    0.01    0.76
  -9  -7 -11    0.55    0.95
  10   0 -11   16.02    1.26
  10   0  11   15.50    1.47
  10  -1 -11    0.49    0.78
  10   1  11    0.77    0.66
  10   1 -11   -0.10    0.87
  10   1 -11    1.01    0.58
  10  -1  11    0.05    0.61
  10   2  11    4.61    0.89
 -10  -2  11    3.02    0.80
  10  -2 -11    3.05    0.89
  10   2 -11    4.95    0.81
  10  -2  11    3.84    0.88
  10   2 -11    2.97    1.04
  10  -3 -11    4.65    1.00
 -10  -3  11    4.39    0.89
  10   3  11    6.37    0.99
  10   3 -11    6.30    0.84
  10   3 -11    5.28    1.04
  10  -3  11    6.12    0.94
  10   4  11    9.90    1.18
  10  -4 -11    7.88    1.13
 -10  -4  11    8.27    0.96
 -10  -4  11    7.37    0.92
  10   4 -11    6.80    0.96
  10  -4  11    7.87    1.08
  10   4 -11    8.15    1.24
 -10  -4 -11    7.81    1.02
 -10  -5  11    0.84    0.64
  10   5  11    2.08    0.91
 -10  -5  11    0.45    0.60
  10  -5 -11    0.90    0.81
  10   5 -11    0.11    0.87
  10  -5  11    0.09    0.71
  10   5 -11    0.61    0.72
 -10  -5 -11    1.56    0.88
  10  -6 -11    0.44    0.78
  10   6  11    0.12    0.77
 -10  -6  11   -0.08    0.60
 -10  -6  11   -0.54    0.63
  10   6 -11   -0.41    0.88
 -10  -6 -11    1.39    0.95
  10   6 -11   -0.23    0.72
  10  -6  11    0.52    0.76
  10  -6  11   -0.01    0.59
  11   0 -11   38.19    2.47
  11   0  11   32.74    2.11
  11   0 -11   33.52    2.03
  11   1  11    0.88    0.75
  11  -1 -11    0.14    0.79
 -11  -1  11    0.02    0.72
  11   1 -11    0.90    0.91
  11   1 -11    0.17    0.59
  11  -1  11    0.49    0.69
  11  -2 -11   18.11    1.67
  11   2  11   16.64    1.55
 -11  -2  11   18.37    1.53
  11  -2  11   16.24    1.48
  11   2 -11   19.41    1.48
  11   2 -11   21.40    1.81
 -11  -3  11    0.29    0.68
  11  -3 -11   -0.24    0.90
  11   3  11   -0.06    0.77
  11   3 -11   -0.24    0.65
  11  -3  11   -0.20    0.73
  11   3 -11   -0.12    0.95
  11   4  11   18.16    1.62
 -11  -4  11   19.91    1.58
  11  -4 -11   17.64    1.69
  11  -4  11   19.47    1.53
  11   4 -11   19.87    1.61
  11   4 -11   22.04    1.83
  11  -5 -11    0.46    0.86
 -11  -5  11   -0.37    0.65
 -11  -5  11    0.37    0.71
  11   5  11    0.26    0.77
  11  -5  11   -0.86    0.70
  11   5 -11   -0.14    0.73
 -11  -5 -11    0.24    0.79
  11   5 -11    1.44    0.92
  12   0 -11    0.64    0.72
  12   0 -11   -0.12    0.93
  12   0  11    1.38    0.78
  12   1  11    1.06    0.80
 -12  -1  11    1.50    0.82
  12  -1 -11   -0.26    0.91
  12   1 -11    0.40    0.98
  12   1 -11    0.65    0.70
  12  -1  11    0.29    0.70
  12   2  11   -0.67    0.74
  12  -2 -11   -0.21    0.98
 -12  -2  11   -0.58    0.69
  12   2 -11    0.39    0.92
  12   2 -11   -0.86    0.64
  12  -2  11    0.00    0.78
 -12  -3  11    0.72    0.77
  12   3  11    1.87    0.92
  12  -3 -11    1.21    0.95
  12   3 -11    0.82    0.78
  12   3 -11   -0.27    0.93
  12  -3  11    1.19    0.76
   0   0 -12   36.92    1.90
   0   0  12   41.14    2.03
   0   1  12   -0.15    0.39
   0  -1 -12   -0.45    0.35
   0   1 -12    0.01    0.32
   0  -1  12   -0.22    0.38
   0  -2 -12    1.79    0.48
   0   2  12    1.32    0.42
   0  -2  12    1.47    0.58
   0   2 -12    1.40    0.67
   0  -3 -12    0.20    0.42
   0  -3  12   -0.28    0.47
   0   3 -12   -0.75    0.53
   0   3  12   -0.41    0.36
   0   4 -12   17.48    1.65
   0   4  12   19.73    1.17
   0  -4  12   18.59    1.43
   0  -4  12   16.76    1.11
   0  -4 -12   21.59    1.34
   0   5 -12   -0.63    0.67
   0  -5  12    0.04    0.40
   0  -5  12   -0.07    0.59
   0  -5 -12   -0.27    0.50
   0   5  12   -0.56    0.36
   0   6 -12    8.48    1.32
   0   6  12   11.56    0.93
   0  -6 -12    9.14    0.99
   0  -6  12    8.09    1.14
   0  -6  12    8.64    0.87
   0  -7  12    1.14    0.76
   0  -7  12   -0.52    0.49
   0   7  12   -0.27    0.46
   0   7 -12    0.08    0.83
   0  -7 -12   -0.10    0.59
   0  -8 -12    1.89    0.74
   0  -8  12    1.61    0.58
   0   8 -12    3.27    1.03
   0  -8  12    1.48    0.87
   0  -9 -12    0.85    0.72
   0  -9  12   -0.54    0.54
   0   9 -12   -1.00    0.98
   0  -9  12    0.38    0.96
   1   0  12    1.93    0.53
  -1   0  12    1.19    0.45
  -1   0 -12    0.88    0.37
   1   0 -12    0.25    0.37
  -1  -1  12    0.10    0.42
   1   1  12   -0.65    0.34
   1  -1 -12    0.58    0.39
  -1   1  12    0.11    0.34
  -1  -1 -12    0.41    0.37
   1  -1  12    0.18    0.48
   1   1 -12   -0.06    0.34
  -1  -2  12    3.17    0.64
   1  -2 -12    4.59    0.67
   1   2  12    5.39    0.69
   1   2 -12    4.45    0.62
  -1  -2 -12    4.43    0.62
   1   2 -12    4.60    0.79
   1  -2  12    4.81    0.75
  -1   2  12    4.43    0.59
  -1   3 -12    7.60    1.01
  -1  -3  12    6.72    0.90
   1  -3 -12    5.67    0.78
   1   3  12    6.42    0.76
   1   3 -12    4.81    0.93
  -1   3  12    7.78    0.71
   1  -3  12    5.81    0.87
  -1  -3 -12    5.96    0.72
   1  -4 -12    0.48    0.49
   1   4  12    1.36    0.44
  -1  -4  12    0.49    0.57
  -1   4 -12    1.02    0.75
  -1  -4  12    0.92    0.40
   1   4 -12    1.01    0.73
   1  -4  12    0.46    0.36
  -1   4  12    1.25    0.42
   1  -4  12    1.36    0.66
  -1  -4 -12    0.82    0.48
  -1  -5  12    1.89    0.48
   1  -5 -12    1.82    0.60
   1   5  12    2.38    0.53
  -1   5 -12    1.70    0.81
  -1  -5  12    2.47    0.80
  -1  -5 -12    0.90    0.57
   1  -5  12    2.32    0.50
   1   5 -12    0.59    0.83
   1  -5  12    3.16    0.81
  -1   5  12    3.02    0.53
  -1   6 -12    0.91    0.87
   1  -6 -12   -0.02    0.54
  -1  -6  12    0.37    0.48
  -1  -6  12    0.94    0.68
   1   6  12    0.86    0.47
   1  -6  12    0.51    0.42
   1   6 -12    0.74    0.81
  -1  -6 -12    1.05    0.65
   1  -6  12    0.19    0.75
  -1   6  12    0.25    0.43
  -1  -7  12    6.40    0.85
  -1   7 -12    6.69    1.17
  -1  -7  12    6.26    1.04
   1   7  12    8.55    0.92
   1  -7 -12    7.16    0.94
  -1  -7 -12    7.03    0.94
   1   7 -12    6.06    1.15
   1  -7  12    5.68    1.04
   1  -7  12    7.14    0.86
   1  -8 -12    1.66    0.73
  -1   8 -12    1.88    0.95
  -1  -8  12    2.61    0.96
  -1  -8  12    2.47    0.71
   1   8  12    1.34    0.62
   1  -8  12    1.71    0.85
   1   8 -12    1.96    0.97
   1  -8  12    2.39    0.69
  -1  -8 -12    1.87    0.79
   1   9  12    1.06    1.01
  -1  -9  12    1.44    0.90
  -1  -9  12    0.00    0.58
   1  -9 -12    0.46    0.74
  -1   9 -12    0.87    0.94
  -1  -9 -12    0.61    0.71
   1  -9  12    2.53    0.99
   1  -9  12   -0.44    0.55
   1   9 -12    1.61    0.96
  -2   0  12   33.37    1.73
  -2   0 -12   31.57    1.64
   2   0  12   32.79    1.81
   2   0 -12   35.41    1.74
  -2  -1  12    1.46    0.51
   2   1  12    2.75    0.56
   2  -1 -12    3.22    0.59
  -2  -1 -12    4.55    0.58
  -2   1  12    2.69    0.50
   2  -1  12    2.50    0.59
   2   1 -12    2.93    0.54
   2  -2 -12   48.36    2.34
  -2  -2  12   47.29    2.43
   2   2  12   47.60    2.37
   2  -2  12   45.41    2.45
   2   2 -12   46.25    2.27
   2   2 -12   50.07    2.55
  -2   2  12   46.45    2.24
  -2  -2 -12   44.77    2.28
  -2  -3  12    0.27    0.48
   2   3  12    0.60    0.51
  -2  -3  12    0.38    0.33
  -2   3 -12    0.08    0.59
   2  -3 -12    1.22    0.50
   2   3 -12   -0.14    0.60
  -2   3  12    0.12    0.36
  -2  -3 -12    0.76    0.50
   2  -3  12    0.85    0.57
   2   4  12   22.28    1.39
  -2   4 -12   20.49    1.63
  -2  -4  12   23.27    1.29
  -2  -4  12   20.91    1.56
   2  -4 -12   21.71    1.42
   2   4 -12   20.22    1.78
  -2   4  12   21.33    1.25
   2  -4  12   21.25    1.56
   2  -4  12   22.07    1.24
  -2  -4 -12   23.42    1.43
   2   5  12    4.23    0.64
  -2  -5  12    4.70    0.63
  -2  -5  12    3.53    0.79
   2  -5 -12    4.87    0.76
  -2   5 -12    4.07    1.00
   2  -5  12    5.67    0.97
   2   5 -12    1.77    0.85
   2  -5  12    4.03    0.60
  -2  -5 -12    4.15    0.71
  -2   6 -12   24.37    1.83
  -2  -6  12   23.73    1.41
   2  -6 -12   21.48    1.50
  -2  -6  12   21.30    1.70
   2   6  12   21.05    1.45
   2  -6  12   18.62    1.71
   2   6 -12   23.07    2.00
  -2  -6 -12   22.52    1.49
   2  -6  12   22.05    1.37
  -2  -7  12    0.54    0.48
  -2  -7  12    0.34    0.71
   2   7  12    0.31    0.58
   2  -7 -12    0.44    0.60
  -2   7 -12   -0.61    0.74
   2  -7  12   -0.01    0.51
   2   7 -12   -0.39    0.85
   2  -7  12   -0.64    0.68
  -2  -7 -12    0.67    0.70
   2   8  12    2.52    0.72
   2  -8 -12    5.96    1.00
  -2  -8  12    5.93    1.08
  -2  -8  12    5.80    0.86
  -2   8 -12    5.77    1.16
   2  -8  12    5.36    0.84
   2   8 -12    5.54    1.16
  -2  -8 -12    6.46    1.01
   2  -8  12    2.98    1.00
  -2  -9  12    1.28    0.71
  -2   9 -12    3.31    1.03
   2  -9 -12   -0.22    0.67
   2   9  12    1.53    0.73
   2  -9  12    2.30    0.74
   2   9 -12    2.27    1.06
   2  -9  12    0.18    0.87
  -2  -9 -12    2.26    0.82
   3   0  12    9.26    0.94
   3   0 -12    8.25    0.82
  -3   0  12    8.33    0.77
  -3  -1  12   28.95    1.57
   3  -1 -12   27.80    1.63
   3   1  12   30.54    1.66
   3   1 -12   28.54    1.61
   3  -1  12   25.42    1.63
  -3  -1 -12   28.78    1.51
   3   1 -12   26.75    1.63
  -3   1  12   30.77    1.53
   3   2  12    4.62    0.71
   3  -2 -12    3.39    0.63
  -3  -2  12    3.60    0.66
   3   2 -12    4.77    0.81
  -3  -2 -12    3.64    0.59
   3   2 -12    4.78    0.65
  -3   2  12    4.11    0.53
   3  -2  12    3.49    0.68
   3  -3 -12   39.29    2.18
  -3  -3  12   43.37    2.27
  -3  -3  12   42.26    2.06
   3   3  12   44.27    2.25
   3  -3  12   41.08    2.37
   3   3 -12   42.04    2.39
   3   3 -12   43.61    2.15
  -3  -3 -12   42.39    2.17
  -3  -4  12    2.84    0.73
  -3  -4  12    2.89    0.52
   3   4  12    3.90    0.65
  -3   4 -12    4.41    0.90
   3  -4 -12    2.84    0.66
   3  -4  12    3.60    0.80
   3   4 -12    3.50    0.87
  -3  -4 -12    4.18    0.69
  -3   5 -12   15.21    1.46
  -3  -5  12   14.10    1.32
  -3  -5  12   13.06    1.03
   3  -5 -12   15.15    1.25
   3   5  12   13.04    1.09
  -3  -5 -12   14.21    1.18
   3  -5  12   14.09    0.99
   3   5 -12   14.61    1.50
   3  -5  12   10.10    1.24
  -3   6 -12   -0.90    0.69
   3   6  12    1.06    0.55
   3  -6 -12    1.42    0.64
  -3  -6  12    0.61    0.49
  -3  -6  12    0.14    0.70
   3   6 -12   -0.39    0.87
  -3  -6 -12    0.44    0.60
   3  -6  12    0.17    0.45
   3  -6  12   -0.02    0.68
  -3   7 -12   25.62    1.95
  -3  -7  12   26.89    1.86
  -3  -7  12   25.68    1.59
   3  -7 -12   24.95    1.69
   3   7  12   23.57    1.60
   3  -7  12   22.69    1.87
  -3  -7 -12   27.12    1.75
   3  -7  12   24.67    1.54
   3   7 -12   25.11    2.02
   3   8  12    0.14    0.61
  -3   8 -12   -0.89    0.78
  -3  -8  12    0.04    0.57
   3  -8 -12   -0.54    0.64
  -3  -8 -12   -0.40    0.63
   3  -8  12   -0.02    0.80
   3  -8  12   -0.19    0.53
   3   8 -12    1.38    0.95
   3   9  12   13.60    1.33
   3  -9 -12   15.09    1.46
  -3  -9  12   12.02    1.21
  -3   9 -12   14.89    1.64
  -3  -9 -12   14.89    1.44
   3  -9  12   11.64    1.54
   3   9 -12   12.07    1.60
   3  -9  12   13.96    1.26
   4   0 -12    6.76    0.80
   4   0  12    6.97    0.85
  -4   0  12    6.93    0.69
  -4  -1  12    0.85    0.43
   4  -1 -12    0.12    0.45
   4   1  12    0.20    0.51
  -4   1  12    0.32    0.37
  -4  -1 -12    0.09    0.38
   4   1 -12    0.31    0.50
   4  -1  12    0.03    0.46
   4   1 -12   -0.16    0.47
  -4  -2  12    4.53    0.68
   4   2  12    4.76    0.72
   4  -2 -12    5.23    0.74
   4   2 -12    5.34    0.82
  -4  -2 -12    3.98    0.61
   4   2 -12    4.50    0.70
   4  -2  12    5.30    0.81
   4  -3 -12   19.84    1.38
  -4  -3  12   20.48    1.36
  -4  -3  12   21.29    1.20
   4   3  12   21.00    1.38
   4   3 -12   21.21    1.26
  -4  -3 -12   19.07    1.30
   4   3 -12   20.64    1.54
   4  -3  12   19.29    1.48
   4   3 -12   23.46    1.40
  -4   4 -12    9.30    1.15
   4  -4 -12    7.56    0.91
   4   4  12    8.56    0.92
  -4  -4  12    7.63    0.77
  -4  -4  12    9.69    1.05
  -4  -4  12   10.32    0.84
   4   4 -12    7.82    0.83
   4   4 -12   10.16    1.28
  -4  -4 -12    8.91    0.88
   4  -4  12    8.32    1.07
  -4  -5  12    4.34    0.79
  -4   5 -12    4.47    1.03
   4   5  12    5.95    0.82
   4  -5 -12    6.44    0.87
  -4  -5  12    5.66    0.68
   4   5 -12    4.60    0.73
  -4  -5 -12    6.52    0.86
   4  -5  12    5.50    1.05
   4   5 -12    3.97    1.02
   4  -5  12    4.86    0.63
   4   6  12    7.58    0.97
  -4  -6  12    9.67    1.18
  -4  -6  12    6.46    0.81
   4  -6 -12    7.74    1.00
  -4   6 -12    7.47    1.15
   4   6 -12    7.89    1.30
  -4  -6 -12    6.76    0.92
   4  -6  12    7.12    0.80
   4  -6  12    6.00    1.05
  -4   7 -12   29.77    2.13
  -4  -7  12   27.51    1.73
   4  -7 -12   30.40    1.89
   4   7  12   30.40    1.92
   4  -7  12   33.10    1.76
  -4  -7 -12   26.76    1.83
   4  -7  12   29.12    2.08
   4   7 -12   32.13    2.25
   4  -8 -12    9.70    1.15
  -4  -8  12    7.46    0.92
  -4   8 -12   10.91    1.44
   4   8  12    8.81    1.10
   4  -8  12    8.18    0.93
   4  -8  12    9.13    1.38
  -4  -8 -12    9.39    1.10
   4   8 -12   10.61    1.43
   4  -9 -12    5.47    1.01
   4   9  12    6.26    1.04
  -4   9 -12    6.29    1.18
  -4  -9  12    5.30    0.91
  -4  -9 -12    3.78    0.90
   4  -9  12    5.29    1.14
   4  -9  12    3.27    0.73
   4   9 -12    4.17    1.17
   5   0  12    1.47    0.57
   5   0 -12    1.35    0.59
   5  -1 -12    2.59    0.63
   5   1  12    2.91    0.65
  -5  -1  12    2.47    0.53
   5   1 -12    2.54    0.60
   5  -1  12    2.52    0.63
   5   1 -12    2.25    0.59
   5   2  12   28.49    1.75
  -5  -2  12   30.65    1.64
   5  -2 -12   28.57    1.71
   5   2 -12   28.22    1.76
  -5  -2 -12   28.92    1.56
   5  -2  12   23.96    1.68
   5   2 -12   28.86    1.72
  -5  -3  12    0.32    0.38
   5   3  12   -0.51    0.46
  -5  -3  12    0.15    0.48
   5  -3 -12    0.61    0.55
   5   3 -12   -0.45    0.41
   5  -3  12    0.29    0.63
   5   3 -12    0.30    0.53
   5   3 -12    0.21    0.67
  -5  -3 -12   -0.16    0.40
   5   4  12   -0.05    0.53
  -5  -4  12    0.06    0.48
  -5  -4  12   -0.49    0.36
  -5  -4  12    0.05    0.39
   5  -4 -12    1.41    0.60
   5   4 -12   -0.13    0.76
  -5  -4 -12    0.02    0.46
   5   4 -12    0.08    0.47
   5  -4  12    0.75    0.68
   5   4 -12    0.74    0.58
  -5   5 -12    7.66    1.08
   5   5  12    6.39    0.92
  -5  -5  12    6.61    0.97
   5  -5 -12    6.39    0.93
  -5  -5  12    7.02    0.77
   5   5 -12    6.32    1.17
   5   5 -12    5.59    0.80
   5  -5  12    4.76    0.74
  -5  -5 -12    5.94    0.83
   5  -5  12    5.91    0.99
  -5   6 -12    6.27    1.12
   5  -6 -12    6.64    1.00
  -5  -6  12    6.39    0.78
   5   6  12    3.37    0.79
   5   6 -12    3.94    1.09
   5  -6  12    4.87    0.69
   5  -6  12    7.13    1.22
   5   6 -12    6.07    0.88
  -5  -6 -12    5.11    0.87
  -5   7 -12   -1.07    0.81
   5   7  12    0.50    0.65
  -5  -7  12   -0.46    0.50
   5  -7 -12    0.36    0.65
   5  -7  12    0.98    0.58
   5   7 -12   -0.18    0.99
  -5  -7 -12    0.33    0.78
   5  -7  12    0.44    0.76
  -5   8 -12    3.67    1.09
   5  -8 -12    3.35    0.86
  -5  -8  12    3.34    0.71
   5   8  12    4.52    0.97
   5  -8  12    4.89    0.82
  -5  -8 -12    5.26    0.96
   5  -8  12    6.70    1.20
   5   8 -12    4.77    1.20
   6   0 -12    9.42    1.00
   6   0  12    7.67    0.92
   6  -1 -12   -0.10    0.53
   6   1  12   -0.09    0.50
   6  -1  12   -0.21    0.51
   6   1 -12   -0.44    0.50
   6   2  12   45.80    2.44
  -6  -2  12   46.76    2.27
   6  -2 -12   45.84    2.45
   6   2 -12   48.53    2.48
   6  -2  12   41.70    2.43
   6   2 -12   45.35    2.67
   6   3  12    1.13    0.59
  -6  -3  12    0.32    0.39
  -6  -3  12    0.18    0.50
   6  -3 -12    0.09    0.58
   6   3 -12    0.22    0.56
   6   3 -12    0.98    0.71
   6  -3  12    0.61    0.60
   6   3 -12    0.36    0.46
  -6  -3 -12    0.56    0.48
   6  -4 -12    3.67    0.77
  -6  -4  12    3.29    0.58
  -6  -4  12    2.23    0.66
   6   4  12    2.91    0.74
  -6  -4  12    2.24    0.59
   6   4 -12    3.69    0.68
  -6  -4 -12    2.70    0.64
   6   4 -12    2.04    0.87
   6   4 -12    2.95    0.68
   6  -4  12    1.75    0.80
   6  -5 -12    0.15    0.65
   6   5  12    0.09    0.59
  -6  -5  12   -0.05    0.48
  -6  -5  12   -0.17    0.41
  -6  -5  12    0.98    0.64
   6   5 -12   -0.03    0.52
  -6  -5 -12   -0.39    0.56
   6  -5  12    0.02    0.68
   6   5 -12   -0.34    0.82
   6   6  12   15.28    1.40
  -6   6 -12   14.54    1.51
  -6  -6  12   15.25    1.18
   6  -6 -12   15.96    1.38
  -6  -6 -12   14.60    1.33
   6   6 -12   14.86    1.29
   6  -6  12   15.07    1.55
   6   6 -12   13.46    1.63
   6  -6  12   15.49    1.15
  -6   7 -12    0.25    0.84
   6   7  12    0.48    0.74
   6  -7 -12    0.56    0.79
  -6  -7  12    0.25    0.56
   6  -7  12   -0.14    0.53
   6   7 -12    0.76    1.05
  -6  -7 -12   -0.51    0.79
   6   7 -12    0.20    0.67
   6  -7  12   -0.07    0.88
  -6  -8  12    0.37    0.61
  -6   8 -12   -0.43    0.87
   6  -8 -12    0.09    0.74
   6   8  12   -0.84    0.65
   6  -8  12   -0.11    0.58
  -6  -8 -12    0.92    0.81
   6  -8  12    0.61    0.97
   6   8 -12   -1.05    1.03
   7   0 -12    5.97    0.94
   7   0  12    7.95    0.96
   7   1  12    0.73    0.57
   7  -1 -12    1.43    0.67
   7  -1  12    0.08    0.58
   7   1 -12   -0.01    0.58
   7   2  12    9.22    1.06
  -7  -2  12   10.80    0.88
   7  -2 -12   10.74    1.12
   7   2 -12    9.67    1.14
   7  -2  12    8.96    1.11
   7   2 -12    8.63    0.91
   7  -3 -12   -0.54    0.61
  -7  -3  12    0.23    0.43
   7   3  12   -0.55    0.53
  -7  -3  12    0.75    0.53
  -7  -3 -12   -0.02    0.52
   7  -3  12   -0.56    0.56
   7   3 -12   -0.12    0.59
   7   3 -12   -0.52    0.47
   7   4  12    2.07    0.80
  -7  -4  12    2.00    0.55
   7  -4 -12    2.48    0.78
  -7  -4  12    2.58    0.59
   7   4 -12    1.53    0.61
   7  -4  12    2.77    0.83
   7   4 -12    2.02    0.78
  -7  -4 -12    1.09    0.66
   7  -5 -12    1.77    0.76
   7   5  12    2.60    0.75
  -7  -5  12    2.54    0.76
  -7  -5  12    2.37    0.63
  -7  -5  12    1.39    0.54
   7   5 -12    2.20    0.68
   7   5 -12    0.47    0.94
   7  -5  12    1.30    0.82
   7   5 -12    1.35    0.69
  -7  -5 -12    3.27    0.74
  -7  -6  12    0.23    0.54
   7   6  12    0.89    0.70
   7  -6 -12    0.83    0.72
   7   6 -12    0.70    0.90
   7  -6  12    0.75    0.56
   7  -6  12    0.90    0.73
  -7  -6 -12    0.83    0.71
   7   6 -12    1.58    0.71
  -7  -7  12    0.07    0.52
   7   7  12    1.10    0.75
   7  -7 -12    0.97    0.76
   7   7 -12    0.52    1.07
   7   7 -12   -0.19    0.58
   7  -7  12    0.40    0.57
   7  -7  12    0.42    0.78
  -7  -7 -12    0.86    0.85
   8   0 -12    2.15    0.83
   8   0  12    1.79    0.77
   8   1  12    1.08    0.73
   8  -1 -12   -0.31    0.65
   8   1 -12    0.29    0.66
   8  -1  12    0.92    0.64
   8  -2 -12    8.55    1.10
   8   2  12   11.11    1.15
   8   2 -12   10.28    1.21
   8   2 -12    7.13    0.85
   8  -2  12    9.67    1.09
   8   3  12   10.16    1.12
  -8  -3  12   10.15    0.90
  -8  -3  12    9.09    1.00
   8  -3 -12   12.02    1.29
   8  -3  12   10.45    1.15
   8   3 -12    7.74    1.12
   8   3 -12    6.79    0.89
   8   4  12    2.60    0.86
  -8  -4  12    2.26    0.56
   8  -4 -12    2.95    0.86
  -8  -4  12    1.83    0.58
   8  -4  12    3.00    0.84
   8   4 -12    1.75    0.60
  -8  -4 -12    2.13    0.72
   8   4 -12    1.24    0.73
   8   5  12   13.79    1.34
  -8  -5  12   11.25    1.07
   8  -5 -12   12.26    1.29
  -8  -5  12   10.59    1.03
   8  -5  12   12.09    1.37
  -8  -5 -12   11.67    1.19
   8   5 -12   10.39    1.14
   8   5 -12    7.37    1.06
   8   6  12   10.03    1.21
   8  -6 -12    9.03    1.16
  -8  -6  12    9.85    0.99
  -8  -6  12    8.07    0.92
  -8  -6 -12    9.59    1.22
   8  -6  12    8.99    1.20
   8   6 -12    9.72    1.12
   8   6 -12    6.34    1.19
   8  -7 -12   20.80    1.64
   8   7  12   18.69    1.60
  -8  -7  12   15.61    1.34
   8  -7  12   17.66    1.60
  -8  -7 -12   19.17    1.58
   8   7 -12   11.76    1.58
   8  -7  12   16.77    1.32
   8   7 -12   16.11    1.48
   9   0  12    4.79    0.89
   9   0 -12    4.56    0.99
   9  -1 -12    3.89    0.96
   9   1  12    4.64    0.90
   9  -1  12    3.77    0.92
   9   1 -12    4.37    0.97
   9   2  12   11.49    1.24
   9  -2 -12    7.23    1.10
  -9  -2  12    6.33    0.95
   9   2 -12    9.14    1.16
   9   2 -12    7.91    0.92
   9  -2  12    7.94    1.06
  -9  -3  12    7.55    0.85
   9  -3 -12    7.83    1.13
  -9  -3  12    7.35    0.96
   9   3  12    9.47    1.24
   9   3 -12    7.59    1.10
   9  -3  12    7.18    1.08
   9   3 -12    4.75    0.83
  -9  -4  12    1.48    0.61
   9   4  12    2.60    0.88
   9  -4 -12    1.03    0.78
  -9  -4  12    1.22    0.66
   9   4 -12    0.45    0.78
   9  -4  12    0.81    0.71
   9   4 -12    1.20    0.67
  -9  -5  12    2.74    0.64
   9  -5 -12    1.83    0.86
  -9  -5  12    1.54    0.63
   9   5  12    2.53    0.92
  -9  -5 -12    2.03    0.78
   9   5 -12    1.01    0.88
   9  -5  12    0.71    0.74
   9   5 -12    1.28    0.64
   9  -6 -12    2.71    0.94
   9   6  12    1.85    0.96
  -9  -6  12    0.61    0.64
  -9  -6  12    0.63    0.66
   9   6 -12    0.75    0.75
   9   6 -12    0.77    0.77
   9  -6  12    0.90    0.86
  -9  -6 -12    1.85    0.91
  10   0  12   35.52    2.28
  10   0 -12   36.77    2.35
  10  -1 -12    1.04    0.86
  10   1  12    1.22    0.73
  10   1 -12   -0.21    0.80
  10  -1  12    1.53    0.75
  10   2  12   26.91    1.91
  10  -2 -12   27.55    1.95
 -10  -2  12   22.35    1.68
  10  -2  12   24.75    1.77
  10   2 -12   24.06    1.66
  10  -3 -12   -0.23    0.76
 -10  -3  12   -0.55    0.60
  10   3  12    0.50    0.73
  10   3 -12    0.65    0.93
  10   3 -12    0.05    0.57
  10  -3  12    0.42    0.78
 -10  -4  12   21.51    1.57
  10  -4 -12   24.17    1.86
 -10  -4  12   22.90    1.59
  10   4  12   23.48    1.79
  10  -4  12   22.04    1.77
  10   4 -12   23.97    1.69
  10   5  12    0.76    0.85
  10  -5 -12    1.98    0.92
 -10  -5  12   -0.62    0.64
 -10  -5  12   -0.35    0.62
 -10  -5 -12    1.07    0.80
  10   5 -12    0.45    0.70
  10   5 -12   -0.77    0.78
  10  -5  12    0.38    0.82
  11   0 -12    2.06    1.09
  11   0  12   -0.47    0.70
  11   1  12    0.27    0.72
 -11  -1  12    0.19    0.81
  11  -1 -12    0.15    0.89
  11  -1  12   -0.69    0.70
  11   1 -12    1.44    1.06
  11   2  12    6.51    1.17
  11  -2 -12    5.32    1.25
 -11  -2  12    3.74    0.90
  11  -2  12    4.42    0.99
  11   2 -12    5.35    1.13
  11   2 -12    3.80    0.93
 -11  -3  12    4.78    0.90
  11  -3 -12    4.83    1.10
  11   3  12    4.29    0.98
  11  -3  12    3.93    0.90
  11   3 -12    3.96    1.10
  11   3 -12    4.96    0.94
  12   0 -12    3.02    1.12
   0   0  13    0.28    0.44
   0   0 -13    0.03    0.37
   0  -1  13    3.52    0.66
   0   1  13    3.93    0.63
   0  -1 -13    3.81    0.57
   0  -2 -13    0.73    0.50
   0  -2  13   -0.07    0.48
   0   2  13    0.13    0.44
   0   3  13   40.79    2.19
   0  -3  13   44.73    2.42
   0  -3 -13   42.44    2.23
   0   3 -13   47.14    2.56
   0   4  13    0.09    0.39
   0  -4  13   -0.08    0.64
   0   4 -13   -0.04    0.80
   0  -4 -13    0.37    0.52
   0   5  13    2.14    0.56
   0   5 -13    1.35    0.91
   0  -5  13    2.38    0.80
   0  -5 -13    2.98    0.74
   0  -6  13    0.17    0.47
   0  -6 -13   -0.12    0.65
   0   6  13   -0.53    0.45
   0  -6  13   -0.10    0.66
   0   6 -13   -0.11    0.83
   0   7 -13   47.24    2.92
   0  -7 -13   49.28    2.59
   0  -7  13   46.64    2.78
   0  -7  13   46.17    2.44
   0  -8 -13    0.97    0.75
   0   8 -13   -0.66    0.88
   0  -8  13   -0.28    0.61
   0  -8  13    0.47    0.83
  -1   0  13    4.39    0.62
   1   0 -13    4.06    0.60
  -1   0 -13    2.81    0.50
   1   0  13    4.56    0.70
   1  -1 -13    3.68    0.60
   1   1  13    3.69    0.65
  -1  -1  13    4.57    0.68
   1  -1  13    4.20    0.71
  -1   1  13    3.56    0.58
  -1  -1 -13    3.98    0.57
   1   1 -13    3.45    0.54
  -1  -2  13    0.05    0.53
   1  -2 -13    0.26    0.49
   1   2  13    0.38    0.43
  -1  -2 -13    0.44    0.49
  -1   2  13    0.38    0.42
   1   2 -13    1.11    0.70
   1  -2  13    0.47    0.60
  -1  -3  13    8.65    1.06
   1   3  13   10.09    0.92
   1  -3 -13   10.71    1.00
  -1   3 -13   11.25    1.23
  -1  -3 -13   10.29    0.95
   1  -3  13    9.16    1.11
   1   3 -13    8.73    1.20
  -1   3  13   11.09    0.93
  -1  -4  13    7.34    1.01
   1   4  13    8.31    0.83
   1  -4 -13    7.77    0.92
  -1   4 -13    6.61    1.09
   1  -4  13    8.16    1.05
  -1   4  13    8.41    0.81
  -1  -4 -13    8.04    0.92
   1   4 -13    6.30    1.10
  -1   5 -13   -0.04    0.80
   1  -5 -13    1.01    0.63
   1   5  13    0.62    0.52
  -1  -5  13    0.83    0.69
   1  -5  13    0.48    0.69
  -1   5  13    0.99    0.47
   1   5 -13    0.78    0.85
  -1  -5 -13    0.09    0.55
  -1  -6  13    4.31    0.96
  -1  -6  13    3.29    0.66
  -1   6 -13    3.94    1.14
   1  -6 -13    2.20    0.73
   1   6  13    4.24    0.73
   1  -6  13    2.81    0.96
   1   6 -13    3.29    1.05
  -1  -6 -13    4.28    0.82
   1  -6  13    4.09    0.67
   1   7  13    8.80    0.96
  -1   7 -13    8.71    1.34
  -1  -7  13    8.41    0.94
  -1  -7  13    8.23    1.22
   1  -7 -13    6.80    0.99
   1  -7  13    9.27    1.27
   1  -7  13    6.66    0.85
  -1  -7 -13    7.63    1.03
   1   7 -13    6.45    1.36
   1  -8 -13   14.34    1.34
   1   8  13   12.51    1.17
  -1   8 -13   13.35    1.66
  -1  -8  13   14.19    1.54
  -1  -8  13   11.07    1.12
  -1  -8 -13   11.93    1.27
   1  -8  13   10.69    1.11
   1  -8  13   11.60    1.53
   1   8 -13   12.54    1.67
   2   0 -13   21.63    1.31
   2   0  13   22.08    1.40
  -2   0  13   20.68    1.32
   2  -1 -13    1.09    0.52
   2   1  13    1.12    0.54
  -2  -1  13    0.48    0.49
  -2   1  13    0.75    0.44
   2   1 -13   -0.33    0.36
  -2  -1 -13    1.04    0.44
   2  -1  13   -0.07    0.51
   2  -2 -13   16.10    1.23
   2   2  13   15.40    1.19
  -2  -2  13   15.74    1.22
  -2   2  13   14.38    1.03
   2  -2  13   12.96    1.22
  -2  -2 -13   16.53    1.12
   2   2 -13   15.49    1.42
   2  -3 -13    0.34    0.56
  -2  -3  13   -0.12    0.55
   2   3  13    0.40    0.46
  -2   3  13    0.05    0.36
   2   3 -13   -0.93    0.69
  -2  -3 -13    0.73    0.48
   2  -3  13   -0.21    0.56
   2   4  13   12.68    1.02
  -2  -4  13   10.93    1.16
   2  -4 -13   13.04    1.17
  -2   4 -13   11.53    1.37
   2   4 -13   11.74    1.41
   2  -4  13   13.27    1.31
  -2  -4 -13   11.57    1.11
   2   5  13    0.48    0.54
  -2   5 -13    0.14    0.79
   2  -5 -13    0.38    0.60
  -2  -5  13    0.51    0.53
  -2  -5  13    0.26    0.68
  -2  -5 -13    1.72    0.68
   2  -5  13    0.04    0.69
   2   5 -13    0.23    0.92
  -2   6 -13    4.21    1.16
   2  -6 -13    4.51    0.92
  -2  -6  13    4.61    0.70
   2   6  13    4.94    0.79
  -2  -6  13    3.25    0.87
   2   6 -13    2.18    0.99
   2  -6  13    2.64    1.00
  -2  -6 -13    4.53    0.80
  -2  -7  13   -0.41    0.77
  -2  -7  13    0.01    0.54
  -2   7 -13   -1.59    0.89
   2   7  13   -0.03    0.60
   2  -7 -13    0.67    0.70
  -2  -7 -13    0.15    0.67
   2  -7  13   -0.15    0.51
   2  -7  13   -0.16    0.75
   2   7 -13    0.61    1.00
   2   8  13    1.33    0.66
  -2   8 -13    2.94    1.15
   2  -8 -13    2.70    0.85
  -2  -8  13    3.13    1.02
  -2  -8  13    1.43    0.67
   2  -8  13    2.44    0.71
   2  -8  13    1.21    1.00
   2   8 -13    1.45    1.13
  -2  -8 -13    0.85    0.77
   3   0  13   11.71    1.08
   3   0 -13   11.73    1.03
  -3   0  13   11.08    0.92
   3  -1 -13   -0.73    0.47
  -3  -1  13    0.39    0.42
   3   1  13    0.84    0.55
   3  -1  13    0.29    0.49
   3   1 -13    0.28    0.47
  -3   1  13   -0.13    0.39
   3  -2 -13   11.61    1.09
  -3  -2  13   10.72    1.01
   3   2  13   10.60    0.99
   3   2 -13   10.77    1.13
   3  -2  13   10.38    1.08
   3   2 -13   11.46    0.98
  -3  -2 -13   11.56    0.96
  -3  -3  13    3.38    0.74
   3   3  13    2.76    0.63
   3  -3 -13    3.41    0.74
  -3  -3 -13    2.30    0.62
   3   3 -13    3.43    0.91
   3  -3  13    3.41    0.80
  -3   4 -13   17.03    1.55
  -3  -4  13   12.75    1.21
   3   4  13   14.13    1.13
   3  -4 -13   15.82    1.33
  -3  -4 -13   16.35    1.17
   3   4 -13   11.34    1.38
   3  -4  13   14.05    1.39
   3   5  13    2.28    0.68
  -3  -5  13    1.92    0.77
   3  -5 -13    1.86    0.73
  -3   5 -13   -0.44    0.76
  -3  -5  13    1.86    0.54
   3   5 -13    1.77    0.99
   3  -5  13    1.57    0.81
  -3  -5 -13    2.61    0.69
   3   6  13    4.25    0.84
  -3   6 -13    4.01    1.12
   3  -6 -13    2.87    0.79
  -3  -6  13    2.99    0.81
  -3  -6  13    2.31    0.61
   3  -6  13    3.07    1.00
  -3  -6 -13    3.53    0.79
   3   6 -13    1.64    1.00
  -3   7 -13    6.02    1.21
   3  -7 -13    7.76    1.09
  -3  -7  13    4.19    1.01
  -3  -7  13    4.58    0.78
   3   7  13    4.12    0.80
  -3  -7 -13    7.79    1.06
   3   7 -13    4.20    1.27
   3  -7  13    4.14    1.05
   3  -7  13    4.15    0.74
  -3  -8  13   16.32    1.65
  -3   8 -13   13.60    1.70
   3  -8 -13   16.78    1.54
  -3  -8  13   13.83    1.25
  -3  -8 -13   17.42    1.53
   3  -8  13   12.60    1.67
   3   8 -13   13.20    1.74
   3  -8  13   13.11    1.19
  -4   0  13   12.82    0.94
   4   0  13   11.06    1.13
   4   0 -13   11.55    1.10
  -4  -1  13    1.84    0.52
   4  -1 -13    1.48    0.57
   4   1  13    1.23    0.62
   4   1 -13    1.65    0.61
   4  -1  13    1.21    0.60
  -4  -2  13    0.59    0.52
   4  -2 -13    0.41    0.55
   4   2  13   -0.03    0.49
   4   2 -13    0.26    0.64
   4   2 -13    1.12    0.52
  -4  -2 -13    0.41    0.42
   4  -2  13   -0.19    0.51
  -4  -3  13    1.32    0.56
   4   3  13    1.47    0.59
   4  -3 -13    2.16    0.68
   4   3 -13    0.78    0.72
   4  -3  13    2.07    0.78
  -4  -3 -13    1.34    0.53
   4   3 -13    1.65    0.60
   4   4  13    3.74    0.75
   4  -4 -13    4.22    0.78
  -4  -4  13    3.06    0.78
  -4  -4 -13    3.40    0.68
   4   4 -13    3.62    1.02
   4  -4  13    3.77    0.86
  -4  -5  13    6.71    0.80
   4   5  13    9.12    0.99
   4  -5 -13    7.40    0.99
  -4  -5  13    7.95    1.01
  -4   5 -13    7.97    1.28
   4  -5  13    6.37    1.14
  -4  -5 -13    7.85    0.95
   4   5 -13   10.52    1.35
   4   6  13    1.81    0.74
  -4   6 -13    0.92    0.90
  -4  -6  13    0.78    0.74
   4  -6 -13    2.26    0.78
  -4  -6  13    1.20    0.57
   4  -6  13    0.67    0.84
   4   6 -13    1.38    1.09
  -4  -6 -13    2.14    0.72
  -4  -7  13    4.15    0.95
  -4   7 -13    4.69    1.10
   4  -7 -13    2.99    0.84
   4   7  13    3.99    0.83
  -4  -7  13    3.51    0.70
  -4  -7 -13    2.06    0.79
   4   7 -13    2.44    1.09
   4  -7  13    3.86    1.03
   4   8  13   -0.64    0.60
  -4   8 -13   -1.13    0.84
   4  -8 -13    0.88    0.77
  -4  -8  13    0.71    0.82
  -4  -8  13   -0.39    0.51
   4  -8  13    0.43    0.63
   4  -8  13    1.36    0.92
  -4  -8 -13   -0.23    0.73
   4   8 -13   -0.13    0.94
   5   0  13   50.36    2.64
   5   0 -13   50.25    2.63
   5  -1 -13    0.25    0.54
   5   1  13    0.36    0.56
   5   1 -13    0.24    0.51
   5  -1  13   -0.15    0.54
   5   2  13   17.36    1.36
  -5  -2  13   18.89    1.30
   5  -2 -13   19.39    1.46
   5   2 -13   18.10    1.45
   5   2 -13   18.68    1.33
   5  -2  13   17.11    1.39
  -5  -3  13    7.62    0.94
   5   3  13    9.00    1.01
   5  -3 -13    9.25    1.08
   5   3 -13    9.46    0.99
   5   3 -13   10.46    1.26
  -5  -3 -13    8.53    0.90
   5  -3  13    8.00    1.06
   5   4  13   33.38    2.03
   5  -4 -13   36.24    2.08
   5  -4  13   32.94    2.15
   5   4 -13   34.33    2.25
  -5  -4 -13   35.68    1.92
  -5  -5  13    4.39    0.68
  -5  -5  13    3.90    0.88
   5  -5 -13    4.12    0.87
   5   5  13    4.27    0.80
   5  -5  13    2.32    0.89
   5   5 -13    3.34    1.11
  -5  -5 -13    6.45    0.90
   5   5 -13    4.35    0.76
  -5  -6  13    5.01    0.73
   5   6  13    7.46    0.99
   5  -6 -13    5.63    1.02
  -5  -6  13    7.22    1.02
  -5   6 -13    7.00    1.26
  -5  -6 -13    5.85    0.94
   5   6 -13    4.12    1.12
   5  -6  13    5.16    1.13
  -5   7 -13   11.08    1.51
   5  -7 -13   12.07    1.38
   5   7  13   12.84    1.29
  -5  -7  13   13.58    1.46
  -5  -7  13   13.92    1.19
   5   7 -13   10.00    1.57
   5  -7  13   13.43    1.63
  -5  -7 -13   11.89    1.27
   6   0  13    0.99    0.60
   6   0 -13    0.87    0.67
   6   1  13    4.50    0.84
   6  -1 -13    1.51    0.77
   6   1 -13    2.48    0.67
   6  -1  13    2.72    0.73
   6   2  13   -0.38    0.57
   6  -2 -13   -0.74    0.61
   6  -2  13   -0.42    0.61
   6   2 -13    0.77    0.60
   6   3  13    0.52    0.62
   6  -3 -13    0.34    0.71
   6   3 -13    1.33    0.65
   6  -3  13    0.68    0.66
  -6  -3 -13    0.83    0.56
  -6  -4  13    1.38    0.63
   6  -4 -13    1.69    0.75
   6   4  13    2.29    0.81
  -6  -4  13    1.17    0.54
   6  -4  13   -0.67    0.66
  -6  -4 -13    1.09    0.63
   6   4 -13    1.39    0.88
   6   4 -13    0.32    0.67
   6  -5 -13    2.87    0.91
  -6  -5  13    3.95    0.66
  -6  -5  13    4.84    0.89
   6   5  13    4.04    0.84
   6  -5  13    5.28    1.01
   6   5 -13    4.00    0.76
  -6  -5 -13    4.81    0.88
   6   5 -13    5.08    1.20
   6   6  13    1.00    0.72
   6  -6 -13    0.63    0.74
  -6  -6  13    0.84    0.71
  -6  -6  13   -0.58    0.50
   6  -6  13   -0.11    0.76
   6   6 -13    0.25    0.91
  -6  -6 -13    1.35    0.71
   6   6 -13    0.38    0.64
  -6  -7  13    0.62    0.82
  -6  -7  13    0.25    0.57
   6   7  13    0.29    0.79
  -6   7 -13    0.00    0.94
   6  -7 -13    1.30    0.80
   6  -7  13    0.03    0.95
  -6  -7 -13   -0.55    0.71
   6   7 -13    0.45    1.07
   7   0  13   27.27    1.82
   7   0 -13   27.97    1.82
   7  -1 -13    3.82    0.90
   7   1  13    3.27    0.77
   7  -1  13    3.12    0.79
   7   1 -13    4.44    0.92
   7   2  13   22.78    1.66
   7  -2 -13   25.53    1.81
   7  -2  13   23.04    1.69
   7   2 -13   22.20    1.73
  -7  -3  13   22.44    1.42
   7  -3 -13   24.99    1.67
   7   3  13   18.70    1.51
   7   3 -13   20.86    1.63
   7  -3  13   16.19    1.54
  -7  -4  13   21.33    1.37
   7  -4 -13   21.47    1.71
   7   4  13   20.04    1.60
  -7  -4 -13   22.66    1.52
   7   4 -13   17.39    1.54
   7  -4  13   21.04    1.75
   7  -5 -13    0.18    0.73
  -7  -5  13   -0.10    0.50
   7   5  13   -0.40    0.72
   7  -5  13   -0.65    0.81
  -7  -5 -13   -0.34    0.69
   7   5 -13    0.08    0.60
  -7  -6  13   11.83    1.29
  -7  -6  13   11.12    1.03
   7   6  13   11.55    1.24
   7  -6 -13   13.98    1.40
  -7  -6 -13   14.66    1.35
   7  -6  13   10.10    1.32
   7   6 -13    9.81    1.10
   7   6 -13   11.54    1.57
   8   0  13    0.73    0.69
   8   0 -13    0.39    0.72
   8   1  13    0.39    0.67
   8  -1 -13    1.07    0.83
   8  -1  13    0.69    0.68
   8   1 -13    1.88    0.80
   8   2  13    8.87    1.15
   8  -2 -13    8.36    1.20
   8   2 -13    9.83    1.28
   8  -2  13   11.00    1.28
  -8  -3  13    4.06    0.77
   8  -3 -13    4.39    1.05
   8   3  13    5.68    0.97
   8  -3  13    4.54    0.95
   8   3 -13    3.28    0.95
  -8  -4  13   -0.56    0.57
   8  -4 -13    0.21    0.75
   8   4  13    0.53    0.74
   8  -4  13    0.04    0.77
   8   4 -13   -0.21    0.71
   8   5  13    0.30    0.74
  -8  -5  13    0.14    0.56
  -8  -5  13   -0.88    0.56
   8  -5 -13   -0.07    0.78
  -8  -5 -13    1.05    0.80
   8  -5  13   -0.20    0.79
   8   5 -13    0.68    0.70
   8   5 -13   -0.37    0.75
   8  -6 -13    1.24    0.85
  -8  -6  13    0.82    0.61
   8   6  13    0.06    0.83
   8  -6  13    0.67    0.81
   8   6 -13   -0.20    0.70
  -8  -6 -13    0.07    0.83
   9   0  13   11.53    1.28
   9   0 -13    7.51    1.25
   9   1  13    2.48    0.86
   9  -1 -13    3.40    0.94
   9  -1  13    1.65    0.81
   9   1 -13    1.29    0.86
   9  -2 -13    6.33    1.12
   9   2  13    6.56    1.11
  -9  -2  13    6.21    0.92
   9   2 -13    5.03    1.02
   9  -2  13    4.76    0.98
   9  -3 -13    0.06    0.78
   9   3  13    0.20    0.76
  -9  -3  13    0.78    0.73
   9   3 -13    1.05    0.85
   9  -3  13    0.04    0.78
   9   4  13   10.39    1.27
  -9  -4  13   11.21    1.15
   9  -4 -13   12.43    1.41
   9  -4  13   12.46    1.40
  -9  -5  13    7.47    0.96
   9  -5 -13    8.19    1.22
   9   5  13    6.67    1.10
  -9  -5  13    6.89    0.93
   9   5 -13    8.14    1.12
   9   5 -13    5.62    1.05
   9  -5  13    6.90    1.21
  10   0 -13    3.54    1.06
  10   0  13    5.07    1.02
  10  -1 -13    1.65    0.93
  10   1  13    0.14    0.76
  10   1 -13   -0.84    0.95
  10  -1  13    0.11    0.71
 -10  -2  13    6.25    1.00
  10  -2 -13    9.31    1.30
  10   2  13    9.33    1.19
  10  -2  13    8.67    1.16
  10   2 -13    6.42    1.19
 -10  -3  13    0.62    0.67
  10   3  13   -0.33    0.76
  10  -3 -13    2.35    0.97
  10   3 -13    0.16    0.97
  10  -3  13    0.59    0.86
  11   0 -13    1.73    1.15
  11   0  13    2.60    0.91
 -11  -1  13    0.59    0.85
  11  -1 -13    0.23    0.92
  11   1  13    1.08    0.82
  11   1 -13   -0.28    1.05
  11  -1  13   -0.25    0.85
   0   0  14   30.55    1.75
   0  -1 -14   -0.23    0.45
   0  -1  14   -0.09    0.47
   0   1  14    0.55    0.46
   0  -2  14   19.34    1.43
   0   2  14   18.77    1.32
   0  -2 -14   21.35    1.32
   0  -3  14    0.43    0.68
   0   3  14   -0.17    0.47
   0  -3 -14    0.03    0.57
   0   3 -14   -0.45    0.80
   0  -4  14   12.94    1.36
   0  -4 -14   11.54    1.16
   0   4  14    9.97    0.95
   0   4 -14   10.92    1.45
   0  -5  14   -0.91    0.62
   0  -5 -14   -0.65    0.59
   0   5 -14   -0.98    0.83
   0   5  14    0.17    0.45
   0  -6 -14    0.74    0.70
   0   6 -14    0.89    1.03
   0  -6  14   -0.05    0.73
   0   7 -14    0.15    0.99
   0  -7  14    0.39    0.81
   0  -7 -14   -0.57    0.74
   0   8 -14   -0.22    1.00
   0  -8  14    1.07    0.90
   0  -8 -14    0.59    0.76
  -1   0  14   28.04    1.62
   1   0  14   27.11    1.63
   1   0 -14   25.15    1.53
   1   1  14    1.29    0.59
   1  -1 -14    0.63    0.53
  -1  -1  14    1.00    0.52
  -1   1  14    1.45    0.54
  -1  -1 -14    1.40    0.51
   1  -1  14    0.82    0.54
  -1  -2  14    0.93    0.64
   1  -2 -14    0.74    0.57
   1   2  14    1.29    0.59
  -1  -2 -14    1.09    0.56
   1  -2  14    1.03    0.67
  -1   2  14    1.19    0.46
  -1  -3  14   18.55    1.45
   1  -3 -14   17.11    1.33
   1   3  14   14.62    1.20
  -1   3  14   14.44    1.13
   1  -3  14   15.88    1.43
  -1  -3 -14   14.33    1.21
  -1   4 -14   23.86    1.89
  -1  -4  14   21.70    1.61
   1  -4 -14   25.17    1.55
  -1  -4 -14   22.17    1.47
   1  -4  14   17.28    1.66
  -1   4  14   20.47    1.34
  -1   5 -14    1.43    0.96
  -1  -5  14    3.17    0.85
   1  -5 -14    0.79    0.66
   1   5  14    1.98    0.64
  -1  -5 -14    1.78    0.72
   1   5 -14    0.65    0.93
   1  -5  14    1.13    0.78
  -1  -6  14    0.48    0.83
   1  -6 -14    0.50    0.69
   1   6  14    0.32    0.55
  -1   6 -14   -0.08    0.93
   1  -6  14   -0.73    0.74
  -1  -6 -14   -0.13    0.66
   1   6 -14    0.55    1.06
   1  -7 -14   17.20    1.54
   1   7  14   17.67    1.39
  -1  -7  14   17.30    1.72
  -1   7 -14   21.93    2.12
   1  -7  14   21.24    1.92
   1   7 -14   18.11    1.92
  -1  -7 -14   19.18    1.58
   1  -8 -14   11.82    1.31
  -1  -8  14   10.30    1.38
  -1   8 -14   10.15    1.60
   1  -8  14    7.93    1.40
  -1  -8 -14    8.41    1.18
   1   8 -14   11.24    1.60
   2   0 -14    8.79    0.91
  -2   0  14    9.96    0.95
   2   0  14    9.01    1.00
   2  -1 -14    0.81    0.51
   2   1  14    1.36    0.54
  -2  -1  14    1.31    0.57
   2  -1  14    0.59    0.54
  -2   1  14    1.30    0.53
   2   1 -14    0.94    0.52
  -2  -2  14    4.43    0.79
   2   2  14    4.74    0.78
   2  -2 -14    3.36    0.70
  -2   2  14    3.25    0.58
  -2  -2 -14    4.25    0.69
   2  -2  14    3.44    0.78
  -2  -3  14    1.71    0.71
   2  -3 -14    0.16    0.62
   2   3  14    0.70    0.58
   2  -3  14    0.88    0.75
   2   3 -14    0.38    0.81
  -2  -3 -14    0.91    0.57
  -2   4 -14    6.46    1.26
   2  -4 -14    8.25    1.01
  -2  -4  14    7.36    1.05
   2   4  14    8.09    0.91
   2   4 -14    6.26    1.15
  -2  -4 -14    7.01    0.91
   2  -4  14    7.46    1.15
   2   5  14    7.08    0.89
  -2  -5  14    3.98    0.89
  -2   5 -14    3.89    1.22
   2  -5 -14    4.51    0.92
   2   5 -14    6.33    1.27
  -2  -5 -14    5.63    0.95
   2  -5  14    5.87    1.17
   2  -6 -14    3.61    0.86
  -2   6 -14    1.63    1.00
   2   6  14    2.24    0.72
  -2  -6  14    1.87    0.85
   2   6 -14    3.32    1.23
   2  -6  14    2.23    0.92
  -2  -6 -14    1.46    0.76
  -2  -7  14    3.98    0.98
   2   7  14    4.04    0.78
   2  -7 -14    3.55    0.91
  -2   7 -14    2.69    1.10
  -2  -7 -14    2.60    0.85
   2   7 -14    1.12    1.06
   2  -7  14    1.78    0.92
   3   0 -14    8.21    0.90
   3   0  14    6.38    0.89
  -3   0  14    6.51    0.75
   3   1  14    3.34    0.72
   3  -1 -14    4.78    0.80
  -3  -1  14    5.87    0.78
   3  -1  14    4.07    0.84
  -3   1  14    3.70    0.62
   3   1 -14    4.87    0.73
   3   2  14    7.35    0.90
  -3  -2  14    8.44    0.94
   3  -2 -14    6.78    0.94
  -3  -2 -14    6.80    0.81
   3   2 -14    7.17    1.00
   3  -2  14    7.34    1.00
  -3  -3  14   15.21    1.25
   3   3  14   15.16    1.30
   3  -3 -14   13.28    1.26
   3  -3  14   13.92    1.37
   3   3 -14   13.26    1.46
  -3  -3 -14   14.61    1.20
  -3  -4  14    3.93    0.84
   3   4  14    2.73    0.68
   3  -4 -14    1.28    0.69
   3   4 -14    2.02    1.04
  -3  -4 -14    1.57    0.63
   3  -4  14    2.74    0.94
   3   5  14   -0.77    0.60
   3  -5 -14   -0.01    0.66
  -3  -5  14    0.72    0.71
  -3   5 -14   -0.60    0.82
   3   5 -14   -0.72    0.86
   3  -5  14   -0.42    0.79
  -3  -5 -14    1.51    0.74
  -3   6 -14    0.44    0.94
   3   6  14    0.92    0.63
  -3  -6  14    1.33    0.74
   3  -6 -14    0.34    0.71
   3   6 -14    1.05    1.12
  -3  -6 -14    0.87    0.71
   3  -6  14    0.83    0.90
   3  -7 -14   14.19    1.40
  -3   7 -14   16.16    1.72
  -3  -7  14   10.52    1.32
   3   7  14   15.41    1.38
   3  -7  14   15.03    1.60
  -3  -7 -14   14.00    1.41
   4   0  14   37.63    2.16
   4   0 -14   37.48    2.08
   4   1  14    2.55    0.72
   4  -1 -14    2.86    0.75
  -4  -1  14    1.88    0.56
   4   1 -14    2.35    0.69
   4  -1  14    2.78    0.72
   4  -2 -14   30.80    1.82
   4   2  14   31.12    1.86
   4   2 -14   30.31    1.89
   4  -2  14   24.82    1.80
   4  -3 -14   15.62    1.34
   4   3  14   16.80    1.36
  -4  -3  14   15.48    1.33
   4  -3  14   14.58    1.41
  -4  -3 -14   13.54    1.15
   4   3 -14   14.98    1.50
   4  -4 -14   22.25    1.65
   4   4  14   22.37    1.52
  -4  -4  14   18.22    1.53
  -4  -4 -14   22.30    1.44
   4  -4  14   21.23    1.81
   4   4 -14   17.61    1.74
  -4  -5  14    0.23    0.68
   4   5  14    0.13    0.60
   4  -5 -14   -0.87    0.72
   4  -5  14    0.07    0.83
   4   5 -14   -1.27    0.90
  -4  -5 -14   -0.29    0.62
   4   6  14   10.77    1.16
   4  -6 -14    8.68    1.14
  -4  -6  14    7.31    1.14
  -4   6 -14    7.17    1.30
   4  -6  14    8.62    1.28
   4   6 -14    5.25    1.33
  -4  -6 -14    9.54    1.17
   4  -7 -14   14.21    1.38
  -4  -7  14   12.69    1.43
   4   7  14   10.94    1.25
  -4   7 -14   10.79    1.51
   4   7 -14   11.37    1.69
   4  -7  14   11.36    1.54
  -4  -7 -14   11.45    1.28
   5   0  14    3.02    0.80
   5   0 -14    0.70    0.60
   5  -1 -14    2.13    0.68
   5   1  14    2.12    0.70
   5  -1  14    1.91    0.74
   5   1 -14    1.48    0.67
   5  -2 -14   -0.21    0.59
   5   2  14   -0.12    0.67
   5  -2  14    0.30    0.64
   5   2 -14    0.23    0.60
   5   3  14    1.09    0.65
  -5  -3  14   -0.27    0.56
   5  -3 -14    0.33    0.67
   5  -3  14    0.26    0.66
   5   3 -14    0.70    0.83
  -5  -4  14    2.51    0.76
   5   4  14    3.74    0.82
   5  -4 -14    1.10    0.77
  -5  -4 -14    2.19    0.73
   5   4 -14    1.82    0.91
   5  -4  14    3.30    0.92
  -5  -5  14    3.81    0.89
   5   5  14    3.70    0.83
   5  -5 -14    6.16    1.01
  -5  -5 -14    4.73    0.92
   5  -5  14    4.12    1.03
   5   5 -14    5.04    1.24
  -5  -6  14    0.67    0.68
   5   6  14    0.35    0.68
   5  -6 -14    0.45    0.85
   5  -6  14    1.43    1.00
  -5  -6 -14   -0.63    0.72
   5   6 -14   -0.34    0.92
   6   0  14    3.40    0.82
   6   0 -14    4.45    0.91
   6   1  14    0.86    0.67
   6  -1 -14    1.57    0.78
   6  -1  14    2.09    0.79
   6   1 -14   -0.10    0.61
   6   2  14   -0.15    0.71
   6  -2 -14    0.50    0.76
   6   2 -14    0.30    0.72
   6  -2  14    1.08    0.71
   6  -3 -14    0.71    0.74
  -6  -3  14    0.40    0.54
   6   3  14   -0.05    0.65
   6   3 -14    1.10    0.76
   6  -3  14   -0.25    0.73
   6   4  14    3.21    0.95
   6  -4 -14    1.99    0.82
  -6  -4 -14    1.90    0.71
   6  -4  14    2.90    0.90
   6  -5 -14   -0.17    0.71
   6   5  14    0.14    0.66
  -6  -5  14    0.52    0.69
   6   5 -14   -0.55    0.98
  -6  -5 -14    0.62    0.73
   6  -5  14   -1.13    0.72
   6   6  14    0.39    0.78
   6  -6 -14   -1.07    0.73
  -6  -6  14   -0.30    0.69
  -6  -6 -14    0.98    0.83
   6  -6  14    0.36    0.87
   6   6 -14   -1.96    0.98
   7   0 -14    2.44    0.84
   7   0  14    2.77    0.82
   7  -1 -14    0.76    0.83
   7   1  14    2.76    0.80
   7   1 -14    0.54    0.80
   7  -1  14    1.83    0.87
   7  -2 -14    3.43    0.91
   7   2  14    3.62    0.89
   7   2 -14    3.79    0.90
   7  -2  14    3.66    0.97
  -7  -3  14    0.17    0.62
   7   3  14    1.64    0.75
   7  -3 -14    1.04    0.76
   7  -3  14    0.22    0.72
   7   3 -14    0.13    0.78
   7  -4 -14    4.61    1.01
  -7  -4  14    4.91    0.91
   7   4  14    4.88    0.98
   7  -4  14    4.01    1.06
   7   5  14    2.10    0.90
   7  -5 -14    2.45    0.91
  -7  -5 -14    1.73    0.82
   7  -5  14    0.50    0.82
   8   0 -14   22.80    1.86
   8   0  14   23.39    1.77
   8   1  14    5.06    1.07
   8  -1 -14    4.46    0.97
   8  -1  14    3.38    0.90
   8   1 -14    3.58    0.99
   8   2  14   10.73    1.24
   8  -2 -14    9.29    1.29
   8  -2  14    8.15    1.18
   8   2 -14   10.74    1.24
   8   3  14   -0.61    0.69
  -8  -3  14    1.20    0.73
   8  -3 -14    1.68    0.97
   8   3 -14    1.46    0.89
   8  -3  14    0.03    0.75
   8  -4 -14   15.27    1.52
   8   4  14   15.09    1.48
  -8  -4  14   14.77    1.26
   8  -4  14   13.73    1.47
   9   0 -14    7.30    1.20
   9   0  14    6.52    1.11
   9  -1 -14    3.78    1.01
   9   1  14    2.96    0.92
   9  -1  14    3.10    0.95
   9   1 -14    4.21    1.11
   9   2  14    2.81    0.89
  -9  -2  14    0.34    0.75
   9  -2 -14    1.58    0.99
   9  -2  14   -0.05    0.82
   9   2 -14    1.64    1.00
   9   3  14    9.42    1.27
   9  -3 -14    9.15    1.37
  -9  -3  14    7.78    1.01
   9  -3  14    8.71    1.22
  10   0  14    4.02    0.99
  10   0 -14    4.26    1.20
   0   0  15   -0.29    0.56
   0  -1  15    6.23    0.90
   0   1  15    8.13    0.88
   0  -1 -15    6.29    0.94
   0  -2  15   -0.48    0.65
   0  -2 -15    1.41    0.62
   0   2  15    0.09    0.47
   0  -3 -15   25.12    1.62
   0  -3  15   24.82    1.76
   0   3  15   25.60    1.60
   0  -4  15   -0.22    0.67
   0   4  15   -0.14    0.50
   0   4 -15    0.64    0.96
   0  -4 -15   -0.06    0.63
   0   5 -15   -1.46    0.90
   0   5  15    0.26    0.77
   0  -5 -15    1.68    0.81
   0  -5  15   -0.08    0.76
   0  -6  15   -1.52    0.72
   0  -6 -15    0.32    0.72
   0   6 -15   -1.20    1.08
   0  -7 -15   24.15    1.70
   0  -7  15   15.78    1.67
   0   7 -15   16.30    1.91
  -1   0  15   24.26    1.59
   1   0  15   25.82    1.63
  -1  -1  15    0.60    0.57
   1   1  15    0.42    0.52
   1  -1 -15    0.99    0.59
   1  -1  15   -0.29    0.59
  -1   1  15    0.82    0.57
  -1  -2  15   34.25    2.00
   1   2  15   36.11    1.97
   1  -2 -15   31.17    1.89
  -1   2  15   30.46    1.85
   1  -2  15   32.50    2.08
  -1  -2 -15   35.33    1.91
   1  -3 -15    0.99    0.62
  -1  -3  15    0.83    0.68
   1   3  15    0.82    0.63
  -1  -3 -15    0.73    0.64
   1  -3  15    1.47    0.75
  -1   3  15    0.82    0.55
  -1  -4  15   13.27    1.35
   1   4  15   14.29    1.22
  -1   4 -15   14.20    1.61
   1  -4 -15   15.08    1.30
   1  -4  15   13.84    1.46
  -1  -4 -15   11.81    1.22
   1   5  15    1.61    0.66
   1  -5 -15    1.87    0.86
  -1   5 -15    0.98    0.99
  -1  -5  15    0.37    0.76
  -1  -5 -15    2.67    0.85
   1   5 -15    1.83    1.08
   1  -5  15    0.83    0.95
  -1   6 -15    8.88    1.50
   1   6  15   12.08    1.17
   1  -6 -15   13.58    1.35
  -1  -6  15   12.79    1.52
   1   6 -15   12.80    1.82
  -1  -6 -15   12.59    1.34
   1  -6  15   11.27    1.43
   2   0  15    3.07    0.72
  -2   0  15    1.76    0.61
   2   0 -15    1.47    0.62
   2   1  15    0.90    0.64
   2  -1 -15    1.64    0.65
  -2  -1  15    0.56    0.53
   2  -1  15    3.02    0.78
  -2   1  15    2.00    0.58
   2   2  15    0.89    0.58
  -2  -2  15    0.41    0.64
   2  -2 -15    4.04    0.78
   2  -2  15    1.38    0.73
   2   3  15    0.38    0.62
   2  -3 -15   -0.63    0.57
  -2  -3  15    0.70    0.70
  -2  -3 -15    1.17    0.66
   2  -3  15   -1.33    0.68
   2   3 -15   -0.25    0.86
  -2  -4  15    0.13    0.75
   2  -4 -15    1.62    0.80
   2   4  15    1.74    0.63
  -2  -4 -15    2.39    0.69
   2  -4  15    3.12    0.90
   2   4 -15    0.77    1.03
  -2   5 -15    3.99    1.19
   2   5  15    4.14    0.83
   2  -5 -15    3.62    0.91
  -2  -5  15    2.73    0.84
  -2  -5 -15    5.14    0.93
   2   5 -15    3.03    1.12
   2  -5  15    3.29    0.98
   2   6  15    0.81    0.66
   2  -6 -15    1.03    0.75
  -2   6 -15   -0.63    1.13
  -2  -6  15   -0.19    0.71
   2   6 -15   -0.67    1.00
  -2  -6 -15   -0.18    0.70
   2  -6  15    0.11    0.97
  -3   0  15    2.00    0.58
   3   0  15    2.71    0.74
   3   0 -15    1.49    0.67
   3   1  15   -0.77    0.52
  -3  -1  15    0.07    0.55
   3  -1 -15   -0.05    0.61
   3  -1  15   -0.02    0.65
  -3  -2  15    1.63    0.68
   3  -2 -15    2.77    0.73
   3   2  15    2.83    0.70
   3  -2  15    0.92    0.68
   3   3  15    1.95    0.67
   3  -3 -15    2.96    0.87
  -3  -3  15    1.59    0.66
  -3  -3 -15    2.06    0.67
   3   3 -15    2.55    0.91
   3  -3  15    1.44    0.80
  -3  -4  15    1.20    0.69
   3  -4 -15    2.83    0.86
   3   4  15    2.97    0.78
  -3  -4 -15    1.89    0.73
   3  -4  15    2.11    0.96
   3   4 -15    2.21    1.00
   3  -5 -15    3.25    0.93
   3   5  15    3.11    0.82
  -3  -5  15    3.01    0.93
  -3  -5 -15    4.10    0.84
   3   5 -15    1.93    1.22
   3  -5  15    2.85    1.07
   3   6  15    1.68    0.71
   3  -6 -15    1.04    0.76
  -3  -6  15    0.18    0.73
  -3   6 -15    0.40    1.02
   3   6 -15    0.52    1.05
  -3  -6 -15    2.07    0.80
   3  -6  15    0.75    0.92
   4   0  15   39.08    2.31
   4   0 -15   41.67    2.25
   4   1  15    0.34    0.63
   4  -1 -15    0.15    0.67
   4  -1  15    0.19    0.65
   4   1 -15    1.50    0.62
  -4  -2  15   19.62    1.52
   4  -2 -15   26.42    1.65
   4   2  15   22.46    1.67
   4  -2  15   21.16    1.73
   4  -3 -15    2.76    0.90
   4   3  15    3.91    0.86
  -4  -3  15    2.98    0.73
   4   3 -15    3.08    1.01
   4  -3  15    4.05    0.97
   4  -4 -15   21.17    1.71
   4   4  15   22.38    1.57
  -4  -4  15   19.16    1.58
   4  -4  15   19.11    1.76
  -4  -4 -15   19.39    1.52
   4   4 -15   21.53    1.99
   4   5  15    0.14    0.63
  -4  -5  15    0.14    0.72
   4  -5 -15   -1.01    0.73
   4   5 -15   -1.14    1.05
   4  -5  15   -1.75    0.86
  -4  -5 -15    0.68    0.78
   4  -6 -15    3.29    1.02
  -4  -6  15    1.78    0.80
   4   6  15    2.26    0.77
   4   6 -15    2.28    1.16
  -4  -6 -15    3.38    0.88
   4  -6  15    1.54    0.95
   5   0  15    0.56    0.69
   5   0 -15    1.00    0.74
   5   1  15    1.87    0.75
   5  -1 -15    3.94    0.90
   5  -1  15    2.21    0.87
   5   1 -15    3.01    0.74
   5  -2 -15    4.20    0.88
   5   2  15    5.13    0.96
   5  -2  15    2.87    0.85
   5   3  15    4.33    0.88
   5  -3 -15    4.02    0.91
   5  -3  15    3.84    0.99
  -5  -4  15   -0.30    0.63
   5  -4 -15    0.00    0.75
   5   4  15   -0.10    0.74
   5   4 -15   -0.40    0.94
   5  -4  15   -0.94    0.72
   5  -5 -15    1.24    0.85
  -5  -5  15    0.24    0.74
   5   5  15    2.42    0.78
   5  -5  15    1.40    0.99
   5   5 -15    0.21    1.12
  -5  -5 -15    0.49    0.67
   6   0 -15    0.49    0.69
   6   0  15   -0.07    0.77
   6   1  15    6.55    1.07
   6  -1 -15    6.80    1.03
   6  -1  15    6.64    1.06
   6   1 -15    7.56    1.08
   6  -2 -15    0.28    0.73
   6   2  15    0.17    0.71
   6  -2  15   -0.18    0.74
   6   2 -15    0.48    0.80
   6   3  15    1.39    0.82
   6  -3 -15    1.72    0.84
   6  -3  15   -1.25    0.79
   6  -4 -15    1.57    0.83
   6   4  15    0.75    0.78
   6  -4  15   -0.34    0.87
   6   5  15   15.29    1.42
   6  -5 -15   13.87    1.46
   6  -5  15   11.65    1.52
  -6  -5 -15   12.59    1.42
   7   0 -15    1.06    0.79
   7   0  15    0.62    0.76
   7   1  15    0.01    0.73
   7  -1 -15    0.17    0.76
   7   1 -15    1.31    0.87
   7  -1  15   -0.18    0.74
   7   2  15    1.83    0.89
   7  -2 -15    0.39    0.81
   7  -2  15    0.52    0.77
   7   2 -15    1.67    0.84
   7  -3 -15    0.96    0.85
   7   3  15    0.78    0.74
  -7  -3  15   -0.27    0.63
   7  -3  15   -0.82    0.74
   7  -4 -15    0.85    0.83
   7   4  15    0.91    0.82
   7  -4  15    0.62    0.94
   8   0  15   33.74    2.22
   8   1  15    0.34    0.78
   8  -1 -15    1.03    0.94
   8   1 -15   -0.10    0.92
   8  -1  15    1.32    0.84
   8  -2 -15   25.99    1.96
   8   2  15   25.07    1.91
   8   2 -15   23.09    1.95
   8  -2  15   25.93    2.04
   0   0  16   39.49    2.22
   0   1  16    0.34    0.59
   0  -1  16   -0.08    0.62
   0   2  16   11.54    1.12
   0  -2  16   11.51    1.24
   0  -2 -16   10.39    1.13
   0  -3  16   -0.16    0.75
   0  -3 -16    0.16    0.68
   0   3  16   -0.71    0.55
   0  -4 -16   15.53    1.45
   0   4  16   15.13    1.38
   0  -4  16   18.03    1.64
   0  -5  16   -1.34    0.70
   0   5 -16    0.20    1.10
   0  -5 -16    0.49    0.75
  -1   0  16    0.28    0.57
   1   0  16    0.90    0.70
   1   1  16    0.23    0.56
  -1  -1  16    0.37    0.62
   1  -1  16    1.13    0.66
  -1   1  16    1.48    0.64
   1  -2 -16    3.37    0.76
  -1  -2  16    3.18    0.78
   1   2  16    3.49    0.77
  -1   2  16    4.30    0.76
   1  -2  16    3.71    0.89
   1  -3 -16   -0.17    0.70
   1   3  16    1.06    0.64
  -1  -3  16   -0.10    0.74
  -1  -3 -16   -0.70    0.64
   1  -3  16   -0.23    0.75
   1   4  16    0.13    0.62
  -1  -4  16    0.44    0.71
   1  -4 -16    0.97    0.79
   1   4 -16    0.76    1.02
   1  -4  16    0.32    0.79
  -1  -4 -16    0.73    0.69
  -1  -5  16    0.60    0.78
  -1   5 -16    1.53    1.15
   1  -5 -16    2.85    0.92
   1   5  16    1.95    0.71
   1   5 -16    2.38    1.18
   1  -5  16    0.36    0.82
  -1  -5 -16    0.96    0.75
   2   0  16    2.94    0.78
  -2   0  16    4.44    0.81
   2   1  16    0.33    0.67
   2  -1 -16    1.08    0.68
  -2  -1  16    0.38    0.61
   2  -1  16    0.11    0.65
   2   2  16   13.55    1.22
   2  -2 -16   14.05    1.29
  -2  -2  16   13.30    1.26
   2  -2  16   13.03    1.37
  -2  -3  16    0.75    0.75
   2  -3 -16   -0.17    0.67
   2   3  16    0.69    0.68
   2  -3  16    1.11    0.88
   2  -4 -16    5.12    1.03
  -2  -4  16    1.59    0.87
   2   4  16    4.86    0.88
  -2  -4 -16    2.25    0.82
   2  -4  16    2.84    0.94
   2   4 -16    3.43    1.27
  -2  -5  16   -0.27    0.83
   2   5  16    0.44    0.62
   2  -5 -16    0.28    0.87
  -2  -5 -16    0.24    0.78
   2  -5  16    0.41    0.87
   2   5 -16   -0.20    1.12
   3   0  16    5.19    0.97
  -3  -1  16    6.40    0.92
   3   1  16    7.76    1.03
   3  -1 -16    7.57    0.98
   3  -1  16    9.03    1.13
   3  -2 -16    7.72    1.10
  -3  -2  16    6.00    0.90
   3   2  16   10.26    1.17
   3  -2  16    7.33    1.16
   3   3  16   19.62    1.44
   3  -3 -16   18.13    1.53
  -3  -3  16   15.10    1.42
   3  -3  16   16.33    1.62
   3  -4 -16    1.48    0.88
   3   4  16    1.64    0.71
  -3  -4  16   -0.37    0.69
   3  -4  16    0.00    0.93
  -3  -4 -16    0.37    0.69
   3   4 -16    1.05    1.00
   3   5  16    2.20    0.74
   3  -5 -16    3.47    1.03
  -3  -5  16    1.39    0.79
   3   5 -16    0.22    1.05
  -3  -5 -16    2.53    0.85
   3  -5  16    1.11    0.93
   4   0  16    1.01    0.80
   4   0 -16   -0.06    0.69
   4   1  16    3.45    0.92
   4  -1 -16    1.65    0.78
   4  -1  16    3.52    0.90
   4  -2 -16    0.73    0.80
   4   2  16    0.39    0.67
   4  -2  16    1.14    0.79
   4   3  16    1.75    0.79
  -4  -3  16    0.56    0.71
   4  -3 -16   -0.33    0.71
   4  -3  16    0.53    0.81
   4  -4 -16    0.07    0.76
   4   4  16    0.58    0.71
  -4  -4  16   -0.53    0.69
   4  -4  16    0.09    0.86
   4   4 -16   -1.00    0.90
   5   0  16   12.94    1.35
   5   0 -16   11.28    1.23
   5   1  16   -1.63    0.68
   5  -1 -16    0.23    0.78
   5  -1  16    0.19    0.84
   5   2  16   11.39    1.32
   5  -2 -16    7.82    1.16
   5  -2  16   10.42    1.38
   5  -3 -16    4.58    1.02
   5   3  16    4.28    0.98
   5  -3  16    1.29    0.91
   5   4  16    6.64    1.08
   5  -4 -16   10.41    1.28
   5  -4  16    8.91    1.30
   6   0 -16    0.36    0.86
   6   0  16    0.45    0.79
   6  -1 -16    0.66    0.87
   6   1  16    0.18    0.82
   6  -1  16   -0.40    0.76
   6   1 -16   -1.26    0.77
   6   2  16    3.00    0.89
   6  -2 -16    2.30    0.93
   6  -2  16    2.02    0.92
   6   3  16    0.58    0.74
   6  -3 -16    0.77    0.86
   6  -3  16   -0.46    0.79
   7   0 -16    2.64    1.02
   7   0  16    4.82    1.11
   7  -1 -16    0.70    0.83
   7   1 -16    0.15    0.89
   0   0  17    0.97    0.71
   0   1  17   26.40    1.75
   0  -1  17   22.50    1.75
   0   2  17    0.02    0.63
   0  -2  17   -0.36    0.61
   0  -3 -17    1.74    0.78
   0   3  17    2.18    0.68
   0  -3  17    2.22    0.87
  -1   0  17   -0.24    0.62
   1   0  17   -0.31    0.63
  -1  -1  17    0.09    0.68
   1   1  17    0.26    0.70
  -1   1  17    0.02    0.60
   1  -1  17    1.09    0.71
   1   2  17   -0.44    0.57
  -1  -2  17   -0.37    0.69
   1  -2  17    1.38    0.82
  -1  -3  17    1.62    0.86
   1  -3 -17    0.79    0.80
   1   3  17    1.59    0.67
   1  -3  17    1.70    0.93
   2   0  17    2.29    0.80
   2   1  17    0.18    0.72
  -2  -1  17   -0.25    0.62
   2  -1  17   -0.03    0.78
   2  -2 -17   33.14    2.03
  -2  -2  17   29.56    1.97
   2   2  17   31.91    1.95
   2  -2  17   25.86    1.98
   2  -3 -17    1.60    0.85
  -2  -3  17   -0.31    0.66
   2   3  17   -0.34    0.69
   2  -3  17    0.16    0.88
   3   0  17   -0.17    0.70
   3   1  17    1.17    0.81
   3  -1  17    0.89    0.76
  -3  -2  17    3.59    0.97
   3   2  17    5.07    0.93
   3  -2 -17    5.02    1.01
   3  -2  17    5.03    1.01
   3  -3 -17    0.08    0.79
   4   0  17    2.31    0.93
   4   1  17    0.37    0.75
   4  -1 -17    0.92    0.76
   4  -1  17    0.33    0.80
   4   2  17    2.68    0.85
   4  -2 -17    2.42    0.88
   4  -2  17    1.51    0.97
   0   0   0    0.00    0.00
;
_shelx_hkl_checksum              51712
_olex2_submission_special_instructions 'No special instructions were received'
loop_
_space_group_symop_operation_xyz
'x, y, z'
'-x+1/2, -y, z+1/2'
'-x, y+1/2, -z'
'x+1/2, -y+1/2, -z+1/2'
'-x, -y, -z'
'x-1/2, y, -z-1/2'
'x, -y-1/2, z'
'-x-1/2, y-1/2, z-1/2'
loop_
_atom_site_label
_atom_site_type_symbol
_atom_site_fract_x
_atom_site_fract_y
_atom_site_fract_z
_atom_site_U_iso_or_equiv
_atom_site_adp_type
_atom_site_occupancy
_atom_site_site_symmetry_order
_atom_site_calc_flag
_atom_site_refinement_flags_posn
_atom_site_refinement_flags_adp
_atom_site_refinement_flags_occupancy
_atom_site_disorder_assembly
_atom_site_disorder_group
Sr1 Sr 0.16480(3) 0.51389(3) 0.45561(3) 0.01262(9) Uani 1 1 d . . . . .
Sr2 Sr 0.41383(3) 0.03160(4) 0.24204(2) 0.01187(9) Uani 1 1 d . . . . .
Sr3 Sr 0.31157(5) 0.250000 0.67676(5) 0.02426(14) Uani 1 2 d S T P . .
Sr4 Sr 0.000000 0.000000 0.000000 0.01300(11) Uani 1 2 d S . P . .
Zn1 Zn 0.17305(5) 0.250000 0.30411(4) 0.01161(13) Uani 1 2 d S T P . .
Zn2 Zn 0.16902(6) 0.250000 0.07736(5) 0.02134(16) Uani 1 2 d S T P . .
P1 P 0.16324(8) 0.04829(9) 0.18457(7) 0.00937(18) Uani 1 1 d . . . . .
P2 P 0.03605(12) 0.250000 0.59983(10) 0.0119(3) Uani 1 2 d S T P . .
P3 P 0.33937(11) 0.250000 0.41906(10) 0.0100(2) Uani 1 2 d S T P . .
P4 P 0.48985(11) 0.250000 0.07249(10) 0.0106(3) Uani 1 2 d S T P . .
P5 P 0.64438(12) 0.250000 0.60935(10) 0.0122(3) Uani 1 2 d S T P . .
loop_
_atom_site_aniso_label
_atom_site_aniso_U_11
_atom_site_aniso_U_22
_atom_site_aniso_U_33
_atom_site_aniso_U_23
_atom_site_aniso_U_13
_atom_site_aniso_U_12
Sr1 0.01015(16) 0.01349(16) 0.01421(18) -0.00251(13) 0.00161(13) -0.00021(13)
Sr2 0.00864(16) 0.01758(17) 0.00939(17) -0.00007(12) -0.00062(12) -0.00004(12)
Sr3 0.0404(4) 0.0067(2) 0.0257(3) 0.000 0.0063(3) 0.000
Sr4 0.0094(2) 0.0208(3) 0.0088(2) -0.00111(18) -0.00035(18) 0.00010(18)
Zn1 0.0140(3) 0.0098(3) 0.0111(3) 0.000 -0.0025(2) 0.000
Zn2 0.0443(5) 0.0093(3) 0.0105(3) 0.000 0.0011(3) 0.000
P1 0.0100(4) 0.0075(4) 0.0106(4) -0.0007(3) -0.0018(3) 0.0001(3)
P2 0.0131(7) 0.0123(6) 0.0103(7) 0.000 -0.0020(5) 0.000
P3 0.0101(6) 0.0099(6) 0.0099(6) 0.000 -0.0015(5) 0.000
P4 0.0106(6) 0.0105(6) 0.0107(6) 0.000 0.0003(5) 0.000
P5 0.0176(7) 0.0107(6) 0.0084(6) 0.000 -0.0011(5) 0.000
loop_
_atom_type_symbol
_atom_type_description
_atom_type_scat_dispersion_real
_atom_type_scat_dispersion_imag
_atom_type_scat_source
P P 0.1023 0.0942 'International Tables Vol C Tables 4.2.6.8 and 6.1.1.4'
Sr Sr -1.5307 3.2498 'International Tables Vol C Tables 4.2.6.8 and 6.1.1.4'
Zn Zn 0.2839 1.4301 'International Tables Vol C Tables 4.2.6.8 and 6.1.1.4'
loop_
_citation_id
_citation_doi
_citation_year
1 10.1021/acs.chemmater.2c00527 2022
loop_
_exptl_crystal_face_index_h
_exptl_crystal_face_index_k
_exptl_crystal_face_index_l
_exptl_crystal_face_perp_dist
-5.00 -4.00 5.00 0.0480
5.00 4.00 -4.00 0.0330
-5.00 -5.00 -2.00 0.0630
-4.00 -4.00 -3.00 0.0660
4.00 4.00 3.00 0.0620
4.00 1.00 -1.00 0.0320
1.00 0.00 1.00 0.0690
-3.00 -1.00 2.00 0.0490
-1.00 0.00 -1.00 0.0770
-2.00 5.00 -6.00 0.0520
6.00 -5.00 2.00 0.0500
6.00 -2.00 -3.00 0.0640
-3.00 2.00 0.00 0.0490
-1.00 0.00 1.00 0.0440
-1.00 -2.00 4.00 0.0420
-2.00 -2.00 -3.00 0.0690
0.00 1.00 6.00 0.0570
0.00 -1.00 -6.00 0.0550
loop_
_geom_angle_atom_site_label_1
_geom_angle_atom_site_label_2
_geom_angle_atom_site_label_3
_geom_angle
_geom_angle_site_symmetry_1
_geom_angle_site_symmetry_3
_geom_angle_publ_flag
Sr2 Sr1 Sr2 116.835(16) 8_666 4_455 ?
Zn1 Sr1 Sr2 62.415(14) . 4_455 ?
Zn1 Sr1 Sr2 129.672(16) . 8_666 ?
Zn1 Sr1 Zn2 142.57(2) . 2_565 ?
Zn1 Sr1 P1 124.03(2) . 8_666 ?
Zn1 Sr1 P1 42.479(18) . 7_565 ?
Zn1 Sr1 P2 114.75(3) . 5_566 ?
Zn1 Sr1 P2 77.00(3) . . ?
Zn1 Sr1 P3 44.75(3) . . ?
Zn1 Sr1 P4 49.20(3) . 6_556 ?
Zn1 Sr1 P4 147.53(3) . 2_565 ?
Zn1 Sr1 P5 111.06(3) . 5_666 ?
Zn2 Sr1 Sr2 70.081(16) 2_565 8_666 ?
Zn2 Sr1 Sr2 144.517(15) 2_565 4_455 ?
Zn2 Sr1 P1 125.05(2) 2_565 7_565 ?
Zn2 Sr1 P1 39.494(17) 2_565 8_666 ?
Zn2 Sr1 P2 118.96(3) 2_565 . ?
P1 Sr1 Sr2 48.509(18) 7_565 4_455 ?
P1 Sr1 Sr2 48.45(2) 8_666 8_666 ?
P1 Sr1 Sr2 164.078(19) 7_565 8_666 ?
P1 Sr1 Sr2 165.255(18) 8_666 4_455 ?
P1 Sr1 P1 145.894(15) 7_565 8_666 ?
P2 Sr1 Sr2 86.57(3) . 4_455 ?
P2 Sr1 Sr2 53.18(2) 5_566 4_455 ?
P2 Sr1 Sr2 90.35(3) 5_566 8_666 ?
P2 Sr1 Sr2 53.53(2) . 8_666 ?
P2 Sr1 Zn2 93.77(2) 5_566 2_565 ?
P2 Sr1 P1 120.97(3) 5_566 8_666 ?
P2 Sr1 P1 82.58(3) . 8_666 ?
P2 Sr1 P1 84.05(3) 5_566 7_565 ?
P2 Sr1 P1 114.01(3) . 7_565 ?
P2 Sr1 P2 106.83(2) 5_566 . ?
P3 Sr1 Sr2 109.02(3) . 8_666 ?
P3 Sr1 Sr2 107.16(3) . 4_455 ?
P3 Sr1 Zn2 102.18(3) . 2_565 ?
P3 Sr1 P1 80.45(3) . 8_666 ?
P3 Sr1 P1 74.58(3) . 7_565 ?
P3 Sr1 P2 158.14(3) . 5_566 ?
P3 Sr1 P2 78.47(3) . . ?
P3 Sr1 P5 93.14(3) . 5_666 ?
P4 Sr1 Sr2 50.82(2) 6_556 4_455 ?
P4 Sr1 Sr2 52.06(2) 2_565 8_666 ?
P4 Sr1 Sr2 89.32(3) 6_556 8_666 ?
P4 Sr1 Sr2 87.44(3) 2_565 4_455 ?
P4 Sr1 Zn2 158.48(3) 6_556 2_565 ?
P4 Sr1 Zn2 69.59(3) 2_565 2_565 ?
P4 Sr1 P1 82.65(3) 2_565 8_666 ?
P4 Sr1 P1 124.61(3) 2_565 7_565 ?
P4 Sr1 P1 76.09(3) 6_556 7_565 ?
P4 Sr1 P1 121.10(3) 6_556 8_666 ?
P4 Sr1 P2 92.49(3) 6_556 5_566 ?
P4 Sr1 P2 39.62(3) 6_556 . ?
P4 Sr1 P2 40.62(3) 2_565 5_566 ?
P4 Sr1 P2 90.18(3) 2_565 . ?
P4 Sr1 P3 160.70(3) 2_565 . ?
P4 Sr1 P3 78.11(3) 6_556 . ?
P4 Sr1 P4 103.05(2) 2_565 6_556 ?
P4 Sr1 P5 158.09(3) 6_556 5_666 ?
P4 Sr1 P5 91.84(3) 2_565 5_666 ?
P5 Sr1 Sr2 112.57(2) 5_666 8_666 ?
P5 Sr1 Sr2 115.11(3) 5_666 4_455 ?
P5 Sr1 Zn2 42.82(3) 5_666 2_565 ?
P5 Sr1 P1 76.25(3) 5_666 8_666 ?
P5 Sr1 P1 82.25(3) 5_666 7_565 ?
P5 Sr1 P2 88.43(3) 5_666 5_566 ?
P5 Sr1 P2 158.29(3) 5_666 . ?
Sr1 Sr2 Sr1 63.166(16) 8_655 4 ?
Sr1 Sr2 Sr3 65.852(11) 8_655 2_554 ?
Sr3 Sr2 Sr1 107.450(17) 2_554 4 ?
Sr4 Sr2 Sr1 172.014(12) 2 8_655 ?
Sr4 Sr2 Sr1 113.005(17) 2 4 ?
Sr4 Sr2 Sr3 110.399(13) 2 2_554 ?
Sr4 Sr2 Zn1 87.828(14) 2 6_656 ?
Sr4 Sr2 Zn1 93.791(14) 2 . ?
Zn1 Sr2 Sr1 48.903(13) 6_656 4 ?
Zn1 Sr2 Sr1 92.849(14) . 8_655 ?
Zn1 Sr2 Sr1 143.132(14) . 4 ?
Zn1 Sr2 Sr1 93.918(14) 6_656 8_655 ?
Zn1 Sr2 Sr3 155.624(16) 6_656 2_554 ?
Zn1 Sr2 Sr3 84.55(2) . 2_554 ?
Zn1 Sr2 Zn1 111.089(18) . 6_656 ?
P1 Sr2 Sr1 59.29(2) 6_656 4 ?
P1 Sr2 Sr1 122.01(2) 6_656 8_655 ?
P1 Sr2 Sr1 125.21(2) . 4 ?
P1 Sr2 Sr1 62.050(19) . 8_655 ?
P1 Sr2 Sr3 139.13(2) 6_656 2_554 ?
P1 Sr2 Sr3 46.89(2) . 2_554 ?
P1 Sr2 Sr4 55.680(18) 6_656 2 ?
P1 Sr2 Sr4 121.18(2) . 2 ?
P1 Sr2 Zn1 40.88(2) 6_656 6_656 ?
P1 Sr2 Zn1 130.59(2) 6_656 . ?
P1 Sr2 Zn1 136.36(2) . 6_656 ?
P1 Sr2 Zn1 42.42(2) . . ?
P1 Sr2 P1 172.99(3) . 6_656 ?
P1 Sr2 P2 94.60(3) . 2_554 ?
P1 Sr2 P2 92.40(3) 6_656 2_554 ?
P1 Sr2 P3 82.81(3) . . ?
P1 Sr2 P3 90.49(3) 6_656 . ?
P1 Sr2 P4 94.14(3) . . ?
P1 Sr2 P4 84.77(3) 6_656 . ?
P1 Sr2 P5 93.43(3) 6_656 5_656 ?
P1 Sr2 P5 89.00(3) . 5_656 ?
P2 Sr2 Sr1 54.15(2) 2_554 4 ?
P2 Sr2 Sr1 57.85(2) 2_554 8_655 ?
P2 Sr2 Sr3 55.97(3) 2_554 2_554 ?
P2 Sr2 Sr4 114.16(2) 2_554 2 ?
P2 Sr2 Zn1 137.00(3) 2_554 . ?
P2 Sr2 Zn1 102.37(3) 2_554 6_656 ?
P2 Sr2 P5 73.14(3) 2_554 5_656 ?
P3 Sr2 Sr1 137.69(2) . 4 ?
P3 Sr2 Sr1 130.74(2) . 8_655 ?
P3 Sr2 Sr3 114.50(3) . 2_554 ?
P3 Sr2 Sr4 57.03(2) . 2 ?
P3 Sr2 Zn1 88.79(3) . 6_656 ?
P3 Sr2 Zn1 41.81(3) . . ?
P3 Sr2 P2 165.91(3) . 2_554 ?
P3 Sr2 P5 92.93(3) . 5_656 ?
P4 Sr2 Sr1 54.80(2) . 8_655 ?
P4 Sr2 Sr1 53.56(2) . 4 ?
P4 Sr2 Sr3 120.01(3) . 2_554 ?
P4 Sr2 Sr4 129.58(3) . 2 ?
P4 Sr2 Zn1 90.00(3) . . ?
P4 Sr2 Zn1 44.85(3) . 6_656 ?
P4 Sr2 P2 95.48(3) . 2_554 ?
P4 Sr2 P3 98.52(3) . . ?
P4 Sr2 P5 168.42(3) . 5_656 ?
P5 Sr2 Sr1 115.91(2) 5_656 4 ?
P5 Sr2 Sr1 117.95(2) 5_656 8_655 ?
P5 Sr2 Sr3 55.52(3) 5_656 2_554 ?
P5 Sr2 Sr4 56.42(2) 5_656 2 ?
P5 Sr2 Zn1 134.31(3) 5_656 6_656 ?
P5 Sr2 Zn1 99.77(3) 5_656 . ?
Sr1 Sr3 Sr1 157.399(17) 7_565 2_565 ?
Sr1 Sr3 Sr1 73.751(19) 7_565 . ?
Sr1 Sr3 Sr1 106.886(15) . 2_565 ?
Sr2 Sr3 Sr1 56.561(13) 8_666 . ?
Sr2 Sr3 Sr1 106.24(2) 8_666 7_565 ?
Sr2 Sr3 Sr1 59.682(11) 8_666 2_565 ?
Sr2 Sr3 Sr1 106.24(2) 2 . ?
Sr2 Sr3 Sr1 56.561(14) 2 7_565 ?
Sr2 Sr3 Sr1 103.004(17) 2 2_565 ?
Sr2 Sr3 Sr2 87.60(2) 2 8_666 ?
Sr2 Sr3 Sr4 95.546(16) 2 2 ?
Sr2 Sr3 Sr4 157.475(18) 2 4 ?
Sr2 Sr3 Sr4 95.546(16) 8_666 4 ?
Sr2 Sr3 Sr4 157.475(18) 8_666 2 ?
Sr4 Sr3 Sr1 101.362(19) 2 . ?
Sr4 Sr3 Sr1 58.665(14) 4 . ?
Sr4 Sr3 Sr1 101.36(2) 4 7_565 ?
Sr4 Sr3 Sr1 139.932(19) 2 2_565 ?
Sr4 Sr3 Sr1 97.776(15) 4 2_565 ?
Sr4 Sr3 Sr1 58.664(15) 2 7_565 ?
Sr4 Sr3 Sr4 73.377(18) 4 2 ?
P1 Sr3 Sr1 58.06(2) 8_666 . ?
P1 Sr3 Sr1 58.06(2) 2 7_565 ?
P1 Sr3 Sr1 119.15(3) 2 2_565 ?
P1 Sr3 Sr1 55.88(2) 8_666 2_565 ?
P1 Sr3 Sr1 131.60(3) 2 . ?
P1 Sr3 Sr1 131.60(3) 8_666 7_565 ?
P1 Sr3 Sr2 138.76(3) 2 8_666 ?
P1 Sr3 Sr2 51.39(2) 2 2 ?
P1 Sr3 Sr2 51.39(2) 8_666 8_666 ?
P1 Sr3 Sr2 138.76(3) 8_666 2 ?
P1 Sr3 Sr4 123.77(3) 2 4 ?
P1 Sr3 Sr4 50.82(2) 2 2 ?
P1 Sr3 Sr4 123.77(3) 8_666 2 ?
P1 Sr3 Sr4 50.82(2) 8_666 4 ?
P1 Sr3 P1 167.36(5) 8_666 2 ?
P1 Sr3 P2 96.32(2) 2 . ?
P1 Sr3 P2 96.32(2) 8_666 . ?
P1 Sr3 P3 91.44(2) 2 . ?
P1 Sr3 P3 91.44(2) 8_666 . ?
P1 Sr3 P5 91.82(2) 2 6_557 ?
P1 Sr3 P5 91.82(2) 8_666 6_557 ?
P2 Sr3 Sr1 108.09(2) . 2_565 ?
P2 Sr3 Sr1 53.383(18) . . ?
P2 Sr3 Sr1 53.384(18) . 7_565 ?
P2 Sr3 Sr2 53.561(18) . 8_666 ?
P2 Sr3 Sr2 53.561(17) . 2 ?
P2 Sr3 Sr4 111.51(2) . 2 ?
P2 Sr3 Sr4 111.51(2) . 4 ?
P3 Sr3 Sr1 50.185(18) . . ?
P3 Sr3 Sr1 50.185(18) . 7_565 ?
P3 Sr3 Sr1 146.793(13) . 2_565 ?
P3 Sr3 Sr2 106.54(2) . 8_666 ?
P3 Sr3 Sr2 106.54(2) . 2 ?
P3 Sr3 Sr4 51.186(17) . 2 ?
P3 Sr3 Sr4 51.186(17) . 4 ?
P3 Sr3 P2 78.61(4) . . ?
P3 Sr3 P5 150.12(4) . 6_557 ?
P5 Sr3 Sr1 49.33(2) 6_557 2_565 ?
P5 Sr3 Sr1 108.44(3) 6_557 . ?
P5 Sr3 Sr1 108.44(3) 6_557 7_565 ?
P5 Sr3 Sr2 54.742(17) 6_557 8_666 ?
P5 Sr3 Sr2 54.742(17) 6_557 2 ?
P5 Sr3 Sr4 142.433(10) 6_557 4 ?
P5 Sr3 Sr4 142.433(10) 6_557 2 ?
P5 Sr3 P2 71.51(4) 6_557 . ?
Sr2 Sr4 Sr2 180.000(16) 2_554 6_556 ?
Sr2 Sr4 Sr3 109.513(15) 2_554 2_554 ?
Sr2 Sr4 Sr3 70.487(15) 6_556 2_554 ?
Sr2 Sr4 Sr3 70.487(15) 2_554 6_556 ?
Sr2 Sr4 Sr3 109.513(15) 6_556 6_556 ?
Sr3 Sr4 Sr3 180.0 2_554 6_556 ?
Zn2 Sr4 Sr2 100.209(15) 5 6_556 ?
Zn2 Sr4 Sr2 100.208(15) . 2_554 ?
Zn2 Sr4 Sr2 79.791(15) 5 2_554 ?
Zn2 Sr4 Sr2 79.792(15) . 6_556 ?
Zn2 Sr4 Sr3 85.236(18) . 2_554 ?
Zn2 Sr4 Sr3 85.235(18) 5 6_556 ?
Zn2 Sr4 Sr3 94.765(18) 5 2_554 ?
Zn2 Sr4 Sr3 94.764(18) . 6_556 ?
Zn2 Sr4 Zn2 180.0 . 5 ?
P1 Sr4 Sr2 124.45(2) 5 6_556 ?
P1 Sr4 Sr2 124.45(2) . 2_554 ?
P1 Sr4 Sr2 55.55(2) . 6_556 ?
P1 Sr4 Sr2 55.55(2) 5 2_554 ?
P1 Sr4 Sr3 134.527(19) 5 2_554 ?
P1 Sr4 Sr3 134.527(19) . 6_556 ?
P1 Sr4 Sr3 45.473(19) 5 6_556 ?
P1 Sr4 Sr3 45.473(19) . 2_554 ?
P1 Sr4 Zn2 43.60(2) 5 5 ?
P1 Sr4 Zn2 136.40(2) 5 . ?
P1 Sr4 Zn2 136.40(2) . 5 ?
P1 Sr4 Zn2 43.60(2) . . ?
P1 Sr4 P1 180.00(2) . 5 ?
P1 Sr4 P3 90.36(3) 5 2_554 ?
P1 Sr4 P3 89.64(3) . 2_554 ?
P1 Sr4 P3 89.64(3) 5 6_556 ?
P1 Sr4 P3 90.36(3) . 6_556 ?
P1 Sr4 P5 84.32(3) 5 2_554 ?
P1 Sr4 P5 84.32(3) . 6_556 ?
P1 Sr4 P5 95.68(3) . 2_554 ?
P1 Sr4 P5 95.68(3) 5 6_556 ?
P3 Sr4 Sr2 123.03(2) 2_554 6_556 ?
P3 Sr4 Sr2 123.03(2) 6_556 2_554 ?
P3 Sr4 Sr2 56.97(2) 6_556 6_556 ?
P3 Sr4 Sr2 56.97(2) 2_554 2_554 ?
P3 Sr4 Sr3 54.25(3) 2_554 2_554 ?
P3 Sr4 Sr3 54.25(3) 6_556 6_556 ?
P3 Sr4 Sr3 125.75(3) 6_556 2_554 ?
P3 Sr4 Sr3 125.75(3) 2_554 6_556 ?
P3 Sr4 Zn2 73.87(3) 2_554 5 ?
P3 Sr4 Zn2 106.13(3) 6_556 5 ?
P3 Sr4 Zn2 73.87(3) 6_556 . ?
P3 Sr4 Zn2 106.13(3) 2_554 . ?
P3 Sr4 P3 180.00(4) 6_556 2_554 ?
P3 Sr4 P5 95.14(3) 2_554 6_556 ?
P3 Sr4 P5 84.86(3) 6_556 6_556 ?
P3 Sr4 P5 95.14(3) 6_556 2_554 ?
P3 Sr4 P5 84.86(3) 2_554 2_554 ?
P5 Sr4 Sr2 59.70(2) 6_556 2_554 ?
P5 Sr4 Sr2 120.30(2) 6_556 6_556 ?
P5 Sr4 Sr2 59.70(2) 2_554 6_556 ?
P5 Sr4 Sr2 120.30(2) 2_554 2_554 ?
P5 Sr4 Sr3 66.80(3) 6_556 6_556 ?
P5 Sr4 Sr3 113.20(3) 2_554 6_556 ?
P5 Sr4 Sr3 66.80(3) 2_554 2_554 ?
P5 Sr4 Sr3 113.20(3) 6_556 2_554 ?
P5 Sr4 Zn2 43.89(3) 6_556 . ?
P5 Sr4 Zn2 136.11(3) 6_556 5 ?
P5 Sr4 Zn2 136.11(3) 2_554 . ?
P5 Sr4 Zn2 43.89(3) 2_554 5 ?
P5 Sr4 P5 180.00(4) 6_556 2_554 ?
Sr1 Zn1 Sr1 103.94(3) . 7_565 ?
Sr1 Zn1 Sr2 120.64(2) . 6_556 ?
Sr1 Zn1 Sr2 68.683(14) . 4_455 ?
Sr1 Zn1 Sr2 73.017(14) 7_565 . ?
Sr1 Zn1 Sr2 68.683(14) 7_565 6_556 ?
Sr1 Zn1 Sr2 127.87(2) 7_565 7_565 ?
Sr1 Zn1 Sr2 120.65(2) 7_565 4_455 ?
Sr1 Zn1 Sr2 127.87(2) . . ?
Sr1 Zn1 Sr2 73.017(14) . 7_565 ?
Sr2 Zn1 Sr2 106.794(19) . 6_556 ?
Sr2 Zn1 Sr2 70.21(2) . 7_565 ?
Sr2 Zn1 Sr2 67.32(2) 6_556 4_455 ?
Sr2 Zn1 Sr2 106.794(18) 7_565 4_455 ?
Sr2 Zn1 Sr2 157.891(19) . 4_455 ?
Sr2 Zn1 Sr2 157.891(19) 7_565 6_556 ?
Zn2 Zn1 Sr1 127.932(13) . . ?
Zn2 Zn1 Sr1 127.932(13) . 7_565 ?
Zn2 Zn1 Sr2 77.901(18) . 7_565 ?
Zn2 Zn1 Sr2 80.061(18) . 4_455 ?
Zn2 Zn1 Sr2 80.061(18) . 6_556 ?
Zn2 Zn1 Sr2 77.901(18) . . ?
P1 Zn1 Sr1 175.47(3) 7_565 7_565 ?
P1 Zn1 Sr1 175.47(3) . . ?
P1 Zn1 Sr1 76.81(3) . 7_565 ?
P1 Zn1 Sr1 76.81(3) 7_565 . ?
P1 Zn1 Sr2 55.30(2) . 6_556 ?
P1 Zn1 Sr2 110.16(3) 7_565 . ?
P1 Zn1 Sr2 107.02(3) 7_565 6_556 ?
P1 Zn1 Sr2 55.30(2) 7_565 4_455 ?
P1 Zn1 Sr2 107.02(3) . 4_455 ?
P1 Zn1 Sr2 56.66(2) 7_565 7_565 ?
P1 Zn1 Sr2 110.16(3) . 7_565 ?
P1 Zn1 Sr2 56.66(2) . . ?
P1 Zn1 Zn2 51.12(2) 7_565 . ?
P1 Zn1 Zn2 51.12(2) . . ?
P1 Zn1 P1 102.08(5) . 7_565 ?
P1 Zn1 P4 109.55(3) 7_565 6_556 ?
P1 Zn1 P4 109.55(3) . 6_556 ?
P3 Zn1 Sr1 69.69(2) . . ?
P3 Zn1 Sr1 69.69(2) . 7_565 ?
P3 Zn1 Sr2 60.44(3) . . ?
P3 Zn1 Sr2 138.37(2) . 4_455 ?
P3 Zn1 Sr2 138.37(2) . 6_556 ?
P3 Zn1 Sr2 60.44(3) . 7_565 ?
P3 Zn1 Zn2 128.06(4) . . ?
P3 Zn1 P1 114.58(3) . 7_565 ?
P3 Zn1 P1 114.58(3) . . ?
P3 Zn1 P4 106.43(5) . 6_556 ?
P4 Zn1 Sr1 67.05(2) 6_556 . ?
P4 Zn1 Sr1 67.05(2) 6_556 7_565 ?
P4 Zn1 Sr2 55.76(3) 6_556 6_556 ?
P4 Zn1 Sr2 139.952(19) 6_556 7_565 ?
P4 Zn1 Sr2 55.76(3) 6_556 4_455 ?
P4 Zn1 Sr2 139.952(19) 6_556 . ?
P4 Zn1 Zn2 125.50(4) 6_556 . ?
Sr1 Zn2 Sr1 83.49(3) 2_564 8_655 ?
Sr4 Zn2 Sr1 74.182(17) 3 2_564 ?
Sr4 Zn2 Sr1 134.27(2) 3 8_655 ?
Sr4 Zn2 Sr1 74.182(17) . 8_655 ?
Sr4 Zn2 Sr1 134.27(2) . 2_564 ?
Sr4 Zn2 Sr4 93.59(2) . 3 ?
Zn1 Zn2 Sr1 117.23(2) . 2_564 ?
Zn1 Zn2 Sr1 117.23(2) . 8_655 ?
Zn1 Zn2 Sr4 108.468(19) . . ?
Zn1 Zn2 Sr4 108.468(18) . 3 ?
P1 Zn2 Sr1 146.06(4) 7_565 8_655 ?
P1 Zn2 Sr1 75.59(3) . 8_655 ?
P1 Zn2 Sr1 75.59(3) 7_565 2_564 ?
P1 Zn2 Sr1 146.06(4) . 2_564 ?
P1 Zn2 Sr4 64.64(3) 7_565 3 ?
P1 Zn2 Sr4 138.81(4) 7_565 . ?
P1 Zn2 Sr4 138.81(4) . 3 ?
P1 Zn2 Sr4 64.64(3) . . ?
P1 Zn2 Zn1 54.18(3) . . ?
P1 Zn2 Zn1 54.18(3) 7_565 . ?
P1 Zn2 P1 108.18(5) . 7_565 ?
P1 Zn2 P5 125.32(3) 7_565 6_556 ?
P1 Zn2 P5 125.32(3) . 6_556 ?
P5 Zn2 Sr1 66.79(3) 6_556 2_564 ?
P5 Zn2 Sr1 66.79(3) 6_556 8_655 ?
P5 Zn2 Sr4 67.80(2) 6_556 . ?
P5 Zn2 Sr4 67.80(2) 6_556 3 ?
P5 Zn2 Zn1 174.06(5) 6_556 . ?
Sr1 P1 Sr1 142.37(3) 7_565 8_655 ?
Sr2 P1 Sr1 69.50(2) . 8_655 ?
Sr2 P1 Sr1 75.31(2) . 7_565 ?
Sr2 P1 Sr1 72.20(2) 6_556 7_565 ?
Sr2 P1 Sr1 141.47(3) 6_556 8_655 ?
Sr2 P1 Sr2 147.50(3) . 6_556 ?
Sr2 P1 Sr4 141.37(3) . . ?
Sr2 P1 Sr4 68.77(2) 6_556 . ?
Sr3 P1 Sr1 79.75(3) 2_554 8_655 ?
Sr3 P1 Sr1 82.48(3) 2_554 7_565 ?
Sr3 P1 Sr2 93.38(3) 2_554 6_556 ?
Sr3 P1 Sr2 81.72(3) 2_554 . ?
Sr3 P1 Sr4 83.71(3) 2_554 . ?
Sr4 P1 Sr1 137.52(3) . 7_565 ?
Sr4 P1 Sr1 72.79(3) . 8_655 ?
Zn1 P1 Sr1 124.00(3) . 8_655 ?
Zn1 P1 Sr1 60.71(2) . 7_565 ?
Zn1 P1 Sr2 83.82(3) . 6_556 ?
Zn1 P1 Sr2 80.93(3) . . ?
Zn1 P1 Sr3 142.20(4) . 2_554 ?
Zn1 P1 Sr4 128.81(4) . . ?
Zn2 P1 Sr1 64.92(3) . 8_655 ?
Zn2 P1 Sr1 135.41(4) . 7_565 ?
Zn2 P1 Sr2 104.38(4) . 6_556 ?
Zn2 P1 Sr2 99.02(4) . . ?
Zn2 P1 Sr3 141.38(4) . 2_554 ?
Zn2 P1 Sr4 71.76(3) . . ?
Zn2 P1 Zn1 74.70(3) . . ?
Sr1 P2 Sr1 132.81(4) 5_566 7_565 ?
Sr1 P2 Sr1 92.39(4) . 7_565 ?
Sr1 P2 Sr1 84.36(4) 3_546 5_566 ?
Sr1 P2 Sr1 132.81(4) 3_546 . ?
Sr1 P2 Sr1 73.17(2) 5_566 . ?
Sr1 P2 Sr1 73.17(2) 3_546 7_565 ?
Sr1 P2 Sr3 137.818(18) 5_566 . ?
Sr1 P2 Sr3 137.818(19) 3_546 . ?
Sr2 P2 Sr1 142.29(5) 2 5_566 ?
Sr2 P2 Sr1 68.620(19) 2 7_565 ?
Sr2 P2 Sr1 72.672(18) 2 3_546 ?
Sr2 P2 Sr1 143.69(5) 8_666 7_565 ?
Sr2 P2 Sr1 143.69(5) 2 . ?
Sr2 P2 Sr1 142.29(5) 8_666 3_546 ?
Sr2 P2 Sr1 68.621(19) 8_666 . ?
Sr2 P2 Sr1 72.672(18) 8_666 5_566 ?
Sr2 P2 Sr2 108.36(4) 8_666 2 ?
Sr2 P2 Sr3 70.47(3) 2 . ?
Sr2 P2 Sr3 70.47(3) 8_666 . ?
Sr3 P2 Sr1 74.86(3) . 7_565 ?
Sr3 P2 Sr1 74.86(3) . . ?
P4 P2 Sr1 65.33(3) 6_556 . ?
P4 P2 Sr1 67.86(4) 6_556 5_566 ?
P4 P2 Sr1 65.33(3) 6_556 7_565 ?
P4 P2 Sr1 67.86(4) 6_556 3_546 ?
P4 P2 Sr2 125.72(2) 6_556 8_666 ?
P4 P2 Sr2 125.72(2) 6_556 2 ?
P4 P2 Sr3 120.76(6) 6_556 . ?
Sr1 P3 Sr1 99.75(4) . 7_565 ?
Sr1 P3 Sr3 78.17(3) . . ?
Sr1 P3 Sr3 78.17(3) 7_565 . ?
Sr2 P3 Sr1 77.317(19) 7_565 . ?
Sr2 P3 Sr1 77.316(19) . 7_565 ?
Sr2 P3 Sr1 140.22(4) . . ?
Sr2 P3 Sr1 140.22(4) 7_565 7_565 ?
Sr2 P3 Sr2 80.50(4) 7_565 . ?
Sr2 P3 Sr3 137.39(2) 7_565 . ?
Sr2 P3 Sr3 137.39(2) . . ?
Sr2 P3 Sr4 123.25(4) 7_565 2 ?
Sr2 P3 Sr4 123.25(4) . 4 ?
Sr2 P3 Sr4 65.99(2) 7_565 4 ?
Sr2 P3 Sr4 65.99(2) . 2 ?
Sr4 P3 Sr1 76.013(19) 2 7_565 ?
Sr4 P3 Sr1 152.70(5) 2 . ?
Sr4 P3 Sr1 152.70(5) 4 7_565 ?
Sr4 P3 Sr1 76.014(19) 4 . ?
Sr4 P3 Sr3 74.56(3) 2 . ?
Sr4 P3 Sr3 74.56(3) 4 . ?
Sr4 P3 Sr4 95.31(4) 4 2 ?
Zn1 P3 Sr1 65.56(3) . . ?
Zn1 P3 Sr1 65.56(3) . 7_565 ?
Zn1 P3 Sr2 77.75(3) . 7_565 ?
Zn1 P3 Sr2 77.75(3) . . ?
Zn1 P3 Sr3 121.51(5) . . ?
Zn1 P3 Sr4 131.81(2) . 2 ?
Zn1 P3 Sr4 131.81(2) . 4 ?
Sr1 P4 Sr1 146.03(4) 8_655 6_656 ?
Sr1 P4 Sr1 146.03(4) 2_564 4 ?
Sr1 P4 Sr1 86.88(4) 8_655 2_564 ?
Sr1 P4 Sr1 76.95(2) 8_655 4 ?
Sr1 P4 Sr1 76.95(2) 2_564 6_656 ?
Sr1 P4 Sr1 100.22(4) 6_656 4 ?
Sr2 P4 Sr1 75.621(19) . 4 ?
Sr2 P4 Sr1 75.621(19) 7_565 6_656 ?
Sr2 P4 Sr1 73.14(2) 7_565 2_564 ?
Sr2 P4 Sr1 73.14(2) . 8_655 ?
Sr2 P4 Sr1 128.04(5) . 2_564 ?
Sr2 P4 Sr1 128.04(4) 7_565 8_655 ?
Sr2 P4 Sr1 139.73(4) . 6_656 ?
Sr2 P4 Sr1 139.72(4) 7_565 4 ?
Sr2 P4 Sr2 82.45(4) . 7_565 ?
Zn1 P4 Sr1 63.76(3) 6_656 6_656 ?
Zn1 P4 Sr1 136.467(19) 6_656 2_564 ?
Zn1 P4 Sr1 136.467(19) 6_656 8_655 ?
Zn1 P4 Sr1 63.76(3) 6_656 4 ?
Zn1 P4 Sr2 79.39(3) 6_656 . ?
Zn1 P4 Sr2 79.39(3) 6_656 7_565 ?
P2 P4 Sr1 71.52(4) 6_656 8_655 ?
P2 P4 Sr1 75.04(4) 6_656 6_656 ?
P2 P4 Sr1 75.04(4) 6_656 4 ?
P2 P4 Sr1 71.52(4) 6_656 2_564 ?
P2 P4 Sr2 138.06(2) 6_656 . ?
P2 P4 Sr2 138.06(2) 6_656 7_565 ?
P2 P4 Zn1 112.68(7) 6_656 6_656 ?
Sr1 P5 Sr1 86.07(4) 5_666 3_646 ?
Sr1 P5 Sr2 145.93(5) 3_646 3_656 ?
Sr1 P5 Sr2 75.108(18) 5_666 3_656 ?
Sr1 P5 Sr2 145.93(5) 5_666 5_656 ?
Sr1 P5 Sr2 75.108(18) 3_646 5_656 ?
Sr1 P5 Sr3 79.06(3) 3_646 6_657 ?
Sr1 P5 Sr3 79.06(3) 5_666 6_657 ?
Sr2 P5 Sr2 105.35(4) 3_656 5_656 ?
Sr2 P5 Sr3 69.74(3) 5_656 6_657 ?
Sr2 P5 Sr3 69.74(3) 3_656 6_657 ?
Sr4 P5 Sr1 138.36(5) 4 3_646 ?
Sr4 P5 Sr1 75.45(2) 2 3_646 ?
Sr4 P5 Sr1 75.45(2) 4 5_666 ?
Sr4 P5 Sr1 138.36(5) 2 5_666 ?
Sr4 P5 Sr2 136.32(5) 2 3_656 ?
Sr4 P5 Sr2 63.882(18) 4 3_656 ?
Sr4 P5 Sr2 63.882(18) 2 5_656 ?
Sr4 P5 Sr2 136.32(5) 4 5_656 ?
Sr4 P5 Sr3 131.23(2) 4 6_657 ?
Sr4 P5 Sr3 131.23(2) 2 6_657 ?
Sr4 P5 Sr4 94.04(4) 2 4 ?
Zn2 P5 Sr1 70.39(3) 6_656 5_666 ?
Zn2 P5 Sr1 70.39(3) 6_656 3_646 ?
Zn2 P5 Sr2 126.25(2) 6_656 3_656 ?
Zn2 P5 Sr2 126.25(2) 6_656 5_656 ?
Zn2 P5 Sr3 137.63(6) 6_656 6_657 ?
Zn2 P5 Sr4 68.31(3) 6_656 4 ?
Zn2 P5 Sr4 68.31(3) 6_656 2 ?
loop_
_geom_bond_atom_site_label_1
_geom_bond_atom_site_label_2
_geom_bond_distance
_geom_bond_site_symmetry_2
_geom_bond_publ_flag
Sr1 Sr2 3.8943(7) 4_455 ?
Sr1 Sr2 3.7817(8) 8_666 ?
Sr1 Zn1 3.1502(7) . ?
Sr1 Zn2 3.3349(8) 2_565 ?
Sr1 P1 3.5663(11) 8_666 ?
Sr1 P1 3.5168(12) 7_565 ?
Sr1 P2 3.3065(12) 5_566 ?
Sr1 P2 3.4384(11) . ?
Sr1 P3 3.2452(10) . ?
Sr1 P4 3.2291(11) 2_565 ?
Sr1 P4 3.2341(10) 6_556 ?
Sr1 P5 3.2535(12) 5_666 ?
Sr2 Sr3 3.8258(8) 2_554 ?
Sr2 Sr4 3.4632(7) 2 ?
Sr2 Zn1 3.5712(8) . ?
Sr2 Zn1 3.7051(8) 6_656 ?
Sr2 P1 3.0639(11) 6_656 ?
Sr2 P1 3.0211(11) . ?
Sr2 P2 3.2657(10) 2_554 ?
Sr2 P3 3.1786(11) . ?
Sr2 P4 3.1163(11) . ?
Sr2 P5 3.3300(10) 5_656 ?
Sr3 Sr4 3.9347(7) 4 ?
Sr3 Sr4 3.9347(7) 2 ?
Sr3 P1 2.8221(10) 2 ?
Sr3 P1 2.8221(10) 8_666 ?
Sr3 P2 3.3643(16) . ?
Sr3 P3 3.3130(16) . ?
Sr3 P5 3.3616(15) 6_557 ?
Sr4 Zn2 3.2251(7) 5 ?
Sr4 Zn2 3.2251(7) . ?
Sr4 P1 3.0686(10) . ?
Sr4 P1 3.0686(10) 5 ?
Sr4 P3 3.1807(10) 6_556 ?
Sr4 P3 3.1807(10) 2_554 ?
Sr4 P5 3.2134(10) 6_556 ?
Sr4 P5 3.2134(10) 2_554 ?
Zn1 Zn2 2.9016(10) . ?
Zn1 P1 2.4393(10) 7_565 ?
Zn1 P1 2.4393(10) . ?
Zn1 P3 2.4361(15) . ?
Zn1 P4 2.6586(15) 6_556 ?
Zn2 P1 2.3418(10) 7_565 ?
Zn2 P1 2.3418(10) . ?
Zn2 P5 2.4061(15) 6_556 ?
P2 P4 2.2697(19) 6_556 ?
