#------------------------------------------------------------------------------
#$Date: 2022-07-23 01:20:15 +0300 (Sat, 23 Jul 2022) $
#$Revision: 276794 $
#$URL: file:///home/coder/svn-repositories/cod/cif/7/13/03/7130371.cif $
#------------------------------------------------------------------------------
#
# This file is available in the Crystallography Open Database (COD),
# http://www.crystallography.net/
#
# All data on this site have been placed in the public domain by the
# contributors.
#
data_7130371
loop_
_publ_author_name
'Calabrese, Miriam'
'Pizzi, Andrea'
'Daolio, Andrea'
'Frontera, Antonio'
'Resnati, Giuseppe'
_publ_section_title
;
 Periodate anion as halogen bond donor: Formation of
 anion&#x00B7;&#x00B7;&#x00B7;anion dimers and other adducts
;
_journal_name_full               'Chemical Communications'
_journal_paper_doi               10.1039/D2CC03191D
_journal_year                    2022
_chemical_formula_moiety         'I O4, C6 H6 N O2'
_chemical_formula_sum            'C6 H6 I N O6'
_chemical_formula_weight         315.02
_chemical_name_systematic        '3-carboxypyridinium periodate'
_space_group_crystal_system      monoclinic
_space_group_IT_number           14
_space_group_name_Hall           '-P 2ybc'
_space_group_name_H-M_alt        'P 1 21/c 1'
_atom_sites_solution_hydrogens   mixed
_audit_creation_date             2022-04-08
_audit_creation_method
;
Olex2 1.3
(compiled 2020.11.12 svn.r5f609507 for OlexSys, GUI svn.r6403)
;
_audit_update_record
;
2022-04-22 deposited with the CCDC.	2022-07-19 downloaded from the CCDC.
;
_cell_angle_alpha                90
_cell_angle_beta                 102.879(2)
_cell_angle_gamma                90
_cell_formula_units_Z            4
_cell_length_a                   5.5924(2)
_cell_length_b                   16.7630(6)
_cell_length_c                   10.0824(4)
_cell_measurement_reflns_used    9627
_cell_measurement_temperature    296(2)
_cell_measurement_theta_max      29.67
_cell_measurement_theta_min      2.66
_cell_volume                     921.40(6)
_computing_cell_refinement       'Bruker SAINT'
_computing_data_collection       'Bruker APEX2'
_computing_data_reduction        'Bruker SAINT'
_computing_molecular_graphics    'Olex2 1.3 (Dolomanov et al., 2009)'
_computing_publication_material  'Olex2 1.3 (Dolomanov et al., 2009)'
_computing_structure_refinement  'SHELXL-2018/3(Sheldrick, 2018)'
_computing_structure_solution    'SHELXS-97 (Sheldrick, 2008)'
_diffrn_ambient_temperature      296(2)
_diffrn_measured_fraction_theta_full 0.984
_diffrn_measured_fraction_theta_max 0.876
_diffrn_measurement_device_type  'Bruker APEX-II CCD'
_diffrn_measurement_method       '\f and \w scans'
_diffrn_radiation_type           MoK\a
_diffrn_radiation_wavelength     0.71073
_diffrn_reflns_av_R_equivalents  0.0273
_diffrn_reflns_av_unetI/netI     0.0258
_diffrn_reflns_Laue_measured_fraction_full 0.984
_diffrn_reflns_Laue_measured_fraction_max 0.876
_diffrn_reflns_limit_h_max       7
_diffrn_reflns_limit_h_min       -8
_diffrn_reflns_limit_k_max       25
_diffrn_reflns_limit_k_min       -23
_diffrn_reflns_limit_l_max       15
_diffrn_reflns_limit_l_min       -15
_diffrn_reflns_number            13469
_diffrn_reflns_point_group_measured_fraction_full 0.984
_diffrn_reflns_point_group_measured_fraction_max 0.876
_diffrn_reflns_theta_full        25.242
_diffrn_reflns_theta_max         34.721
_diffrn_reflns_theta_min         2.430
_exptl_absorpt_coefficient_mu    3.481
_exptl_absorpt_correction_T_max  0.7459
_exptl_absorpt_correction_T_min  0.4948
_exptl_absorpt_correction_type   multi-scan
_exptl_crystal_colour            colourless
_exptl_crystal_colour_primary    colourless
_exptl_crystal_density_diffrn    2.271
_exptl_crystal_description       block
_exptl_crystal_F_000             600
_exptl_crystal_size_max          0.08
_exptl_crystal_size_mid          0.07
_exptl_crystal_size_min          0.06
_exptl_transmission_factor_max   0.7468
_exptl_transmission_factor_min   0.4569
_refine_diff_density_max         0.681
_refine_diff_density_min         -0.785
_refine_diff_density_rms         0.107
_refine_ls_extinction_method     none
_refine_ls_goodness_of_fit_ref   0.867
_refine_ls_hydrogen_treatment    mixed
_refine_ls_matrix_type           full
_refine_ls_number_parameters     147
_refine_ls_number_reflns         3476
_refine_ls_number_restraints     0
_refine_ls_restrained_S_all      0.867
_refine_ls_R_factor_all          0.0456
_refine_ls_R_factor_gt           0.0252
_refine_ls_shift/su_max          0.001
_refine_ls_shift/su_mean         0.000
_refine_ls_structure_factor_coef Fsqd
_refine_ls_weighting_details
'w=1/[\s^2^(Fo^2^)+(0.1000P)^2^] where P=(Fo^2^+2Fc^2^)/3'
_refine_ls_weighting_scheme      calc
_refine_ls_wR_factor_gt          0.0895
_refine_ls_wR_factor_ref         0.1153
_reflns_Friedel_coverage         0.000
_reflns_number_gt                2624
_reflns_number_total             3476
_reflns_threshold_expression     'I > 2\s(I)'
_cod_data_source_file            d2cc03191d2.cif
_cod_data_source_block           T1_CCDC1
_cod_database_code               7130371
_shelx_shelxl_version_number     2018/3
_shelx_space_group_comment
;
The symmetry employed for this shelxl refinement is uniquely defined
by the following loop, which should always be used as a source of
symmetry information in preference to the above space-group names.
They are only intended as comments.
;
_exptl_absorpt_special_details
'Bruker (2001). SADABS. Bruker AXS Inc., Madison, Wisconsin, USA.'
_olex2_refinement_description
;
1.a Aromatic/amide H refined with riding coordinates:
 C1(H8)
;
_shelx_res_file
;
TITL T1 in P2(1)/c
    T1.res
    created by SHELXL-2018/3 at 11:55:39 on 02-Sep-2021
CELL 0.71073   5.5924  16.7630  10.0824  90.000 102.879  90.000
ZERR    4.00   0.0002   0.0006   0.0004   0.000   0.002   0.000
LATT 1
SYMM -X, 0.5+Y, 0.5-Z
SFAC C  H  N  O  I
UNIT 24  24  4  24  4
LIST 4
L.S. 4
BOND
FMAP 2
ACTA
PLAN 20
TEMP 23.000
WGHT    0.100000
FVAR       0.14826
MOLE 1
I1    5    0.473237    0.375007    0.068354    11.00000    0.04414    0.03286 =
         0.03913   -0.00226    0.01677   -0.00175
O2    4    0.355018    0.290658    0.138095    11.00000    0.09094    0.03862 =
         0.05024   -0.00625    0.03859   -0.01425
O3    4    0.267448    0.455426    0.047090    11.00000    0.06291    0.05424 =
         0.06831    0.00379    0.01892    0.01769
O1    4    0.528076    0.345882   -0.089234    11.00000    0.11512    0.06477 =
         0.06030   -0.01975    0.05904   -0.02177
O4    4    0.754404    0.399822    0.178414    11.00000    0.05056    0.05720 =
         0.08546    0.00666   -0.00098   -0.00619
C4    1    0.104934    0.379004    0.536320    11.00000    0.03955    0.03936 =
         0.03557    0.00433    0.01168    0.00683
C6    1    0.224084    0.366917    0.418871    11.00000    0.04679    0.04577 =
         0.03506    0.00415    0.01421    0.00441
N1    3    0.074371    0.456441    0.725254    11.00000    0.04986    0.04775 =
         0.03900   -0.00521    0.00951    0.00448
C5    1    0.178974    0.442993    0.620793    11.00000    0.04169    0.04504 =
         0.03791    0.00308    0.00845    0.00007
C3    1   -0.078649    0.330155    0.560659    11.00000    0.04976    0.04058 =
         0.05279   -0.00037    0.02300    0.00040
C1    1   -0.102401    0.410008    0.752357    11.00000    0.05211    0.05450 =
         0.04426   -0.00445    0.02167    0.00479
AFIX  43
H8    2   -0.170717    0.421377    0.826291    11.00000   -1.20000
AFIX   0
C2    1   -0.183953    0.345018    0.670542    11.00000    0.05981    0.04949 =
         0.05666   -0.00349    0.02824   -0.00340
O5    4    0.160368    0.299877    0.355477    11.00000    0.07343    0.04959 =
         0.04301   -0.00333    0.02799    0.00049
O6    4    0.362236    0.415487    0.388809    11.00000    0.07954    0.07004 =
         0.06310   -0.00630    0.03916   -0.02135
H3    2    0.312722    0.483007    0.614573    11.00000    0.05542
H7    2    0.237495    0.285495    0.275658    11.00000    0.06687
H4    2   -0.117104    0.275927    0.507442    11.00000    0.07459
H5    2   -0.297090    0.302661    0.687772    11.00000    0.06724
H2    2    0.126962    0.493529    0.778294    11.00000    0.03998
HKLF 4




REM  T1 in P2(1)/c
REM wR2 = 0.1153, GooF = S = 0.867, Restrained GooF = 0.867 for all data
REM R1 = 0.0252 for 2624 Fo > 4sig(Fo) and 0.0456 for all 3476 data
REM 147 parameters refined using 0 restraints

END

WGHT      0.0347      0.6095

REM Highest difference peak  0.681,  deepest hole -0.785,  1-sigma level  0.107
Q1    1   0.6252  0.3736  0.0848  11.00000  0.05    0.68
Q2    1   0.3063  0.3755  0.0673  11.00000  0.05    0.46
Q3    1   0.4471  0.3700  0.1180  11.00000  0.05    0.46
Q4    1   0.7252  0.4258  0.1979  11.00000  0.05    0.43
Q5    1  -0.1314  0.3409  0.5636  11.00000  0.05    0.40
Q6    1   0.0932  0.4089  0.5658  11.00000  0.05    0.40
Q7    1   0.1160  0.4471  0.6722  11.00000  0.05    0.39
Q8    1   0.5974  0.3352 -0.0097  11.00000  0.05    0.38
Q9    1   0.1340  0.3762  0.4665  11.00000  0.05    0.37
Q10   1   0.5732  0.3811 -0.1925  11.00000  0.05    0.37
Q11   1   0.5183  0.3665 -0.0773  11.00000  0.05    0.35
Q12   1   0.2692  0.4005  0.0227  11.00000  0.05    0.35
Q13   1   0.2620  0.3113  0.1618  11.00000  0.05    0.35
Q14   1   0.0263  0.1920  0.4281  11.00000  0.05    0.34
Q15   1   0.2425  0.3129  0.3026  11.00000  0.05    0.34
Q16   1  -0.1532  0.3858  0.6911  11.00000  0.05    0.33
Q17   1   1.0494  0.3687  0.1051  11.00000  0.05    0.33
Q18   1   0.8112  0.3789  0.0911  11.00000  0.05    0.32
Q19   1   0.3635  0.4379  0.4068  11.00000  0.05    0.31
Q20   1   0.1648  0.2896  0.3283  11.00000  0.05    0.31
;
_shelx_res_checksum              5066
_shelx_hkl_file
;
  -1   0   0  400.27   12.42
  -1   0   0  409.78   11.94
   2   0   0  184.72    5.36
  -2   0   0  178.21    5.57
  -2   0   0  178.77    5.35
   3   0   0  348.76    9.73
  -3   0   0  333.69   10.23
  -3   0   0  311.87    9.75
  -4   0   0   69.19    2.18
  -4   0   0   74.77    2.29
  -5   0   0   43.24    1.45
  -6   0   0    3.95    0.32
  -7   0   0    4.10    0.37
  -8   0   0    0.11    0.22
   0  -1   0    0.00    0.00
   0  -1   0    0.00    0.00
   0  -1   0    0.00    0.00
   0  -1   0   -0.01    0.00
   0   1   0    0.00    0.00
   0   1   0    0.00    0.00
   0   1   0    0.00    0.00
   0   1   0    0.00    0.00
  -1  -1   0   88.19    2.67
  -1  -1   0   89.09    2.55
   1  -1   0   85.71    2.84
  -1   1   0   84.21    2.56
  -1   1   0   85.70    2.66
  -2  -1   0   52.55    1.59
  -2  -1   0   48.37    1.52
   2  -1   0   49.80    1.56
  -2   1   0   51.42    1.57
  -2   1   0   51.19    1.51
  -3  -1   0   35.98    1.14
  -3  -1   0   33.66    1.09
   3   1   0   36.13    1.08
  -3   1   0   35.79    1.13
  -3   1   0   34.00    1.08
  -4  -1   0   29.85    1.04
  -4   1   0   31.35    1.03
  -4   1   0   30.11    0.97
  -5  -1   0   11.83    0.51
  -5   1   0   10.59    0.49
  -6  -1   0    9.72    0.50
  -6   1   0    9.99    0.48
  -7  -1   0    4.42    0.39
  -7   1   0    4.60    0.38
  -8  -1   0    1.30    0.28
  -8   1   0    1.66    0.28
   0  -2   0    0.00    0.01
   0  -2   0   -0.01    0.00
   0   2   0   -0.01    0.00
   0   2   0    0.00    0.01
   0   2   0   -0.01    0.01
   1  -2   0    9.09    0.35
   1  -2   0    8.60    0.29
  -1  -2   0    8.49    0.31
  -1  -2   0    8.66    0.30
  -1   2   0    8.66    0.29
   1   2   0    8.78    0.30
  -2  -2   0    5.12    0.23
  -2   2   0    5.48    0.21
   2   2   0    6.35    0.22
  -2   2   0    5.47    0.20
  -3  -2   0    1.27    0.16
  -3   2   0    1.59    0.14
  -3   2   0    1.47    0.11
  -4  -2   0    0.33    0.15
  -4   2   0    0.59    0.10
  -4   2   0    0.58    0.13
   4   2   0    0.56    0.10
  -5  -2   0   -0.24    0.15
  -5   2   0   -0.14    0.14
  -6  -2   0   -0.05    0.19
  -6   2   0   -0.17    0.16
  -7  -2   0   -0.28    0.20
  -7   2   0   -0.29    0.18
  -8  -2   0   -0.16    0.23
  -8   2   0   -0.14    0.21
   0  -3   0    0.06    0.04
   0  -3   0    0.06    0.03
   0   3   0   -0.02    0.02
   0   3   0    0.11    0.03
   0   3   0    0.09    0.03
   1  -3   0   24.13    0.83
   1  -3   0   23.35    0.70
  -1  -3   0   24.58    0.77
   1   3   0   24.08    0.73
  -1   3   0   23.57    0.70
  -2  -3   0   27.35    0.89
   2  -3   0   26.96    0.98
   2  -3   0   27.89    0.83
   2   3   0   26.71    0.85
  -2   3   0   27.60    0.82
  -3  -3   0   41.94    1.37
  -3   3   0   43.06    1.34
   3   3   0   41.60    1.31
  -3   3   0   42.75    1.28
  -4  -3   0   21.12    0.75
  -4   3   0   19.52    0.66
  -4   3   0   20.38    0.71
  -5  -3   0   20.36    0.79
  -5   3   0   21.11    0.77
  -6  -3   0    8.26    0.47
  -6   3   0    8.61    0.44
  -7  -3   0    5.14    0.43
  -7   3   0    5.21    0.39
  -8  -3   0    1.75    0.31
  -8   3   0    1.79    0.28
  -1  -4   0  565.99   17.23
   1  -4   0  545.79   15.73
   1  -4   0  556.19   18.40
  -1   4   0  544.12   15.67
   1   4   0  580.35   16.56
  -2  -4   0  363.01   11.06
   2  -4   0  352.16   11.76
   2  -4   0  354.58   10.05
   2   4   0  357.26   10.57
  -3  -4   0  278.55    8.66
  -3   4   0  284.79    8.31
   3   4   0  275.67    8.32
  -3   4   0  290.48    8.66
  -4  -4   0   92.63    2.92
  -4   4   0   96.12    2.87
  -4   4   0   88.74    2.74
   4   4   0   90.27    2.78
  -5  -4   0   30.20    1.10
  -5   4   0   31.38    1.06
  -6  -4   0    4.99    0.38
  -6   4   0    4.81    0.33
  -7  -4   0    2.25    0.31
  -7   4   0    2.49    0.30
  -8  -4   0    0.11    0.25
  -8   4   0    0.29    0.20
   0  -5   0    0.03    0.04
   0  -5   0    0.16    0.05
   0  -5   0    0.16    0.05
   0   5   0    0.07    0.03
   0   5   0    0.05    0.03
   1  -5   0   34.85    1.18
  -1  -5   0   34.75    1.10
   1  -5   0   33.35    1.01
   1   5   0   34.80    1.06
   2  -5   0   19.96    0.76
   2  -5   0   20.23    0.64
  -2  -5   0   19.88    0.68
   2   5   0   19.49    0.65
   3  -5   0   17.69    0.59
   3  -5   0   16.55    0.71
  -3  -5   0   16.50    0.62
   3   5   0   16.62    0.58
  -3   5   0   17.02    0.56
  -3   5   0   16.86    0.53
  -4  -5   0   25.23    0.91
  -4   5   0   24.75    0.80
   4   5   0   24.41    0.85
  -4   5   0   26.50    0.85
  -5  -5   0   15.72    0.66
  -5   5   0   16.13    0.61
  -6  -5   0   11.30    0.59
  -6   5   0   11.75    0.51
  -7  -5   0    1.85    0.31
  -7   5   0    2.42    0.29
  -8  -5   0    1.94    0.33
  -8   5   0    1.64    0.26
   0  -6   0    1.56    0.12
   0  -6   0    1.27    0.12
   0  -6   0    1.07    0.11
   0   6   0    1.17    0.10
   0   6   0    1.19    0.11
   1  -6   0   -0.11    0.06
   1  -6   0   -0.12    0.05
   1   6   0    0.05    0.05
   2  -6   0    8.91    0.34
  -2  -6   0    8.44    0.36
   2  -6   0    8.72    0.42
   2   6   0    8.64    0.34
  -3  -6   0    2.38    0.24
   3  -6   0    2.51    0.29
   3   6   0    2.49    0.21
  -4  -6   0   -0.27    0.15
  -4   6   0    0.12    0.07
   4   6   0   -0.17    0.09
  -4   6   0    0.08    0.11
  -5  -6   0   -0.49    0.16
  -5   6   0   -0.23    0.11
  -6  -6   0   -0.17    0.20
  -6   6   0    0.04    0.16
  -7  -6   0   -0.37    0.22
  -7   6   0   -0.33    0.16
  -8  -6   0   -0.10    0.25
   0  -7   0   -0.04    0.05
   0  -7   0   -0.06    0.06
   0  -7   0    0.00    0.06
   0   7   0    0.13    0.05
   0   7   0    0.07    0.04
  -1  -7   0    5.22    0.25
  -1  -7   0    5.09    0.25
   1  -7   0    4.91    0.27
   1  -7   0    5.94    0.25
  -1   7   0    5.52    0.23
  -1   7   0    5.55    0.23
   1   7   0    5.49    0.23
  -2  -7   0   33.08    1.09
   2  -7   0   32.97    1.19
   2  -7   0   33.20    1.01
   2   7   0   31.74    1.04
   3  -7   0   54.26    1.94
  -3  -7   0   56.05    1.78
   3  -7   0   53.21    1.64
   3   7   0   55.95    1.71
  -4  -7   0   26.07    0.92
  -4   7   0   27.23    0.84
  -4   7   0   23.96    0.82
   4   7   0   24.59    0.86
  -4   7   0   24.53    0.79
  -5  -7   0   11.17    0.55
  -5   7   0   11.99    0.47
  -6  -7   0    7.87    0.48
  -6   7   0    7.36    0.39
  -7  -7   0    3.52    0.41
  -7   7   0    3.75    0.32
  -8  -7   0    1.30    0.31
   0  -8   0  216.46    6.13
   0  -8   0  218.21    7.13
   0  -8   0  218.81    6.63
   0   8   0  218.60    6.45
   0   8   0  204.29    6.64
  -1  -8   0  417.45   12.59
   1  -8   0  386.77   13.41
   1  -8   0  405.41   11.46
  -1  -8   0  390.56   13.34
  -1   8   0  410.55   12.55
  -1   8   0  431.09   12.06
   1   8   0  406.55   12.13
   2  -8   0  283.67    9.32
  -2  -8   0  290.12    8.72
   2  -8   0  278.57    7.96
   2   8   0  282.84    8.40
   3  -8   0  136.49    4.75
   3  -8   0  142.86    4.05
  -3  -8   0  143.01    4.43
   3   8   0  144.49    4.25
  -4  -8   0   69.48    2.24
  -4   8   0   67.97    2.05
   4   8   0   68.17    2.13
  -5  -8   0   21.06    0.85
  -5   8   0   21.94    0.76
  -6  -8   0    3.78    0.39
  -6   8   0    4.38    0.30
  -7  -8   0    0.82    0.27
  -7   8   0    1.34    0.21
  -8  -8   0   -0.19    0.25
   0  -9   0    0.02    0.08
   0  -9   0    0.03    0.07
   0   9   0   -0.10    0.06
   0   9   0   -0.01    0.05
  -1  -9   0    4.70    0.25
  -1  -9   0    4.49    0.25
   1  -9   0    5.39    0.26
  -1  -9   0    4.98    0.26
   1  -9   0    4.30    0.28
  -1   9   0    4.90    0.22
  -1   9   0    4.85    0.23
   1   9   0    5.12    0.24
   2  -9   0    0.64    0.12
   2  -9   0    0.98    0.17
  -2  -9   0    0.63    0.13
   2   9   0    0.61    0.10
   3  -9   0   11.08    0.56
  -3  -9   0   11.07    0.48
   3  -9   0   11.15    0.47
   3   9   0   11.36    0.46
  -4  -9   0    6.14    0.39
   4  -9   0    6.38    0.37
   4   9   0    6.68    0.36
  -5  -9   0   23.41    0.95
  -5   9   0   25.61    0.85
  -6  -9   0    7.90    0.52
  -6   9   0    8.50    0.41
  -7  -9   0    0.95    0.28
  -7   9   0    1.34    0.21
  -8  -9   0    1.35    0.34
   0 -10   0   -0.03    0.09
   0 -10   0    0.02    0.08
   0  10   0    0.08    0.06
   0  10   0    0.08    0.07
  -1 -10   0    0.35    0.09
   1 -10   0    0.21    0.11
  -1 -10   0    0.05    0.11
  -1 -10   0   -0.07    0.08
   1 -10   0    0.28    0.10
   1  10   0    0.47    0.09
  -1  10   0    0.22    0.06
  -1  10   0    0.21    0.07
   2 -10   0    1.72    0.19
   2 -10   0    1.59    0.21
  -2 -10   0    1.62    0.20
  -2 -10   0    1.36    0.17
   2  10   0    1.71    0.16
   3 -10   0    1.50    0.24
  -3 -10   0    1.10    0.19
   3 -10   0    1.58    0.19
   3  10   0    1.23    0.15
  -4 -10   0    1.72    0.23
   4 -10   0    2.20    0.24
   4  10   0    1.66    0.19
  -5 -10   0   -0.49    0.18
  -6 -10   0   -0.60    0.20
  -6  10   0   -0.04    0.15
  -7 -10   0   -0.06    0.25
  -7  10   0   -0.02    0.16
   0 -11   0   -0.02    0.09
   0 -11   0    0.01    0.10
   0  11   0   -0.15    0.07
   0  11   0   -0.10    0.06
   1 -11   0   21.05    0.82
  -1 -11   0   21.31    0.78
  -1 -11   0   21.93    0.74
   1 -11   0   22.15    0.74
   1  11   0   21.35    0.73
  -1  11   0   21.63    0.73
  -1  11   0   21.38    0.70
   2 -11   0    4.33    0.28
  -2 -11   0    4.39    0.24
   2 -11   0    3.70    0.31
  -2 -11   0    3.70    0.28
  -2  11   0    4.09    0.22
   2  11   0    3.54    0.25
  -3 -11   0   32.03    1.10
   3 -11   0   30.36    1.03
   3 -11   0   30.34    1.20
   3  11   0   31.39    1.04
   4 -11   0   10.42    0.50
  -4 -11   0   11.57    0.54
   4  11   0   10.34    0.49
  -5 -11   0    6.97    0.47
  -6 -11   0    6.76    0.49
  -6  11   0    7.23    0.36
  -7  11   0    2.66    0.28
   0 -12   0  284.94    8.10
   0 -12   0  283.01    9.41
   0  12   0  281.89    8.54
   0  12   0  300.79    8.83
  -1 -12   0  158.19    4.54
  -1 -12   0  156.52    5.22
   1 -12   0  160.55    4.54
   1 -12   0  159.46    5.26
  -1  12   0  164.92    4.90
   1  12   0  156.18    4.74
  -1  12   0  155.36    4.71
  -2 -12   0   90.75    3.09
  -2 -12   0   96.95    2.96
   2 -12   0   96.56    2.75
   2 -12   0   93.17    3.17
   2  12   0   92.33    2.84
  -2  12   0   92.36    2.79
  -2  12   0   89.65    2.90
   3 -12   0   75.16    2.26
  -3 -12   0   78.08    2.44
   3 -12   0   74.04    2.63
   3  12   0   72.47    2.32
  -4 -12   0   34.63    1.23
   4 -12   0   33.34    1.15
   4  12   0   33.58    1.16
  -5 -12   0   12.15    0.62
  -7  12   0    0.60    0.17
   0 -13   0    0.07    0.11
   0  13   0    0.22    0.09
   1 -13   0   34.74    1.28
   1 -13   0   36.23    1.15
  -1 -13   0   35.88    1.15
  -1 -13   0   34.18    1.23
  -1  13   0   35.13    1.12
  -1  13   0   36.35    1.17
   1  13   0   35.20    1.15
  -2 -13   0    0.18    0.12
  -2 -13   0    0.22    0.16
   2 -13   0    0.21    0.16
   2 -13   0    0.41    0.15
  -2  13   0    0.25    0.10
  -2  13   0    0.26    0.09
   2  13   0    0.25    0.10
   3 -13   0    8.14    0.43
   3 -13   0    8.36    0.51
   3  13   0    8.32    0.41
   4 -13   0    7.40    0.44
   4  13   0    7.80    0.42
   0 -14   0    0.16    0.13
   0 -14   0    0.05    0.11
   0  14   0    0.04    0.08
   1 -14   0    2.56    0.25
  -1 -14   0    2.32    0.23
   1 -14   0    2.34    0.25
  -1 -14   0    2.35    0.25
   1  14   0    1.85    0.22
  -1  14   0    2.45    0.19
   2 -14   0   -0.06    0.15
  -2 -14   0   -0.41    0.14
  -2  14   0    0.18    0.08
   2  14   0   -0.25    0.10
   3 -14   0    0.06    0.17
   3 -14   0   -0.07    0.19
   3  14   0   -0.12    0.12
  -3  14   0    0.17    0.10
   4 -14   0    0.03    0.18
   4  14   0   -0.30    0.12
  -5 -14   0    3.45    4.63
  -6 -14   0   -4.03    5.50
   0 -15   0   -0.10    0.13
   0 -15   0   -0.07    0.11
   0  15   0   -0.19    0.08
  -1 -15   0    6.46    0.37
   1 -15   0    6.44    0.36
   1 -15   0    6.01    0.39
  -1 -15   0    6.31    0.34
   1  15   0    6.02    0.34
  -1  15   0    5.92    0.30
   2 -15   0    0.05    0.15
  -2 -15   0    0.15    0.16
   2 -15   0   -0.29    0.16
  -2  15   0   -0.11    0.08
   2  15   0   -0.24    0.10
   3 -15   0    6.69    0.47
   3 -15   0    6.19    0.40
  -3 -15   0    6.76    0.41
  -3  15   0    6.59    0.30
   3  15   0    6.73    0.39
   4 -15   0    6.90    0.44
   4  15   0    7.56    0.43
   5 -15   0    6.27    0.47
   0 -16   0   65.34    2.01
   0 -16   0   63.57    2.24
   0  16   0   66.67    2.03
   1 -16   0   63.42    2.20
   1 -16   0   61.73    1.94
  -1 -16   0   63.80    1.95
  -1  16   0   62.88    1.95
   1  16   0   62.23    1.98
   2 -16   0   53.59    1.91
   2 -16   0   51.52    1.68
  -2 -16   0   53.53    1.69
   2  16   0   53.22    1.70
  -2  16   0   51.57    1.64
   3 -16   0   36.77    1.27
   3 -16   0   37.82    1.44
  -3 -16   0   35.03    1.26
  -3  16   0   37.35    1.17
   3  16   0   37.89    1.27
  -3  16   0   36.47    1.21
   4 -16   0   15.33    0.70
   4  16   0   16.54    0.69
  -5 -16   0    0.31    4.83
   0 -17   0    0.42    0.17
   0 -17   0    0.10    0.14
   0  17   0    0.14    0.11
  -1 -17   0    3.23    0.29
   1 -17   0    2.44    0.31
   1 -17   0    2.87    0.28
  -1  17   0    2.97    0.23
   1  17   0    2.84    0.26
   2 -17   0    1.04    0.24
   2 -17   0    1.13    0.22
  -2 -17   0    0.89    0.21
  -2  17   0    0.96    0.13
   2  17   0    1.07    0.18
   3 -17   0    2.44    0.35
   3 -17   0    2.26    0.29
  -3 -17   0    2.59    0.31
  -3  17   0    2.83    0.20
   3  17   0    2.10    0.24
  -3  17   0    2.66    0.22
   4 -17   0    5.01    0.41
  -4 -17   0    4.94    0.42
   4  17   0    5.03    0.39
   0 -18   0   -0.01    0.15
   0  18   0   -0.03    0.10
   1 -18   0    0.31    0.17
  -1 -18   0    0.17    0.16
   1 -18   0    0.07    0.16
  -1  18   0    0.22    0.11
   1  18   0    0.19    0.12
   2 -18   0    0.37    0.19
  -2 -18   0   -0.02    0.18
   2 -18   0   -0.11    0.19
   2  18   0   -0.06    0.13
  -2  18   0    0.23    0.11
   3 -18   0   -0.22    0.18
   3 -18   0   -0.21    0.22
  -3 -18   0   -0.16    0.21
   3  18   0   -0.22    0.14
  -3  18   0    0.26    0.10
  -3  18   0    0.17    0.12
  -4 -18   0    0.02    0.23
   4 -18   0    0.12    0.22
   4  18   0   -0.05    0.15
   5 -18   0    0.28    0.26
  -5 -18   0   -0.15    0.24
   0 -19   0    0.04    0.16
   0  19   0   -0.17    0.11
  -1 -19   0    0.31    0.19
   1 -19   0    0.47    0.19
  -1  19   0    0.13    0.12
   1  19   0    0.03    0.12
  -2 -19   0    1.78    0.27
   2 -19   0    1.64    0.29
   2 -19   0    1.52    0.26
   2  19   0    1.57    0.22
  -2  19   0    1.41    0.17
   3 -19   0    2.82    0.38
  -3 -19   0    2.42    0.31
   3 -19   0    2.50    0.33
   3  19   0    2.46    0.28
  -3  19   0    2.50    0.24
  -3  19   0    2.68    0.22
  -4 -19   0    3.78    0.40
   4 -19   0    4.41    0.41
   4  19   0    4.38    0.39
  -5 -19   0    1.50    0.32
   0 -20   0   23.32    0.91
   0  20   0   22.63    0.84
  -1 -20   0   29.26    1.07
   1 -20   0   26.87    1.04
   1  20   0   29.06    1.02
  -1  20   0   28.69    0.98
  -2 -20   0   27.20    1.05
   2 -20   0   29.09    1.16
   2 -20   0   27.56    1.06
   2  20   0   27.90    1.03
  -2  20   0   27.97    0.95
  -3 -20   0    9.69    0.57
   3 -20   0    9.45    0.57
  -3  20   0   10.09    0.42
  -3  20   0    9.78    0.45
   3  20   0   10.41    0.54
   4 -20   0    5.53    0.47
  -4 -20   0    4.54    0.44
  -4  20   0    5.06    0.27
   0 -21   0    0.00    0.18
   0  21   0    0.11    0.13
  -1 -21   0    0.30    0.21
   1 -21   0    0.80    0.23
  -1  21   0    0.22    0.15
   1  21   0    0.41    0.16
  -2 -21   0    1.84    0.29
   2 -21   0    1.41    0.29
  -2  21   0    1.65    0.22
  -2  21   0    1.21    0.17
   2  21   0    1.34    0.23
  -3 -21   0    0.72    0.25
   3 -21   0    1.11    0.29
   3  21   0    0.78    0.20
  -3  21   0    0.85    0.18
  -3  21   0    0.59    0.13
  -4 -21   0    1.31    0.30
  -4  21   0    1.20    0.14
   0 -22   0   -0.01    0.19
   0  22   0   -0.12    0.12
  -1 -22   0    0.12    0.21
   1 -22   0    0.15    0.21
  -1  22   0   -0.02    0.13
   1  22   0    0.10    0.15
   2 -22   0   -0.05    0.20
  -2 -22   0    0.19    0.21
  -2  22   0    0.20    0.17
  -2  22   0    0.08    0.12
   2  22   0   -0.19    0.15
  -3 -22   0    0.00    0.21
  -3  22   0    0.02    0.11
  -3  22   0   -0.07    0.14
   3  22   0   -0.12    0.15
  -4  22   0    0.23    0.11
  -4  22   0    0.30    0.15
   0 -23   0    0.27    0.22
   0  23   0    0.16    0.15
   1 -23   0    0.28    0.23
  -1 -23   0    0.38    0.23
  -1  23   0    0.52    0.16
   1  23   0    0.46    0.18
  -2 -23   0    1.20    0.27
  -2  23   0    0.97    0.17
  -2  23   0    0.53    0.20
   2  23   0    0.78    0.20
  -3  23   0    1.07    0.20
   3  23   0    1.41    0.24
  -3  23   0    0.94    0.16
  -4  23   0    0.60    0.13
   0  24   0   16.52    0.70
  -1  24   0   10.10    0.53
  -1  24   0    8.99    0.47
   1  24   0    9.30    0.52
  -2  24   0    8.55    0.50
   2  24   0    9.96    0.53
  -2  24   0    8.72    0.44
   3  24   0    3.67    0.38
  -3  24   0    3.90    0.30
   0  25   0    0.06    0.22
   0  25   0   -0.03    0.16
  -1  25   0    0.29    0.23
  -1  25   0    0.24    0.16
   1  25   0    0.17    0.18
  -2  25   0    0.28    0.14
   2  25   0    0.21    0.18
   3  25   0    0.15    0.19
  -8   0   1   -0.04    0.21
  -7   0   1   -0.28    0.18
  -6   0   1   -0.43    0.15
  -5   0   1    0.17    0.14
  -4   0   1    0.05    0.07
  -4   0   1   -0.05    0.09
  -3   0   1    0.01    0.04
  -3   0   1    0.01    0.06
   2   0  -1    0.04    0.03
   2   0  -1    0.07    0.04
   2   0  -1    0.00    0.06
  -2   0   1    0.02    0.03
  -2   0   1    0.06    0.04
  -1   0   1    0.06    0.03
   1   0  -1   -0.04    0.01
  -1   0   1   -0.02    0.03
  -1   0   1    0.00    0.02
   1   0  -1   -0.06    0.03
   1   0  -1   -0.02    0.01
  -1   0   1    0.00    0.02
  -1   0   1    0.02    0.02
   0   0   1   -0.45    0.01
   0   0  -1   -0.44    0.01
   0   0  -1   -0.44    0.01
   0   0  -1   -0.45    0.01
   0   0   1   -0.45    0.01
   0   0   1   -0.45    0.00
  -1   0  -1   -0.21    0.05
   1   0   1   -0.38    0.03
  -1   0  -1   -0.43    0.04
  -2   0  -1   -0.21    0.05
  -2   0  -1   -0.19    0.05
  -2   0  -1   -0.16    0.03
   2   0   1   -0.13    0.03
  -3   0  -1   -0.09    0.06
  -3   0  -1   -0.14    0.07
   3   0   1   -0.17    0.05
  -3   0  -1   -0.20    0.08
  -4   0  -1   -0.16    0.12
  -5   0  -1   -0.17    0.15
  -6   0  -1   -0.04    0.17
  -7   0  -1   -0.29    0.19
  -8   0  -1   -0.22    0.21
  -8  -1   1   -0.12    0.22
  -8   1   1    0.01    0.21
  -7  -1   1    0.12    0.20
  -7   1   1    0.07    0.20
  -6  -1   1   -0.30    0.16
  -6   1   1   -0.27    0.16
  -5  -1   1    9.22    0.46
  -5   1   1    9.43    0.44
  -4  -1   1   39.97    1.27
  -4  -1   1   40.16    1.33
  -4   1   1   39.50    1.26
  -4   1   1   42.33    1.32
  -3  -1   1   28.63    0.89
  -3  -1   1   28.30    0.93
   3   1  -1   28.37    0.93
   3   1  -1   28.44    0.88
  -3   1   1   27.63    0.88
  -3   1   1   29.32    0.92
  -2  -1   1   68.42    2.21
  -2  -1   1   71.85    2.12
   2  -1  -1   71.76    2.39
  -2   1   1   71.07    2.11
  -2   1   1   73.68    2.20
  -1  -1   1  382.93   12.56
  -1  -1   1  402.96   11.37
   1  -1  -1  379.76   12.64
  -1  -1   1  401.32   11.82
  -1  -1   1  362.35   11.80
   1   1  -1  386.98   12.57
  -1   1   1  370.38   11.73
  -1   1   1  383.38   11.75
   1   1  -1  387.94   11.82
  -1  -1  -1  597.71   18.29
   1  -1   1  509.62   17.53
  -1  -1  -1  572.71   18.26
  -1  -1  -1  584.84   17.56
   1  -1   1  649.70   16.64
  -1   1  -1  607.22   17.54
  -1   1  -1  630.21   18.23
  -1   1  -1  627.56   16.61
  -1   1  -1  618.65   18.27
   1   1   1  557.18   18.24
   1   1   1  595.23   17.57
   2  -1   1  277.61    7.86
  -2  -1  -1  255.88    7.83
  -2  -1  -1  256.49    8.13
  -2  -1  -1  262.64    8.18
  -2   1  -1  261.77    7.85
  -2   1  -1  254.68    8.15
   2   1   1  266.68    7.89
  -2   1  -1  286.95    7.44
  -2   1  -1  268.22    8.20
  -3  -1  -1  110.48    3.58
  -3  -1  -1  120.79    3.60
  -3   1  -1  113.89    3.57
  -3   1  -1  119.35    3.59
  -3   1  -1  113.51    3.44
  -4  -1  -1  112.22    3.52
  -4   1  -1  113.01    3.51
   4   1   1  111.40    3.36
  -5  -1  -1   21.17    0.84
  -5   1  -1   23.84    0.85
  -6  -1  -1    7.35    0.45
  -6   1  -1    7.54    0.43
  -7  -1  -1    1.32    0.26
  -7   1  -1    1.25    0.25
  -8  -1  -1    0.32    0.25
  -8   1  -1    0.45    0.24
  -8  -2   1    5.02    0.45
  -8   2   1    5.15    0.42
  -7  -2   1   14.56    0.68
  -7   2   1   13.78    0.63
  -6  -2   1   34.61    1.24
  -6   2   1   34.31    1.20
  -5  -2   1   63.23    2.09
  -5   2   1   65.33    2.07
  -4  -2   1  129.49    3.94
   4   2  -1  119.44    3.91
  -4   2   1  122.73    3.75
   4   2  -1  125.24    3.76
  -4   2   1  133.76    3.91
   3  -2  -1  105.80    3.67
  -3  -2   1  109.80    3.40
  -3   2   1  107.28    3.24
  -3   2   1  115.63    3.38
  -2  -2   1   98.12    2.99
  -2  -2   1   99.59    3.11
   2  -2  -1  102.01    3.35
  -2   2   1  104.65    2.98
  -2   2   1  100.15    3.09
   2   2  -1   99.97    2.99
  -2   2   1   99.33    3.09
   2   2  -1  103.35    3.12
  -1  -2   1  238.76    7.22
   1  -2  -1  244.54    6.67
   1  -2  -1  226.64    7.73
  -1  -2   1  235.19    6.95
  -1  -2   1  233.77    7.65
  -1   2   1  223.62    6.61
   1   2  -1  229.64    7.25
   1   2  -1  238.56    6.94
  -1  -2  -1  295.77    8.98
   1  -2   1  300.09    8.16
  -1  -2  -1  295.84    8.95
   1  -2   1  267.93    8.89
   1  -2   1  304.88    8.61
  -1   2  -1  287.67    8.14
  -1   2  -1  302.49    8.97
  -1   2  -1  294.03    8.92
   1   2   1  288.80    8.62
  -1   2  -1  296.14    8.62
   1   2   1  258.89    8.95
  -2  -2  -1   21.67    0.72
  -2  -2  -1   20.61    0.71
  -2   2  -1   21.35    0.67
   2   2   1   21.56    0.68
  -2   2  -1   22.11    0.70
  -2   2  -1   21.71    0.70
  -3  -2  -1    9.95    0.40
  -3   2  -1    9.52    0.35
  -3   2  -1    9.62    0.36
   3   2   1    9.91    0.37
  -3   2  -1    9.67    0.38
  -4  -2  -1    0.14    0.13
  -4   2  -1   -0.03    0.11
  -5  -2  -1   16.56    0.68
  -5   2  -1   16.44    0.65
  -6  -2  -1    8.62    0.49
  -6   2  -1    8.90    0.47
  -7  -2  -1    5.32    0.43
  -7   2  -1    5.34    0.40
  -8  -2  -1    1.01    0.28
  -8   2  -1    0.87    0.25
  -8  -3   1    0.20    0.24
  -8   3   1    0.02    0.20
  -7  -3   1   -0.05    0.21
  -7   3   1    0.14    0.18
  -6  -3   1    2.32    0.27
  -6   3   1    2.19    0.23
  -5  -3   1    3.51    0.30
  -5   3   1    3.35    0.27
  -3  -3   1   15.52    0.56
   3  -3  -1   15.12    0.64
  -3   3   1   15.22    0.51
  -3   3   1   15.74    0.49
   3   3  -1   14.76    0.52
  -2  -3   1  331.30   10.48
   2  -3  -1  352.56    9.63
   2  -3  -1  334.13   11.20
   2   3  -1  341.68   10.09
  -1  -3   1  233.70    7.22
   1  -3  -1  228.28    7.69
   1  -3  -1  234.48    6.62
  -1   3   1  232.28    6.62
   1   3  -1  234.96    6.93
   0  -3  -1  158.18    5.13
   0  -3  -1  161.71    4.33
   0   3  -1  146.66    4.73
   0   3   1  152.51    4.77
   0   3   1  149.13    4.33
   0   3  -1  148.11    5.05
   0   3  -1  165.68    4.77
   0   3  -1  144.94    4.54
   0   3   1  153.53    4.74
  -1   3  -1  995.33   27.80
  -1   3  -1 1000.00   29.34
  -2  -3  -1  201.93    6.22
   2  -3   1  207.86    5.67
  -2   3  -1  208.41    6.19
  -2   3  -1  197.53    5.97
   2   3   1  196.05    5.95
  -2   3  -1  200.02    6.23
  -3  -3  -1  138.98    4.43
  -3   3  -1  149.04    4.39
  -3   3  -1  144.46    4.41
  -3   3  -1  139.41    4.23
   3   3   1  142.43    4.25
  -4  -3  -1   70.63    2.31
   4   3   1   69.51    2.20
  -4   3  -1   76.13    2.29
  -5  -3  -1   18.54    0.73
  -5   3  -1   18.04    0.70
  -6  -3  -1    9.56    0.52
  -6   3  -1    9.63    0.49
  -7  -3  -1    2.43    0.32
  -7   3  -1    2.90    0.33
  -8  -3  -1    0.60    0.27
  -8  -4   1   -0.22    0.23
  -8   4   1   -0.24    0.19
  -7  -4   1   -0.10    0.20
  -7   4   1   -0.12    0.16
  -6  -4   1   -0.16    0.18
  -6   4   1    0.08    0.14
  -4  -4   1    8.06    0.39
   4   4  -1    7.75    0.35
  -4   4   1    8.59    0.34
   4   4  -1    8.19    0.37
  -4   4   1    7.76    0.29
  -3  -4   1   14.09    0.51
   3  -4  -1   13.76    0.59
   3   4  -1   13.08    0.48
  -3   4   1   13.75    0.43
  -2  -4   1    1.51    0.14
   2  -4  -1    1.75    0.18
   2  -4  -1    1.72    0.15
   2   4  -1    1.57    0.13
   1  -4  -1   10.42    0.41
  -1  -4   1   10.78    0.38
   1  -4  -1   10.74    0.35
   1   4  -1   10.75    0.36
   0  -4  -1   17.03    0.51
   0  -4  -1   17.21    0.60
   0  -4   1   16.22    0.57
   0  -4   1   15.29    0.51
   0   4   1   15.98    0.53
   0   4  -1   15.72    0.56
   0   4  -1   15.79    0.54
   0   4   1   17.38    0.54
   0   4   1   16.76    0.51
   0   4   1   16.79    0.51
   1  -4   1   63.34    1.85
  -1  -4  -1   64.12    2.03
  -1   4  -1   64.15    1.94
  -1   4  -1   66.16    1.85
  -1   4  -1   65.28    2.00
  -1   4  -1   65.18    2.01
   1   4   1   66.60    1.95
   2  -4   1    1.53    0.14
  -2  -4  -1    1.24    0.12
   2   4   1    1.22    0.13
  -2   4  -1    1.21    0.12
  -2   4  -1    1.23    0.11
  -2   4  -1    1.34    0.09
  -3  -4  -1    0.11    0.11
  -3   4  -1    0.20    0.09
  -3   4  -1    0.25    0.07
   3   4   1    0.23    0.08
  -3   4  -1    0.36    0.08
  -4  -4  -1    0.44    0.16
   4   4   1    0.85    0.12
  -4   4  -1    0.73    0.14
  -4   4  -1    0.72    0.11
  -5  -4  -1    0.74    0.19
  -5   4  -1    0.74    0.16
  -6  -4  -1    0.25    0.21
  -6   4  -1    0.45    0.19
  -7  -4  -1   -0.24    0.22
  -7   4  -1   -0.15    0.18
  -8  -4  -1   -0.28    0.24
  -8  -5   1    0.35    0.26
  -8   5   1    0.14    0.19
  -7  -5   1    0.11    0.23
  -7   5   1    0.01    0.17
  -6  -5   1   -0.06    0.19
  -6   5   1   -0.17    0.13
  -5  -5   1    1.73    0.23
  -5   5   1    2.19    0.22
   4  -5  -1   29.70    1.16
  -4  -5   1   29.63    1.03
   4   5  -1   28.14    0.96
  -4   5   1   29.25    0.91
  -4   5   1   30.92    0.96
  -3  -5   1   41.03    1.36
   3  -5  -1   40.80    1.49
   3   5  -1   42.97    1.30
   2  -5  -1  103.57    3.41
   2  -5  -1  100.84    2.91
  -2  -5   1  104.36    3.18
   2   5  -1   99.97    3.05
  -1  -5   1  226.96    6.79
   1  -5  -1  224.14    6.21
   1  -5  -1  207.91    7.30
   1   5  -1  224.61    6.59
   0  -5   1  168.91    6.10
   0  -5   1  180.57    5.23
   0  -5  -1  189.93    5.28
   0  -5  -1  188.61    6.16
   0   5   1  199.56    5.54
   0   5   1  195.94    5.19
   0   5   1  182.41    5.73
   0   5  -1  182.43    5.47
   0   5  -1  183.57    5.69
   0   5  -1  169.21    6.06
   0   5   1  200.49    5.76
   1  -5   1   52.26    1.53
  -1  -5  -1   53.09    1.67
   1  -5   1   54.56    1.79
   1   5   1   53.17    1.60
  -1   5  -1   52.76    1.64
  -1   5  -1   52.68    1.64
  -2  -5  -1  165.41    4.99
   2  -5   1  161.11    4.55
  -2   5  -1  154.94    4.76
   2   5   1  164.41    4.79
  -2   5  -1  160.45    4.95
  -2   5  -1  163.28    4.96
  -3  -5  -1  185.19    5.78
   3  -5   1  187.69    5.28
  -3   5  -1  189.97    5.73
  -3   5  -1  183.95    5.52
  -3   5  -1  191.77    5.75
   3   5   1  184.56    5.55
  -4  -5  -1   50.91    1.75
  -4   5  -1   56.52    1.71
  -4   5  -1   53.24    1.68
   4   5   1   51.23    1.66
  -5  -5  -1   19.92    0.80
  -5   5  -1   20.26    0.74
  -6  -5  -1    7.62    0.49
  -6   5  -1    7.79    0.43
  -7  -5  -1    1.32    0.29
  -7   5  -1    1.79    0.25
  -8  -5  -1    0.19    0.26
  -8  -6   1    2.31    0.35
  -8   6   1    2.64    0.32
  -7  -6   1   18.92    0.84
  -7   6   1   18.13    0.74
  -6  -6   1   19.64    0.83
  -6   6   1   20.27    0.74
  -5  -6   1   42.81    1.52
  -5   6   1   46.19    1.45
  -4  -6   1  151.37    4.76
   4  -6  -1  150.04    5.13
   4   6  -1  149.84    4.56
  -4   6   1  163.68    4.68
  -4   6   1  147.20    4.49
   3  -6  -1  157.40    4.44
  -3  -6   1  155.16    4.84
   3  -6  -1  152.68    5.20
   3   6  -1  158.67    4.65
  -2  -6   1  133.81    4.05
   2  -6  -1  128.38    4.34
   2  -6  -1  129.35    3.70
   2   6  -1  130.53    3.89
  -1  -6   1   24.24    0.80
   1  -6  -1   23.93    0.74
   1  -6  -1   23.95    0.86
   1   6  -1   24.50    0.77
   0  -6  -1   68.71    1.83
   0  -6   1   63.87    1.83
   0  -6  -1   64.03    1.97
   0  -6   1   55.77    2.10
   0  -6   1   54.70    1.99
   0  -6  -1   67.34    2.13
   0   6  -1   64.36    1.99
   0   6   1   64.07    1.97
   0   6   1   62.43    1.97
   0   6  -1   64.90    1.92
   0   6   1   67.56    1.90
  -1  -6  -1   55.25    1.81
   1  -6   1   58.80    1.67
   1  -6   1   58.28    1.95
  -1   6  -1   58.55    1.79
   1   6   1   57.21    1.74
  -2  -6  -1   14.25    0.53
   2  -6   1   14.82    0.50
   2   6   1   15.34    0.51
  -2   6  -1   14.48    0.48
  -2   6  -1   14.84    0.48
  -2   6  -1   13.77    0.50
  -3  -6  -1    2.62    0.23
   3  -6   1    2.73    0.22
   3   6   1    2.49    0.22
  -3   6  -1    3.01    0.15
  -3   6  -1    2.64    0.19
  -3   6  -1    2.79    0.16
  -4  -6  -1    6.03    0.36
  -4   6  -1    5.76    0.26
  -4   6  -1    5.99    0.30
   4   6   1    5.44    0.31
  -5  -6  -1    4.41    0.35
  -5   6  -1    4.63    0.30
  -6  -6  -1    8.07    0.50
  -6   6  -1    7.94    0.43
  -7  -6  -1    5.36    0.47
  -7   6  -1    5.49    0.39
  -8  -6  -1    1.02    0.30
  -8  -7   1   -0.31    0.26
  -7  -7   1    0.12    0.23
  -7   7   1    0.28    0.17
  -6  -7   1    2.28    0.29
  -6   7   1    2.24    0.24
  -5  -7   1    0.36    0.18
  -5   7   1    0.16    0.12
  -4  -7   1    4.24    0.31
   4  -7  -1    4.19    0.37
   4   7  -1    3.93    0.27
   3  -7  -1   74.01    2.63
  -3  -7   1   77.13    2.43
   3  -7  -1   77.57    2.24
   3   7  -1   76.39    2.33
   2  -7  -1  174.74    5.91
  -2  -7   1  182.31    5.53
   2  -7  -1  177.47    5.05
   2   7  -1  181.67    5.31
  -1  -7   1  255.23    7.79
   1  -7  -1  256.54    7.22
   1  -7  -1  241.70    8.38
  -1   7   1  258.62    7.50
   1   7  -1  258.08    7.54
   0  -7  -1  174.78    5.42
   0  -7   1  168.13    5.41
   0  -7  -1  173.38    5.81
   0  -7   1  172.20    4.98
   0  -7  -1  179.22    4.94
   0  -7   1  164.61    5.74
   0   7   1  184.03    5.25
   0   7  -1  182.53    5.20
   0   7   1  184.96    5.42
   0   7  -1  171.87    5.41
   0   7   1  178.38    5.45
   1  -7   1  202.42    6.65
  -1  -7  -1  202.01    5.70
   1  -7   1  204.78    5.67
  -1  -7  -1  194.46    6.20
  -1   7  -1  205.08    6.22
   1   7   1  203.48    6.00
  -2  -7  -1  153.82    4.53
   2  -7   1  146.41    4.85
   2  -7   1  143.76    4.13
  -2   7  -1  145.75    4.46
   2   7   1  149.18    4.35
  -2   7  -1  147.95    4.48
  -2   7  -1  134.95    4.31
   3  -7   1   75.34    2.20
  -3  -7  -1   77.16    2.40
  -3   7  -1   76.50    2.25
  -3   7  -1   74.71    2.32
   3   7   1   73.64    2.30
  -3   7  -1   73.46    2.35
  -4  -7  -1   50.42    1.70
  -4   7  -1   54.06    1.64
  -4   7  -1   48.85    1.61
   4   7   1   50.34    1.62
  -5  -7  -1   24.95    0.96
  -5   7  -1   25.69    0.90
  -6  -7  -1    9.32    0.55
  -6   7  -1    9.03    0.46
  -7  -7  -1    1.70    0.31
  -7   7  -1    2.03    0.26
  -8  -7  -1    0.25    0.28
  -8  -8   1    0.07    0.27
  -7  -8   1    0.16    0.24
  -7   8   1   -0.01    0.15
  -6  -8   1   -0.08    0.20
  -6   8   1   -0.18    0.12
  -5  -8   1    0.28    0.17
  -5   8   1    0.47    0.11
   4  -8  -1    0.28    0.18
  -4  -8   1    0.23    0.15
   4   8  -1    0.33    0.10
   3  -8  -1    1.08    0.17
  -3  -8   1    1.16    0.16
   3  -8  -1    1.00    0.19
   3   8  -1    0.66    0.11
   2  -8  -1    0.22    0.10
  -2  -8   1    0.15    0.10
   2  -8  -1    0.25    0.12
   2   8  -1    0.12    0.07
   1  -8  -1    3.66    0.25
  -1  -8   1    3.93    0.23
   1  -8  -1    4.30    0.22
  -1   8   1    3.65    0.16
   1   8  -1    4.30    0.21
  -1   8   1    3.32    0.17
  -1   8   1    4.06    0.16
   0  -8   1   70.97    2.46
   0  -8   1   74.82    2.34
   0  -8  -1   73.17    2.14
   0  -8  -1   73.60    2.31
   0  -8   1   71.91    2.15
   0  -8  -1   68.58    2.48
   0   8  -1   75.68    2.24
   0   8   1   77.62    2.31
   0   8   1   79.26    2.22
   0   8  -1   75.95    2.33
   1  -8   1   13.89    0.50
   1  -8   1   14.02    0.57
  -1  -8  -1   14.45    0.49
  -1  -8  -1   14.22    0.51
  -1  -8  -1   13.67    0.57
  -1   8  -1   13.74    0.51
  -1   8  -1   14.61    0.51
   1   8   1   14.80    0.49
   2  -8   1    6.22    0.29
   2  -8   1    5.81    0.36
  -2  -8  -1    5.91    0.31
  -2   8  -1    5.93    0.25
  -2   8  -1    6.33    0.23
   2   8   1    5.67    0.29
  -2   8  -1    6.02    0.24
  -3  -8  -1    0.42    0.14
   3  -8   1    0.65    0.15
   3   8   1    0.61    0.12
  -3   8  -1    0.53    0.11
  -3   8  -1    0.55    0.08
  -3   8  -1    0.37    0.07
  -4  -8  -1    0.41    0.17
  -4   8  -1    0.41    0.12
   4   8   1    0.24    0.12
  -4   8  -1    0.44    0.10
  -5  -8  -1    0.22    0.19
  -5   8  -1    0.07    0.14
  -6  -8  -1   -0.23    0.20
  -6   8  -1   -0.07    0.16
  -7  -8  -1    0.22    0.24
  -7   8  -1    0.01    0.18
  -8  -8  -1   -0.11    0.26
  -8  -9   1   -0.08    0.26
  -7  -9   1   -0.16    0.24
  -7   9   1   -0.23    0.14
  -6  -9   1    0.20    0.22
  -6   9   1    0.51    0.14
  -5  -9   1    1.20    0.23
   4  -9  -1    6.23    0.37
  -4  -9   1    5.84    0.38
   4  -9  -1    5.81    0.44
   4   9  -1    6.02    0.34
   3  -9  -1    9.38    0.51
  -3  -9   1    9.72    0.44
   3  -9  -1   10.06    0.42
   3   9  -1    9.25    0.40
  -2  -9   1   66.44    2.09
   2  -9  -1   63.37    2.24
   2  -9  -1   63.26    1.92
   2   9  -1   67.08    2.00
   1  -9  -1   91.09    2.60
  -1  -9   1   89.87    2.83
   1  -9  -1   85.31    3.01
   1   9  -1   88.86    2.72
  -1   9   1   92.83    2.67
  -1   9   1   91.73    2.77
  -1   9   1   90.55    2.78
   0  -9  -1  135.14    3.80
   0  -9  -1  124.71    4.41
   0  -9   1  126.52    4.39
   0  -9   1  134.31    4.16
   0  -9   1  135.04    3.81
   0   9  -1  131.41    3.99
   0   9   1  142.61    3.97
   0   9   1  142.84    4.13
   0   9  -1  131.72    4.14
  -1  -9  -1  110.35    3.14
   1  -9   1  109.77    3.65
   1  -9   1  108.93    3.15
  -1  -9  -1  100.34    3.63
  -1  -9  -1  111.02    3.42
  -1   9  -1  110.87    3.29
  -1   9  -1  115.13    3.42
   1   9   1  112.03    3.28
  -2  -9  -1  101.93    3.21
   2  -9   1  102.04    2.95
   2  -9   1  106.19    3.45
  -2   9  -1  102.19    3.16
  -2   9  -1   97.42    3.15
   2   9   1  104.47    3.09
   3  -9   1   81.66    2.42
  -3  -9  -1   83.62    2.64
   3   9   1   83.56    2.53
  -3   9  -1   81.68    2.54
  -3   9  -1   83.41    2.58
  -3   9  -1   80.36    2.47
   4  -9   1   25.29    0.89
  -4  -9  -1   25.35    0.95
   4   9   1   23.84    0.89
  -4   9  -1   27.68    0.88
  -5  -9  -1    7.31    0.48
  -5   9  -1    8.39    0.39
  -6  -9  -1    5.09    0.46
  -6   9  -1    5.98    0.36
  -7  -9  -1    1.41    0.31
  -7   9  -1    2.24    0.26
  -7 -10   1   10.03    0.63
  -7  10   1   11.02    0.48
  -6 -10   1   16.60    0.80
  -6  10   1   19.29    0.67
  -5 -10   1   28.55    1.09
   4 -10  -1   61.52    2.33
   4 -10  -1   63.43    1.99
  -4 -10   1   68.49    2.16
   4  10  -1   66.60    2.05
   3 -10  -1   89.41    2.70
  -3 -10   1   95.91    2.93
   3 -10  -1   91.04    3.16
   3  10  -1   90.85    2.80
   2 -10  -1  159.02    5.44
  -2 -10   1  164.45    5.09
   2 -10  -1  164.84    4.66
   2  10  -1  166.31    4.89
   1 -10  -1   81.13    2.34
  -1 -10   1   80.05    2.64
  -1 -10   1   78.44    2.53
   1 -10  -1   76.77    2.70
  -1 -10   1   80.22    2.35
   1  10  -1   79.28    2.44
  -1  10   1   81.32    2.39
  -1  10   1   84.00    2.49
   0 -10   1   69.98    2.54
   0 -10  -1   74.20    2.56
   0 -10   1   76.33    2.23
   0 -10  -1   77.64    2.23
   0  10   1   79.73    2.30
   0  10   1   77.37    2.39
   0  10  -1   79.02    2.41
   0  10  -1   76.19    2.32
  -1 -10  -1   15.48    0.59
  -1 -10  -1   15.79    0.54
   1 -10   1   14.73    0.55
   1 -10   1   15.57    0.61
  -1 -10  -1   15.41    0.56
  -1  10  -1   15.65    0.55
   1  10   1   15.08    0.53
  -1  10  -1   14.29    0.56
   2 -10   1    3.99    0.30
  -2 -10  -1    3.20    0.25
   2 -10   1    3.16    0.24
   2  10   1    3.77    0.24
  -2  10  -1    3.69    0.19
  -2  10  -1    4.11    0.20
   3 -10   1   -0.08    0.13
  -3 -10  -1   -0.16    0.13
   3  10   1   -0.13    0.09
  -3  10  -1   -0.03    0.11
  -3  10  -1   -0.12    0.07
  -3  10  -1   -0.02    0.07
   4 -10   1    3.92    0.32
  -4 -10  -1    4.15    0.34
  -4  10  -1    4.41    0.26
   4  10   1    4.43    0.31
  -5 -10  -1    3.52    0.36
  -5  10  -1    4.36    0.28
  -6 -10  -1    3.85    0.40
  -6  10  -1    3.71    0.30
  -7  10  -1    3.42    0.33
  -6 -11   1    0.14    0.23
  -5 -11   1    1.76    0.27
   4 -11  -1    3.29    0.31
   4 -11  -1    3.72    0.38
  -4 -11   1    3.00    0.33
   4  11  -1    3.21    0.29
  -3 -11   1   35.67    1.23
   3 -11  -1   34.57    1.34
   3 -11  -1   35.58    1.16
   3  11  -1   35.91    1.17
  -2 -11   1   33.23    1.14
   2 -11  -1   33.28    1.07
   2 -11  -1   33.03    1.24
   2  11  -1   33.57    1.10
  -1 -11   1  114.11    3.82
   1 -11  -1  111.34    3.89
  -1 -11   1  114.50    3.37
  -1 -11   1  117.63    3.65
   1 -11  -1  117.57    3.36
   1  11  -1  120.60    3.51
  -1  11   1  120.09    3.60
  -1  11   1  116.24    3.46
   0 -11   1  123.46    3.54
   0 -11   1  116.64    4.06
   0 -11  -1  121.88    4.08
   0 -11  -1  125.90    3.53
   0  11  -1  122.28    3.83
   0  11   1  126.40    3.82
   0  11   1  124.93    3.67
   0  11  -1  123.06    3.69
   1 -11   1  127.48    3.65
  -1 -11  -1  129.33    3.64
   1 -11   1  130.29    4.22
  -1 -11  -1  123.07    4.20
  -1  11  -1  126.94    3.80
  -1  11  -1  124.84    3.94
   1  11   1  125.89    3.80
  -2 -11  -1  129.20    3.70
   2 -11   1  116.70    3.95
  -2 -11  -1  115.97    3.39
  -2 -11  -1  104.60    3.92
   2 -11   1  120.29    3.40
  -2  11  -1  119.73    3.63
  -2  11  -1  117.16    3.65
  -2  11  -1  115.49    3.52
   2  11   1  118.31    3.55
  -3 -11  -1   14.45    0.60
   3 -11   1   14.69    0.57
  -3  11  -1   13.04    0.49
   3  11   1   15.13    0.57
  -3  11  -1   13.88    0.53
  -3  11  -1   14.23    0.49
  -4 -11  -1   31.45    1.16
   4 -11   1   30.81    1.08
  -4  11  -1   34.13    1.08
   4  11   1   31.05    1.10
  -5 -11  -1   17.05    0.77
  -5  11  -1   18.28    0.67
  -6  11  -1    4.08    0.31
  -7  11  -1    1.06    0.22
  -5 -12   1   -0.06    0.19
  -4 -12   1    0.01    0.16
   4 -12  -1    0.10    0.17
   4 -12  -1    0.18    0.20
   4  12  -1    0.10    0.12
   3 -12  -1    1.85    0.26
   3 -12  -1    1.63    0.22
  -3 -12   1    1.29    0.19
   3  12  -1    1.46    0.17
  -2 -12   1    0.30    0.13
   2 -12  -1    0.24    0.14
   2 -12  -1    0.44    0.16
  -2  12   1    0.25    0.06
   2  12  -1    0.39    0.11
   1 -12  -1    0.48    0.14
   1 -12  -1    0.42    0.14
  -1 -12   1    0.25    0.09
  -1 -12   1    0.20    0.14
  -1 -12   1    0.03    0.06
  -1  12   1    0.10    0.09
   1  12  -1    0.28    0.10
  -1  12   1    0.06    0.07
   0 -12   1    5.13    0.30
   0 -12  -1    5.16    0.30
   0 -12  -1    5.22    0.31
   0 -12   1    4.85    0.29
   0  12  -1    5.28    0.28
   0  12  -1    4.84    0.29
   0  12   1    4.03    0.28
   0  12   1    4.16    0.25
   1 -12   1    0.02    0.13
  -1 -12  -1   -0.01    0.11
  -1 -12  -1    0.22    0.12
  -1 -12  -1   -0.07    0.03
   1 -12   1   -0.24    0.12
  -1  12  -1   -0.05    0.10
  -1  12  -1   -0.02    0.08
   1  12   1   -0.16    0.08
  -2 -12  -1    1.57    0.21
   2 -12   1    1.79    0.23
   2 -12   1    2.21    0.24
  -2 -12  -1    1.63    0.19
  -2 -12  -1    1.46    0.19
  -2  12  -1    1.72    0.17
  -2  12  -1    1.46    0.16
   2  12   1    1.61    0.17
  -2  12  -1    1.95    0.21
   3 -12   1    0.24    0.16
  -3 -12  -1   -0.27    0.14
  -3  12  -1    0.18    0.09
   3  12   1    0.10    0.11
  -3  12  -1    0.27    0.10
   4 -12   1    0.12    0.17
  -4 -12  -1   -0.10    0.16
   4  12   1    0.04    0.12
  -4  12  -1   -0.13    0.13
  -5  12  -1    0.19    0.14
  -6  12  -1   -0.12    0.15
  -7  12  -1   -0.06    0.16
   4 -13  -1    4.84    0.45
   4 -13  -1    4.92    0.37
   4  13  -1    5.20    0.35
   3 -13  -1   12.73    0.55
   3 -13  -1   11.91    0.62
  -3 -13   1   12.23    0.56
   3  13  -1   11.97    0.52
   2 -13  -1   12.77    0.54
   2 -13  -1   12.96    0.62
   2  13  -1   13.32    0.53
  -2  13   1   13.44    0.47
  -2  13   1   12.71    0.45
   1 -13  -1   72.51    2.13
   1 -13  -1   70.93    2.44
  -1 -13   1   71.99    2.15
  -1 -13   1   70.31    2.37
  -1  13   1   71.43    2.24
   1  13  -1   71.62    2.20
  -1  13   1   68.72    2.15
   0 -13   1   62.55    2.25
   0 -13  -1   67.57    2.27
   0 -13   1   65.26    2.00
   0 -13  -1   68.93    2.00
   0  13   1   67.84    2.04
   0  13  -1   67.09    2.06
   1 -13   1   61.51    2.14
  -1 -13  -1   62.20    1.87
  -1 -13  -1   61.07    2.12
   1 -13   1   65.45    1.89
   1  13   1   59.98    1.92
  -1  13  -1   62.23    1.92
   2 -13   1   45.27    1.42
   2 -13   1   46.47    1.63
  -2 -13  -1   41.87    1.57
  -2 -13  -1   45.55    1.41
  -2  13  -1   44.22    1.42
   2  13   1   45.76    1.45
  -2  13  -1   43.29    1.44
  -2  13  -1   46.84    1.48
   3 -13   1   15.80    0.63
   3  13   1   15.28    0.62
  -3  13  -1   15.24    0.57
   4 -13   1   21.76    0.84
   4  13   1   22.85    0.85
  -4  13  -1   22.82    0.82
  -5 -13  -1    7.30    5.02
  -6  13  -1    3.92    0.30
  -7  13  -1    0.73    0.19
  -6 -14   1    2.12    5.37
   5 -14  -1   22.25    0.90
   4 -14  -1   26.59    0.98
   4 -14  -1   25.82    1.13
   4  14  -1   27.42    0.98
   3 -14  -1   47.03    1.74
   3 -14  -1   45.92    1.50
   3  14  -1   46.55    1.53
  -2 -14   1   85.28    2.55
   2 -14  -1   83.53    2.92
   2 -14  -1   85.86    2.54
   2  14  -1   86.96    2.62
  -2  14   1   82.98    2.54
  -2  14   1   82.85    2.64
  -1 -14   1   32.75    1.05
  -1 -14   1   29.28    1.07
   1 -14  -1   29.96    1.15
   1 -14  -1   31.35    1.03
   1  14  -1   30.30    1.03
  -1  14   1   31.15    0.99
   0 -14  -1   34.59    1.12
   0 -14   1   34.79    1.23
   0 -14  -1   34.47    1.25
   0 -14   1   33.67    1.13
   0  14  -1   34.66    1.13
   0  14   1   35.11    1.12
   1 -14   1   10.36    0.49
   1 -14   1    9.51    0.46
  -1 -14  -1    9.49    0.44
  -1 -14  -1    9.44    0.46
   1  14   1    9.89    0.42
  -1  14  -1   10.27    0.42
  -2 -14  -1    2.06    0.27
  -2 -14  -1    2.36    0.25
   2 -14   1    2.37    0.29
   2 -14   1    2.37    0.26
   2  14   1    1.99    0.20
  -2  14  -1    1.99    0.19
  -2  14  -1    2.37    0.21
   3 -14   1    0.41    0.18
  -3 -14  -1    0.17    0.17
  -3  14  -1    0.44    0.11
   3  14   1    0.17    0.12
  -3  14  -1    0.38    0.12
   4 -14   1    1.34    0.25
   4  14   1    1.52    0.20
  -5 -14  -1    6.80    5.07
   5 -14   1    2.86    0.36
  -5  14  -1    3.22    0.26
  -6 -14  -1   -4.91    5.86
  -6 -15   1    1.58    5.43
   5 -15  -1    0.89    0.28
   4 -15  -1    2.80    0.32
   4 -15  -1    2.70    0.37
   4  15  -1    2.29    0.24
   3 -15  -1   10.60    0.52
   3 -15  -1   10.24    0.59
   3  15  -1    9.99    0.49
   2 -15  -1   32.81    1.12
  -2 -15   1   33.49    1.15
   2 -15  -1   34.19    1.28
   2  15  -1   31.90    1.13
  -2  15   1   32.96    1.04
  -1 -15   1   25.75    0.92
   1 -15  -1   24.83    0.99
   1 -15  -1   24.88    0.89
   1  15  -1   25.91    0.90
  -1  15   1   26.02    0.84
   0 -15   1   30.39    1.08
   0 -15   1   35.47    1.17
   0 -15  -1   32.61    1.19
   0 -15  -1   31.26    1.07
   0  15  -1   31.19    1.07
   0  15   1   31.97    1.06
  -1 -15  -1   58.77    1.83
   1 -15   1   59.71    2.08
   1 -15   1   58.31    1.84
  -1 -15  -1   60.38    2.05
  -1  15  -1   60.57    1.86
   1  15   1   59.38    1.87
   2 -15   1   50.47    1.62
   2 -15   1   54.71    1.85
  -2 -15  -1   50.85    1.60
   2  15   1   50.66    1.64
  -2  15  -1   47.49    1.64
  -2  15  -1   51.77    1.61
  -3 -15  -1   14.02    0.61
   3 -15   1   13.31    0.61
  -3  15  -1   13.83    0.54
   3  15   1   14.15    0.59
  -3  15  -1   14.08    0.54
  -4 -15  -1    9.23    0.50
   4 -15   1    8.93    0.50
  -4  15  -1    9.44    0.42
   4  15   1    9.44    0.49
   5 -15   1    7.67    0.50
  -5 -15  -1    4.58    5.20
   5 -16  -1    0.17    0.24
   4 -16  -1   -0.07    0.20
   4 -16  -1    0.07    0.23
   4  16  -1    0.21    0.15
   3 -16  -1   -0.13    0.17
   3 -16  -1   -0.05    0.20
  -3 -16   1    0.05    0.18
   3  16  -1    0.11    0.14
  -2 -16   1    0.11    0.17
   2 -16  -1    0.27    0.17
   2 -16  -1   -0.03    0.18
   2  16  -1   -0.02    0.12
   1 -16  -1    1.43    0.23
  -1 -16   1    1.40    0.23
   1 -16  -1    1.34    0.21
  -1  16   1    1.30    0.14
   1  16  -1    1.22    0.17
   0 -16   1    2.46    0.27
   0 -16   1    2.29    0.23
   0 -16  -1    2.40    0.28
   0 -16  -1    1.92    0.24
   0  16   1    2.09    0.19
   0  16  -1    1.95    0.20
   1 -16   1    0.23    0.16
   1 -16   1   -0.12    0.14
  -1 -16  -1    0.17    0.14
  -1 -16  -1    0.24    0.15
   1  16   1   -0.17    0.10
  -1  16  -1    0.16    0.11
   2 -16   1   -0.25    0.17
  -2 -16  -1    0.19    0.16
   2 -16   1    0.15    0.17
   2  16   1   -0.09    0.11
  -2  16  -1    0.14    0.12
  -2  16  -1    0.00    0.10
   3 -16   1    0.13    0.18
  -3 -16  -1   -0.21    0.17
  -3  16  -1    0.19    0.11
  -3  16  -1    0.14    0.11
   3  16   1   -0.22    0.11
   4 -16   1    0.28    0.21
  -4 -16  -1    0.24    0.21
  -4  16  -1    0.30    0.13
   4  16   1    0.08    0.14
  -5 -16  -1    4.07    5.21
   5 -17  -1    0.19    0.25
   4 -17  -1    3.71    0.37
  -4 -17   1    3.26    0.37
   4 -17  -1    3.15    0.41
   4  17  -1    3.27    0.36
   3 -17  -1    7.14    0.54
   3 -17  -1    8.06    0.48
  -3 -17   1    6.89    0.47
  -3  17   1    7.71    0.31
   3  17  -1    7.46    0.44
   2 -17  -1    8.47    0.53
  -2 -17   1    8.67    0.49
   2 -17  -1    8.91    0.48
   2  17  -1    9.08    0.45
  -2  17   1    8.82    0.36
  -1 -17   1   35.86    1.26
   1 -17  -1   38.59    1.39
   1 -17  -1   37.20    1.24
   1  17  -1   36.79    1.24
  -1  17   1   36.32    1.19
   0 -17  -1   18.01    0.72
   0 -17  -1   19.28    0.78
   0 -17   1   18.90    0.75
   0  17   1   18.54    0.68
   0  17  -1   19.41    0.71
   1 -17   1   18.07    0.74
   1 -17   1   19.79    0.80
  -1 -17  -1   19.62    0.74
  -1  17  -1   18.41    0.69
   1  17   1   18.93    0.71
   2 -17   1   23.05    0.89
   2 -17   1   24.37    0.98
  -2 -17  -1   22.70    0.87
  -2  17  -1   23.36    0.84
  -2  17  -1   22.90    0.82
   2  17   1   24.37    0.87
   3 -17   1   12.64    0.61
  -3 -17  -1   12.83    0.59
   3  17   1   12.10    0.58
  -3  17  -1   12.76    0.52
  -3  17  -1   13.22    0.51
   4 -17   1    7.91    0.50
  -4 -17  -1    7.40    0.47
  -4  17  -1    7.51    0.41
   4  17   1    7.10    0.46
  -4  17  -1    7.96    0.38
  -5 -17  -1    3.55    0.39
   5 -17   1    4.13    0.42
  -5 -18   1   10.57    0.63
   5 -18  -1   10.49    0.63
   4 -18  -1   16.16    0.85
  -4 -18   1   14.93    0.74
   4 -18  -1   15.92    0.74
   4  18  -1   16.73    0.72
  -3 -18   1   24.77    0.98
   3 -18  -1   24.93    0.97
   3 -18  -1   25.59    1.10
  -3  18   1   24.11    0.82
   3  18  -1   25.68    0.95
   2 -18  -1   23.41    0.92
  -2 -18   1   23.71    0.94
   2 -18  -1   25.51    1.04
   2  18  -1   24.60    0.91
  -2  18   1   24.52    0.82
   1 -18  -1    8.34    0.45
  -1 -18   1    8.29    0.47
   1 -18  -1    8.80    0.50
   1  18  -1    7.70    0.42
  -1  18   1    8.23    0.37
   0 -18  -1    8.64    0.46
   0 -18  -1    8.52    0.47
   0 -18   1    8.34    0.46
   0  18  -1    8.84    0.42
   0  18   1    8.94    0.40
   1 -18   1    4.08    0.33
  -1 -18  -1    4.16    0.33
   1 -18   1    4.82    0.36
   1  18   1    4.40    0.30
  -1  18  -1    4.29    0.29
  -2 -18  -1    1.03    0.22
   2 -18   1    1.08    0.24
  -2  18  -1    1.05    0.16
   2  18   1    1.06    0.18
  -2  18  -1    1.40    0.18
   3 -18   1   -0.03    0.18
  -3 -18  -1   -0.06    0.18
  -3  18  -1    0.15    0.11
   3  18   1   -0.20    0.13
  -3  18  -1    0.03    0.12
   4 -18   1    1.34    0.28
  -4 -18  -1    1.03    0.26
  -4  18  -1    1.10    0.15
   4  18   1    0.96    0.21
   5 -18   1    1.01    0.31
  -5 -18  -1    0.72    0.28
  -5 -19   1    0.12    0.26
   4 -19  -1    1.39    0.29
  -4 -19   1    1.50    0.30
   4 -19  -1    1.49    0.34
   4  19  -1    1.40    0.23
   3 -19  -1    6.94    0.54
  -3 -19   1    6.55    0.49
   3 -19  -1    6.72    0.48
  -3  19   1    7.49    0.32
   3  19  -1    7.28    0.46
  -2 -19   1   12.15    0.62
   2 -19  -1   11.56    0.60
   2 -19  -1   12.30    0.67
  -2  19   1   12.24    0.48
   2  19  -1   13.21    0.58
  -1 -19   1    9.83    0.52
   1 -19  -1    9.66    0.54
   1 -19  -1    9.25    0.49
   1  19  -1    9.64    0.47
  -1  19   1    9.21    0.42
   0 -19   1   10.80    0.56
   0 -19  -1   11.43    0.55
   0  19  -1   11.23    0.51
   0  19   1   11.79    0.49
   1 -19   1   13.44    0.64
  -1 -19  -1   14.62    0.64
   1  19   1   14.97    0.60
  -1  19  -1   14.24    0.58
  -1  19  -1   14.35    0.60
   2 -19   1   13.49    0.65
  -2 -19  -1   12.52    0.61
   2  19   1   13.90    0.60
  -2  19  -1   13.42    0.57
  -2  19  -1   13.87    0.55
   3 -19   1   10.02    0.57
  -3 -19  -1    9.97    0.55
  -3  19  -1   10.77    0.48
   3  19   1   10.84    0.54
  -3  19  -1   10.50    0.45
  -4 -19  -1    4.36    0.40
   4 -19   1    4.28    0.43
  -4  19  -1    4.60    0.28
  -4  19  -1    4.00    0.32
  -5 -19  -1    2.95    0.37
  -4 -20   1    0.09    0.23
   4 -20  -1   -0.16    0.22
   3 -20  -1    0.12    0.23
   3 -20  -1   -0.17    0.20
  -3 -20   1   -0.31    0.20
  -3  20   1   -0.14    0.10
   3  20  -1    0.03    0.16
   2 -20  -1    0.31    0.22
   2 -20  -1    0.32    0.21
  -2 -20   1    0.48    0.24
  -2  20   1   -0.04    0.12
   2  20  -1    0.31    0.17
  -1 -20   1   -0.04    0.18
   1 -20  -1    0.03    0.18
   1  20  -1    0.07    0.14
  -1  20   1   -0.13    0.11
   0 -20   1   -0.10    0.17
   0 -20  -1    0.09    0.18
   0  20   1   -0.17    0.11
   0  20  -1   -0.10    0.13
  -1 -20  -1    0.14    0.18
   1 -20   1    0.61    0.21
   1  20   1    0.04    0.14
  -1  20  -1   -0.05    0.15
  -1  20  -1    0.22    0.14
   2 -20   1    0.15    0.20
  -2 -20  -1    0.17    0.19
  -2  20  -1   -0.20    0.15
   2  20   1   -0.11    0.13
  -2  20  -1    0.01    0.12
   3 -20   1    0.03    0.22
  -3 -20  -1    0.41    0.21
  -3  20  -1    0.21    0.13
  -3  20  -1    0.38    0.16
   3  20   1    0.03    0.15
   4 -20   1    0.09    0.23
  -4 -20  -1    0.02    0.23
  -4  20  -1    0.04    0.11
  -4  20  -1    0.42    0.16
  -3 -21   1    1.53    0.31
   3 -21  -1    1.48    0.32
   3 -21  -1    1.39    0.30
  -3  21   1    1.84    0.20
  -3  21   1    1.47    0.19
   3  21  -1    1.57    0.25
   2 -21  -1    4.24    0.39
  -2 -21   1    3.81    0.40
   2  21  -1    3.99    0.36
  -2  21   1    3.77    0.27
   1 -21  -1    9.26    0.52
  -1 -21   1    8.44    0.54
   1  21  -1    9.61    0.48
  -1  21   1    9.27    0.44
   0 -21   1    8.08    0.50
   0 -21  -1    8.37    0.48
   0  21  -1    7.69    0.42
   0  21   1    7.90    0.42
  -1 -21  -1   14.79    0.69
   1 -21   1   15.05    0.71
  -1  21  -1   15.85    0.66
  -1  21  -1   15.15    0.63
   1  21   1   15.76    0.66
   2 -21   1    9.07    0.55
  -2 -21  -1    8.72    0.52
   2  21   1    9.44    0.51
  -2  21  -1    9.67    0.45
  -2  21  -1    9.94    0.48
   3 -21   1    5.96    0.48
  -3 -21  -1    6.52    0.46
  -3  21  -1    6.11    0.37
  -3  21  -1    6.03    0.34
   3  21   1    6.13    0.43
  -4 -21  -1    2.30    0.34
  -4  21  -1    2.45    0.24
  -4  21  -1    2.67    0.29
  -3 -22   1    7.16    0.52
  -3  22   1    8.26    0.37
   3  22  -1    7.15    0.52
   3  22  -1    7.71    0.50
  -3  22   1    8.02    0.41
  -2 -22   1    6.59    0.48
   2 -22  -1    6.48    0.48
  -2  22   1    7.38    0.37
   2  22  -1    6.80    0.45
   1 -22  -1    8.64    0.52
  -1 -22   1    8.65    0.54
  -1  22   1    8.53    0.43
   1  22  -1    8.24    0.47
   0 -22  -1    3.87    0.36
   0 -22   1    3.42    0.39
   0  22   1    3.90    0.31
   0  22  -1    3.80    0.34
   0  22  -1    3.23    0.31
   1 -22   1    1.89    0.31
  -1 -22  -1    1.75    0.28
  -1  22  -1    1.60    0.24
  -1  22  -1    1.29    0.20
   1  22   1    1.49    0.22
  -2 -22  -1    0.19    0.21
   2 -22   1    0.16    0.23
   2  22   1   -0.01    0.14
  -2  22  -1   -0.10    0.17
  -2  22  -1   -0.02    0.13
  -3 -22  -1    0.12    0.21
  -3  22  -1    0.09    0.12
  -3  22  -1    0.26    0.16
   3  22   1   -0.22    0.15
  -4  22  -1    0.62    0.18
  -4  22  -1    0.25    0.13
   3  23  -1    1.64    0.27
  -3  23   1    1.57    0.17
  -3  23   1    1.85    0.22
   3  23  -1    1.32    0.30
  -2  23   1    1.86    0.20
   2  23  -1    1.80    0.25
   2  23  -1    1.50    0.29
   1 -23  -1    4.38    0.42
  -1 -23   1    4.51    0.42
   1  23  -1    4.79    0.37
   1  23  -1    4.31    0.40
  -1  23   1    4.43    0.32
   0 -23  -1    5.86    0.44
   0 -23   1    5.31    0.45
   0  23  -1    5.82    0.41
   0  23   1    5.01    0.37
   0  23  -1    5.35    0.38
  -1 -23  -1    7.19    0.49
   1 -23   1    7.07    0.51
  -1  23  -1    6.49    0.40
   1  23   1    7.09    0.44
  -1  23  -1    7.33    0.45
  -2 -23  -1    4.86    0.42
   2  23   1    5.38    0.40
  -2  23  -1    4.64    0.33
  -2  23  -1    5.40    0.39
  -3  23  -1    3.78    0.29
  -3  23  -1    3.70    0.33
   3  23   1    3.78    0.38
  -4  23  -1    1.75    0.19
  -3  24   1   -0.16    0.11
   3  24  -1    0.03    0.23
   3  24  -1   -0.18    0.16
  -2  24   1   -0.16    0.12
  -2  24   1   -0.44    0.18
   2  24  -1   -0.06    0.21
   2  24  -1    0.18    0.18
   1  24  -1   -0.07    0.21
  -1  24   1    0.01    0.14
   1  24  -1    0.03    0.16
   0  24  -1    0.09    0.16
   0  24   1   -0.03    0.15
   0  24  -1   -0.20    0.20
   1  24   1   -0.03    0.15
  -1  24  -1    0.14    0.16
  -1  24  -1    0.03    0.21
  -2  24  -1   -0.06    0.13
   2  24   1    0.17    0.17
  -2  24  -1   -0.07    0.19
   3  24   1   -0.05    0.16
  -3  24  -1   -0.16    0.13
   3  25  -1    0.90    0.24
   2  25  -1    1.03    0.23
   2  25  -1    1.10    0.28
  -2  25   1    1.34    0.19
   1  25  -1    2.50    0.29
   1  25  -1    2.49    0.33
  -1  25   1    2.21    0.24
   0  25  -1    3.48    0.33
   0  25   1    2.78    0.32
   0  25  -1    3.08    0.37
   1  25   1    5.34    0.41
  -1  25  -1    5.16    0.37
   2  25   1    3.13    0.36
  -2  25  -1    2.80    0.30
  -8   0   2    1.31    0.27
  -7   0   2    3.70    0.35
  -6   0   2    6.44    0.40
  -4   0   2    7.10    0.33
  -4   0   2    7.05    0.30
  -3   0   2    1.66    0.14
  -3   0   2    1.56    0.12
   3   0  -2    2.17    0.20
   2   0  -2   23.06    0.82
  -2   0   2   23.04    0.76
   2   0  -2   22.64    0.70
   2   0  -2   23.74    0.75
  -2   0   2   22.68    0.71
  -2   0   2   22.35    0.74
   1   0  -2  488.35   15.82
  -1   0   2  499.82   14.27
  -1   0   2  482.96   14.85
  -1   0   2  468.85   14.82
  -1   0   2  468.86   14.25
   0   0  -2  318.10    9.26
   0   0  -2  293.15    9.21
   0   0   2  295.12    9.21
   0   0   2  302.29    9.25
   0   0   2  284.19    8.87
   1   0   2  334.19    9.72
  -1   0  -2  272.82    9.26
  -1   0  -2  318.36    9.72
   1   0   2  337.40    9.38
  -1   0  -2  311.03    9.72
  -2   0  -2  412.98   10.74
  -2   0  -2  379.08   11.87
  -2   0  -2  359.84   11.83
  -3   0  -2  216.69    6.97
   3   0   2  237.48    6.70
  -3   0  -2  226.59    6.98
  -4   0  -2  103.05    3.25
  -5   0  -2   49.86    1.68
  -6   0  -2   24.12    0.95
  -7   0  -2    7.10    0.48
  -8  -1   2    1.68    0.29
  -8   1   2    1.44    0.27
  -7  -1   2    5.84    0.42
  -7   1   2    5.01    0.39
  -6  -1   2   15.73    0.67
  -6   1   2   15.93    0.66
  -5  -1   2   49.35    1.61
  -5   1   2   47.54    1.59
  -4  -1   2   85.64    2.64
  -4  -1   2   84.32    2.53
  -4   1   2   79.58    2.51
  -4   1   2   84.73    2.62
   3  -1  -2   55.83    1.89
  -3  -1   2   55.93    1.73
  -3  -1   2   54.09    1.66
   3   1  -2   56.07    1.65
   3   1  -2   54.16    1.87
   3   1  -2   55.69    1.73
  -3   1   2   53.52    1.65
  -3   1   2   52.65    1.71
  -2  -1   2  128.97    3.85
   2  -1  -2  120.28    4.11
  -2  -1   2  127.86    3.69
  -2  -1   2  122.15    3.84
  -2   1   2  125.10    3.84
  -2   1   2  118.91    3.82
  -2   1   2  123.19    3.67
  -2   1   2  130.82    3.70
   2   1  -2  125.32    4.10
  -1  -1   2  275.61    8.29
  -1  -1   2  259.05    8.27
  -1  -1   2  263.95    8.79
   1  -1  -2  259.78    8.83
  -1  -1   2  258.65    7.99
  -1  -1   2  282.07    8.00
   1  -1  -2  273.55    7.94
  -1   1   2  271.09    7.95
   1   1  -2  270.04    7.99
   1   1  -2  275.58    8.80
  -1   1   2  277.45    8.28
  -1   1   2  260.60    7.97
   1   1  -2  265.71    8.28
  -1   1   2  261.04    8.27
   0  -1  -2  283.01    8.29
   0  -1   2  275.07    8.28
   0  -1   2  277.35    7.97
   0  -1   2  261.84    8.26
   0   1   2  260.40    7.46
   0   1   2  272.56    8.27
   0   1  -2  255.08    8.22
   0   1   2  260.24    7.95
   0   1   2  257.44    8.23
   0   1  -2  269.82    8.31
   1  -1   2   29.17    0.79
   1  -1   2   27.24    0.85
  -1  -1  -2   26.90    0.88
  -1  -1  -2   27.08    0.89
   1  -1   2   28.11    0.88
   1   1   2   27.47    0.88
  -1   1  -2   27.77    0.78
  -1   1  -2   28.10    0.88
  -1   1  -2   26.87    0.85
  -1   1  -2   27.68    0.89
   1   1   2   28.06    0.85
   2  -1   2   33.70    1.11
  -2  -1  -2   39.18    1.17
  -2  -1  -2   35.66    1.18
   2   1   2   37.43    1.12
  -2   1  -2   37.78    1.05
  -2   1  -2   36.62    1.18
  -2   1  -2   36.05    1.16
  -2   1  -2   35.20    1.12
   3  -1   2   11.72    0.41
  -3  -1  -2   11.25    0.45
  -3   1  -2   11.60    0.43
  -3   1  -2   11.15    0.45
  -3   1  -2   10.79    0.41
  -4  -1  -2    0.57    0.16
  -4   1  -2    0.67    0.16
  -5  -1  -2    0.02    0.17
  -5   1  -2   -0.05    0.15
  -6  -1  -2    0.93    0.23
  -6   1  -2    0.50    0.21
  -7  -1  -2    0.10    0.22
  -7   1  -2   -0.03    0.20
  -8  -2   2   -0.11    0.22
  -8   2   2   -0.20    0.19
  -7  -2   2    0.34    0.22
  -7   2   2    0.08    0.18
  -6  -2   2   -0.05    0.17
  -6   2   2   -0.05    0.16
  -5  -2   2    0.34    0.17
  -5   2   2    0.43    0.15
   4  -2  -2    0.01    0.16
  -4  -2   2   -0.04    0.11
  -4   2   2   -0.01    0.10
   4   2  -2   -0.19    0.10
  -4   2   2    0.06    0.08
   4   2  -2   -0.07    0.07
  -3  -2   2    0.22    0.08
   3  -2  -2    0.30    0.12
  -3   2   2    0.34    0.07
  -3   2   2    0.27    0.07
  -3   2   2    0.40    0.06
   2  -2  -2   16.13    0.61
  -2  -2   2   15.46    0.55
   2   2  -2   15.64    0.52
  -2   2   2   17.20    0.53
   2   2  -2   16.09    0.58
  -2   2   2   15.75    0.52
  -2   2   2   15.31    0.50
   2   2  -2   16.45    0.56
  -2   2   2   16.28    0.51
   1  -2  -2    0.54    0.08
   1  -2  -2    0.51    0.05
   1  -2  -2    0.52    0.05
  -1  -2   2    0.61    0.07
  -1  -2   2    0.33    0.06
  -1  -2   2    0.41    0.07
   1  -2  -2    0.89    0.09
  -1   2   2    0.64    0.06
  -1   2   2    0.55    0.06
  -1   2   2    0.78    0.08
   1   2  -2    0.52    0.06
  -1   2   2    0.61    0.06
   1   2  -2    0.64    0.07
   1   2  -2    0.58    0.08
  -1   2   2    0.63    0.08
   0  -2   2    2.60    0.13
   0  -2  -2    2.14    0.11
   0  -2  -2    2.35    0.10
   0  -2   2    2.31    0.13
   0   2   2    2.35    0.12
   0   2   2    2.36    0.11
   0   2  -2    2.41    0.13
   0   2   2    2.32    0.09
   0   2  -2    2.45    0.13
   0   2  -2    2.42    0.14
   0   2   2    2.40    0.11
   1  -2   2   46.72    1.32
  -1  -2  -2   48.26    1.47
  -1   2  -2   44.14    1.41
   1   2   2   49.57    1.41
   1   2   2   45.56    1.47
  -1   2  -2   45.89    1.47
  -1   2  -2   46.84    1.32
  -1   2  -2   47.23    1.46
   2  -2   2  104.83    2.82
  -2  -2  -2   94.22    2.95
  -2   2  -2   93.85    2.94
  -2   2  -2   93.11    2.93
  -2   2  -2   91.57    2.67
  -2   2  -2   92.96    2.82
   2   2   2   92.93    2.83
  -3  -2  -2    0.69    0.14
   3   2   2    0.81    0.10
  -3   2  -2    0.89    0.10
  -3   2  -2    0.91    0.11
  -3   2  -2    0.95    0.13
  -4  -2  -2    1.54    0.20
  -4   2  -2    1.52    0.18
  -5  -2  -2    0.11    0.17
  -5   2  -2    0.18    0.16
  -6  -2  -2    0.34    0.20
  -6   2  -2   -0.11    0.19
  -7  -2  -2   -0.17    0.21
  -7   2  -2    0.00    0.20
  -8  -3   2    1.44    0.30
  -8   3   2    1.57    0.26
  -7  -3   2    1.98    0.28
  -7   3   2    1.87    0.25
  -6  -3   2   19.34    0.79
  -6   3   2   19.31    0.74
  -5  -3   2   43.84    1.53
  -5   3   2   47.02    1.49
  -4  -3   2  109.54    3.48
   4  -3  -2  107.50    3.77
  -4   3   2  116.51    3.44
  -4   3   2  110.56    3.30
  -3  -3   2  210.25    6.39
   3  -3  -2  208.13    6.86
   3   3  -2  195.58    6.38
  -3   3   2  207.14    6.12
  -3   3   2  207.48    6.37
   3   3  -2  212.12    6.13
  -3   3   2  213.33    6.37
   2  -3  -2   71.87    2.54
  -2  -3   2   74.62    2.36
  -2   3   2   74.46    2.23
   2   3  -2   79.43    2.37
  -2   3   2   75.88    2.23
   2   3  -2   77.70    2.27
   1  -3  -2  262.30    7.44
   1  -3  -2  256.23    8.69
  -1  -3   2  258.80    8.17
  -1   3   2  258.71    8.07
   1   3  -2  273.32    7.80
   1   3  -2  262.60    8.14
  -1   3   2  261.18    8.09
  -1   3   2  263.20    7.45
  -1   3   2  264.91    7.78
  -1   3   2  268.14    7.78
   0  -3   2  251.39    7.88
   0  -3   2  264.12    7.65
   0  -3  -2  249.33    7.89
   0  -3  -2  253.81    7.16
   0   3   2  262.53    7.92
   0   3  -2  248.38    7.88
   0   3  -2  244.66    7.61
   0   3  -2  255.63    7.58
   0   3   2  249.29    7.17
   0   3  -2  254.32    7.93
   0   3   2  258.27    7.89
   0   3   2  272.12    7.61
   1  -3   2   14.96    0.48
  -1  -3  -2   16.73    0.54
   1  -3   2   16.27    0.52
   1  -3   2   16.67    0.52
  -1   3  -2   15.92    0.54
   1   3   2   15.57    0.54
  -1   3  -2   15.85    0.52
  -1   3  -2   16.43    0.52
   1   3   2   16.03    0.52
   2  -3   2   24.88    0.73
  -2  -3  -2   23.47    0.81
  -2   3  -2   22.67    0.75
   2   3   2   24.23    0.77
  -2   3  -2   24.43    0.78
  -2   3  -2   24.26    0.80
  -3  -3  -2   53.62    1.75
  -3   3  -2   55.11    1.73
  -3   3  -2   52.00    1.65
  -3   3  -2   56.44    1.72
   3   3   2   53.62    1.67
  -4  -3  -2    4.25    0.31
  -4   3  -2    4.36    0.28
  -5  -3  -2   -0.04    0.16
  -5   3  -2   -0.03    0.15
  -6  -3  -2    0.80    0.23
  -6   3  -2    0.86    0.22
  -7  -3  -2    0.15    0.23
  -7   3  -2    0.15    0.21
  -8  -4   2    1.38    0.31
  -8   4   2    1.46    0.26
  -7  -4   2    1.51    0.28
  -7   4   2    1.89    0.24
  -6  -4   2    7.38    0.45
  -6   4   2    7.34    0.38
  -5  -4   2    0.21    0.16
  -4  -4   2    0.29    0.12
   4  -4  -2    0.40    0.17
   4   4  -2    0.28    0.11
  -4   4   2    0.31    0.09
   4   4  -2    0.39    0.09
  -4   4   2    0.23    0.06
   3  -4  -2    4.51    0.30
  -3  -4   2    4.13    0.24
   3   4  -2    3.94    0.21
  -3   4   2    3.68    0.15
  -3   4   2    3.71    0.18
   3   4  -2    4.23    0.23
  -2  -4   2  166.56    5.05
  -2  -4   2  166.80    5.36
   2  -4  -2  170.79    4.62
   2  -4  -2  158.10    5.41
   2   4  -2  158.71    4.86
   2   4  -2  162.90    5.05
   1  -4  -2  350.54   11.89
   1  -4  -2  363.42   10.18
  -1  -4   2  366.58   11.12
  -1   4   2  367.04   11.05
   1   4  -2  348.25   11.14
  -1   4   2  353.42   10.60
   1   4  -2  357.71   10.71
  -1   4   2  372.02   11.03
   0  -4  -2  294.64   10.91
   0  -4  -2  339.47    9.29
   0  -4   2  327.78   10.18
   0   4  -2  334.32   10.24
   0   4   2  336.91    9.83
   0   4   2  339.84   10.22
   0   4  -2  326.28    9.88
   0   4  -2  325.05   10.17
   0   4  -2  339.05    9.81
   0   4   2  326.38   10.20
   0   4   2  345.52    9.31
   1  -4   2   92.64    2.75
   1  -4   2   88.22    2.53
  -1  -4  -2   88.67    2.78
  -1   4  -2   92.61    2.68
  -1   4  -2   89.43    2.78
  -1   4  -2   90.83    2.53
   1   4   2   88.32    2.67
   1   4   2   85.40    2.78
  -1   4  -2   90.94    2.76
   2  -4   2  278.05    7.82
  -2  -4  -2  272.01    8.53
  -2   4  -2  281.60    8.56
   2   4   2  283.54    8.22
  -2   4  -2  278.06    8.57
  -2   4  -2  276.14    8.21
  -3  -4  -2  229.11    6.88
  -3   4  -2  226.68    6.85
   3   4   2  214.85    6.60
  -3   4  -2  216.35    6.58
  -3   4  -2  227.77    6.83
  -4  -4  -2   78.35    2.51
  -4   4  -2   80.24    2.48
   4   4   2   75.46    2.39
  -5  -4  -2   42.40    1.49
  -5   4  -2   43.53    1.46
  -6  -4  -2   21.99    0.91
  -6   4  -2   22.64    0.88
  -7  -4  -2    7.70    0.53
  -7   4  -2    7.59    0.48
  -8  -5   2    1.67    0.32
  -8   5   2    1.60    0.26
  -7  -5   2    6.17    0.46
  -7   5   2    5.43    0.37
  -6  -5   2   13.63    0.63
  -6   5   2   12.91    0.54
  -5  -5   2   34.70    1.25
  -5   5   2   37.26    1.19
  -4  -5   2   52.10    1.66
   4  -5  -2   49.80    1.83
  -4   5   2   53.68    1.59
  -4   5   2   51.08    1.52
   4   5  -2   46.91    1.64
   4   5  -2   48.94    1.57
  -3  -5   2  120.33    3.67
   3  -5  -2  118.05    3.95
   3   5  -2  116.66    3.52
   3   5  -2  115.15    3.66
   2  -5  -2  111.22    3.85
   2  -5  -2  118.54    3.30
  -2  -5   2  116.14    3.60
   2   5  -2  115.65    3.45
   2   5  -2  117.15    3.59
   1  -5  -2  111.47    3.12
  -1  -5   2  111.93    3.43
   1  -5  -2  108.02    3.65
  -1   5   2  111.30    3.39
   1   5  -2  111.68    3.30
  -1   5   2  107.23    3.38
   1   5  -2  111.49    3.42
  -1   5   2  109.67    3.25
   0  -5  -2   68.84    1.87
   0  -5  -2   66.73    2.23
   0  -5   2   62.39    1.88
   0   5   2   68.46    1.87
   0   5   2   67.15    2.04
   0   5  -2   64.37    2.05
   0   5   2   64.01    1.96
   0   5   2   64.19    2.04
   0   5  -2   65.86    2.00
   0   5  -2   65.25    2.08
   1  -5   2   52.28    1.53
  -1  -5  -2   53.64    1.53
  -1  -5  -2   52.30    1.68
   1  -5   2   54.33    1.65
  -1   5  -2   51.83    1.66
   1   5   2   52.57    1.61
  -1   5  -2   57.88    1.62
  -1   5  -2   51.95    1.68
   1   5   2   53.03    1.68
   2  -5   2   85.53    2.43
  -2  -5  -2   82.97    2.67
  -2   5  -2   86.81    2.63
  -2   5  -2   85.95    2.55
   2   5   2   84.38    2.56
  -2   5  -2   85.65    2.66
  -3  -5  -2    1.57    0.17
  -3   5  -2    1.26    0.12
  -3   5  -2    1.47    0.15
  -3   5  -2    1.27    0.11
   3   5   2    1.61    0.18
  -4  -5  -2    0.03    0.14
  -4   5  -2   -0.15    0.12
   4   5   2   -0.05    0.08
  -5  -5  -2    0.53    0.19
  -5   5  -2    0.21    0.16
  -6  -5  -2    0.02    0.21
  -6   5  -2    0.01    0.19
  -7  -5  -2    0.17    0.24
  -7   5  -2    0.34    0.21
  -8  -6   2    0.13    0.26
  -8   6   2   -0.04    0.18
  -7  -6   2    0.28    0.24
  -7   6   2   -0.07    0.16
  -6  -6   2    0.38    0.21
  -6   6   2    0.26    0.14
  -5  -6   2    0.11    0.16
   5  -6  -2    0.53    0.23
  -5   6   2    0.18    0.12
   4  -6  -2    1.06    0.23
  -4  -6   2    0.94    0.18
   4   6  -2    0.95    0.13
  -4   6   2    1.12    0.09
   4   6  -2    0.75    0.16
   3  -6  -2    0.20    0.15
  -3  -6   2   -0.11    0.11
   3  -6  -2    0.07    0.13
   3   6  -2   -0.15    0.10
   3   6  -2    0.02    0.08
   2  -6  -2   19.33    0.75
  -2  -6   2   19.05    0.69
   2  -6  -2   19.47    0.64
   2   6  -2   19.39    0.69
   2   6  -2   19.93    0.66
   1  -6  -2    0.89    0.12
  -1  -6   2    0.63    0.10
   1  -6  -2    0.59    0.09
  -1   6   2    0.71    0.07
  -1   6   2    0.57    0.07
  -1   6   2    0.52    0.06
   1   6  -2    0.84    0.10
   1   6  -2    0.66    0.09
   0  -6  -2   12.43    0.49
   0  -6   2   11.65    0.41
   0  -6  -2   12.71    0.40
   0   6  -2   11.44    0.44
   0   6  -2   12.04    0.43
   0   6  -2   12.13    0.46
   0   6   2   11.79    0.41
   0   6   2   11.90    0.39
   0   6   2   11.15    0.41
  -1  -6  -2    1.23    0.11
  -1  -6  -2    1.87    0.13
   1  -6   2    1.17    0.13
  -1   6  -2    1.50    0.12
   1   6   2    1.65    0.13
  -1   6  -2    1.69    0.14
  -1   6  -2    1.39    0.13
   2  -6   2   27.22    0.85
  -2  -6  -2   25.91    0.93
   2   6   2   27.07    0.89
  -2   6  -2   27.06    0.87
  -2   6  -2   29.06    0.89
  -2   6  -2   28.39    0.92
  -3  -6  -2   -0.24    0.11
   3  -6   2    0.20    0.12
  -3   6  -2    0.28    0.07
   3   6   2    0.09    0.09
  -3   6  -2    0.25    0.08
  -3   6  -2    0.14    0.10
  -4  -6  -2    0.02    0.15
   4   6   2    0.08    0.10
  -4   6  -2    0.27    0.12
  -5  -6  -2    0.77    0.21
  -5   6  -2    0.64    0.17
  -6  -6  -2   -0.05    0.21
  -6   6  -2   -0.15    0.18
  -7  -6  -2   -0.52    0.22
  -7   6  -2   -0.25    0.19
  -8  -7   2    2.75    0.37
  -8   7   2    2.90    0.32
  -7  -7   2    1.69    0.31
  -7   7   2    2.38    0.27
  -6  -7   2   13.75    0.67
  -6   7   2   14.68    0.56
   5  -7  -2   34.22    1.42
  -5  -7   2   35.23    1.28
  -5   7   2   38.44    1.18
  -4  -7   2   53.30    1.71
   4  -7  -2   51.02    1.87
   4   7  -2   52.06    1.62
   4   7  -2   49.09    1.69
   3  -7  -2  212.40    6.01
   3  -7  -2  210.83    7.04
  -3  -7   2  215.09    6.57
   3   7  -2  212.12    6.57
   2  -7  -2   72.26    2.49
  -2  -7   2   71.23    2.31
   2  -7  -2   73.88    2.13
   2   7  -2   74.97    2.23
   1  -7  -2  247.28    6.78
  -1  -7   2  242.83    7.44
   1  -7  -2  235.18    8.00
  -1   7   2  239.15    7.15
  -1   7   2  227.71    7.43
   1   7  -2  254.30    7.16
  -1   7   2  246.14    7.47
   1   7  -2  243.44    7.43
   0  -7  -2   73.46    2.50
   0  -7   2   70.66    2.14
   0  -7  -2   74.18    2.30
   0  -7  -2   78.20    2.13
   0   7  -2   74.98    2.35
   0   7   2   78.94    2.31
   0   7   2   74.59    2.21
   0   7  -2   72.20    2.32
   0   7   2   71.61    2.30
   0   7  -2   72.72    2.26
  -1  -7  -2   36.73    1.08
   1  -7   2   35.51    1.08
  -1  -7  -2   35.97    1.17
   1   7   2   37.39    1.13
  -1   7  -2   36.12    1.12
  -1   7  -2   35.00    1.16
   1   7   2   36.61    1.17
  -1   7  -2   35.78    1.16
   2  -7   2   78.17    2.23
  -2  -7  -2   76.38    2.44
   2   7   2   78.02    2.34
  -2   7  -2   72.53    2.32
  -2   7  -2   78.86    2.39
  -2   7  -2   78.21    2.42
   3  -7   2    1.63    0.18
  -3  -7  -2    1.45    0.18
   3   7   2    1.91    0.17
  -3   7  -2    1.71    0.20
  -3   7  -2    1.74    0.14
  -3   7  -2    1.49    0.16
  -4  -7  -2    3.07    0.30
   4   7   2    3.80    0.27
  -4   7  -2    4.24    0.27
  -5  -7  -2    0.00    0.19
  -5   7  -2    0.03    0.15
  -6  -7  -2    0.24    0.22
  -6   7  -2    0.38    0.19
  -7  -7  -2    0.20    0.25
  -7   7  -2   -0.05    0.20
  -8  -8   2    0.85    0.31
  -7  -8   2    1.00    0.28
  -7   8   2    1.54    0.20
  -6  -8   2    3.74    0.37
  -6   8   2    4.07    0.26
  -5  -8   2    0.02    0.16
   5  -8  -2    0.64    0.23
   4  -8  -2    0.43    0.19
  -4  -8   2    0.11    0.14
   4   8  -2    0.24    0.10
   4   8  -2    0.32    0.13
   3  -8  -2    2.39    0.24
   3  -8  -2    2.85    0.29
  -3  -8   2    2.59    0.24
   3   8  -2    2.77    0.24
   3   8  -2    2.60    0.22
  -2  -8   2   62.38    1.99
   2  -8  -2   62.12    1.83
   2  -8  -2   61.00    2.14
   2   8  -2   62.50    1.91
   1  -8  -2   94.55    2.73
  -1  -8   2   94.49    2.99
   1  -8  -2   92.53    3.19
   1   8  -2   97.03    2.88
  -1   8   2   94.82    2.92
  -1   8   2   99.02    2.82
  -1   8   2   93.66    2.93
   0  -8  -2  202.68    6.29
   0  -8  -2  220.57    5.77
   0  -8   2  191.76    6.32
   0  -8  -2  211.82    6.76
   0  -8   2  202.10    5.78
   0   8   2  207.88    6.37
   0   8  -2  201.55    6.10
   0   8  -2  204.89    6.34
   0   8   2  213.80    6.39
   0   8   2  191.55    6.05
   0   8  -2  210.92    6.31
   1  -8   2  104.76    3.08
  -1  -8  -2  110.52    3.07
  -1  -8  -2  102.61    3.36
  -1   8  -2  111.89    3.25
   1   8   2  110.07    3.23
  -1   8  -2  108.84    3.35
  -1   8  -2  107.40    3.36
   2  -8   2  170.28    4.78
  -2  -8  -2  167.63    5.24
   2   8   2  168.65    5.03
  -2   8  -2  170.57    5.19
  -2   8  -2  174.19    5.02
  -2   8  -2  162.88    5.21
  -3  -8  -2  159.20    5.07
   3  -8   2  158.02    4.62
  -3   8  -2  170.51    5.04
   3   8   2  156.69    4.87
  -3   8  -2  167.70    4.84
  -3   8  -2  164.04    5.00
  -4  -8  -2   42.53    1.51
  -4   8  -2   46.75    1.46
   4   8   2   43.84    1.44
  -5  -8  -2   31.48    1.19
  -5   8  -2   33.14    1.13
  -6  -8  -2   15.24    0.74
  -6   8  -2   15.73    0.66
  -7  -8  -2    4.27    0.46
  -7   8  -2    5.05    0.39
  -8  -9   2    0.50    0.30
  -7  -9   2    3.62    0.42
  -7   9   2    3.07    0.28
  -6  -9   2   12.17    0.63
  -6   9   2   12.31    0.48
  -5  -9   2   22.05    0.86
   5  -9  -2   20.95    0.97
   4  -9  -2   35.86    1.39
   4  -9  -2   36.12    1.19
  -4  -9   2   36.94    1.26
   4   9  -2   34.21    1.24
   4   9  -2   36.66    1.19
  -3  -9   2   59.99    1.93
   3  -9  -2   58.55    1.79
   3  -9  -2   57.40    2.09
   3   9  -2   60.84    1.85
   2  -9  -2   93.85    3.26
  -2  -9   2   97.76    3.05
   2  -9  -2   95.94    2.80
   2   9  -2   98.53    2.93
  -1  -9   2   91.39    2.75
   1  -9  -2   84.39    2.91
   1  -9  -2   87.34    2.50
  -1   9   2   83.56    2.57
  -1   9   2   87.50    2.67
   1   9  -2   91.14    2.63
  -1   9   2   80.64    2.67
   0  -9  -2  117.47    3.85
   0  -9  -2  119.76    3.29
   0  -9   2  109.96    3.60
   0  -9  -2  114.88    3.56
   0  -9   2  109.82    3.30
   0   9   2  126.19    3.44
   0   9  -2  109.36    3.58
   0   9  -2  108.57    3.60
   0   9   2  114.36    3.57
   0   9  -2  117.90    3.48
   0   9   2  121.36    3.58
  -1  -9  -2   27.27    0.84
   1  -9   2   26.57    0.85
  -1  -9  -2   24.05    1.00
  -1  -9  -2   28.31    0.91
  -1   9  -2   27.07    0.92
   1   9   2   26.70    0.87
  -1   9  -2   27.92    0.89
  -1   9  -2   26.83    0.90
  -2  -9  -2   20.89    0.74
   2  -9   2   19.72    0.69
  -2   9  -2   19.02    0.68
   2   9   2   21.66    0.71
  -2   9  -2   20.85    0.68
  -2   9  -2   20.02    0.71
   3  -9   2   14.87    0.56
  -3  -9  -2   15.14    0.60
  -3   9  -2   14.16    0.52
  -3   9  -2   14.01    0.53
  -3   9  -2   13.28    0.57
   3   9   2   15.32    0.56
  -4  -9  -2   -0.10    0.15
   4  -9   2   -0.06    0.16
   4   9   2    0.00    0.10
  -4   9  -2   -0.11    0.13
  -5  -9  -2   -0.21    0.18
  -5   9  -2    0.05    0.16
  -6  -9  -2    0.01    0.22
  -6   9  -2   -0.18    0.17
  -7  -9  -2   -0.01    0.25
  -7   9  -2    0.12    0.20
  -7 -10   2   -0.26    0.23
  -7  10   2   -0.28    0.13
  -6 -10   2   -0.22    0.20
   5 -10  -2   -0.15    0.22
  -5 -10   2   -0.18    0.17
   4 -10  -2   -0.10    0.19
  -4 -10   2   -0.30    0.15
   4 -10  -2    0.13    0.17
   4  10  -2   -0.30    0.10
  -3 -10   2    0.44    0.15
   3 -10  -2    0.43    0.19
   3 -10  -2    0.56    0.15
   3  10  -2    0.43    0.12
   2 -10  -2    0.04    0.14
   2 -10  -2    0.34    0.13
  -2 -10   2    0.14    0.13
   2  10  -2    0.56    0.12
   1 -10  -2    2.50    0.21
  -1 -10   2    2.37    0.23
   1 -10  -2    2.00    0.24
   1  10  -2    2.15    0.21
  -1  10   2    2.27    0.14
  -1  10   2    2.24    0.16
  -1  10   2    2.26    0.14
   0 -10   2    6.29    0.31
   0 -10  -2    6.98    0.30
   0 -10  -2    6.69    0.35
   0 -10   2    6.32    0.33
   0  10  -2    5.72    0.32
   0  10   2    6.65    0.29
   0  10  -2    6.19    0.32
   0  10   2    6.12    0.27
   0  10  -2    6.11    0.30
   0  10   2    6.62    0.28
  -1 -10  -2    8.51    0.43
  -1 -10  -2    9.17    0.36
   1 -10   2    8.69    0.38
  -1 -10  -2    8.81    0.38
   1  10   2    8.38    0.35
  -1  10  -2    8.30    0.39
  -1  10  -2    8.96    0.40
  -1  10  -2    8.81    0.36
   2 -10   2    6.65    0.33
  -2 -10  -2    6.60    0.31
  -2 -10  -2    5.68    0.34
   2  10   2    5.97    0.32
  -2  10  -2    6.55    0.31
  -2  10  -2    6.78    0.29
  -2  10  -2    6.07    0.29
  -3 -10  -2   -0.19    0.13
   3 -10   2    0.11    0.13
   3  10   2    0.07    0.10
  -3  10  -2    0.09    0.12
  -3  10  -2    0.21    0.08
   4 -10   2    1.45    0.22
  -4 -10  -2    1.06    0.22
  -4  10  -2    1.40    0.18
   4  10   2    0.94    0.16
  -5 -10  -2    0.06    0.20
  -5  10  -2    0.07    0.15
  -6 -10  -2   -0.22    0.22
  -6  10  -2   -0.06    0.17
  -7  10  -2   -0.12    0.19
  -6 -11   2    7.63    0.51
   5 -11  -2   27.26    1.20
  -5 -11   2   28.45    1.07
   4 -11  -2   30.75    1.23
   4 -11  -2   28.86    1.04
  -4 -11   2   30.32    1.10
   4  11  -2   30.30    1.10
   4  11  -2   30.76    1.05
   3 -11  -2   36.30    1.17
   3 -11  -2   35.53    1.36
  -3 -11   2   35.28    1.24
   3  11  -2   35.67    1.18
  -2 -11   2   93.17    2.88
   2 -11  -2   91.15    2.65
   2 -11  -2   88.35    3.08
   2  11  -2   88.33    2.76
  -1 -11   2  157.86    4.93
   1 -11  -2  155.66    5.24
  -1 -11   2  160.52    4.53
   1 -11  -2  163.06    4.50
  -1  11   2  150.82    4.87
  -1  11   2  164.64    4.86
  -1  11   2  151.60    4.67
   1  11  -2  159.24    4.73
   0 -11  -2   77.19    2.67
   0 -11   2   75.96    2.32
   0 -11  -2   80.56    2.31
   0  11   2   79.68    2.48
   0  11  -2   80.13    2.52
   0  11  -2   79.18    2.42
   0  11   2   79.76    2.38
  -1 -11  -2   70.64    2.52
  -1 -11  -2   76.47    2.18
  -1 -11  -2   63.84    2.34
   1 -11   2   74.63    2.19
  -1  11  -2   79.07    2.38
   1  11   2   78.06    2.27
  -1  11  -2   75.85    2.29
  -1  11  -2   75.11    2.34
  -2 -11  -2   22.25    0.81
  -2 -11  -2   21.82    0.74
   2 -11   2   21.89    0.76
  -2  11  -2   21.41    0.77
   2  11   2   21.89    0.77
  -2  11  -2   22.25    0.77
  -2  11  -2   21.52    0.74
  -3 -11  -2   -0.21    0.14
   3 -11   2    0.08    0.14
   3  11   2   -0.19    0.09
  -3  11  -2    0.26    0.13
  -4 -11  -2    1.05    0.22
   4 -11   2    1.08    0.21
  -4  11  -2    1.38    0.19
   4  11   2    1.00    0.17
  -5 -11  -2   -0.12    0.19
  -5  11  -2    0.22    0.15
  -6  11  -2    0.51    0.19
  -7  11  -2   -0.01    0.18
   5 -12  -2    0.59    0.25
  -5 -12   2   -0.01    0.19
   4 -12  -2    3.33    0.37
   4 -12  -2    2.95    0.31
  -4 -12   2    3.60    0.33
   4  12  -2    3.96    0.31
   4  12  -2    3.63    0.33
  -3 -12   2    2.90    0.28
   3 -12  -2    2.69    0.28
   3 -12  -2    3.59    0.34
   3  12  -2    3.37    0.26
   2 -12  -2    2.78    0.28
   2 -12  -2    2.45    0.25
  -2 -12   2    3.46    0.28
  -2  12   2    2.94    0.16
  -2  12   2    2.68    0.14
  -2  12   2    2.53    0.14
   2  12  -2    3.06    0.24
  -1 -12   2   20.75    0.75
   1 -12  -2   19.83    0.82
  -1 -12   2   17.87    0.76
   1 -12  -2   22.14    0.73
  -1  12   2   20.88    0.69
   1  12  -2   21.35    0.74
  -1  12   2   18.78    0.66
  -1  12   2   22.53    0.71
   0 -12  -2   96.48    3.26
   0 -12   2   93.99    2.83
   0 -12  -2   96.88    2.81
   0  12  -2   96.10    2.95
   0  12   2   99.66    2.91
  -1 -12  -2  133.16    3.78
  -1 -12  -2  124.75    4.39
   1 -12   2  131.33    3.80
  -1  12  -2  127.27    4.09
  -1  12  -2  139.13    4.13
  -1  12  -2  134.29    3.98
   1  12   2  132.80    3.95
  -2 -12  -2   75.51    2.18
  -2 -12  -2   68.40    2.54
   2 -12   2   73.34    2.20
  -2 -12  -2   77.67    2.38
  -2  12  -2   75.50    2.34
  -2  12  -2   71.35    2.28
   2  12   2   73.59    2.27
  -3 -12  -2   76.99    2.36
  -3 -12  -2   82.61    2.59
   3 -12   2   80.01    2.39
  -3  12  -2   77.32    2.54
   3  12   2   81.11    2.47
   4 -12   2   30.17    1.07
  -4  12  -2   31.64    1.08
   4  12   2   30.18    1.08
  -5  12  -2   20.17    0.77
  -6  12  -2    7.51    0.42
  -6 -13   2   -1.38    5.18
   5 -13  -2   12.89    0.74
   4 -13  -2   17.15    0.73
   4 -13  -2   18.11    0.86
   4  13  -2   18.72    0.73
   4  13  -2   18.41    0.76
   3 -13  -2   29.33    1.16
  -3 -13   2   29.96    1.07
   3 -13  -2   28.16    1.00
   3  13  -2   28.02    1.00
   2 -13  -2   56.31    1.72
   2 -13  -2   55.36    1.98
   2  13  -2   56.73    1.77
  -2  13   2   53.58    1.75
  -2  13   2   55.60    1.67
  -1 -13   2   67.80    2.16
   1 -13  -2   72.36    2.47
   1 -13  -2   73.42    2.14
   1  13  -2   71.51    2.23
  -1  13   2   71.46    2.25
  -1  13   2   72.07    2.16
   0 -13   2   48.01    1.53
   0 -13  -2   48.66    1.50
   0 -13  -2   49.60    1.72
   0  13  -2   48.65    1.56
   0  13   2   49.49    1.52
  -1 -13  -2   41.65    1.51
  -1 -13  -2   43.26    1.32
   1 -13   2   42.11    1.34
  -1  13  -2   42.31    1.37
  -1  13  -2   42.11    1.39
   1  13   2   42.50    1.35
  -2 -13  -2   16.50    0.61
   2 -13   2   16.52    0.63
  -2 -13  -2   15.21    0.68
  -2  13  -2   16.15    0.60
   2  13   2   15.96    0.61
  -2  13  -2   15.67    0.61
  -3 -13  -2    2.74    0.28
   3 -13   2    2.67    0.28
  -3  13  -2    2.32    0.26
   3  13   2    2.74    0.26
   4 -13   2    0.17    0.18
  -4  13  -2   -0.12    0.16
   4  13   2    0.04    0.12
  -5 -13  -2    6.55    5.36
  -6  13  -2   -0.18    0.17
  -6 -14   2    2.49    4.98
   5 -14  -2    0.00    0.25
   4 -14  -2    0.35    0.21
   4 -14  -2   -0.21    0.23
   4  14  -2    0.17    0.16
   4  14  -2   -0.31    0.19
   3 -14  -2    0.11    0.20
   3 -14  -2    0.12    0.17
   3  14  -2   -0.26    0.11
  -2 -14   2    0.26    0.18
   2 -14  -2    0.08    0.18
   2 -14  -2    0.20    0.16
  -2  14   2    0.20    0.08
   2  14  -2   -0.08    0.11
   1 -14  -2    0.17    0.15
   1 -14  -2   -0.14    0.16
  -1 -14   2    0.14    0.16
   1  14  -2   -0.02    0.11
  -1  14   2    0.10    0.07
   0 -14   2   -0.03    0.14
   0 -14  -2    0.23    0.14
   0 -14  -2   -0.01    0.15
   0  14  -2   -0.16    0.13
   0  14   2    0.08    0.08
   0  14  -2    0.26    0.12
   1 -14   2   -0.06    0.15
  -1 -14  -2    0.17    0.15
  -1 -14  -2    0.12    0.13
  -1  14  -2    0.12    0.12
  -1  14  -2    0.41    0.12
   1  14   2    0.07    0.09
   2 -14   2    0.22    0.16
  -2 -14  -2    0.13    0.17
  -2 -14  -2    0.17    0.15
   2  14   2    0.09    0.11
  -2  14  -2    0.33    0.14
  -2  14  -2    0.20    0.12
   3 -14   2   -0.12    0.15
  -3 -14  -2    0.08    0.15
  -3 -14  -2   -0.38    0.20
   3  14   2    0.07    0.12
  -3  14  -2    0.10    0.13
   4 -14   2   -0.04    0.18
  -4 -14  -2   -0.21    0.17
   4  14   2   -0.06    0.12
  -4  14  -2   -0.04    0.16
  -5 -14  -2    4.29    5.52
  -6  14  -2   -0.06    0.16
  -6 -15   2    4.86    5.20
   5 -15  -2   11.01    0.61
   5 -15  -2   10.81    0.69
   4 -15  -2   19.80    0.83
   4 -15  -2   20.16    0.96
   4  15  -2   20.71    0.81
   4  15  -2   21.07    0.86
   3 -15  -2   27.88    1.14
   3 -15  -2   27.24    0.99
   3  15  -2   26.53    0.98
   2 -15  -2   45.98    1.47
   2 -15  -2   46.04    1.68
  -2 -15   2   45.72    1.50
  -2  15   2   44.58    1.40
   2  15  -2   44.74    1.49
   1 -15  -2   36.75    1.37
   1 -15  -2   37.22    1.21
  -1 -15   2   37.42    1.25
   1  15  -2   35.50    1.23
  -1  15   2   37.00    1.17
   0 -15   2   42.18    1.38
   0 -15  -2   42.89    1.54
   0 -15  -2   43.42    1.36
   0  15   2   42.06    1.36
   0  15  -2   43.97    1.40
   0  15  -2   40.70    1.42
  -1 -15  -2   14.41    0.57
  -1 -15  -2   13.86    0.62
   1 -15   2   14.15    0.60
  -1  15  -2   14.27    0.56
  -1  15  -2   13.71    0.56
   1  15   2   13.18    0.55
   2 -15   2    5.65    0.37
  -2 -15  -2    6.15    0.39
  -2 -15  -2    5.67    0.34
  -2  15  -2    5.25    0.32
  -2  15  -2    5.25    0.31
   2  15   2    4.68    0.33
   3 -15   2    4.23    0.34
  -3 -15  -2    4.58    0.33
  -3  15  -2    4.22    0.31
  -3  15  -2    4.20    0.30
   3  15   2    3.97    0.33
   4 -15   2    0.34    0.20
  -4 -15  -2    0.59    0.21
  -4  15  -2   -0.15    0.16
  -5 -15  -2   -0.08    0.20
  -5 -15  -2   -1.29    5.40
   5 -15   2    0.01    0.23
  -5  15  -2   -0.09    0.16
  -6  15  -2    0.28    0.17
   5 -16  -2    0.21    0.26
   5 -16  -2   -0.15    0.24
   4 -16  -2   -0.12    0.21
   4 -16  -2    0.17    0.24
   4  16  -2    0.19    0.20
   4  16  -2    0.29    0.16
   3 -16  -2    4.27    0.42
   3 -16  -2    4.49    0.37
   3  16  -2    4.18    0.34
  -2 -16   2   11.50    0.58
   2 -16  -2   11.75    0.55
   2 -16  -2   12.52    0.63
   2  16  -2   12.46    0.54
  -2  16   2   11.66    0.44
   1 -16  -2   10.37    0.50
  -1 -16   2   10.69    0.54
   1 -16  -2   12.27    0.58
  -1  16   2   10.73    0.44
   1  16  -2   11.84    0.51
   0 -16  -2   51.80    1.79
   0 -16  -2   47.14    1.57
   0 -16   2   48.97    1.61
   0  16  -2   50.12    1.62
   0  16   2   53.24    1.59
   0  16  -2   48.71    1.66
  -1 -16  -2   34.52    1.16
  -1 -16  -2   35.94    1.30
   1 -16   2   34.23    1.19
  -1  16  -2   35.75    1.20
   1  16   2   35.13    1.17
  -1  16  -2   34.98    1.18
  -2 -16  -2   26.22    0.93
   2 -16   2   26.32    0.96
  -2  16  -2   27.30    0.93
   2  16   2   26.49    0.94
  -2  16  -2   25.77    0.94
   3 -16   2   30.50    1.09
  -3 -16  -2   30.20    1.05
   3  16   2   31.27    1.08
  -3  16  -2   29.34    1.07
  -3  16  -2   30.15    1.05
   4 -16   2   18.05    0.78
  -4 -16  -2   18.37    0.75
  -4  16  -2   16.15    0.73
   4  16   2   19.20    0.76
  -4  16  -2   18.06    0.71
  -6  16  -2    3.80    0.31
   5 -17  -2    7.74    0.53
   5 -17  -2    7.92    0.61
   4 -17  -2    7.77    0.52
   4 -17  -2    9.89    0.63
   4  17  -2    9.56    0.52
  -3 -17   2   22.98    0.94
   3 -17  -2   24.10    1.06
   3 -17  -2   23.80    0.93
   3  17  -2   25.12    0.97
   3  17  -2   24.45    0.92
  -3  17   2   24.17    0.78
  -2 -17   2   29.30    1.10
   2 -17  -2   30.85    1.21
   2 -17  -2   29.33    1.06
  -2  17   2   30.80    0.97
   2  17  -2   29.69    1.07
   1 -17  -2   26.30    0.96
   1 -17  -2   28.94    1.10
  -1 -17   2   26.80    1.00
  -1  17   2   26.09    0.90
   1  17  -2   27.48    0.98
   0 -17   2    6.81    0.42
   0 -17  -2    6.85    0.43
   0 -17  -2    6.41    0.38
   0  17   2    6.92    0.34
   0  17  -2    6.73    0.37
   0  17  -2    6.39    0.37
  -1 -17  -2   16.24    0.66
  -1 -17  -2   16.92    0.72
   1 -17   2   16.36    0.69
  -1  17  -2   17.30    0.67
  -1  17  -2   16.94    0.65
   1  17   2   16.68    0.65
   2 -17   2   12.58    0.61
  -2 -17  -2   13.52    0.58
   2  17   2   13.39    0.58
  -2  17  -2   13.53    0.55
  -2  17  -2   13.55    0.56
   3 -17   2    0.15    0.20
  -3 -17  -2    0.40    0.19
   3  17   2    0.30    0.15
  -3  17  -2    0.45    0.16
  -3  17  -2    0.23    0.14
   4 -17   2    0.83    0.25
  -4 -17  -2    0.61    0.23
   4  17   2    0.60    0.18
  -4  17  -2    0.57    0.17
  -4  17  -2    0.41    0.20
   5 -17   2    0.43    0.27
  -5  17  -2   -0.21    0.17
  -5  17  -2    0.11    0.16
  -6  17  -2   -0.01    0.17
   5 -18  -2    0.28    0.28
   5 -18  -2    0.08    0.24
   4 -18  -2    0.81    0.32
  -4 -18   2    0.85    0.27
   4 -18  -2    1.03    0.27
   4  18  -2    0.92    0.21
  -3 -18   2    0.10    0.22
   3 -18  -2    0.07    0.21
   3 -18  -2   -0.07    0.24
   3  18  -2   -0.19    0.15
   3  18  -2   -0.26    0.21
  -3  18   2   -0.20    0.08
   2 -18  -2   -0.10    0.22
  -2 -18   2    0.31    0.21
   2 -18  -2    0.41    0.20
   2  18  -2   -0.10    0.15
  -2  18   2   -0.04    0.09
   2  18  -2   -0.46    0.19
  -1 -18   2    1.79    0.28
   1 -18  -2    1.77    0.28
   1 -18  -2    1.91    0.25
   1  18  -2    1.29    0.21
  -1  18   2    1.82    0.20
   1  18  -2    1.44    0.24
   0 -18   2    0.23    0.19
   0 -18  -2    0.42    0.19
   0 -18  -2    0.51    0.18
   0  18  -2    0.15    0.16
   0  18  -2    0.37    0.15
   0  18   2    0.39    0.12
   1 -18   2    0.20    0.18
  -1 -18  -2    0.26    0.17
  -1  18  -2    0.06    0.16
   1  18   2    0.25    0.13
  -1  18  -2    0.15    0.14
   2 -18   2   -0.12    0.18
  -2 -18  -2    0.05    0.16
  -2  18  -2    0.13    0.15
   2  18   2   -0.04    0.12
  -2  18  -2    0.11    0.13
   3 -18   2   -0.12    0.18
  -3 -18  -2   -0.12    0.17
  -3  18  -2    0.01    0.15
   3  18   2   -0.18    0.13
  -3  18  -2   -0.11    0.12
   4 -18   2    0.00    0.21
  -4 -18  -2    0.19    0.20
  -4  18  -2   -0.10    0.14
  -4  18  -2    0.04    0.16
   5 -18   2   -0.11    0.25
  -5  18  -2    0.04    0.15
  -5  18  -2   -0.25    0.16
  -4 -19   2    6.22    0.49
   4 -19  -2    6.13    0.48
   4 -19  -2    6.65    0.57
   4  19  -2    5.80    0.45
   3 -19  -2   17.44    0.79
  -3 -19   2   16.89    0.80
   3 -19  -2   18.51    0.90
   3  19  -2   17.93    0.81
   3  19  -2   18.92    0.78
  -3  19   2   18.45    0.63
  -2 -19   2   16.00    0.74
   2 -19  -2   16.83    0.80
   2 -19  -2   14.90    0.69
   2  19  -2   15.94    0.69
   2  19  -2   16.11    0.72
  -2  19   2   15.97    0.59
  -1 -19   2   10.48    0.57
   1 -19  -2   11.99    0.61
   1 -19  -2   10.69    0.53
  -1  19   2   10.32    0.45
   1  19  -2   10.23    0.53
   1  19  -2   10.57    0.51
   0 -19  -2   16.57    0.72
   0 -19  -2   14.73    0.64
   0 -19   2   14.83    0.68
   0  19  -2   14.47    0.63
   0  19   2   14.80    0.60
   0  19  -2   14.67    0.64
   1 -19   2    5.89    0.42
  -1 -19  -2    5.87    0.39
  -1  19  -2    5.59    0.37
  -1  19  -2    6.26    0.37
   1  19   2    5.98    0.37
  -2 -19  -2    4.50    0.36
   2 -19   2    4.61    0.39
   2  19   2    4.21    0.35
  -2  19  -2    4.87    0.34
  -2  19  -2    4.95    0.32
  -3 -19  -2    0.81    0.23
   3 -19   2    0.51    0.24
  -3  19  -2    0.89    0.17
   3  19   2    0.62    0.18
  -3  19  -2    1.25    0.20
  -4 -19  -2    0.08    0.21
   4 -19   2   -0.12    0.22
  -4  19  -2    0.26    0.17
  -4  19  -2   -0.14    0.13
  -5  19  -2   -0.21    0.13
   4 -20  -2   -0.11    0.24
   4 -20  -2    0.27    0.27
  -4 -20   2    0.20    0.24
   3 -20  -2    0.96    0.27
   3 -20  -2    1.38    0.31
  -3 -20   2    1.05    0.29
  -3  20   2    0.91    0.13
   3  20  -2    1.20    0.27
   3  20  -2    1.10    0.22
   2 -20  -2    4.49    0.39
  -2 -20   2    4.39    0.43
   2 -20  -2    5.35    0.46
  -2  20   2    4.44    0.29
   2  20  -2    5.24    0.38
   2  20  -2    4.97    0.40
   1 -20  -2    4.56    0.41
  -1 -20   2    4.95    0.41
   1 -20  -2    4.61    0.37
  -1  20   2    4.72    0.30
   1  20  -2    4.64    0.35
   1  20  -2    5.01    0.37
   0 -20   2   19.10    0.81
   0 -20  -2   17.84    0.76
   0  20  -2   19.52    0.76
   0  20  -2   18.98    0.77
   0  20   2   18.86    0.72
  -1 -20  -2   10.56    0.55
   1 -20   2   11.05    0.59
   1  20   2   10.87    0.52
  -1  20  -2   11.51    0.52
  -1  20  -2   11.36    0.54
  -2 -20  -2   13.49    0.65
   2 -20   2   14.07    0.69
  -2  20  -2   14.94    0.61
   2  20   2   14.88    0.64
  -2  20  -2   14.07    0.63
  -3 -20  -2   12.83    0.61
   3 -20   2   12.80    0.67
  -3  20  -2   12.07    0.57
   3  20   2   12.80    0.61
  -3  20  -2   12.42    0.54
   4 -20   2    7.73    0.55
  -4  20  -2    6.93    0.44
  -4  20  -2    7.89    0.41
  -5  20  -2    4.10    0.31
   4 -21  -2    4.04    0.48
  -3 -21   2    6.85    0.51
   3 -21  -2    7.29    0.51
   3 -21  -2    7.02    0.57
   3  21  -2    7.27    0.48
   3  21  -2    6.89    0.49
  -3  21   2    7.35    0.34
   2 -21  -2   13.63    0.72
  -2 -21   2   12.79    0.69
   2 -21  -2   12.75    0.66
   2  21  -2   13.90    0.66
   2  21  -2   12.79    0.62
  -2  21   2   14.04    0.54
  -1 -21   2    8.87    0.55
   1 -21  -2    8.94    0.52
   1  21  -2    8.91    0.48
   1  21  -2    9.01    0.50
  -1  21   2    9.03    0.44
   0 -21  -2    5.05    0.39
   0 -21   2    5.12    0.43
   0  21  -2    5.67    0.38
   0  21  -2    5.61    0.39
   0  21   2    5.50    0.35
   1 -21   2    3.93    0.38
  -1 -21  -2    4.16    0.37
  -1  21  -2    4.43    0.35
   1  21   2    3.76    0.33
  -1  21  -2    4.14    0.33
  -2 -21  -2    4.04    0.37
   2 -21   2    3.30    0.39
   2  21   2    4.16    0.36
  -2  21  -2    4.08    0.32
  -2  21  -2    4.43    0.35
   3 -21   2    0.52    0.27
  -3 -21  -2    0.69    0.24
  -3  21  -2    0.89    0.20
  -3  21  -2    0.72    0.17
   3  21   2    0.81    0.20
  -4 -21  -2    0.31    0.22
  -4  21  -2    0.60    0.19
  -4  21  -2    0.06    0.14
   4 -22  -2    0.37    0.29
   3 -22  -2    0.08    0.26
   3  22  -2   -0.39    0.21
   3  22  -2   -0.08    0.17
  -3  22   2   -0.03    0.11
   2 -22  -2   -0.17    0.21
  -2 -22   2    0.19    0.22
   2  22  -2   -0.10    0.21
  -2  22   2    0.28    0.13
   2  22  -2    0.03    0.16
  -1 -22   2    0.11    0.22
   1 -22  -2    0.08    0.20
  -1  22   2    0.02    0.12
   1  22  -2   -0.17    0.20
   1  22  -2   -0.05    0.16
   0 -22   2   -0.14    0.21
   0 -22  -2    0.02    0.19
   0  22  -2   -0.23    0.19
   0  22   2    0.00    0.13
   0  22  -2   -0.09    0.16
   1 -22   2   -0.07    0.21
  -1 -22  -2    0.32    0.21
  -1  22  -2   -0.07    0.15
  -1  22  -2   -0.09    0.19
   1  22   2   -0.12    0.13
  -2 -22  -2    0.61    0.23
   2 -22   2    0.26    0.24
   2  22   2    0.54    0.18
  -2  22  -2    0.76    0.21
  -2  22  -2    0.57    0.17
  -3 -22  -2    0.13    0.21
  -3  22  -2    0.02    0.14
  -3  22  -2   -0.08    0.17
   3  22   2   -0.22    0.15
  -4  22  -2   -0.16    0.13
   4 -23  -2    2.01    0.40
   3  23  -2    3.74    0.40
  -3  23   2    4.14    0.28
   3  23  -2    3.81    0.42
   2  23  -2    6.12    0.47
  -2  23   2    6.08    0.35
   2  23  -2    6.00    0.44
  -1 -23   2    4.66    0.45
   1 -23  -2    4.75    0.43
   1  23  -2    5.00    0.41
   1  23  -2    4.86    0.39
  -1  23   2    5.02    0.34
   0 -23  -2    4.05    0.39
   0 -23   2    4.23    0.43
   0  23  -2    3.92    0.39
   0  23   2    3.67    0.33
   0  23  -2    3.77    0.34
   1 -23   2    2.85    0.38
  -1 -23  -2    3.39    0.36
  -1  23  -2    2.68    0.30
  -1  23  -2    2.94    0.33
   1  23   2    2.84    0.32
  -2 -23  -2    1.57    0.28
  -2  23  -2    1.47    0.25
  -2  23  -2    1.35    0.21
   2  23   2    1.41    0.23
  -3  23  -2   -0.05    0.14
   3  23   2    0.03    0.16
  -3  24   2    0.30    0.12
   3  24  -2    0.16    0.19
   3  24  -2    0.03    0.24
   2  24  -2    0.60    0.25
  -2  24   2    0.46    0.15
   2  24  -2    0.72    0.20
   1  24  -2    2.46    0.33
   1  24  -2    2.32    0.28
  -1  24   2    1.79    0.22
   0  24  -2    4.98    0.39
   0  24   2    5.11    0.37
   0  24  -2    5.93    0.44
  -1  24  -2    6.64    0.47
  -1  24  -2    6.05    0.40
   1  24   2    6.45    0.43
  -2  24  -2    5.56    0.38
   2  24   2    6.24    0.44
   3  24   2    4.89    0.43
   3  25  -2    1.45    0.28
  -2  25   2    3.71    0.30
   2  25  -2    2.90    0.38
   2  25  -2    2.66    0.32
   1  25  -2    3.29    0.35
  -1  25   2    2.87    0.30
   1  25  -2    3.38    0.40
   0  25   2    3.12    0.32
   0  25  -2    2.98    0.34
   0  25  -2    3.29    0.39
  -1  25  -2    1.51    0.23
   1  25   2    1.44    0.24
   2  25   2    0.71    0.21
  -8   0   3   -0.07    0.22
  -7   0   3   -0.35    0.18
  -5   0   3   -0.09    0.14
  -4   0   3   -0.12    0.09
  -4   0   3    0.00    0.07
   4   0  -3   -0.05    0.13
  -3   0   3    0.01    0.06
  -3   0   3   -0.06    0.05
   3   0  -3    0.01    0.09
  -3   0   3    0.02    0.07
   2   0  -3    0.07    0.08
   2   0  -3    0.00    0.05
   2   0  -3   -0.07    0.06
  -2   0   3   -0.01    0.06
  -2   0   3   -0.06    0.06
  -2   0   3    0.15    0.07
  -1   0   3   -0.19    0.05
   1   0  -3   -0.33    0.05
   1   0  -3    0.12    0.09
  -1   0   3   -0.36    0.05
  -1   0   3   -0.29    0.07
   1   0  -3   -0.24    0.06
   1   0   3   -0.07    0.05
   1   0   3   -0.11    0.04
  -1   0  -3   -0.18    0.05
   2   0   3   -0.05    0.05
  -2   0  -3   -0.15    0.08
   2   0   3   -0.06    0.07
   3   0   3    0.01    0.02
  -3   0  -3   -0.22    0.10
  -4   0  -3   -0.17    0.13
  -5   0  -3    0.09    0.19
  -6   0  -3   -0.30    0.20
  -7   0  -3   -0.31    0.21
  -8  -1   3    3.82    0.40
  -8   1   3    3.64    0.39
  -7  -1   3    4.59    0.39
  -7   1   3    4.65    0.38
  -6  -1   3    3.05    0.32
  -5  -1   3   28.21    1.02
  -5   1   3   29.43    1.01
   4  -1  -3    8.27    0.44
  -4  -1   3    8.25    0.37
  -4   1   3    7.88    0.34
   4   1  -3    8.33    0.44
  -4   1   3    7.73    0.32
  -3  -1   3    4.11    0.20
  -3  -1   3    4.19    0.24
   3  -1  -3    4.11    0.27
  -3  -1   3    3.68    0.21
   3   1  -3    4.79    0.26
  -3   1   3    4.13    0.20
   3   1  -3    3.77    0.18
   3   1  -3    4.07    0.22
  -3   1   3    3.84    0.22
  -3   1   3    4.13    0.18
  -2  -1   3   34.81    1.04
  -2  -1   3   31.37    1.02
   2  -1  -3   34.25    1.04
  -2  -1   3   32.54    1.07
   2  -1  -3   33.30    1.15
  -2  -1   3   31.35    1.06
   2  -1  -3   34.01    0.99
   2   1  -3   33.58    1.13
  -2   1   3   31.99    1.05
  -2   1   3   33.16    1.06
  -2   1   3   32.99    1.01
   2   1  -3   27.73    1.06
  -2   1   3   34.24    1.02
  -1  -1   3   16.66    0.58
  -1  -1   3   15.89    0.59
   1  -1  -3   17.13    0.63
  -1  -1   3   18.86    0.56
  -1   1   3   16.08    0.58
  -1   1   3   17.31    0.57
  -1   1   3   16.35    0.56
   1   1  -3   15.91    0.61
   1   1  -3   17.27    0.58
   1   1  -3   16.00    0.57
  -1   1   3   16.40    0.53
   0  -1   3   56.89    1.76
   0  -1   3   53.54    1.69
   0  -1  -3   56.28    1.75
   0   1   3   55.64    1.68
   0   1  -3   56.07    1.76
   0   1   3   56.63    1.57
   0   1   3   54.53    1.75
   0   1   3   58.20    1.75
   1  -1   3  122.45    3.62
   1  -1   3  126.99    3.76
  -1  -1  -3  123.80    3.77
  -1   1  -3  120.08    3.77
  -1   1  -3  120.05    3.75
   1   1   3  122.02    3.62
   1   1   3  118.37    3.76
  -2  -1  -3   73.23    2.29
  -2  -1  -3   78.40    2.04
   2  -1   3   63.69    2.25
   2   1   3   77.45    2.19
   2   1   3   71.41    2.27
  -2   1  -3   67.15    2.03
  -2   1  -3   72.65    2.28
  -2   1  -3   75.27    2.27
  -3  -1  -3   40.25    1.38
   3  -1   3   44.27    1.31
  -3   1  -3   40.83    1.35
  -3   1  -3   40.26    1.37
   3   1   3   42.72    1.31
  -4  -1  -3   17.95    0.69
  -4   1  -3   17.55    0.69
  -5  -1  -3   19.53    0.79
  -5   1  -3   19.49    0.78
  -6  -1  -3    8.77    0.51
  -6   1  -3    8.67    0.51
  -7  -1  -3    2.06    0.30
  -7   1  -3    1.50    0.28
  -8  -2   3    1.47    0.28
  -8   2   3    1.46    0.27
  -7  -2   3    7.38    0.47
  -7   2   3    7.32    0.43
  -6  -2   3   19.67    0.79
  -6   2   3   19.54    0.76
  -5  -2   3   66.27    2.21
  -5   2   3   70.03    2.19
   4  -2  -3  123.11    4.17
  -4  -2   3  124.74    3.86
  -4   2   3  126.13    3.83
  -4   2   3  122.97    3.68
   4   2  -3  120.40    3.85
   4   2  -3  123.76    3.68
   3  -2  -3  158.43    5.19
  -3  -2   3  154.53    4.83
  -3   2   3  151.19    4.62
  -3   2   3  160.97    4.81
   3   2  -3  157.13    5.16
  -3   2   3  155.93    4.83
  -3   2   3  156.84    4.65
  -2  -2   3  256.40    7.58
   2  -2  -3  246.84    8.08
  -2  -2   3  241.12    7.65
   2   2  -3  247.79    7.29
   2   2  -3  243.52    8.10
   2   2  -3  248.33    7.60
  -2   2   3  238.24    7.29
  -2   2   3  241.31    7.61
  -2   2   3  251.46    7.33
  -2   2   3  251.42    7.63
  -1  -2   3  668.94   20.01
  -1  -2   3  668.85   20.90
   1  -2  -3  699.33   22.20
   1  -2  -3  643.33   19.89
  -1   2   3  684.44   19.90
  -1   2   3  636.06   20.72
   1   2  -3  626.58   22.06
   1   2  -3  675.92   19.94
  -1   2   3  700.64   20.70
   1   2  -3  678.45   20.81
  -1   2   3  720.58   18.94
   0  -2   3  646.93   19.87
   0  -2  -3  688.26   18.64
   0  -2  -3  698.80   20.61
   0  -2   3  648.36   20.62
   0   2   3  684.44   20.55
   0   2   3  679.11   19.79
   0   2   3  640.98   18.61
   0   2   3  663.49   20.57
   0   2  -3  664.12   20.64
  -1  -2  -3  215.20    6.51
   1  -2   3  220.83    6.34
   1  -2   3  207.03    5.93
   1  -2   3  212.68    6.56
   1   2   3  201.27    6.53
  -1   2  -3  214.16    6.50
  -1   2  -3  212.63    6.51
   1   2   3  213.14    6.28
  -2  -2  -3  127.84    3.92
  -2   2  -3  128.99    3.91
  -2   2  -3  123.76    3.53
  -2   2  -3  129.03    3.90
  -2   2  -3  125.27    3.75
   2   2   3  126.84    3.76
   2   2   3  121.65    3.90
  -3  -2  -3   83.64    2.68
  -3   2  -3   88.19    2.65
  -3   2  -3   83.08    2.55
   3   2   3   83.68    2.56
  -3   2  -3   83.35    2.67
  -4  -2  -3   24.93    0.93
  -4   2  -3   26.31    0.93
  -5  -2  -3    2.95    0.32
  -5   2  -3    2.76    0.29
  -6  -2  -3    1.05    0.25
  -6   2  -3    0.83    0.23
  -7  -2  -3    0.27    0.23
  -7   2  -3   -0.02    0.22
  -8  -3   3    3.42    0.41
  -8   3   3    3.12    0.36
  -7  -3   3    7.25    0.48
  -7   3   3    7.30    0.43
  -6  -3   3    2.74    0.32
  -6   3   3    2.35    0.27
   5  -3  -3   20.99    0.94
  -5  -3   3   21.01    0.82
  -5   3   3   22.45    0.77
  -4  -3   3   26.89    0.93
   4  -3  -3   27.37    1.06
  -4   3   3   27.04    0.89
  -4   3   3   26.46    0.90
  -4   3   3   25.96    0.84
   3  -3  -3    0.26    0.12
  -3  -3   3    0.18    0.09
  -3   3   3    0.23    0.07
  -3   3   3    0.13    0.06
  -3   3   3    0.09    0.05
   3   3  -3    0.14    0.09
   3   3  -3    0.19    0.06
   3   3  -3    0.18    0.09
  -3   3   3    0.15    0.07
  -2  -3   3    5.52    0.27
   2  -3  -3    5.70    0.31
   2   3  -3    5.84    0.28
   2   3  -3    5.87    0.25
  -2   3   3    5.62    0.23
  -2   3   3    5.40    0.22
  -2   3   3    5.88    0.21
   2   3  -3    5.76    0.25
  -2   3   3    5.95    0.23
   1  -3  -3    3.45    0.23
  -1  -3   3    2.82    0.21
   1  -3  -3    3.45    0.16
   1  -3  -3    2.78    0.17
   1  -3  -3    2.92    0.14
   1   3  -3    2.93    0.20
  -1   3   3    3.44    0.15
  -1   3   3    3.50    0.17
   1   3  -3    3.07    0.19
  -1   3   3    3.45    0.14
   0  -3  -3    1.51    0.11
   0  -3   3    1.37    0.13
   0  -3   3    1.58    0.13
   0  -3  -3    1.88    0.09
   0   3  -3    1.41    0.14
   0   3   3    1.57    0.10
   0   3   3    1.93    0.12
   0   3   3    1.81    0.11
   0   3  -3    1.52    0.14
  -1  -3  -3   53.19    1.79
  -1  -3  -3   57.31    1.60
   1  -3   3   54.90    1.61
  -1   3  -3   56.29    1.73
   1   3   3   58.84    1.72
  -1   3  -3   57.91    1.80
  -1   3  -3   58.37    1.78
   1   3   3   58.43    1.79
   2  -3   3   46.76    1.46
  -2  -3  -3   45.90    1.50
   2  -3   3   46.90    1.42
   2  -3   3   48.15    1.34
  -2   3  -3   47.99    1.47
  -2   3  -3   44.12    1.42
   2   3   3   45.17    1.48
  -2   3  -3   46.67    1.49
   2   3   3   44.87    1.43
  -3  -3  -3   59.07    1.92
  -3   3  -3   60.59    1.88
   3   3   3   58.44    1.83
  -3   3  -3   59.42    1.90
  -3   3  -3   58.42    1.82
  -4  -3  -3   33.95    1.21
  -4   3  -3   35.34    1.19
  -5  -3  -3    9.18    0.51
  -5   3  -3    9.36    0.47
  -6  -3  -3    7.55    0.50
  -6   3  -3    7.88    0.47
  -7  -3  -3    2.20    0.33
  -7   3  -3    3.04    0.37
  -8  -4   3   -0.37    0.23
  -8   4   3   -0.28    0.19
  -7  -4   3   -0.28    0.21
  -7   4   3   -0.04    0.17
  -6  -4   3    2.27    0.28
  -6   4   3    1.86    0.22
   5  -4  -3    3.18    0.37
  -5  -4   3    2.18    0.24
  -5   4   3    2.68    0.23
  -4  -4   3    0.18    0.13
   4  -4  -3    0.24    0.18
  -4   4   3    0.33    0.10
   4   4  -3    0.43    0.13
   4   4  -3    0.22    0.09
  -4   4   3    0.37    0.08
  -4   4   3    0.37    0.10
   3  -4  -3    7.57    0.41
  -3  -4   3    7.69    0.35
  -3   4   3    8.03    0.28
  -3   4   3    9.43    0.32
   3   4  -3    7.69    0.36
  -3   4   3    8.06    0.30
  -3   4   3    7.83    0.30
   3   4  -3    7.75    0.33
   2  -4  -3   47.02    1.71
  -2  -4   3   49.96    1.59
  -2   4   3   51.06    1.48
  -2   4   3   47.06    1.49
  -2   4   3   46.49    1.54
  -2   4   3   53.54    1.54
   2   4  -3   49.84    1.53
   2   4  -3   49.50    1.59
   1  -4  -3   36.99    1.31
   1  -4  -3   38.68    1.10
  -1  -4   3   36.52    1.23
  -1   4   3   36.68    1.17
  -1   4   3   40.56    1.13
   1   4  -3   35.93    1.21
  -1   4   3   35.99    1.18
   1   4  -3   35.12    1.18
   0  -4  -3   38.13    1.10
   0  -4  -3   42.51    1.21
   0  -4   3   39.19    1.20
   0  -4   3   36.11    1.23
   0   4  -3   36.11    1.20
   0   4  -3   36.04    1.24
   0   4   3   36.31    1.21
   0   4  -3   38.61    1.24
   0   4   3   38.92    1.16
   0   4   3   39.61    1.22
   0   4   3   36.62    1.10
  -1  -4  -3   35.71    1.03
   1  -4   3   35.09    1.05
  -1  -4  -3   37.64    1.17
  -1   4  -3   35.81    1.15
   1   4   3   37.30    1.16
  -1   4  -3   34.52    1.12
   1   4   3   36.71    1.12
  -1   4  -3   34.94    1.18
   2  -4   3    0.11    0.07
  -2  -4  -3    0.04    0.10
   2   4   3    0.07    0.06
  -2   4  -3    0.07    0.07
   2   4   3    0.14    0.08
  -2   4  -3    0.00    0.09
  -2   4  -3   -0.01    0.06
  -3  -4  -3   -0.10    0.11
  -3   4  -3   -0.01    0.09
  -3   4  -3   -0.22    0.10
  -3   4  -3   -0.07    0.06
   3   4   3   -0.02    0.07
  -4  -4  -3    0.00    0.15
  -4   4  -3   -0.19    0.13
  -5  -4  -3    0.25    0.19
  -5   4  -3    0.32    0.18
  -6  -4  -3    0.18    0.22
  -6   4  -3    0.17    0.21
  -7  -4  -3   -0.22    0.23
  -7   4  -3   -0.22    0.22
  -8  -5   3    1.57    0.31
  -8   5   3    1.83    0.27
  -7  -5   3    3.61    0.39
  -7   5   3    3.79    0.32
  -6  -5   3    3.05    0.34
   5  -5  -3   16.35    0.78
  -5  -5   3   15.24    0.66
  -5   5   3   16.04    0.58
   4  -5  -3   25.41    1.02
  -4  -5   3   25.27    0.90
  -4   5   3   24.99    0.78
   4   5  -3   24.88    0.84
   4   5  -3   24.03    0.89
  -4   5   3   24.83    0.84
  -4   5   3   26.16    0.83
  -3  -5   3    7.42    0.35
   3  -5  -3    7.71    0.42
   3   5  -3    7.56    0.33
   3   5  -3    7.96    0.35
  -3   5   3    7.45    0.26
  -2  -5   3    6.51    0.31
   2  -5  -3    6.63    0.29
   2  -5  -3    6.72    0.35
  -2   5   3    6.38    0.22
  -2   5   3    6.06    0.24
  -2   5   3    6.01    0.26
   2   5  -3    6.70    0.30
   2   5  -3    6.94    0.31
  -2   5   3    5.54    0.25
   1  -5  -3   60.09    1.69
   1  -5  -3   58.04    2.02
  -1  -5   3   57.08    1.89
   1   5  -3   56.61    1.81
  -1   5   3   58.05    1.82
   1   5  -3   56.92    1.86
  -1   5   3   60.94    1.75
  -1   5   3   61.60    1.82
   0  -5   3    1.07    0.11
   0  -5  -3    0.78    0.10
   0  -5  -3    0.89    0.10
   0   5  -3    1.30    0.13
   0   5  -3    0.87    0.11
   0   5   3    1.12    0.10
   0   5   3    1.10    0.10
   0   5  -3    1.48    0.17
   0   5   3    0.94    0.11
  -1  -5  -3   57.86    1.89
  -1  -5  -3   60.63    1.70
   1  -5   3   58.76    1.71
   1  -5   3   59.92    1.86
  -1   5  -3   59.92    1.83
  -1   5  -3   58.90    1.88
   1   5   3   61.92    1.82
   1   5   3   59.71    1.88
  -1   5  -3   60.08    1.90
   2  -5   3  129.42    3.68
  -2  -5  -3  131.66    4.07
  -2   5  -3  132.84    4.06
   2   5   3  129.06    3.90
   2   5   3  128.95    4.05
  -2   5  -3  130.35    3.89
  -2   5  -3  131.70    4.03
  -3  -5  -3    4.36    0.29
   3   5   3    4.53    0.26
  -3   5  -3    4.63    0.24
  -3   5  -3    4.55    0.27
  -3   5  -3    4.62    0.24
  -4  -5  -3   23.87    0.91
  -4   5  -3   25.46    0.89
  -5  -5  -3   13.85    0.63
  -5   5  -3   12.94    0.58
  -6  -5  -3    5.73    0.45
  -6   5  -3    6.65    0.43
  -7  -5  -3    2.47    0.35
  -7   5  -3    2.40    0.32
  -8  -6   3    0.67    0.28
  -8   6   3    0.80    0.22
  -7  -6   3    5.28    0.44
  -7   6   3    5.29    0.34
  -6  -6   3   18.00    0.78
  -6   6   3   18.56    0.68
   5  -6  -3   34.08    1.38
  -5  -6   3   34.57    1.23
  -5   6   3   35.63    1.14
  -4  -6   3  100.04    3.25
   4  -6  -3  102.89    3.53
   4   6  -3  101.87    3.25
   4   6  -3  102.22    3.11
  -4   6   3  105.35    3.17
  -4   6   3  103.68    3.04
  -3  -6   3  218.60    6.88
   3  -6  -3  222.17    7.38
   3   6  -3  222.87    6.88
   3   6  -3  227.82    6.61
  -2  -6   3  517.69   16.14
   2  -6  -3  528.16   14.71
   2  -6  -3  510.65   17.16
  -2   6   3  527.32   15.34
   2   6  -3  511.40   16.15
   2   6  -3  529.62   15.46
  -1  -6   3  281.96    8.54
   1  -6  -3  279.96    7.75
   1  -6  -3  279.78    9.11
   1   6  -3  271.61    8.56
  -1   6   3  268.99    8.28
   1   6  -3  285.61    8.21
  -1   6   3  276.77    8.60
  -1   6   3  274.51    8.56
   0  -6  -3  218.41    6.03
   0  -6  -3  218.54    7.12
   0  -6   3  211.65    6.04
   0  -6   3  213.27    6.63
   0   6   3  217.40    6.44
   0   6  -3  214.38    6.40
   0   6  -3  219.21    6.65
   0   6  -3  208.63    6.62
   0   6   3  212.67    6.72
   0   6   3  219.12    6.63
   1  -6   3  365.92   10.42
  -1  -6  -3  371.53   11.38
  -1  -6  -3  381.70   10.40
   1  -6   3  372.62   11.37
  -1   6  -3  366.53   11.37
  -1   6  -3  362.88   10.89
   1   6   3  370.34   11.40
  -1   6  -3  353.06   11.41
   1   6   3  385.03   11.04
   2  -6   3   47.96    1.40
  -2  -6  -3   45.22    1.55
  -2   6  -3   46.82    1.48
  -2   6  -3   49.22    1.51
  -2   6  -3   47.52    1.55
   2   6   3   48.44    1.48
   3  -6   3   87.81    2.53
  -3  -6  -3   86.77    2.79
   3   6   3   87.87    2.67
  -3   6  -3   87.69    2.77
  -3   6  -3   87.92    2.74
  -4  -6  -3   27.56    0.98
  -4   6  -3   25.68    0.94
  -5  -6  -3    1.32    0.23
  -5   6  -3    1.04    0.21
  -6  -6  -3    1.88    0.29
  -6   6  -3    1.73    0.26
  -7  -6  -3    0.07    0.24
  -7   6  -3   -0.18    0.21
  -8  -7   3    1.59    0.33
  -8   7   3    1.77    0.24
  -7  -7   3    3.95    0.41
  -7   7   3    3.61    0.30
  -6  -7   3    5.74    0.42
  -6   7   3    6.32    0.32
  -5  -7   3   15.50    0.68
   5  -7  -3   15.32    0.79
  -5   7   3   16.97    0.57
  -4  -7   3   14.43    0.60
   4  -7  -3   14.77    0.70
   4   7  -3   14.33    0.56
   4   7  -3   14.64    0.59
  -3  -7   3    9.80    0.44
   3  -7  -3    9.66    0.42
   3  -7  -3    9.16    0.49
   3   7  -3   10.01    0.44
   3   7  -3   10.18    0.41
   2  -7  -3    2.39    0.20
   2  -7  -3    1.91    0.22
  -2  -7   3    2.24    0.22
   2   7  -3    2.35    0.22
   2   7  -3    2.36    0.21
   1  -7  -3   18.65    0.60
   1  -7  -3   17.75    0.72
  -1  -7   3   17.53    0.69
   1   7  -3   18.76    0.66
  -1   7   3   18.06    0.61
  -1   7   3   18.92    0.60
  -1   7   3   18.69    0.58
   1   7  -3   18.13    0.65
   0  -7  -3    5.51    0.35
   0  -7  -3    5.12    0.23
   0  -7   3    4.86    0.26
   0   7   3    5.03    0.24
   0   7   3    5.18    0.23
   0   7  -3    5.33    0.30
   0   7   3    4.98    0.22
   0   7  -3    5.20    0.31
   0   7  -3    6.19    0.27
  -1  -7  -3   35.09    1.18
   1  -7   3   36.89    1.09
  -1  -7  -3   37.92    1.07
   1   7   3   36.87    1.13
   1   7   3   36.80    1.18
  -1   7  -3   34.32    1.19
  -1   7  -3   35.78    1.18
  -1   7  -3   34.93    1.15
   2  -7   3   11.55    0.42
  -2  -7  -3   11.81    0.40
  -2  -7  -3   10.18    0.47
   2   7   3   11.18    0.44
  -2   7  -3   11.22    0.42
  -2   7  -3   11.21    0.44
  -2   7  -3   11.34    0.47
  -3  -7  -3   14.87    0.64
   3  -7   3   16.92    0.57
   3   7   3   14.90    0.59
  -3   7  -3   16.34    0.62
  -4  -7  -3   28.31    1.05
  -4   7  -3   29.21    1.01
   4   7   3   28.57    0.99
  -5  -7  -3   11.35    0.59
  -5   7  -3   12.26    0.55
  -6  -7  -3    4.45    0.44
  -6   7  -3    5.46    0.39
  -7  -7  -3    2.04    0.34
  -7   7  -3    2.06    0.29
  -8  -8   3   -0.18    0.26
  -8   8   3   -0.29    0.18
  -7  -8   3   -0.56    0.22
  -7   8   3   -0.22    0.15
  -6  -8   3   -0.06    0.19
  -5  -8   3   -0.22    0.16
   5  -8  -3    0.08    0.22
   4  -8  -3    0.04    0.17
  -4  -8   3   -0.11    0.14
   4   8  -3   -0.16    0.12
   4   8  -3   -0.02    0.10
   3  -8  -3    1.21    0.21
  -3  -8   3    0.95    0.16
   3  -8  -3    1.43    0.18
   3   8  -3    1.07    0.13
   3   8  -3    1.13    0.16
  -2  -8   3    1.16    0.15
   2  -8  -3    0.70    0.16
   2  -8  -3    0.81    0.14
   2   8  -3    0.59    0.13
   2   8  -3    0.72    0.12
   1  -8  -3   15.41    0.52
   1  -8  -3   14.30    0.62
  -1  -8   3   15.46    0.60
  -1   8   3   14.66    0.51
   1   8  -3   15.07    0.56
  -1   8   3   13.84    0.48
  -1   8   3   15.00    0.50
   1   8  -3   15.35    0.56
   0  -8   3   11.29    0.44
   0  -8  -3   11.99    0.41
   0  -8  -3   12.89    0.54
   0  -8  -3   11.06    0.42
   0   8   3   11.84    0.43
   0   8  -3   12.16    0.49
   0   8   3   11.16    0.41
   0   8  -3   10.77    0.45
   0   8  -3   11.53    0.48
   0   8   3   11.31    0.42
  -1  -8  -3    0.20    0.08
   1  -8   3    0.21    0.09
  -1  -8  -3    0.08    0.08
   1   8   3    0.13    0.06
  -1   8  -3    0.06    0.09
  -1   8  -3    0.23    0.07
  -1   8  -3   -0.04    0.08
   1   8   3    0.44    0.09
   2  -8   3    6.08    0.29
  -2  -8  -3    6.12    0.28
  -2  -8  -3    5.90    0.32
  -2   8  -3    5.93    0.28
  -2   8  -3    6.30    0.33
   2   8   3    5.73    0.30
  -2   8  -3    6.28    0.30
  -3  -8  -3    0.85    0.17
   3  -8   3    1.03    0.16
  -3   8  -3    1.18    0.18
   3   8   3    1.00    0.14
  -4  -8  -3    5.17    0.36
   4   8   3    4.88    0.31
  -4   8  -3    4.51    0.32
  -5  -8  -3   -0.04    0.19
  -5   8  -3   -0.16    0.17
  -6  -8  -3   -0.38    0.22
  -6   8  -3   -0.03    0.20
  -7  -8  -3    0.00    0.26
  -7   8  -3   -0.06    0.20
  -8  -9   3    0.48    0.29
  -7  -9   3    4.90    0.46
  -7   9   3    5.35    0.33
  -6  -9   3    2.63    0.32
  -6   9   3    4.18    0.25
  -5  -9   3    2.71    0.31
  -4  -9   3   17.04    0.70
   4  -9  -3   17.40    0.79
   4   9  -3   17.11    0.69
   4   9  -3   16.82    0.66
  -3  -9   3    0.27    0.14
   3  -9  -3    0.83    0.19
   3  -9  -3    0.41    0.15
   3   9  -3    0.37    0.11
   3   9  -3    0.28    0.13
  -2  -9   3    0.38    0.13
   2  -9  -3    0.45    0.15
   2  -9  -3    0.13    0.12
   2   9  -3    0.29    0.12
   1  -9  -3    7.23    0.31
   1  -9  -3    6.90    0.38
  -1  -9   3    6.67    0.36
   1   9  -3    6.77    0.33
   1   9  -3    6.71    0.32
  -1   9   3    6.29    0.25
  -1   9   3    6.33    0.26
  -1   9   3    6.54    0.27
   0  -9  -3    3.26    0.20
   0  -9  -3    3.15    0.18
   0  -9   3    3.78    0.23
   0  -9  -3    3.85    0.28
   0  -9   3    3.02    0.23
   0   9  -3    3.25    0.24
   0   9   3    2.95    0.18
   0   9  -3    3.18    0.25
   0   9   3    3.04    0.20
   0   9   3    3.02    0.19
   0   9  -3    3.41    0.22
  -1  -9  -3   21.29    0.68
   1  -9   3   21.91    0.71
  -1  -9  -3   20.80    0.74
  -1   9  -3   21.95    0.75
  -1   9  -3   20.61    0.76
  -1   9  -3   20.25    0.72
   1   9   3   21.96    0.71
   1   9   3   19.84    0.73
  -1   9  -3   21.64    0.75
   2  -9   3   67.32    1.96
  -2  -9  -3   67.73    1.94
  -2  -9  -3   67.81    2.14
   2   9   3   67.72    2.05
  -2   9  -3   64.20    2.14
  -2   9  -3   61.74    2.05
  -2   9  -3   68.75    2.11
  -3  -9  -3   11.43    0.51
   3  -9   3   10.84    0.46
  -3   9  -3   11.93    0.51
   3   9   3   11.10    0.47
  -4  -9  -3   26.24    1.00
   4  -9   3   25.80    0.92
   4   9   3   26.55    0.94
  -4   9  -3   28.15    0.97
  -5  -9  -3    6.97    0.46
  -5   9  -3    7.60    0.42
  -6  -9  -3    3.81    0.42
  -6   9  -3    3.87    0.35
  -7   9  -3    2.41    0.30
  -7 -10   3    5.23    0.46
  -6 -10   3   11.04    0.59
   5 -10  -3   30.32    1.31
  -5 -10   3   32.81    1.18
  -4 -10   3   92.03    2.86
   4 -10  -3   86.73    2.64
   4 -10  -3   84.99    3.08
   4  10  -3   87.77    2.84
   4  10  -3   88.49    2.73
   3 -10  -3  108.54    3.33
   3 -10  -3  115.90    3.92
  -3 -10   3  119.56    3.65
   3  10  -3  113.32    3.49
   3  10  -3  116.62    3.63
  -2 -10   3  185.35    5.70
   2 -10  -3  181.86    5.20
   2 -10  -3  178.20    6.08
  -2  10   3  175.79    5.63
   2  10  -3  186.43    5.68
   2  10  -3  187.83    5.48
  -2  10   3  184.08    5.38
   1 -10  -3  195.59    5.24
  -1 -10   3  185.06    5.76
   1 -10  -3  185.79    6.13
  -1  10   3  177.60    5.73
   1  10  -3  181.16    5.72
   1  10  -3  191.51    5.53
  -1  10   3  181.22    5.49
  -1  10   3  180.97    5.68
   0 -10   3  253.22    8.15
   0 -10   3  256.21    7.46
   0 -10  -3  266.35    8.72
   0 -10  -3  278.55    7.44
   0  10  -3  263.26    7.87
   0  10   3  271.91    8.23
   0  10   3  270.34    8.19
   0  10   3  273.09    7.92
   0  10  -3  262.12    8.18
   0  10  -3  254.35    8.15
  -1 -10  -3  182.14    5.03
   1 -10   3  168.24    5.05
  -1 -10  -3  190.50    5.51
  -1 -10  -3  181.80    5.94
  -1  10  -3  171.78    5.30
   1  10   3  176.66    5.50
   1  10   3  176.19    5.29
  -1  10  -3  175.34    5.51
  -1  10  -3  172.87    5.53
  -1  10  -3  184.66    5.34
  -2 -10  -3   79.89    2.55
   2 -10   3   80.23    2.34
  -2 -10  -3   80.46    2.32
  -2  10  -3   78.96    2.52
  -2  10  -3   78.99    2.55
   2  10   3   79.76    2.44
   3 -10   3   51.43    1.58
  -3 -10  -3   54.43    1.73
  -3 -10  -3   50.07    1.55
  -3  10  -3   50.03    1.71
   3  10   3   51.89    1.65
   4 -10   3   16.93    0.65
  -4 -10  -3   16.08    0.71
   4  10   3   15.81    0.65
  -4  10  -3   16.67    0.67
  -5 -10  -3    1.80    0.28
  -5  10  -3    1.97    0.24
  -6  10  -3    0.21    0.20
  -7 -11   3    1.22    0.30
   6 -11  -3    4.25    0.50
  -6 -11   3    6.26    0.46
  -5 -11   3    7.84    0.49
   5 -11  -3    7.50    0.55
   4 -11  -3    1.11    0.26
  -4 -11   3    0.96    0.20
   4 -11  -3    0.90    0.22
   4  11  -3    0.88    0.15
   4  11  -3    0.70    0.18
  -3 -11   3    0.69    0.18
   3 -11  -3    0.90    0.19
   3 -11  -3    0.85    0.21
   3  11  -3    0.68    0.17
   3  11  -3    0.70    0.14
   2 -11  -3    1.00    0.17
   2 -11  -3    1.09    0.20
  -2 -11   3    0.75    0.17
  -2  11   3    0.95    0.11
  -2  11   3    0.90    0.09
  -2  11   3    0.97    0.09
   2  11  -3    0.97    0.15
   2  11  -3    0.75    0.16
   1 -11  -3    0.86    0.16
  -1 -11   3    0.91    0.17
   1 -11  -3    1.23    0.20
  -1  11   3    0.92    0.09
  -1  11   3    0.91    0.10
   1  11  -3    1.01    0.15
   1  11  -3    1.02    0.15
  -1  11   3    1.07    0.12
   0 -11   3   12.87    0.55
   0 -11  -3   14.89    0.52
   0 -11  -3   14.22    0.62
   0 -11   3   13.17    0.54
   0  11   3   13.92    0.52
   0  11   3   13.63    0.50
   0  11   3   13.94    0.53
   0  11  -3   14.08    0.55
   0  11  -3   13.75    0.56
   1 -11   3   12.13    0.50
  -1 -11  -3   12.65    0.51
  -1 -11  -3   13.00    0.60
  -1 -11  -3   12.61    0.48
   1  11   3   12.32    0.49
  -1  11  -3   13.04    0.51
  -1  11  -3   12.56    0.53
   2 -11   3    4.90    0.31
  -2 -11  -3    5.77    0.29
  -2 -11  -3    4.87    0.34
  -2  11  -3    5.74    0.32
   2  11   3    5.05    0.31
  -3 -11  -3   14.44    0.66
   3 -11   3   15.67    0.60
  -3 -11  -3   14.96    0.57
  -3  11  -3   15.14    0.64
   3  11   3   14.61    0.60
   4 -11   3   14.86    0.62
  -4 -11  -3   13.61    0.66
   4  11   3   14.06    0.61
  -4  11  -3   15.00    0.63
  -5  11  -3    9.76    0.49
  -6  11  -3    2.01    0.26
   6 -12  -3   -0.09    0.28
   5 -12  -3    0.14    0.24
  -5 -12   3   -0.05    0.19
  -4 -12   3   -0.01    0.17
   4 -12  -3   -0.06    0.18
   4 -12  -3   -0.07    0.19
   4  12  -3    0.07    0.12
   4  12  -3   -0.11    0.15
  -3 -12   3   -0.06    0.14
   3 -12  -3    0.23    0.18
   3 -12  -3   -0.02    0.14
   3  12  -3    0.14    0.15
   3  12  -3    0.12    0.12
   2 -12  -3    0.30    0.16
   2 -12  -3    0.13    0.15
  -2 -12   3    0.17    0.14
  -2  12   3    0.30    0.08
  -2  12   3    0.23    0.06
  -2  12   3    0.29    0.07
   2  12  -3    0.41    0.13
   2  12  -3    0.24    0.13
  -1 -12   3    2.57    0.29
  -1 -12   3    3.76    0.31
   1 -12  -3    3.49    0.26
   1 -12  -3    3.63    0.31
   1  12  -3    3.14    0.27
  -1  12   3    2.75    0.22
  -1  12   3    3.03    0.18
   1  12  -3    3.12    0.25
  -1  12   3    2.86    0.19
   0 -12   3    0.47    0.15
   0 -12  -3    0.31    0.14
   0 -12  -3    0.60    0.17
   0  12   3    0.45    0.11
   0  12   3    0.26    0.09
   0  12  -3    0.39    0.13
   0  12  -3    0.28    0.12
  -1 -12  -3    0.32    0.13
   1 -12   3    0.39    0.14
  -1 -12  -3    0.48    0.17
  -1  12  -3    0.57    0.14
  -1  12  -3    0.17    0.13
   1  12   3    0.10    0.10
  -2 -12  -3    0.34    0.14
   2 -12   3    0.16    0.14
  -2  12  -3    0.35    0.14
  -2  12  -3    0.31    0.14
   2  12   3    0.03    0.10
  -3 -12  -3    0.30    0.16
   3 -12   3    0.36    0.17
   3  12   3    0.30    0.13
  -3  12  -3    0.04    0.16
   4 -12   3    0.64    0.21
  -4 -12  -3    0.36    0.18
   4  12   3    0.28    0.13
  -4  12  -3    0.28    0.19
  -5  12  -3    0.07    0.18
  -6  12  -3   -0.15    0.18
   6 -13  -3    3.77    0.50
   5 -13  -3    4.67    0.48
   4 -13  -3    2.17    0.29
   4 -13  -3    2.01    0.31
   4  13  -3    1.68    0.25
   4  13  -3    1.91    0.22
   3 -13  -3    0.83    0.23
   3 -13  -3    0.58    0.20
   3  13  -3    0.58    0.18
   3  13  -3    0.72    0.15
   2 -13  -3    0.69    0.19
   2 -13  -3    0.40    0.16
  -2  13   3    0.25    0.08
  -2  13   3    0.26    0.09
   2  13  -3    0.31    0.15
  -2  13   3    0.29    0.07
   2  13  -3    0.34    0.13
   1 -13  -3    0.12    0.14
   1 -13  -3   -0.05    0.15
  -1 -13   3    0.26    0.17
   1  13  -3    0.17    0.12
   1  13  -3    0.02    0.13
  -1  13   3    0.07    0.08
  -1  13   3   -0.09    0.07
   0 -13  -3    5.83    0.40
   0 -13   3    6.28    0.37
   0 -13  -3    6.05    0.33
   0  13  -3    5.98    0.36
   0  13  -3    6.25    0.34
   0  13   3    6.32    0.30
   1 -13   3   14.24    0.58
  -1 -13  -3   13.70    0.65
  -1 -13  -3   13.84    0.55
   1  13   3   14.43    0.55
  -1  13  -3   15.17    0.58
  -1  13  -3   14.99    0.59
   2 -13   3   12.79    0.54
  -2 -13  -3   12.10    0.50
  -2 -13  -3   11.57    0.65
   2  13   3   13.33    0.52
  -2  13  -3   13.22    0.54
  -2  13  -3   12.67    0.55
   3 -13   3   10.41    0.50
  -3 -13  -3   10.84    0.46
   3  13   3   10.64    0.48
  -3  13  -3    9.92    0.50
   4 -13   3    8.90    0.48
  -4 -13  -3    6.94    5.12
  -4 -13  -3    8.18    0.44
  -4  13  -3    8.98    0.48
   4  13   3    8.75    0.45
  -5  13  -3    8.06    0.45
  -6  13  -3    2.85    0.31
  -6 -14   3    5.42    4.98
   6 -14  -3    4.20    0.50
   5 -14  -3   16.04    0.85
   4 -14  -3   64.13    2.39
   4 -14  -3   61.78    2.04
   4  14  -3   68.33    2.11
   4  14  -3   65.65    2.19
   3 -14  -3   57.85    2.11
   3 -14  -3   57.03    1.81
   3  14  -3   57.57    1.87
   3  14  -3   57.79    1.94
   2 -14  -3   75.11    2.23
   2 -14  -3   75.87    2.59
   2  14  -3   74.18    2.40
  -2  14   3   71.70    2.29
  -2  14   3   71.81    2.21
   2  14  -3   71.94    2.32
   1 -14  -3  128.24    4.37
  -1 -14   3  128.94    3.80
   1 -14  -3  128.03    3.75
  -1  14   3  129.79    4.01
  -1  14   3  132.28    3.87
   1  14  -3  127.40    3.94
   1  14  -3  130.44    4.08
   0 -14  -3  125.62    3.65
   0 -14  -3  128.91    4.25
   0 -14   3  126.59    3.70
   0  14  -3  121.88    3.96
   0  14   3  130.21    3.79
   0  14  -3  123.13    3.84
  -1 -14  -3   76.14    2.19
   1 -14   3   73.36    2.23
  -1 -14  -3   75.14    2.55
   1  14   3   71.42    2.27
  -1  14  -3   71.27    2.36
  -1  14  -3   73.22    2.30
  -2 -14  -3   49.52    1.85
  -2 -14  -3   52.23    1.58
   2 -14   3   50.93    1.62
  -2  14  -3   52.01    1.71
   2  14   3   52.09    1.65
  -2  14  -3   50.64    1.67
   3 -14   3   21.78    0.83
  -3 -14  -3   22.26    0.79
  -3  14  -3   21.93    0.81
  -3  14  -3   21.48    0.84
   3  14   3   21.86    0.82
   4 -14   3    7.36    0.45
  -4 -14  -3    6.74    0.40
  -4 -14  -3    8.78    2.56
   4  14   3    6.82    0.41
  -4  14  -3    6.91    0.45
  -5 -14  -3   -5.53    5.65
  -6  14  -3   -0.04    0.18
   5 -15  -3    2.20    0.38
   4 -15  -3    3.30    0.41
   4 -15  -3    2.36    0.33
   4  15  -3    3.53    0.35
   4  15  -3    3.49    0.36
   3 -15  -3    0.07    0.19
   3 -15  -3    0.39    0.23
   3  15  -3    0.10    0.14
   3  15  -3   -0.08    0.17
   2 -15  -3    0.96    0.20
   2 -15  -3    1.11    0.24
  -2 -15   3    1.25    0.24
   2  15  -3    1.03    0.18
  -2  15   3    0.87    0.11
   2  15  -3    0.74    0.19
   1 -15  -3   -0.06    0.18
   1 -15  -3    0.20    0.17
  -1 -15   3    0.03    0.17
   1  15  -3   -0.05    0.14
  -1  15   3   -0.02    0.08
   1  15  -3    0.16    0.14
   0 -15   3    4.56    0.34
   0 -15  -3    4.02    0.37
   0 -15  -3    4.21    0.30
   0  15  -3    3.89    0.31
   0  15  -3    4.12    0.33
   0  15   3    4.06    0.27
  -1 -15  -3    3.56    0.37
  -1 -15  -3    4.14    0.30
   1 -15   3    3.67    0.33
  -1  15  -3    4.11    0.30
   1  15   3    4.38    0.29
  -1  15  -3    3.74    0.31
  -2 -15  -3    6.20    0.43
  -2 -15  -3    6.51    0.35
   2 -15   3    6.07    0.39
  -2  15  -3    5.85    0.37
   2  15   3    5.52    0.35
  -2  15  -3    6.30    0.36
  -3 -15  -3    7.13    0.40
   3 -15   3    7.01    0.43
  -3 -15  -3    7.25    0.53
  -3  15  -3    6.97    0.41
  -3  15  -3    7.21    0.41
   3  15   3    6.89    0.42
  -4 -15  -3    7.89    0.44
   4 -15   3    8.24    0.48
  -4  15  -3    7.04    0.46
   5 -15   3    2.04    0.34
  -5 -15  -3    0.16    5.89
  -5  15  -3    1.93    0.25
  -6  15  -3    1.63    0.24
  -6 -16   3   -1.83    4.97
   5 -16  -3   -0.07    0.26
   4 -16  -3    0.07    0.23
   4 -16  -3   -0.11    0.21
   4  16  -3    0.09    0.16
   3 -16  -3    0.10    0.20
   3 -16  -3    0.07    0.22
  -3  16   3    0.17    0.07
   3  16  -3    0.01    0.19
   3  16  -3    0.12    0.16
   2 -16  -3    0.28    0.19
  -2 -16   3    0.38    0.21
   2 -16  -3    0.65    0.22
  -2  16   3    0.27    0.09
   2  16  -3    0.41    0.19
   2  16  -3    0.35    0.16
  -1 -16   3    0.94    0.23
   1 -16  -3    0.68    0.19
   1 -16  -3    0.84    0.23
   1  16  -3    0.35    0.15
  -1  16   3    0.85    0.12
   1  16  -3    0.58    0.18
   0 -16  -3    1.07    0.20
   0 -16   3    1.32    0.24
   0 -16  -3    1.16    0.22
   0  16  -3    0.95    0.19
   0  16   3    0.98    0.14
   0  16  -3    0.94    0.18
   1 -16   3    0.12    0.16
  -1 -16  -3    0.45    0.19
  -1 -16  -3    0.30    0.15
   1  16   3   -0.17    0.10
  -1  16  -3    0.24    0.13
  -1  16  -3   -0.01    0.14
  -2 -16  -3    0.15    0.15
   2 -16   3    0.07    0.17
  -2 -16  -3    0.09    0.19
   2  16   3   -0.30    0.11
  -2  16  -3    0.09    0.15
  -2  16  -3   -0.08    0.13
  -3 -16  -3    0.03    0.16
   3 -16   3    0.14    0.18
  -3  16  -3    0.06    0.16
   3  16   3   -0.11    0.12
  -3  16  -3    0.06    0.14
  -4 -16  -3    9.35    5.03
  -5  16  -3    0.04    0.19
   5 -17  -3    3.58    0.42
   5 -17  -3    3.73    0.47
   4 -17  -3    0.62    0.27
   4 -17  -3    0.82    0.29
   4  17  -3    0.51    0.19
  -3 -17   3    2.92    0.35
   3 -17  -3    2.72    0.32
   3 -17  -3    3.09    0.39
  -3  17   3    2.07    0.18
   3  17  -3    2.33    0.27
   3  17  -3    2.79    0.32
  -2 -17   3   -0.11    0.19
   2 -17  -3    0.12    0.21
   2 -17  -3    0.29    0.19
   2  17  -3    0.06    0.15
  -2  17   3   -0.17    0.09
   2  17  -3   -0.04    0.17
   1 -17  -3    4.38    0.34
  -1 -17   3    4.35    0.37
   1 -17  -3    4.46    0.40
   1  17  -3    3.85    0.33
   1  17  -3    4.23    0.34
  -1  17   3    4.15    0.27
   0 -17  -3    1.84    0.26
   0 -17   3    1.84    0.27
   0 -17  -3    1.83    0.23
   0  17   3    2.28    0.22
   0  17  -3    1.60    0.21
   0  17  -3    1.65    0.22
  -1 -17  -3    6.18    0.43
   1 -17   3    5.29    0.39
  -1 -17  -3    5.23    0.35
  -1  17  -3    5.52    0.36
  -1  17  -3    5.65    0.36
   1  17   3    5.79    0.34
   2 -17   3    4.38    0.37
  -2 -17  -3    5.09    0.35
  -2  17  -3    4.53    0.33
   2  17   3    4.79    0.34
  -2  17  -3    5.09    0.34
  -3 -17  -3    5.84    0.39
   3 -17   3    5.77    0.42
  -3  17  -3    5.88    0.37
   3  17   3    5.75    0.39
  -3  17  -3    5.46    0.38
  -4 -17  -3   -1.63    5.15
  -4 -17  -3    4.95    0.38
   4 -17   3    4.77    0.42
  -4  17  -3    4.08    0.37
  -4  17  -3    4.94    0.36
  -5  17  -3    3.39    0.35
  -5  17  -3    3.14    0.33
   5 -18  -3    5.12    0.52
   5 -18  -3    4.90    0.46
   4 -18  -3   23.47    0.96
   4 -18  -3   22.55    1.08
   4  18  -3   23.77    0.95
  -3 -18   3   29.06    1.15
   3 -18  -3   31.42    1.30
   3 -18  -3   30.50    1.14
  -3  18   3   31.10    0.99
   3  18  -3   30.50    1.14
   3  18  -3   32.02    1.19
  -2 -18   3   45.84    1.63
   2 -18  -3   49.04    1.83
   2 -18  -3   47.03    1.59
   2  18  -3   49.91    1.70
  -2  18   3   50.59    1.53
   2  18  -3   47.91    1.63
   1 -18  -3   53.27    1.92
  -1 -18   3   50.99    1.73
   1 -18  -3   51.49    1.68
  -1  18   3   53.30    1.65
   1  18  -3   52.11    1.74
   1  18  -3   51.36    1.78
   0 -18  -3   33.70    1.27
   0 -18   3   32.12    1.18
   0 -18  -3   30.39    1.10
   0  18   3   33.86    1.10
   0  18  -3   32.07    1.17
   0  18  -3   32.40    1.15
  -1 -18  -3   42.34    1.42
  -1 -18  -3   48.00    1.64
   1 -18   3   41.76    1.48
  -1  18  -3   41.94    1.51
  -1  18  -3   45.07    1.48
   1  18   3   44.36    1.46
  -2 -18  -3   14.07    0.61
   2 -18   3   14.37    0.66
   2  18   3   14.21    0.61
  -2  18  -3   13.55    0.59
  -2  18  -3   13.30    0.61
  -3 -18  -3    9.78    0.50
   3 -18   3    9.20    0.55
  -3  18  -3    9.63    0.50
   3  18   3    9.95    0.52
  -3  18  -3   10.09    0.49
   4 -18   3    4.04    0.42
  -4  18  -3    3.70    0.34
  -4  18  -3    3.52    0.36
  -5  18  -3    0.71    0.20
  -5  18  -3    0.64    0.22
   5 -19  -3    0.39    0.30
   4 -19  -3    1.77    0.33
   4 -19  -3    2.21    0.38
  -4 -19   3    1.78    0.31
  -3 -19   3    0.98    0.28
   3 -19  -3    1.12    0.30
   3 -19  -3    0.70    0.25
   3  19  -3    0.37    0.23
  -3  19   3    0.65    0.12
   3  19  -3    0.62    0.20
   2 -19  -3    0.29    0.24
  -2 -19   3   -0.09    0.20
   2 -19  -3    0.33    0.20
   2  19  -3    0.06    0.16
   2  19  -3    0.33    0.21
  -2  19   3    0.09    0.11
   1 -19  -3    1.17    0.24
  -1 -19   3    0.62    0.24
   1 -19  -3    1.02    0.25
   1  19  -3    0.85    0.20
   1  19  -3    0.77    0.21
  -1  19   3    0.75    0.14
   0 -19  -3    1.04    0.22
   0 -19  -3    1.25    0.26
   0 -19   3    1.05    0.25
   0  19  -3    0.83    0.19
   0  19   3    0.96    0.16
   0  19  -3    0.61    0.20
   1 -19   3    4.50    0.40
  -1 -19  -3    4.29    0.35
   1  19   3    4.67    0.34
  -1  19  -3    4.57    0.35
  -1  19  -3    4.77    0.36
  -2 -19  -3    2.71    0.30
   2 -19   3    2.79    0.34
  -2  19  -3    3.01    0.31
   2  19   3    2.55    0.26
  -2  19  -3    2.95    0.30
  -3 -19  -3    1.28    0.23
   3 -19   3    0.92    0.26
   3  19   3    0.57    0.18
  -3  19  -3    0.92    0.21
  -3  19  -3    0.48    0.17
   4 -19   3    3.16    0.39
  -4  19  -3    2.83    0.31
  -4  19  -3    3.17    0.34
  -5  19  -3    1.10    0.21
   5 -20  -3   -0.04    0.28
   4 -20  -3    0.07    0.25
  -4 -20   3   -0.05    0.23
   4 -20  -3    0.28    0.28
  -3 -20   3   -0.03    0.23
   3 -20  -3    0.06    0.25
   3 -20  -3    0.05    0.23
   3  20  -3   -0.13    0.22
  -3  20   3    0.21    0.10
   3  20  -3    0.14    0.18
   2 -20  -3   -0.11    0.20
  -2 -20   3   -0.17    0.20
   2 -20  -3    0.09    0.23
   2  20  -3    0.15    0.17
  -2  20   3   -0.21    0.10
   2  20  -3   -0.04    0.19
   1 -20  -3    0.18    0.20
   1 -20  -3   -0.10    0.21
  -1 -20   3   -0.06    0.20
  -1  20   3   -0.13    0.10
   1  20  -3    0.02    0.15
   1  20  -3   -0.11    0.17
   0 -20  -3    1.44    0.24
   0 -20   3    1.20    0.26
   0  20  -3    0.80    0.22
   0  20  -3    1.30    0.21
   0  20   3    1.12    0.18
   1 -20   3    0.86    0.24
  -1 -20  -3    0.56    0.20
   1  20   3    0.40    0.16
  -1  20  -3    0.52    0.20
  -1  20  -3    0.65    0.18
   2 -20   3    0.30    0.23
  -2 -20  -3    0.25    0.18
  -2  20  -3    0.15    0.17
   2  20   3   -0.19    0.13
  -2  20  -3   -0.11    0.15
   3 -20   3   -0.04    0.23
  -3 -20  -3    0.18    0.19
  -3  20  -3    0.26    0.18
   3  20   3   -0.37    0.13
  -3  20  -3    0.05    0.15
  -4  20  -3    0.24    0.19
  -4  20  -3    0.11    0.16
   4 -21  -3    0.03    0.28
   3 -21  -3    0.78    0.29
   3 -21  -3    0.68    0.27
  -3 -21   3    0.54    0.26
   3  21  -3    0.24    0.24
   3  21  -3    0.74    0.22
  -3  21   3    0.65    0.13
   2 -21  -3    0.01    0.23
   2 -21  -3    0.10    0.22
  -2 -21   3    0.17    0.24
  -2  21   3   -0.05    0.11
   2  21  -3   -0.03    0.21
   2  21  -3   -0.15    0.16
  -1 -21   3    0.41    0.23
   1 -21  -3    0.36    0.22
   1 -21  -3    0.34    0.24
   1  21  -3    0.63    0.22
   1  21  -3    0.49    0.19
  -1  21   3    0.38    0.14
   0 -21   3    0.09    0.21
   0 -21  -3    0.04    0.19
   0  21   3    0.21    0.13
   0  21  -3   -0.02    0.16
   0  21  -3    0.13    0.19
   1 -21   3    3.05    0.37
  -1 -21  -3    2.37    0.30
  -1  21  -3    2.58    0.30
  -1  21  -3    2.55    0.30
   1  21   3    3.06    0.30
   2 -21   3    2.60    0.38
  -2 -21  -3    2.78    0.32
  -2  21  -3    2.93    0.31
  -2  21  -3    3.64    0.34
   2  21   3    2.52    0.27
  -3 -21  -3    3.74    0.37
   3 -21   3    2.71    0.38
   3  21   3    3.49    0.36
  -3  21  -3    2.65    0.31
  -3  21  -3    3.35    0.34
  -4  21  -3    2.64    0.30
   4 -22  -3    7.34    0.62
   3 -22  -3   10.81    0.70
   3  22  -3   11.16    0.61
   3  22  -3   10.10    0.62
  -3  22   3   11.21    0.46
  -2 -22   3   13.26    0.73
   2 -22  -3   15.93    0.79
   2 -22  -3   13.45    0.70
   2  22  -3   14.02    0.71
   2  22  -3   14.46    0.69
  -2  22   3   14.21    0.58
   1 -22  -3   16.11    0.75
  -1 -22   3   16.88    0.82
   1  22  -3   17.08    0.77
   1  22  -3   16.87    0.74
  -1  22   3   17.10    0.67
   0 -22   3   17.15    0.83
   0 -22  -3   16.77    0.75
   0  22  -3   17.17    0.77
   0  22   3   17.27    0.71
   0  22  -3   17.87    0.75
  -1 -22  -3   16.99    0.74
   1 -22   3   15.83    0.80
  -1  22  -3   17.16    0.76
   1  22   3   17.25    0.72
  -1  22  -3   15.97    0.70
  -2 -22  -3    5.97    0.44
   2 -22   3    5.65    0.49
  -2  22  -3    5.75    0.42
  -2  22  -3    5.98    0.39
   2  22   3    5.82    0.43
  -3 -22  -3    3.88    0.38
  -3  22  -3    3.23    0.33
   3  22   3    4.03    0.38
  -3  22  -3    3.59    0.36
   4 -23  -3    0.17    0.28
   3 -23  -3    0.34    0.27
  -3  23   3    0.24    0.12
   3  23  -3    0.21    0.24
   3  23  -3    0.17    0.19
  -2  23   3   -0.06    0.12
   2  23  -3   -0.05    0.22
   2  23  -3   -0.12    0.16
   1 -23  -3    0.02    0.22
   1  23  -3   -0.33    0.20
   1  23  -3   -0.08    0.17
  -1  23   3   -0.16    0.12
   0 -23  -3    0.29    0.22
   0 -23   3    0.39    0.27
   0  23  -3    0.23    0.18
   0  23   3    0.15    0.15
   0  23  -3    0.21    0.22
  -1 -23  -3    2.17    0.30
  -1  23  -3    1.51    0.24
   1  23   3    1.53    0.23
  -1  23  -3    1.84    0.29
  -2  23  -3    1.20    0.25
   2  23   3    0.74    0.21
  -2  23  -3    0.63    0.18
  -3  23  -3    0.86    0.19
   3  23   3    0.86    0.22
   3  24  -3   -0.25    0.18
   3  24  -3   -0.54    0.21
  -3  24   3   -0.12    0.11
   2  24  -3   -0.37    0.21
   2  24  -3   -0.11    0.16
  -2  24   3   -0.02    0.12
   1  24  -3    0.09    0.23
   1  24  -3   -0.12    0.17
  -1  24   3   -0.24    0.13
   0  24   3   -0.03    0.15
   0  24  -3   -0.02    0.18
   0  24  -3   -0.10    0.21
  -1  24  -3   -0.13    0.20
   1  24   3   -0.08    0.15
  -1  24  -3   -0.09    0.16
  -2  24  -3    0.20    0.16
   2  24   3   -0.04    0.16
   3  24   3   -0.03    0.17
   3  25  -3   -0.31    0.18
   2  25  -3   -0.29    0.23
   2  25  -3   -0.15    0.18
   1  25  -3    0.04    0.22
   1  25  -3    0.23    0.19
  -1  25   3   -0.06    0.13
   0  25  -3    0.50    0.20
   0  25   3    0.57    0.18
   1  25   3    0.94    0.21
  -1  25  -3    0.85    0.21
  -8   0   4    4.33    0.42
  -7   0   4   18.47    0.79
  -6   0   4   75.09    2.45
  -5   0   4   31.78    1.09
   5   0  -4   30.03    1.22
  -4   0   4  112.36    3.57
   4   0  -4  116.06    3.86
   3   0  -4   57.43    1.77
  -3   0   4   57.77    1.80
  -3   0   4   59.11    1.89
   3   0  -4   58.75    1.87
   3   0  -4   59.61    2.02
  -3   0   4   59.96    1.87
   2   0  -4   18.51    0.72
  -2   0   4   18.28    0.67
  -2   0   4   18.50    0.66
  -2   0   4   19.60    0.64
  -2   0   4   18.15    0.65
   1   0  -4  373.02   10.77
  -1   0   4  338.05   10.81
   1   0  -4  354.53   10.29
  -1   0   4  347.79   10.72
   1   0  -4  306.20   11.45
  -1   0   4  364.81   10.35
   0   0  -4  101.90    3.43
   0   0   4  118.82    3.30
   0   0   4  111.16    3.43
  -1   0  -4    0.72    0.11
   1   0   4    0.96    0.10
   1   0   4    0.75    0.10
   2   0   4   28.14    0.88
  -2   0  -4   26.52    0.92
   2   0   4   25.83    0.90
  -3   0  -4    1.20    0.17
   3   0   4    1.30    0.13
  -4   0  -4   23.07    0.87
  -5   0  -4   24.59    0.96
  -6   0  -4    4.13    0.40
  -7   0  -4    2.27    0.32
  -8  -1   4    0.12    0.22
  -8   1   4    0.18    0.21
  -7  -1   4    0.31    0.20
  -7   1   4    0.19    0.18
  -6  -1   4    4.28    0.36
  -6   1   4    3.95    0.33
   5  -1  -4   37.63    1.47
  -5  -1   4   38.69    1.31
  -5   1   4   38.57    1.30
  -4  -1   4   21.93    0.77
   4  -1  -4   22.30    0.88
   4   1  -4   22.56    0.86
  -4   1   4   21.06    0.75
  -4   1   4   19.36    0.77
  -3  -1   4   67.47    2.10
  -3  -1   4   67.15    2.12
   3  -1  -4   64.00    2.27
  -3   1   4   66.30    2.04
  -3   1   4   66.07    2.11
  -3   1   4   67.28    2.09
  -3   1   4   64.97    2.01
   3   1  -4   66.16    2.25
   3   1  -4   65.91    1.99
   2  -1  -4  162.57    4.76
   2  -1  -4  161.17    4.95
  -2  -1   4  163.80    4.98
  -2  -1   4  165.24    4.80
   2  -1  -4  159.41    5.32
  -2  -1   4  158.44    4.98
  -2   1   4  161.58    4.98
  -2   1   4  156.95    4.79
  -2   1   4  161.86    4.96
   2   1  -4  152.21    5.29
   2   1  -4  163.20    4.97
  -2   1   4  165.28    4.77
   2   1  -4  159.47    4.78
   1  -1  -4   23.99    0.75
  -1  -1   4   21.53    0.73
   1  -1  -4   22.90    0.76
   1  -1  -4   21.29    0.85
  -1  -1   4   21.92    0.78
  -1   1   4   20.94    0.76
  -1   1   4   22.34    0.75
  -1   1   4   22.34    0.71
   1   1  -4   22.39    0.77
   1   1  -4   23.11    0.77
   0  -1   4  144.42    4.57
   0  -1   4  146.18    4.40
   0  -1  -4  144.66    4.57
   0   1  -4  147.43    4.58
   0   1   4  150.69    4.14
   0   1   4  158.01    4.40
   0   1   4  146.47    4.57
   1  -1   4  187.53    5.76
   1  -1   4  201.27    5.55
  -1  -1  -4  181.03    5.77
   1   1   4  190.20    5.55
  -1   1  -4  181.28    5.78
   1   1   4  183.06    5.76
   2  -1   4  151.42    4.71
   2  -1   4  153.49    4.55
  -2  -1  -4  150.22    4.73
   2   1   4  156.74    4.55
  -2   1  -4  150.68    4.73
   2   1   4  152.89    4.72
  -3  -1  -4   59.26    1.96
   3   1   4   62.03    1.87
  -3   1  -4   59.90    1.96
  -4  -1  -4   17.43    0.69
  -4   1  -4   16.88    0.69
  -5  -1  -4    8.87    0.50
  -5   1  -4    8.84    0.49
  -6  -1  -4    1.57    0.29
  -6   1  -4    1.56    0.28
  -7  -1  -4    0.33    0.25
  -7   1  -4    0.12    0.23
  -8  -2   4    0.08    0.22
  -8   2   4   -0.25    0.19
  -7  -2   4    0.08    0.19
  -7   2   4    0.22    0.18
  -6  -2   4    0.15    0.18
  -6   2   4    0.35    0.17
  -5  -2   4    0.01    0.15
   5  -2  -4    0.15    0.22
  -5   2   4    0.10    0.13
  -4  -2   4    0.01    0.11
   4  -2  -4    0.21    0.16
   4   2  -4    0.09    0.11
   4   2  -4   -0.03    0.13
  -4   2   4    0.04    0.10
   4   2  -4    0.01    0.07
  -4   2   4    0.08    0.10
  -4   2   4    0.16    0.08
  -3  -2   4    3.77    0.23
   3  -2  -4    3.86    0.28
  -3  -2   4    3.63    0.25
  -3   2   4    3.63    0.23
  -3   2   4    3.10    0.21
   3   2  -4    2.84    0.21
  -3   2   4    3.47    0.20
  -3   2   4    3.64    0.21
   3   2  -4    3.68    0.25
  -2  -2   4    0.56    0.10
   2  -2  -4    0.61    0.08
  -2  -2   4    0.53    0.13
   2  -2  -4    0.49    0.15
   2   2  -4    0.62    0.12
  -2   2   4    0.67    0.09
  -2   2   4    0.55    0.08
  -2   2   4    0.57    0.10
   2   2  -4    0.52    0.10
  -2   2   4    0.62    0.12
   1  -2  -4    7.89    0.42
  -1  -2   4    7.78    0.37
  -1  -2   4    7.95    0.33
   1   2  -4    7.79    0.35
  -1   2   4    8.47    0.30
  -1   2   4    7.96    0.32
   1   2  -4    8.25    0.37
  -1   2   4    7.79    0.33
   0  -2   4   26.89    0.91
   0  -2  -4   26.57    0.90
   0  -2   4   26.91    0.87
   0   2   4   28.41    0.86
   0   2   4   25.46    0.78
   0   2   4   27.69    0.89
   0   2  -4   27.67    0.92
  -1  -2  -4   -0.08    0.08
   1  -2   4   -0.07    0.06
   1   2   4    0.04    0.07
  -1   2  -4   -0.16    0.08
   1   2   4    0.01    0.06
   2  -2   4    2.30    0.18
   2  -2   4    2.22    0.17
  -2  -2  -4    2.17    0.21
  -2   2  -4    2.32    0.22
   2   2   4    3.15    0.20
   2   2   4    2.50    0.20
  -3  -2  -4    1.06    0.17
   3  -2   4    1.04    0.12
   3   2   4    1.32    0.14
  -3   2  -4    1.08    0.17
  -4  -2  -4    0.48    0.18
  -4   2  -4   -0.01    0.16
  -5  -2  -4    0.70    0.22
  -5   2  -4    0.41    0.20
  -6  -2  -4   -0.18    0.22
  -6   2  -4   -0.08    0.21
  -7  -2  -4   -0.20    0.22
  -7   2  -4   -0.14    0.23
  -8  -3   4    0.02    0.23
  -8   3   4   -0.24    0.19
  -7  -3   4    0.11    0.20
  -7   3   4   -0.16    0.16
  -6  -3   4    3.75    0.35
  -6   3   4    4.12    0.32
  -5  -3   4   21.12    0.80
   5  -3  -4   21.30    0.93
  -5   3   4   20.33    0.76
  -4  -3   4   22.97    0.83
   4  -3  -4   23.09    0.94
   4   3  -4   23.14    0.89
  -4   3   4   22.67    0.75
  -4   3   4   22.72    0.82
  -4   3   4   23.80    0.79
  -3  -3   4   65.01    2.10
   3  -3  -4   66.88    2.27
   3   3  -4   65.95    2.21
   3   3  -4   63.91    2.00
  -3   3   4   62.93    1.98
   3   3  -4   67.53    2.11
  -3   3   4   66.38    2.08
  -3   3   4   65.10    2.06
  -3   3   4   66.80    2.00
  -2  -3   4  130.16    4.24
   2  -3  -4  135.40    4.53
   2   3  -4  142.40    4.07
   2   3  -4  133.28    4.47
  -2   3   4  139.07    4.03
  -2   3   4  132.87    4.22
   2   3  -4  139.90    4.24
  -2   3   4  134.44    4.06
  -2   3   4  136.32    4.19
  -1  -3   4  215.64    6.84
  -1  -3   4  228.33    6.57
   1  -3  -4  213.52    7.30
  -1   3   4  219.64    6.89
  -1   3   4  226.63    6.82
   1   3  -4  219.25    6.58
  -1   3   4  228.59    6.63
   1   3  -4  220.32    6.82
   0  -3   4  143.42    4.40
   0  -3  -4  141.61    3.96
   0  -3  -4  144.73    4.38
   0  -3   4  139.42    4.23
   0   3   4  144.14    4.37
   0   3  -4  135.20    4.40
   0   3   4  144.90    4.21
   0   3   4  142.19    3.96
   1  -3   4  151.40    4.37
   1  -3   4  164.97    4.66
  -1  -3  -4  153.42    4.84
   1  -3   4  155.86    4.82
   1   3   4  150.56    4.83
  -1   3  -4  156.67    4.83
   1   3   4  163.27    4.65
  -1   3  -4  156.29    4.85
   2  -3   4  140.08    3.72
  -2  -3  -4  129.88    4.13
  -2   3  -4  133.80    4.10
   2   3   4  128.39    4.11
   2   3   4  134.44    3.96
  -2   3  -4  129.35    3.70
  -2   3  -4  131.10    4.13
  -3  -3  -4   43.51    1.49
   3   3   4   45.29    1.42
  -3   3  -4   45.24    1.49
  -4  -3  -4   20.33    0.80
  -4   3  -4   20.18    0.78
  -5  -3  -4    7.36    0.47
  -5   3  -4    7.92    0.46
  -6  -3  -4    1.70    0.29
  -6   3  -4    1.97    0.29
  -7  -3  -4    0.08    0.24
  -7   3  -4    0.35    0.25
  -8  -4   4    5.98    0.50
  -8   4   4    5.56    0.42
  -7  -4   4   17.00    0.77
  -7   4   4   16.63    0.70
  -6  -4   4   35.05    1.28
  -6   4   4   35.65    1.22
  -5  -4   4   45.29    1.55
   5  -4  -4   45.38    1.73
  -5   4   4   46.05    1.49
   4  -4  -4  111.01    3.80
  -4  -4   4  114.09    3.51
  -4   4   4  109.62    3.32
  -4   4   4  112.84    3.46
   4   4  -4  111.87    3.35
  -4   4   4  110.35    3.48
   4   4  -4  109.19    3.51
   3  -4  -4  110.26    3.82
  -3  -4   4  109.08    3.55
  -3   4   4  110.79    3.37
   3   4  -4  115.37    3.56
  -3   4   4  116.15    3.38
   3   4  -4  116.61    3.41
  -3   4   4  117.29    3.51
   3   4  -4  113.67    3.75
  -3   4   4  110.89    3.51
   2  -4  -4   61.52    2.15
  -2  -4   4   58.55    2.00
  -2   4   4   60.78    1.98
   2   4  -4   61.83    2.07
   2   4  -4   66.28    2.01
  -2   4   4   66.19    1.87
  -2   4   4   66.57    1.95
   2   4  -4   58.22    1.92
  -2   4   4   60.11    1.91
   1  -4  -4   90.98    2.48
   1  -4  -4   83.27    2.96
  -1  -4   4   82.97    2.76
   1  -4  -4   89.58    2.69
   1  -4  -4   82.30    2.63
  -1  -4   4   89.36    2.65
  -1   4   4   88.90    2.70
  -1   4   4   88.06    2.71
   1   4  -4   87.15    2.75
  -1   4   4   91.63    2.60
   1   4  -4   82.95    2.66
   0  -4   4   16.08    0.57
   0  -4  -4   16.12    0.48
   0  -4  -4   13.57    0.54
   0  -4   4   15.25    0.55
   0   4   4   16.08    0.52
   0   4   4   15.52    0.54
   0   4   4   15.36    0.54
   0   4   4   14.41    0.47
   0   4  -4   15.07    0.58
   1  -4   4    0.45    0.09
  -1  -4  -4    0.40    0.06
  -1  -4  -4    0.26    0.10
   1  -4   4    0.52    0.07
   1  -4   4    0.35    0.08
   1   4   4    0.51    0.08
   1   4   4    0.16    0.09
  -1   4  -4    0.22    0.09
  -1   4  -4    0.19    0.11
  -2  -4  -4    4.31    0.27
   2  -4   4    4.41    0.25
   2  -4   4    4.66    0.23
   2  -4   4    5.75    0.21
   2   4   4    4.72    0.25
  -2   4  -4    3.99    0.28
  -2   4  -4    4.93    0.26
   2   4   4    4.72    0.27
  -3  -4  -4   17.27    0.69
   3   4   4   18.09    0.64
  -3   4  -4   18.38    0.68
  -4  -4  -4    7.82    0.44
  -4   4  -4    8.36    0.43
  -5  -4  -4   12.19    0.62
  -5   4  -4   12.91    0.59
  -6  -4  -4    7.21    0.50
  -6   4  -4    6.88    0.46
  -7  -4  -4    1.54    0.32
  -7   4  -4    2.17    0.32
  -8  -5   4   -0.40    0.23
  -8   5   4   -0.15    0.18
  -7  -5   4    1.65    0.28
  -7   5   4    1.37    0.21
  -6  -5   4    1.41    0.25
   6  -5  -4    1.85    0.34
  -6   5   4    1.72    0.20
  -5  -5   4   10.18    0.51
   5  -5  -4   10.59    0.61
  -5   5   4   11.03    0.44
   4  -5  -4   20.93    0.88
  -4  -5   4   19.93    0.76
  -4   5   4   20.37    0.72
  -4   5   4   19.86    0.70
   4   5  -4   19.52    0.70
  -4   5   4   20.71    0.69
  -4   5   4   19.42    0.65
   4   5  -4   19.75    0.76
  -3  -5   4   51.37    1.67
   3  -5  -4   50.52    1.81
  -3   5   4   51.08    1.54
   3   5  -4   52.76    1.67
   3   5  -4   51.04    1.59
  -3   5   4   49.40    1.61
  -3   5   4   51.25    1.60
  -3   5   4   48.56    1.54
   2  -5  -4  222.36    7.60
  -2  -5   4  231.98    7.12
  -2   5   4  227.26    7.07
   2   5  -4  234.92    6.84
  -2   5   4  229.67    6.88
  -2   5   4  241.42    7.12
   2   5  -4  224.39    7.10
  -1  -5   4  143.85    4.46
   1  -5  -4  136.38    4.76
   1  -5  -4  141.01    4.01
   1  -5  -4  144.18    4.37
  -1   5   4  147.07    4.47
   1   5  -4  135.20    4.43
  -1   5   4  138.32    4.38
  -1   5   4  152.23    4.28
   1   5  -4  144.07    4.29
   0  -5  -4  111.71    3.20
   0  -5   4  118.77    3.43
   0  -5   4  112.03    3.56
   0  -5  -4  115.14    3.53
   0   5  -4  111.78    3.57
   0   5   4  111.24    3.53
   0   5   4  115.40    3.53
   0   5   4  114.09    3.39
   0   5  -4  114.94    3.45
   1  -5   4   60.77    1.79
  -1  -5  -4   64.11    1.78
  -1  -5  -4   61.82    1.99
   1   5   4   62.57    1.98
  -1   5  -4   64.25    2.02
   1   5   4   62.08    1.91
  -1   5  -4   62.44    1.98
  -2  -5  -4  137.86    4.43
  -2  -5  -4  137.60    3.98
   2  -5   4  143.74    4.00
   2   5   4  145.52    4.25
  -2   5  -4  143.53    4.44
   2   5   4  145.40    4.42
  -2   5  -4  146.99    4.40
  -2   5  -4  136.72    4.25
  -3  -5  -4   29.00    1.05
   3   5   4   30.29    0.99
  -3   5  -4   29.88    1.04
  -4  -5  -4    6.47    0.41
  -4   5  -4    6.78    0.38
  -5  -5  -4   17.03    0.74
  -5   5  -4   16.16    0.71
  -6  -5  -4    1.77    0.29
  -6   5  -4    1.58    0.27
  -7  -5  -4    0.24    0.25
  -7   5  -4    0.24    0.24
  -8  -6   4   -0.02    0.25
  -8   6   4    0.19    0.18
  -7  -6   4   -0.14    0.20
  -7   6   4    0.19    0.16
   6  -6  -4    0.44    0.26
  -6  -6   4   -0.03    0.17
  -6   6   4    0.17    0.13
  -5  -6   4   -0.06    0.14
   5  -6  -4    0.28    0.21
  -5   6   4    0.08    0.10
   4  -6  -4    2.86    0.32
  -4  -6   4    2.40    0.26
  -4   6   4    2.54    0.22
  -4   6   4    2.50    0.20
  -4   6   4    2.56    0.18
  -4   6   4    2.38    0.14
   4   6  -4    2.25    0.26
   3  -6  -4    7.51    0.43
  -3  -6   4    6.93    0.37
   3   6  -4    7.52    0.38
  -3   6   4    7.58    0.31
   3   6  -4    7.13    0.35
  -3   6   4    7.79    0.30
  -3   6   4    7.54    0.28
  -3   6   4    7.11    0.30
   2  -6  -4    6.93    0.32
   2  -6  -4    7.45    0.42
  -2  -6   4    6.44    0.36
  -2   6   4    6.80    0.30
   2   6  -4    7.09    0.35
   2   6  -4    7.04    0.35
  -2   6   4    6.98    0.26
  -2   6   4    6.81    0.28
   1  -6  -4    2.84    0.31
   1  -6  -4    3.18    0.19
  -1  -6   4    3.11    0.27
  -1   6   4    3.43    0.19
   1   6  -4    3.02    0.23
   1   6  -4    3.03    0.26
  -1   6   4    2.96    0.18
  -1   6   4    3.13    0.16
   0  -6  -4    1.31    0.14
   0  -6   4    1.36    0.15
   0  -6  -4    1.00    0.23
   0  -6  -4    1.22    0.13
   0   6  -4    1.19    0.16
   0   6   4    1.26    0.14
   0   6   4    1.43    0.15
   0   6   4    1.43    0.13
   0   6  -4    1.50    0.18
   1  -6   4    0.28    0.08
  -1  -6  -4    0.10    0.09
   1  -6   4    0.43    0.09
  -1  -6  -4    0.13    0.07
  -1   6  -4    0.11    0.11
  -1   6  -4    0.17    0.09
   1   6   4    0.34    0.08
   1   6   4    0.13    0.08
  -2  -6  -4    0.08    0.12
  -2  -6  -4    0.08    0.08
   2  -6   4    0.18    0.09
   2   6   4    0.08    0.10
  -2   6  -4   -0.07    0.13
  -2   6  -4   -0.06    0.07
   2   6   4    0.07    0.08
  -2   6  -4   -0.06    0.09
   3  -6   4    0.30    0.12
  -3  -6  -4    0.11    0.15
   3   6   4    0.29    0.11
  -3   6  -4    0.41    0.15
  -4  -6  -4   -0.34    0.15
  -4   6  -4   -0.05    0.15
  -5  -6  -4    1.02    0.24
  -5   6  -4    1.16    0.23
  -6  -6  -4   -0.26    0.22
  -6   6  -4    0.02    0.20
  -7  -6  -4   -0.07    0.25
  -7   6  -4    0.17    0.23
  -8  -7   4   -0.21    0.25
  -8   7   4   -0.15    0.16
  -7  -7   4    0.40    0.25
  -7   7   4    0.42    0.17
   6  -7  -4    4.00    0.46
  -6  -7   4    3.46    0.35
  -6   7   4    3.86    0.27
   5  -7  -4    5.43    0.47
  -5  -7   4    6.54    0.40
  -5   7   4    6.42    0.30
   4  -7  -4   22.57    0.95
  -4  -7   4   22.10    0.84
  -4   7   4   21.52    0.71
  -4   7   4   22.61    0.76
   4   7  -4   21.19    0.82
   4   7  -4   23.08    0.79
  -4   7   4   20.83    0.72
  -4   7   4   22.44    0.74
  -3  -7   4   51.62    1.68
   3  -7  -4   51.26    1.82
   3   7  -4   51.26    1.60
  -3   7   4   48.55    1.54
  -3   7   4   49.58    1.60
   3   7  -4   49.97    1.67
  -3   7   4   50.41    1.52
   2  -7  -4  163.70    4.62
  -2  -7   4  164.13    5.08
   2  -7  -4  161.39    5.43
  -2   7   4  169.26    5.01
  -2   7   4  163.26    5.00
   2   7  -4  157.75    5.06
  -2   7   4  162.90    4.85
   2   7  -4  159.46    4.88
  -1  -7   4  148.51    4.68
   1  -7  -4  150.81    4.23
   1  -7  -4  146.74    5.00
   1   7  -4  151.78    4.51
  -1   7   4  145.71    4.60
  -1   7   4  151.13    4.50
   1   7  -4  145.07    4.66
  -1   7   4  157.20    4.64
   0  -7   4   97.86    2.80
   0  -7  -4   97.40    2.76
   0  -7   4   95.54    3.06
   0  -7  -4   95.41    3.33
   0   7   4  100.03    2.91
   0   7   4  100.54    3.03
   0   7  -4   92.38    3.06
   0   7  -4   96.18    2.98
   0   7   4   98.84    3.02
   1  -7   4  114.67    3.44
  -1  -7  -4  112.52    3.13
  -1  -7  -4  102.80    3.46
   1  -7   4  110.39    3.16
   1   7   4  116.00    3.47
  -1   7  -4  109.75    3.36
  -1   7  -4  108.61    3.49
   1   7   4  116.09    3.34
  -1   7  -4  107.91    3.47
  -2  -7  -4  128.37    3.59
   2  -7   4  128.44    3.61
  -2  -7  -4  119.66    3.98
  -2   7  -4  124.46    4.00
   2   7   4  125.99    3.97
   2   7   4  133.95    3.83
  -2   7  -4  123.25    3.83
  -2   7  -4  133.37    3.96
  -3  -7  -4   53.20    1.78
   3  -7   4   54.53    1.61
   3   7   4   54.50    1.71
  -3   7  -4   52.62    1.78
  -4  -7  -4    5.66    0.38
  -4   7  -4    4.89    0.35
  -5  -7  -4    8.39    0.50
  -5   7  -4    8.39    0.47
  -6  -7  -4    1.70    0.30
  -6   7  -4    1.80    0.28
  -7  -7  -4    0.16    0.27
  -7   7  -4    0.33    0.24
  -8  -8   4    6.04    0.53
  -8   8   4    5.82    0.39
  -7  -8   4   11.31    0.64
  -7   8   4   11.73    0.52
  -6  -8   4   17.17    0.78
   6  -8  -4   18.00    0.92
  -6   8   4   18.54    0.67
  -5  -8   4   39.85    1.38
   5  -8  -4   38.03    1.54
  -4  -8   4   59.12    1.99
   4  -8  -4   60.57    2.18
   4   8  -4   59.85    1.90
   4   8  -4   60.34    1.98
   3  -8  -4   87.65    3.03
   3  -8  -4   90.17    2.58
  -3  -8   4   85.10    2.81
  -3   8   4   86.60    2.63
   3   8  -4   87.81    2.70
   3   8  -4   85.66    2.80
  -3   8   4   90.10    2.60
   2  -8  -4   56.11    1.71
   2  -8  -4   57.32    2.02
  -2  -8   4   56.50    1.89
  -2   8   4   59.33    1.72
  -2   8   4   58.90    1.79
   2   8  -4   56.96    1.87
  -2   8   4   56.28    1.79
   2   8  -4   56.12    1.81
   1  -8  -4   24.04    0.77
  -1  -8   4   24.84    0.89
   1  -8  -4   24.00    0.95
   1   8  -4   22.75    0.84
  -1   8   4   24.71    0.77
   1   8  -4   23.58    0.85
  -1   8   4   23.52    0.80
  -1   8   4   23.91    0.79
   0  -8  -4    0.00    0.06
   0  -8   4    0.18    0.11
   0  -8   4    0.24    0.10
   0  -8  -4    0.42    0.16
   0  -8  -4    0.17    0.08
   0   8  -4   -0.01    0.10
   0   8   4    0.07    0.06
   0   8   4    0.10    0.07
   0   8   4    0.08    0.07
   0   8  -4    0.05    0.10
  -1  -8  -4    0.54    0.10
  -1  -8  -4    0.46    0.11
   1  -8   4    0.79    0.12
   1   8   4    0.39    0.09
  -1   8  -4    0.19    0.13
  -1   8  -4    0.32    0.09
  -1   8  -4    0.28    0.11
   1   8   4    0.26    0.10
  -2  -8  -4    0.35    0.14
   2  -8   4    0.72    0.13
  -2  -8  -4    0.82    0.12
   2   8   4    0.99    0.15
  -2   8  -4    0.10    0.15
   2   8   4    0.38    0.10
   3  -8   4   25.27    0.82
  -3  -8  -4   24.72    0.91
  -3  -8  -4   23.64    0.78
   3   8   4   24.74    0.86
  -3   8  -4   25.57    0.93
  -4  -8  -4    1.90    0.25
  -4   8  -4    2.38    0.29
  -5  -8  -4    7.27    0.48
  -5   8  -4    6.67    0.43
  -6  -8  -4    7.05    0.52
  -6   8  -4    7.16    0.47
  -8  -9   4   -0.07    0.27
  -7  -9   4    0.08    0.24
  -7   9   4   -0.18    0.14
  -6  -9   4    1.45    0.27
   6  -9  -4    2.08    0.38
  -6   9   4    1.71    0.17
  -5  -9   4    6.19    0.41
   5  -9  -4    5.97    0.50
  -4  -9   4   16.38    0.69
   4  -9  -4   15.91    0.77
   4   9  -4   16.11    0.67
   4   9  -4   16.14    0.64
   3  -9  -4   43.93    1.38
  -3  -9   4   44.91    1.51
   3  -9  -4   42.57    1.63
   3   9  -4   44.62    1.44
   3   9  -4   44.12    1.49
   2  -9  -4   57.88    2.09
   2  -9  -4   58.71    1.77
  -2  -9   4   58.58    1.96
   2   9  -4   59.38    1.88
   2   9  -4   57.95    1.93
  -2   9   4   60.82    1.86
  -2   9   4   63.15    1.78
  -2   9   4   56.33    1.85
   1  -9  -4  226.07    7.72
  -1  -9   4  237.18    7.24
   1  -9  -4  239.51    6.57
  -1   9   4  239.18    7.20
  -1   9   4  225.82    7.22
   1   9  -4  231.28    6.96
  -1   9   4  237.79    6.99
   1   9  -4  229.62    7.21
   0  -9  -4   99.21    3.33
   0  -9  -4   99.44    3.04
   0  -9  -4   98.41    2.80
   0  -9   4   94.46    2.84
   0   9  -4   97.71    3.00
   0   9   4   96.08    3.05
   0   9   4   98.71    3.06
   0   9   4   99.00    2.93
   0   9  -4   95.35    3.09
  -1  -9  -4   57.13    1.66
  -1  -9  -4   59.86    1.84
   1  -9   4   56.91    1.70
   1   9   4   56.83    1.76
  -1   9  -4   53.56    1.85
  -1   9  -4   56.96    1.86
  -1   9  -4   55.07    1.80
   1   9   4   55.28    1.83
  -1   9  -4   60.09    1.79
   2  -9   4   59.85    1.77
  -2  -9  -4   59.89    1.94
  -2  -9  -4   59.06    1.74
   2   9   4   59.51    1.86
  -2   9  -4   58.60    1.95
   3  -9   4    9.29    0.43
  -3  -9  -4   10.04    0.49
  -3  -9  -4   10.51    0.40
   3   9   4    9.76    0.45
  -3   9  -4    9.87    0.49
  -4  -9  -4   19.49    0.81
  -4   9  -4   19.38    0.78
  -5  -9  -4    9.10    0.53
  -5   9  -4    9.21    0.50
  -6   9  -4    0.99    0.25
  -7 -10   4   -0.11    0.24
  -6 -10   4    0.09    0.21
   6 -10  -4    0.41    0.29
  -5 -10   4   -0.23    0.17
   5 -10  -4    0.36    0.25
   4 -10  -4    0.93    0.25
  -4 -10   4    0.75    0.20
   4  10  -4    0.59    0.18
   4  10  -4    0.81    0.16
   3 -10  -4    2.87    0.27
   3 -10  -4    2.84    0.34
  -3 -10   4    2.86    0.30
   3  10  -4    2.70    0.27
   3  10  -4    3.05    0.28
  -2 -10   4    6.46    0.40
   2 -10  -4    6.46    0.34
   2 -10  -4    6.03    0.41
   2  10  -4    6.37    0.36
  -2  10   4    7.37    0.29
   2  10  -4    6.33    0.37
  -2  10   4    6.71    0.26
  -2  10   4    6.93    0.27
   1 -10  -4    0.27    0.12
  -1 -10   4    0.13    0.14
   1 -10  -4    0.78    0.19
  -1  10   4    0.22    0.08
  -1  10   4    0.30    0.09
  -1  10   4    0.19    0.07
   1  10  -4    0.64    0.15
   1  10  -4    0.16    0.13
   0 -10  -4    1.29    0.22
   0 -10   4    1.00    0.15
   0 -10   4    1.11    0.18
   0 -10  -4    0.97    0.15
   0 -10  -4    1.00    0.12
   0  10   4    1.02    0.13
   0  10  -4    1.08    0.16
   0  10   4    1.27    0.14
   0  10   4    0.99    0.11
   0  10  -4    1.05    0.16
  -1 -10  -4    0.22    0.11
  -1 -10  -4    0.08    0.11
   1 -10   4    0.34    0.13
  -1  10  -4    0.21    0.13
   1  10   4    0.28    0.09
  -1  10  -4    0.57    0.15
   1  10   4    0.33    0.11
  -2 -10  -4    0.19    0.14
  -2 -10  -4    0.34    0.12
   2 -10   4    0.29    0.14
   2  10   4    0.30    0.10
  -2  10  -4    0.12    0.15
   3 -10   4    2.93    0.27
  -3 -10  -4    1.79    0.24
  -3 -10  -4    2.80    0.22
  -3  10  -4    2.29    0.26
   3  10   4    2.00    0.23
   4 -10   4   -0.03    0.17
  -4 -10  -4   -0.06    0.19
  -4  10  -4   -0.03    0.18
  -5  10  -4    0.01    0.19
  -6  10  -4   -0.17    0.20
  -7 -11   4   -0.19    0.24
   6 -11  -4    2.81    0.43
  -6 -11   4    2.44    0.33
  -5 -11   4    6.99    0.48
   5 -11  -4    6.54    0.54
   4 -11  -4    8.73    0.48
   4 -11  -4    9.01    0.57
  -4 -11   4    9.87    0.52
   4  11  -4    9.86    0.50
   4  11  -4    9.50    0.48
   3 -11  -4   48.35    1.53
   3 -11  -4   48.43    1.79
  -3 -11   4   49.60    1.66
   3  11  -4   48.43    1.59
   3  11  -4   46.95    1.64
  -2 -11   4   56.35    1.87
   2 -11  -4   55.46    1.99
   2 -11  -4   54.65    1.68
   2  11  -4   53.61    1.83
  -2  11   4   55.91    1.75
  -2  11   4   55.72    1.74
   2  11  -4   55.11    1.78
  -2  11   4   54.80    1.67
  -1 -11   4   74.03    2.37
   1 -11  -4   71.95    2.52
   1 -11  -4   74.43    2.14
   1  11  -4   71.37    2.34
  -1  11   4   70.81    2.27
   1  11  -4   71.12    2.27
  -1  11   4   74.36    2.28
  -1  11   4   70.42    2.19
   0 -11  -4  101.11    2.86
   0 -11  -4   99.29    3.39
   0 -11   4   96.47    2.91
   0  11  -4   92.84    3.14
   0  11   4  104.90    2.99
   0  11   4  101.53    3.10
   0  11  -4   97.06    3.05
  -1 -11  -4   79.45    2.31
   1 -11   4   80.39    2.35
  -1 -11  -4   78.19    2.78
  -1  11  -4   80.97    2.56
   1  11   4   82.33    2.43
   1  11   4   76.32    2.52
  -1  11  -4   77.47    2.48
  -2 -11  -4   53.69    1.60
   2 -11   4   54.26    1.64
   2  11   4   52.40    1.69
  -2  11  -4   53.49    1.79
  -3 -11  -4   27.72    0.90
   3 -11   4   28.97    0.95
   3  11   4   27.99    0.97
  -3  11  -4   26.21    1.03
   4 -11   4    8.90    0.47
  -4  11  -4    8.67    0.50
  -5  11  -4    3.12    0.34
  -6  11  -4    1.49    0.26
   6 -12  -4   19.15    1.00
   5 -12  -4   19.90    0.98
  -5 -12   4   19.96    0.86
   4 -12  -4   19.52    0.79
   4 -12  -4   20.36    0.94
  -4 -12   4   21.43    0.85
   4  12  -4   20.57    0.83
   4  12  -4   20.88    0.80
  -3 -12   4   49.46    1.62
   3 -12  -4   44.27    1.47
   3 -12  -4   45.60    1.74
   3  12  -4   44.63    1.58
   3  12  -4   47.33    1.54
  -2 -12   4   14.33    0.65
   2 -12  -4   14.40    0.68
   2 -12  -4   14.20    0.57
  -2  12   4   15.62    0.52
   2  12  -4   13.88    0.60
  -2  12   4   14.28    0.49
   2  12  -4   13.59    0.60
  -2  12   4   13.77    0.50
   1 -12  -4   16.71    0.72
  -1 -12   4   16.01    0.66
   1 -12  -4   16.41    0.60
   1  12  -4   16.46    0.65
  -1  12   4   16.92    0.56
   1  12  -4   15.31    0.65
  -1  12   4   15.43    0.58
   0 -12   4    4.30    0.31
   0 -12  -4    3.57    0.36
   0 -12  -4    4.40    0.27
   0  12   4    4.21    0.25
   0  12   4    4.10    0.25
   0  12  -4    4.73    0.31
   0  12  -4    3.37    0.31
  -1 -12  -4    0.34    0.22
   1 -12   4    0.07    0.14
  -1 -12  -4    0.18    0.12
   1  12   4    0.47    0.13
  -1  12  -4   -0.02    0.12
   1  12   4    0.16    0.09
  -1  12  -4    0.26    0.14
  -2 -12  -4    2.63    0.23
   2 -12   4    2.52    0.26
   2  12   4    2.53    0.23
  -2  12  -4    3.28    0.29
  -2  12  -4    2.66    0.29
   3 -12   4    5.56    0.36
  -3 -12  -4    5.63    0.31
   3  12   4    5.23    0.33
  -3  12  -4    4.77    0.39
   4 -12   4    4.67    0.38
  -4 -12  -4    7.28    5.93
  -4  12  -4    4.84    0.40
  -5 -12  -4    4.61    6.49
  -5  12  -4    5.61    0.41
  -6  12  -4    2.85    0.34
   6 -13  -4    2.43    0.43
   5 -13  -4    5.56    0.52
   4 -13  -4    8.38    0.56
   4 -13  -4    8.21    0.48
   4  13  -4    8.61    0.49
   4  13  -4    8.86    0.48
   4  13  -4    7.06    4.35
   3 -13  -4   32.83    1.17
   3 -13  -4   35.69    1.39
   3  13  -4   35.90    1.22
  -3  13   4   34.96    1.08
   3  13  -4   35.86    1.26
   2 -13  -4   28.30    0.99
   2 -13  -4   29.09    1.17
  -2  13   4   29.52    0.93
   2  13  -4   29.70    1.05
   2  13  -4   28.65    1.06
  -2  13   4   29.60    0.96
   1 -13  -4   45.56    1.40
   1 -13  -4   45.52    1.64
  -1 -13   4   44.82    1.47
  -1  13   4   44.65    1.44
  -1  13   4   42.99    1.39
   1  13  -4   44.80    1.49
   1  13  -4   43.85    1.51
   0 -13  -4   58.83    2.07
   0 -13   4   58.12    1.81
   0 -13  -4   59.79    1.75
   0  13   4   58.85    1.81
   0  13   4   59.41    1.87
   0  13  -4   55.31    1.87
   0  13  -4   55.85    1.91
  -1 -13  -4   67.07    1.95
  -1 -13  -4   65.04    2.31
   1 -13   4   65.03    1.99
  -1  13  -4   63.64    2.08
   1  13   4   65.15    2.04
  -1  13  -4   65.78    2.14
  -2 -13  -4   26.77    0.88
  -2 -13  -4   24.86    1.13
   2 -13   4   27.25    0.93
  -2  13  -4   24.98    0.96
  -2  13  -4   26.65    0.98
   2  13   4   27.08    0.93
   3 -13   4   14.15    0.61
  -3 -13  -4   14.42    0.56
  -3  13  -4   13.78    0.65
   3  13   4   13.91    0.59
  -4 -13  -4    4.62    5.73
   4 -13   4   13.77    0.62
  -4  13  -4   12.92    0.63
  -5 -13  -4   -1.05    6.12
  -6  13  -4    0.61    0.22
   6 -14  -4    0.06    0.28
   5 -14  -4    0.35    0.28
   3 -14  -4    1.29    0.23
   3 -14  -4    1.07    0.26
  -3  14   4    0.81    0.09
   3  14  -4    1.07    0.22
   3  14  -4    0.92    0.18
   2 -14  -4    1.06    0.21
   2 -14  -4    0.76    0.23
  -2  14   4    0.86    0.11
   2  14  -4    1.01    0.19
   2  14  -4    0.82    0.20
  -2  14   4    0.97    0.12
   1 -14  -4    0.12    0.16
   1 -14  -4    0.21    0.19
  -1 -14   4    0.36    0.21
  -1  14   4   -0.01    0.09
  -1  14   4    0.00    0.10
   1  14  -4    0.00    0.14
   1  14  -4   -0.03    0.15
   0 -14  -4    5.74    0.34
   0 -14   4    5.65    0.39
   0 -14  -4    5.18    0.43
   0  14  -4    6.33    0.38
   0  14   4    6.30    0.32
   0  14  -4    5.33    0.37
   0  14   4    6.06    0.32
  -1 -14  -4    1.67    0.27
   1 -14   4    1.61    0.23
  -1 -14  -4    1.48    0.20
   1  14   4    1.51    0.17
  -1  14  -4    1.25    0.19
  -1  14  -4    1.63    0.22
  -2 -14  -4    0.93    0.26
   2 -14   4    0.69    0.20
  -2 -14  -4    0.97    0.18
  -2  14  -4    0.89    0.19
   2  14   4    0.54    0.14
  -2  14  -4    0.79    0.18
   3 -14   4    0.23    0.19
  -3 -14  -4    0.15    0.15
  -3  14  -4    0.23    0.19
  -3  14  -4    0.17    0.16
   3  14   4    0.11    0.12
  -4 -14  -4    5.08    5.66
  -5  14  -4    0.23    0.20
   6 -15  -4    0.58    0.32
   5 -15  -4    2.19    0.40
   4 -15  -4    2.75    0.34
   4 -15  -4    3.40    0.41
   4  15  -4    2.79    0.33
   4  15  -4    7.73    4.59
   3 -15  -4   29.06    1.05
   3 -15  -4   29.75    1.22
   3  15  -4   29.34    1.07
  -3  15   4   28.96    0.93
  -3  15   4   28.34    0.96
   3  15  -4   30.84    1.11
  -2 -15   4   27.01    1.02
   2 -15  -4   27.60    0.98
   2 -15  -4   28.43    1.14
  -2  15   4   27.44    0.90
   2  15  -4   28.16    1.04
   2  15  -4   27.25    1.02
  -2  15   4   27.57    0.93
   1 -15  -4   52.01    1.94
   1 -15  -4   53.70    1.68
  -1 -15   4   51.82    1.74
   1  15  -4   53.42    1.77
  -1  15   4   54.40    1.68
   1  15  -4   53.00    1.81
  -1  15   4   56.81    1.74
   0 -15  -4   61.95    1.84
   0 -15   4   58.42    1.90
   0 -15  -4   61.27    2.15
   0  15  -4   56.49    1.93
   0  15   4   61.88    1.88
   0  15  -4   59.81    2.00
  -1 -15  -4   25.52    1.04
  -1 -15  -4   25.71    0.87
   1 -15   4   25.72    0.93
  -1  15  -4   24.25    0.93
  -1  15  -4   24.82    0.95
   1  15   4   25.53    0.89
  -2 -15  -4   18.30    0.82
  -2 -15  -4   17.87    0.66
   2 -15   4   17.38    0.71
   2  15   4   17.44    0.69
  -2  15  -4   17.17    0.72
  -2  15  -4   16.13    0.71
   3 -15   4    7.68    0.46
  -3 -15  -4    7.74    0.41
  -3 -15  -4    8.46    0.61
  -3  15  -4    7.44    0.45
   3  15   4    7.66    0.43
  -3  15  -4    7.94    0.47
   4 -15   4    7.82    0.48
  -4 -15  -4    9.02    5.45
  -4  15  -4    7.15    0.49
  -5  15  -4    1.69    0.27
   6 -16  -4    7.36    0.63
   4 -16  -4   12.52    0.64
   4 -16  -4   12.96    0.74
   4  16  -4   13.08    0.63
   3 -16  -4   28.46    1.20
   3 -16  -4   28.04    1.04
   3  16  -4   28.64    1.06
   3  16  -4   28.97    1.10
  -3  16   4   28.34    0.94
  -3  16   4   28.43    0.91
   2 -16  -4    8.38    0.47
   2 -16  -4    9.58    0.55
  -2 -16   4    8.95    0.52
   2  16  -4    8.72    0.48
   2  16  -4    8.67    0.48
  -2  16   4    8.22    0.36
  -2  16   4    8.53    0.37
   1 -16  -4    1.78    0.24
   1 -16  -4    1.50    0.26
  -1 -16   4    1.81    0.28
   1  16  -4    1.41    0.21
  -1  16   4    1.84    0.17
   1  16  -4    1.44    0.23
   0 -16  -4    1.08    0.19
   0 -16  -4    0.90    0.23
   0 -16   4    0.92    0.22
   0  16  -4    1.16    0.20
   0  16   4    1.02    0.14
   0  16  -4    1.28    0.21
  -1 -16  -4   -0.02    0.20
  -1 -16  -4    0.07    0.15
   1 -16   4    0.13    0.18
  -1  16  -4   -0.01    0.15
   1  16   4    0.49    0.13
  -1  16  -4    0.15    0.14
   2 -16   4    0.86    0.21
  -2 -16  -4    1.21    0.20
  -2 -16  -4    1.25    0.27
  -2  16  -4    1.28    0.19
   2  16   4    1.32    0.18
  -2  16  -4    1.33    0.21
  -3 -16  -4    4.83    0.33
   3 -16   4    4.86    0.38
  -3  16  -4    4.41    0.36
   3  16   4    4.03    0.32
  -3  16  -4    3.93    0.36
   4 -16   4    1.60    0.29
  -4 -16  -4    3.94    5.66
  -4  16  -4    1.33    0.27
  -4  16  -4    1.98    0.26
  -5  16  -4    2.09    0.29
   6 -17  -4    1.04    0.37
   5 -17  -4    1.34    0.35
   5  17  -4   -1.73    4.56
   4 -17  -4    4.49    0.42
   4 -17  -4    4.93    0.49
   4  17  -4    4.72    0.41
   4  17  -4   10.36    4.47
   3 -17  -4   15.05    0.79
   3 -17  -4   14.57    0.69
   3  17  -4   14.85    0.68
   3  17  -4   16.18    0.72
  -3  17   4   14.71    0.53
   2 -17  -4   24.11    1.02
   2 -17  -4   21.84    0.87
  -2 -17   4   21.98    0.93
   2  17  -4   23.22    0.92
  -2  17   4   22.81    0.78
   2  17  -4   23.57    0.91
  -1 -17   4   18.99    0.80
   1 -17  -4   17.24    0.72
   1 -17  -4   19.24    0.84
   1  17  -4   18.01    0.75
   1  17  -4   17.68    0.76
  -1  17   4   18.47    0.67
   0 -17   4   27.32    1.04
   0 -17  -4   27.91    0.97
   0 -17  -4   28.38    1.12
   0  17  -4   27.19    1.03
   0  17  -4   26.58    1.01
   0  17   4   27.83    0.96
  -1 -17  -4   25.37    0.90
  -1 -17  -4   27.91    1.07
   1 -17   4   24.26    0.97
   1  17   4   25.57    0.93
  -1  17  -4   25.34    0.95
  -1  17  -4   25.46    0.98
  -2 -17  -4   14.32    0.60
   2 -17   4   13.88    0.66
  -2 -17  -4   14.85    0.72
  -2  17  -4   14.13    0.63
   2  17   4   15.07    0.63
  -2  17  -4   13.93    0.64
   3 -17   4    7.91    0.50
  -3 -17  -4    7.87    0.44
  -3  17  -4    7.46    0.47
   3  17   4    7.49    0.43
  -3  17  -4    8.07    0.46
   4 -17   4    3.00    0.37
  -4  17  -4    2.68    0.32
  -4  17  -4    3.30    0.34
  -5  17  -4    2.10    0.29
  -5  17  -4    1.78    0.27
   5 -18  -4   -0.18    0.26
   5  18  -4   -1.84    4.53
   4 -18  -4    0.00    0.25
   4 -18  -4   -0.06    0.23
   3 -18  -4    0.11    0.22
  -3 -18   4   -0.02    0.21
   3 -18  -4    0.00    0.23
   3  18  -4    0.25    0.19
   3  18  -4   -0.06    0.21
  -2 -18   4    0.16    0.22
   2 -18  -4    0.04    0.20
   2 -18  -4   -0.15    0.22
  -2  18   4   -0.23    0.10
   2  18  -4   -0.01    0.19
   2  18  -4    0.02    0.17
   1 -18  -4    0.16    0.19
   1 -18  -4    0.09    0.22
  -1 -18   4    0.02    0.20
  -1  18   4   -0.19    0.10
   1  18  -4   -0.17    0.17
   1  18  -4   -0.16    0.16
   0 -18   4    0.20    0.21
   0 -18  -4    0.18    0.19
   0 -18  -4    0.57    0.23
   0  18  -4    0.20    0.18
   0  18  -4    0.08    0.17
   0  18   4    0.17    0.12
  -1 -18  -4    0.26    0.21
   1 -18   4    0.74    0.24
  -1 -18  -4    0.60    0.19
  -1  18  -4    0.66    0.21
  -1  18  -4    0.53    0.18
   1  18   4    0.30    0.14
   2 -18   4    0.12    0.21
  -2 -18  -4   -0.12    0.16
  -2  18  -4    0.24    0.16
  -2  18  -4    0.24    0.17
   2  18   4    0.09    0.13
   3 -18   4    0.00    0.21
  -3 -18  -4    0.18    0.18
  -3  18  -4   -0.11    0.15
   3  18   4   -0.08    0.12
  -3  18  -4    0.17    0.18
   4 -18   4    0.44    0.25
  -4  18  -4    0.32    0.22
  -4  18  -4    0.29    0.18
  -5  18  -4    0.00    0.19
   5 -19  -4    1.00    0.34
   4 -19  -4    2.64    0.38
   4 -19  -4    2.57    0.41
  -4 -19   4    2.63    0.37
   3 -19  -4    8.40    0.53
  -3 -19   4    9.47    0.58
   3 -19  -4   10.27    0.64
  -3  19   4    9.58    0.39
   3  19  -4    8.89    0.54
   3  19  -4    9.30    0.56
   2 -19  -4   12.24    0.68
  -2 -19   4   12.48    0.67
   2 -19  -4   11.35    0.60
   2  19  -4   12.51    0.63
  -2  19   4   12.70    0.50
   2  19  -4   12.12    0.61
  -1 -19   4   13.08    0.68
   1 -19  -4   13.19    0.62
   1 -19  -4   14.07    0.72
   1  19  -4   14.16    0.64
   1  19  -4   13.98    0.65
  -1  19   4   13.47    0.55
   0 -19   4   20.61    0.90
   0 -19  -4   20.19    0.81
   0 -19  -4   21.62    0.93
   0  19  -4   20.83    0.84
   0  19  -4   20.78    0.86
   0  19   4   21.91    0.79
   1 -19   4    8.12    0.52
  -1 -19  -4    8.18    0.45
  -1  19  -4    7.99    0.46
  -1  19  -4    8.57    0.48
   1  19   4    8.30    0.45
  -2 -19  -4   11.63    0.54
   2 -19   4   11.18    0.62
   2  19   4   11.69    0.56
  -2  19  -4   10.84    0.54
  -2  19  -4   10.35    0.56
   3 -19   4    4.28    0.42
  -3  19  -4    4.70    0.36
   3  19   4    3.90    0.34
  -3  19  -4    4.58    0.38
  -4  19  -4    1.62    0.28
  -4  19  -4    1.94    0.25
   5 -20  -4    3.95    0.52
   4 -20  -4    6.31    0.56
  -3 -20   4    5.92    0.49
   3 -20  -4    6.37    0.54
   3 -20  -4    6.57    0.48
   3  20  -4    6.51    0.47
  -3  20   4    6.34    0.32
   3  20  -4    6.26    0.48
   2 -20  -4    5.90    0.45
  -2 -20   4    6.98    0.51
   2 -20  -4    7.06    0.51
   2  20  -4    6.71    0.47
   2  20  -4    6.43    0.44
  -2  20   4    6.63    0.35
   1 -20  -4    1.05    0.27
  -1 -20   4    1.09    0.27
   1 -20  -4    0.89    0.23
  -1  20   4    1.10    0.17
   1  20  -4    0.98    0.22
   1  20  -4    0.98    0.24
   0 -20  -4    0.12    0.22
   0 -20  -4    0.07    0.18
   0 -20   4    0.09    0.21
   0  20  -4   -0.01    0.16
   0  20  -4    0.13    0.19
   0  20   4    0.02    0.12
   1 -20   4    0.35    0.23
  -1 -20  -4    0.28    0.19
  -1  20  -4    0.18    0.17
  -1  20  -4    0.29    0.19
   1  20   4    0.33    0.15
  -2 -20  -4    0.67    0.21
   2 -20   4    0.20    0.25
   2  20   4    0.69    0.17
  -2  20  -4    0.43    0.20
  -2  20  -4    0.25    0.17
   3 -20   4    2.92    0.38
  -3  20  -4    3.23    0.33
   3  20   4    2.56    0.29
  -3  20  -4    3.07    0.35
  -4  20  -4    0.79    0.23
  -4  20  -4    0.61    0.19
   4 -21  -4    2.39    0.41
   3 -21  -4    3.89    0.42
  -3 -21   4    3.39    0.42
   3 -21  -4    4.02    0.47
   3  21  -4    4.16    0.43
  -3  21   4    3.97    0.27
   3  21  -4    3.71    0.39
   2 -21  -4    6.01    0.50
   2 -21  -4    5.87    0.46
  -2 -21   4    6.06    0.49
   2  21  -4    5.83    0.44
   2  21  -4    5.90    0.45
  -2  21   4    5.43    0.34
   1 -21  -4   10.02    0.56
   1 -21  -4   11.60    0.65
  -1 -21   4   10.76    0.63
   1  21  -4   10.18    0.56
  -1  21   4   10.65    0.49
   1  21  -4   10.55    0.58
   0 -21   4    9.82    0.60
   0 -21  -4    9.43    0.53
   0  21  -4    9.77    0.55
   0  21  -4    9.96    0.53
   0  21   4   10.09    0.50
  -1 -21  -4    7.09    0.46
   1 -21   4    6.95    0.53
  -1  21  -4    7.59    0.46
   1  21   4    8.63    0.47
  -1  21  -4    7.75    0.49
   2 -21   4    6.66    0.53
  -2 -21  -4    7.14    0.44
  -2  21  -4    6.63    0.43
   2  21   4    6.67    0.44
  -2  21  -4    6.50    0.45
   3 -21   4    2.89    0.41
   3  21   4    3.16    0.31
  -3  21  -4    2.99    0.34
  -3  21  -4    2.88    0.35
  -4  21  -4    1.36    0.23
   4 -22  -4   -0.31    0.26
   3 -22  -4    0.28    0.28
   3  22  -4   -0.13    0.18
  -3  22   4   -0.14    0.10
   3  22  -4   -0.32    0.22
  -2 -22   4    0.03    0.22
   2 -22  -4    0.22    0.26
   2 -22  -4    0.02    0.22
   2  22  -4    0.03    0.18
  -2  22   4    0.18    0.13
   2  22  -4   -0.13    0.22
   1 -22  -4   -0.09    0.21
  -1 -22   4    0.23    0.24
   1  22  -4   -0.24    0.17
   1  22  -4   -0.28    0.20
  -1  22   4   -0.23    0.12
   0 -22  -4    0.08    0.22
   0 -22   4   -0.02    0.24
   0  22  -4    0.05    0.18
   0  22  -4   -0.11    0.21
   0  22   4   -0.12    0.13
  -1 -22  -4    0.46    0.22
   1 -22   4    0.37    0.26
  -1  22  -4    0.18    0.22
   1  22   4    0.31    0.16
  -1  22  -4    0.04    0.16
  -2 -22  -4    0.16    0.20
   2  22   4   -0.02    0.15
  -2  22  -4    0.09    0.19
  -2  22  -4   -0.10    0.15
   3  22   4    0.16    0.15
  -3  22  -4    0.24    0.16
   3 -23  -4    2.77    0.42
   3  23  -4    2.72    0.34
   3  23  -4    2.99    0.39
  -3  23   4    2.97    0.27
   2  23  -4    2.49    0.31
   2  23  -4    2.40    0.35
  -2  23   4    2.79    0.27
   1  23  -4    4.11    0.39
   1  23  -4    4.29    0.43
  -1  23   4    4.40    0.34
   0 -23  -4    7.11    0.49
   0  23   4    6.72    0.43
   0  23  -4    7.37    0.51
   0  23  -4    6.87    0.47
  -1 -23  -4    4.63    0.40
  -1  23  -4    3.38    0.36
   1  23   4    3.75    0.36
  -1  23  -4    4.46    0.42
   2  23   4    4.26    0.40
  -2  23  -4    4.94    0.41
  -2  23  -4    4.04    0.38
   3  23   4    1.03    0.22
   3  24  -4    1.21    0.27
  -3  24   4    1.41    0.17
   2  24  -4    1.51    0.27
  -2  24   4    1.74    0.20
   2  24  -4    1.70    0.32
   1  24  -4    1.32    0.30
  -1  24   4    1.09    0.19
   1  24  -4    1.06    0.24
   0  24   4    0.06    0.15
   0  24  -4    0.04    0.18
   0  24  -4   -0.07    0.21
   1  24   4   -0.04    0.14
  -1  24  -4    0.20    0.17
   2  24   4    0.25    0.17
   2  25  -4    2.04    0.30
   1  25  -4    1.29    0.26
   0  25  -4    3.72    0.38
  -8   0   5   -0.27    0.20
  -7   0   5   -0.27    0.17
  -6   0   5    0.28    0.18
  -5   0   5    0.39    0.16
   5   0  -5    0.63    0.23
  -4   0   5    0.31    0.13
   4   0  -5    0.28    0.16
   3   0  -5   -0.01    0.09
  -3   0   5    0.12    0.10
  -3   0   5    0.11    0.09
  -3   0   5    0.06    0.09
   3   0  -5    0.13    0.12
  -3   0   5   -0.01    0.09
   3   0  -5   -0.05    0.06
  -2   0   5    0.02    0.07
  -2   0   5   -0.06    0.12
   2   0  -5    0.14    0.14
   2   0  -5    0.02    0.10
  -2   0   5    0.38    0.10
   2   0  -5    0.01    0.09
   1   0  -5    0.04    0.12
   1   0  -5    0.14    0.10
  -1   0   5    0.09    0.06
  -1   0   5    0.09    0.10
   0   0  -5    0.41    0.10
   0   0   5    0.20    0.08
   0   0   5    0.09    0.06
   1   0   5   -0.07    0.06
  -1   0  -5   -0.04    0.09
   1   0   5   -0.08    0.07
  -2   0  -5   -0.09    0.11
   2   0   5   -0.13    0.09
   2   0   5    0.13    0.08
  -3   0  -5   -0.25    0.12
   3   0   5    0.03    0.08
  -4   0  -5   -0.28    0.15
  -5   0  -5   -0.14    0.20
  -6   0  -5   -0.22    0.22
  -7   0  -5   -0.31    0.23
  -8  -1   5    2.52    0.32
  -8   1   5    2.87    0.35
  -7  -1   5    6.08    0.43
  -7   1   5    6.16    0.42
  -6  -1   5   20.99    0.84
  -6   1   5   21.22    0.82
  -5  -1   5   71.71    2.33
   5  -1  -5   72.64    2.55
  -5   1   5   70.61    2.31
   5   1  -5   71.60    2.52
  -4  -1   5   70.73    2.24
   4  -1  -5   67.57    2.42
   4   1  -5   68.82    2.40
  -4   1   5   69.77    2.22
  -3  -1   5   62.51    2.03
   3  -1  -5   63.33    2.19
  -3  -1   5   64.40    2.04
  -3  -1   5   62.34    1.97
   3   1  -5   62.37    2.16
  -3   1   5   61.41    2.02
  -3   1   5   64.26    2.03
  -3   1   5   61.76    1.95
  -3   1   5   63.60    1.96
  -2  -1   5  198.98    6.29
   2  -1  -5  199.19    6.71
  -2  -1   5  208.95    6.03
  -2   1   5  208.24    6.05
   2   1  -5  200.66    6.26
  -2   1   5  206.47    6.25
   2   1  -5  192.08    6.03
  -2   1   5  205.93    6.01
   2   1  -5  201.58    6.68
  -2   1   5  205.88    6.28
  -1  -1   5  118.35    3.41
   1  -1  -5  100.28    3.85
  -1  -1   5  116.17    3.57
   1  -1  -5  112.78    3.53
   1  -1  -5  112.51    3.44
  -1   1   5  115.08    3.55
  -1   1   5  117.25    3.40
   1   1  -5  116.30    3.56
   1   1  -5  113.57    3.45
   0  -1   5   26.84    0.86
   0  -1   5   24.56    0.89
   0  -1  -5   26.57    0.90
   0   1  -5   26.38    0.91
   0   1   5   27.01    0.76
   0   1   5   24.84    0.88
   0   1   5   28.01    0.86
   1  -1   5    5.84    0.28
   1  -1   5    6.30    0.27
  -1  -1  -5    5.24    0.30
   1   1   5    4.98    0.27
  -1   1  -5    5.69    0.30
   1   1   5    5.43    0.27
   2  -1   5   20.49    0.75
   2  -1   5   23.67    0.74
  -2  -1  -5   20.98    0.79
   2   1   5   21.82    0.74
   2   1   5   21.60    0.76
  -2   1  -5   20.35    0.78
  -3  -1  -5    3.60    0.31
   3   1   5    4.05    0.27
  -3   1  -5    4.57    0.31
   3   1   5    4.21    0.28
  -4  -1  -5    1.25    0.22
  -4   1  -5    1.13    0.22
  -5  -1  -5    0.31    0.21
  -5   1  -5    0.49    0.22
  -6  -1  -5    0.68    0.26
  -6   1  -5    0.82    0.26
  -7  -1  -5    0.19    0.25
  -7   1  -5    0.25    0.26
  -8  -2   5    1.27    0.27
  -8   2   5    1.22    0.25
  -7  -2   5    0.15    0.19
  -7   2   5    0.21    0.18
   6  -2  -5    0.41    0.25
  -6  -2   5    0.37    0.18
  -6   2   5    0.30    0.16
  -5  -2   5    1.41    0.20
   5  -2  -5    1.63    0.28
  -5   2   5    1.24    0.18
   4  -2  -5   66.59    2.41
  -4  -2   5   71.04    2.23
  -4   2   5   68.98    2.20
   4   2  -5   68.23    2.37
   3  -2  -5   51.23    1.88
  -3  -2   5   53.85    1.74
   3   2  -5   51.70    1.73
  -3   2   5   53.97    1.73
   3   2  -5   56.27    1.66
   3   2  -5   52.83    1.83
  -3   2   5   53.73    1.72
  -3   2   5   50.98    1.66
  -3   2   5   53.14    1.66
   2  -2  -5   87.65    2.74
   2  -2  -5   88.98    3.10
  -2  -2   5   95.52    2.78
  -2  -2   5   88.75    2.90
   2  -2  -5   95.16    2.83
  -2   2   5   92.48    2.88
   2   2  -5   86.17    2.77
  -2   2   5   91.68    2.78
  -2   2   5   90.85    2.84
   2   2  -5   86.15    3.04
  -2   2   5   94.19    2.74
   2   2  -5   92.91    2.88
   1  -2  -5  315.57    9.77
  -1  -2   5  326.64    9.83
   1  -2  -5  313.63    9.41
  -1  -2   5  326.88    9.51
   1  -2  -5  290.56   10.47
  -1   2   5  324.08    9.80
   1   2  -5  313.70    9.81
  -1   2   5  310.57    9.78
   1   2  -5  332.29    9.43
  -1   2   5  328.10    9.53
   0  -2   5  102.07    3.19
   0  -2   5  107.92    3.08
   0  -2  -5  102.52    3.18
   0   2   5  102.50    3.05
   0   2  -5  103.37    3.20
   0   2   5   97.00    2.85
   0   2   5   97.90    3.17
  -1  -2  -5  237.34    7.35
   1  -2   5  229.48    7.33
   1  -2   5  247.60    7.07
  -1   2  -5  238.00    7.36
   1   2   5  237.31    7.33
   1   2   5  241.54    7.06
   2  -2   5   97.81    3.12
   2  -2   5  108.76    3.03
  -2  -2  -5   96.55    3.15
   2   2   5  101.05    3.13
  -2   2  -5   97.37    3.15
   2   2   5   96.70    3.01
  -3  -2  -5  105.51    3.41
   3   2   5  103.69    3.38
   3   2   5  111.88    3.27
  -3   2  -5  108.56    3.41
  -4  -2  -5   46.31    1.59
  -4   2  -5   46.38    1.59
  -5  -2  -5   14.50    0.68
  -5   2  -5   13.87    0.66
  -6  -2  -5   11.08    0.63
  -6   2  -5   11.21    0.62
  -7  -2  -5    0.49    0.27
  -7   2  -5    0.94    0.29
  -8  -3   5    4.37    0.43
  -8   3   5    3.62    0.37
  -7  -3   5    5.16    0.42
  -7   3   5    5.56    0.38
   6  -3  -5   24.24    1.09
  -6  -3   5   24.37    0.95
  -6   3   5   24.32    0.90
   5  -3  -5   61.33    2.22
  -5  -3   5   60.81    2.01
  -5   3   5   60.24    1.97
  -4  -3   5   46.75    1.56
   4  -3  -5   46.20    1.71
   4   3  -5   46.42    1.65
  -4   3   5   47.27    1.53
  -4   3   5   46.94    1.51
  -3  -3   5  136.35    4.37
   3  -3  -5  138.33    4.69
   3   3  -5  139.74    4.62
  -3   3   5  144.25    4.18
  -3   3   5  131.89    4.18
   3   3  -5  141.03    4.37
  -3   3   5  140.48    4.34
   3   3  -5  145.67    4.19
  -3   3   5  139.31    4.35
   2  -3  -5  114.40    3.73
  -2  -3   5  110.05    3.49
  -2  -3   5  112.98    3.35
  -2   3   5  106.77    3.42
   2   3  -5  111.96    3.47
  -2   3   5  112.94    3.45
   2   3  -5  106.07    3.65
  -2   3   5  109.94    3.29
   2   3  -5  105.50    3.34
  -1  -3   5   72.91    2.29
  -1  -3   5   71.51    2.18
   1  -3  -5   67.67    2.48
  -1   3   5   72.04    2.14
   1   3  -5   67.30    2.27
   1   3  -5   72.52    2.22
  -1   3   5   70.62    2.23
  -1   3   5   72.55    2.24
   0  -3   5   79.38    2.44
   0  -3   5   76.17    2.35
   0  -3  -5   72.50    2.42
   0   3   5   74.61    2.16
   0   3  -5   78.45    2.46
   0   3   5   80.11    2.33
   0   3   5   77.23    2.42
   1  -3   5   73.02    2.44
  -1  -3  -5   78.98    2.46
   1  -3   5   81.33    2.37
   1   3   5   77.82    2.36
   1   3   5   78.08    2.45
  -1   3  -5   76.37    2.48
   2  -3   5    7.43    0.33
   2  -3   5    5.82    0.30
  -2  -3  -5    6.42    0.35
   2   3   5    7.03    0.32
   2   3   5    6.79    0.34
  -2   3  -5    6.86    0.36
  -3  -3  -5    0.07    0.14
   3   3   5   -0.08    0.13
   3   3   5    0.19    0.10
  -3   3  -5    0.35    0.17
  -4  -3  -5    0.19    0.17
  -4   3  -5   -0.20    0.16
  -5  -3  -5    1.83    0.29
  -5   3  -5    1.41    0.26
  -6  -3  -5   -0.04    0.24
  -6   3  -5    0.26    0.23
  -7  -3  -5    0.16    0.26
  -7   3  -5    0.50    0.26
  -8  -4   5    0.04    0.24
  -8   4   5   -0.17    0.18
  -7  -4   5   -0.24    0.20
  -7   4   5    0.06    0.17
   6  -4  -5    0.03    0.25
  -6  -4   5   -0.08    0.18
  -6   4   5    0.00    0.14
  -5  -4   5    1.73    0.23
   5  -4  -5    1.90    0.30
  -5   4   5    2.22    0.23
  -4  -4   5    0.34    0.15
   4  -4  -5    0.64    0.21
  -4   4   5    0.23    0.10
  -4   4   5    0.41    0.12
   4   4  -5    0.50    0.15
  -3  -4   5    0.45    0.14
   3  -4  -5    0.35    0.17
  -3   4   5    0.40    0.12
  -3   4   5    0.27    0.09
   3   4  -5    0.45    0.12
   3   4  -5    0.36    0.13
   3   4  -5    0.49    0.11
  -3   4   5    0.28    0.08
  -3   4   5    0.45    0.12
  -2  -4   5    0.29    0.13
   2  -4  -5    0.42    0.16
  -2   4   5    0.13    0.06
   2   4  -5    0.19    0.11
  -2   4   5    0.31    0.08
   2   4  -5    0.30    0.12
  -2   4   5    0.14    0.10
   2   4  -5    0.36    0.10
   1  -4  -5    2.69    0.34
  -1  -4   5    2.79    0.23
  -1  -4   5    2.81    0.25
  -1   4   5    3.39    0.20
  -1   4   5    2.79    0.20
   1   4  -5    3.14    0.28
   1   4  -5    2.79    0.24
  -1   4   5    2.88    0.18
   0  -4   5   11.88    0.49
   0  -4  -5   12.55    0.40
   0  -4   5   13.11    0.48
   0  -4  -5   12.65    0.47
   0   4   5   12.04    0.39
   0   4  -5   12.34    0.51
   0   4   5   12.29    0.44
   0   4   5   12.18    0.46
  -1  -4  -5    0.92    0.13
   1  -4   5    0.29    0.10
   1  -4   5    0.41    0.09
   1  -4   5    0.51    0.07
   1   4   5    0.52    0.10
  -1   4  -5    0.49    0.14
   1   4   5    0.38    0.08
  -2  -4  -5    4.54    0.29
   2  -4   5    5.06    0.21
   2   4   5    5.03    0.27
   2   4   5    4.41    0.28
  -2   4  -5    4.86    0.31
  -3  -4  -5   -0.09    0.13
   3   4   5   -0.02    0.09
  -3   4  -5   -0.21    0.13
  -4  -4  -5   -0.01    0.16
  -4   4  -5   -0.12    0.16
  -5  -4  -5   -0.22    0.20
  -5   4  -5    0.00    0.20
  -6  -4  -5   -0.23    0.22
  -6   4  -5    0.09    0.22
  -7  -4  -5    0.12    0.26
  -7   4  -5    0.13    0.24
  -8  -5   5    2.16    0.34
  -8   5   5    2.00    0.27
  -7  -5   5    6.64    0.48
  -7   5   5    6.38    0.40
  -6  -5   5   16.58    0.72
   6  -5  -5   15.46    0.84
  -6   5   5   16.15    0.64
  -5  -5   5   32.63    1.17
   5  -5  -5   31.38    1.31
  -5   5   5   32.60    1.10
  -4  -5   5   67.37    2.20
   4  -5  -5   67.70    2.40
  -4   5   5   67.94    2.08
  -4   5   5   66.32    2.14
   4   5  -5   66.74    2.09
   3  -5  -5   87.61    3.00
  -3  -5   5   90.28    2.79
   3   5  -5   91.16    2.78
  -3   5   5   82.00    2.74
  -3   5   5   86.81    2.71
   3   5  -5   87.45    2.88
  -3   5   5   83.71    2.64
   3   5  -5   87.22    2.67
  -3   5   5   83.86    2.60
  -2  -5   5  100.13    3.22
   2  -5  -5  102.58    3.45
  -2   5   5  104.42    3.02
  -2   5   5  100.93    3.16
   2   5  -5   97.75    3.09
  -2   5   5  105.72    3.15
   2   5  -5   96.66    3.33
   2   5  -5  100.05    3.20
  -1  -5   5  104.54    3.37
   1  -5  -5  103.44    3.62
   1  -5  -5  103.40    3.20
   1  -5  -5  110.49    3.03
   1  -5  -5  111.63    3.29
   1   5  -5  106.90    3.25
  -1   5   5  104.84    3.31
  -1   5   5  103.88    3.17
   1   5  -5  106.29    3.36
  -1   5   5  107.54    3.31
   0  -5   5    7.63    0.37
   0  -5  -5    7.99    0.29
   0  -5   5    8.66    0.37
   0  -5  -5    6.83    0.33
   0   5   5    8.04    0.32
   0   5  -5    8.36    0.40
   0   5  -5    7.55    0.38
   0   5   5    7.84    0.33
  -1  -5  -5    0.04    0.10
   1  -5   5    0.13    0.09
   1  -5   5    0.12    0.07
  -1  -5  -5    0.08    0.06
   1  -5   5    0.19    0.08
   1   5   5   -0.04    0.09
   1   5   5    0.01    0.07
  -1   5  -5    0.14    0.12
   2  -5   5   13.50    0.47
   2  -5   5   15.37    0.55
  -2  -5  -5   14.00    0.58
   2  -5   5   14.43    0.53
  -2   5  -5   15.20    0.60
   2   5   5   14.08    0.57
   2   5   5   13.95    0.54
  -3  -5  -5    1.06    0.20
  -3   5  -5    1.04    0.19
   3   5   5    1.15    0.15
  -4  -5  -5    1.81    0.25
  -4   5  -5    1.61    0.23
  -5  -5  -5    0.18    0.22
  -5   5  -5   -0.05    0.20
  -6  -5  -5    0.51    0.26
  -6   5  -5    0.15    0.22
  -7  -5  -5    0.56    0.29
  -8  -6   5    0.67    0.29
  -8   6   5    0.83    0.21
  -7  -6   5   -0.15    0.21
  -7   6   5    0.34    0.16
  -6  -6   5    0.43    0.20
   6  -6  -5    0.30    0.26
  -6   6   5    0.14    0.14
   5  -6  -5    1.05    0.27
  -5  -6   5    1.08    0.20
  -5   6   5    0.94    0.15
   4  -6  -5    5.29    0.42
  -4  -6   5    4.37    0.33
  -4   6   5    3.97    0.25
  -4   6   5    4.15    0.29
   4   6  -5    4.27    0.30
  -4   6   5    4.38    0.27
  -3  -6   5   46.61    1.60
   3  -6  -5   47.02    1.75
  -3   6   5   48.51    1.46
   3   6  -5   47.87    1.54
  -3   6   5   48.41    1.52
  -3   6   5   47.06    1.56
  -3   6   5   46.86    1.50
   3   6  -5   47.82    1.60
   2  -6  -5  116.77    3.93
  -2  -6   5  114.28    3.67
  -2   6   5  117.53    3.59
  -2   6   5  118.31    3.44
   2   6  -5  108.31    3.51
   2   6  -5  113.81    3.64
  -2   6   5  118.20    3.58
   1  -6  -5  144.65    4.63
  -1  -6   5  154.89    4.72
   1  -6  -5  143.82    4.49
   1  -6  -5  147.55    4.25
   1  -6  -5  145.72    5.07
  -1   6   5  148.89    4.65
  -1   6   5  160.71    4.66
  -1   6   5  151.72    4.47
   1   6  -5  158.13    4.56
   1   6  -5  150.59    4.71
   0  -6  -5  197.56    6.54
   0  -6  -5  218.03    5.95
   0  -6   5  212.71    6.58
   0   6  -5  213.47    6.60
   0   6  -5  207.86    6.36
   0   6   5  223.29    6.30
   0   6   5  215.98    6.54
   1  -6   5  163.27    4.58
  -1  -6  -5  157.73    5.05
  -1  -6  -5  164.71    4.55
   1   6   5  171.00    4.85
  -1   6  -5  149.44    5.08
   1   6   5  169.08    5.04
   2  -6   5  122.94    3.52
  -2  -6  -5  126.94    3.49
  -2  -6  -5  121.11    3.91
   2   6   5  122.00    3.75
   2   6   5  131.94    3.91
  -2   6  -5  122.10    3.94
  -3  -6  -5   60.50    1.82
  -3  -6  -5   65.46    2.11
   3  -6   5   65.48    1.87
  -3   6  -5   65.56    2.11
   3   6   5   61.87    2.00
  -4  -6  -5   34.95    1.28
  -4   6  -5   35.53    1.27
  -5  -6  -5   11.63    0.60
  -5   6  -5   10.86    0.57
  -6  -6  -5    7.35    0.53
  -6   6  -5    6.99    0.48
  -7  -6  -5    1.38    0.32
  -8  -7   5    1.82    0.35
  -8   7   5    1.81    0.25
  -7  -7   5    6.55    0.50
  -7   7   5    7.15    0.40
   6  -7  -5   16.09    0.87
  -6  -7   5   16.87    0.75
  -6   7   5   16.32    0.64
   5  -7  -5   23.75    1.07
  -5  -7   5   24.46    0.94
  -5   7   5   23.92    0.84
   4  -7  -5   40.51    1.56
  -4  -7   5   40.49    1.41
  -4   7   5   40.05    1.28
  -4   7   5   42.34    1.33
  -4   7   5   40.02    1.33
   4   7  -5   39.37    1.34
  -3  -7   5  100.47    3.25
   3  -7  -5  102.88    3.50
  -3   7   5  105.53    3.16
   3   7  -5  101.88    3.24
   3   7  -5   98.42    3.11
  -3   7   5  100.34    3.03
  -3   7   5  100.68    3.18
  -2  -7   5  119.68    3.75
   2  -7  -5  118.17    4.01
   2  -7  -5  117.39    3.38
  -2   7   5  118.55    3.65
  -2   7   5  121.68    3.51
  -2   7   5  115.41    3.65
   2   7  -5  117.76    3.60
   2   7  -5  113.74    3.72
   1  -7  -5   99.17    3.52
  -1  -7   5  104.47    3.28
   1  -7  -5  102.50    2.94
  -1   7   5  106.24    3.21
  -1   7   5  106.46    3.08
  -1   7   5  101.02    3.20
   1   7  -5   95.72    3.26
   1   7  -5  106.76    3.16
   0  -7   5   69.70    2.29
   0  -7   5   73.44    2.10
   0  -7  -5   64.84    2.54
   0  -7  -5   72.70    2.05
   0  -7  -5   67.84    2.25
   0   7   5   75.44    2.18
   0   7  -5   72.17    2.25
   0   7  -5   71.72    2.31
   0   7   5   73.65    2.26
   1  -7   5   17.14    0.57
  -1  -7  -5   15.36    0.63
   1   7   5   16.87    0.62
   1   7   5   17.32    0.60
  -1   7  -5   17.44    0.68
   2  -7   5    1.02    0.14
  -2  -7  -5    1.03    0.11
  -2  -7  -5    1.01    0.17
   2   7   5    0.83    0.16
  -2   7  -5    0.64    0.19
   2   7   5    0.86    0.13
  -3  -7  -5    0.43    0.17
   3  -7   5    0.97    0.15
  -3  -7  -5    0.60    0.11
   3   7   5    0.81    0.14
  -3   7  -5    0.48    0.19
  -4  -7  -5    0.04    0.18
  -4   7  -5   -0.44    0.17
  -5  -7  -5    0.11    0.22
  -5   7  -5    0.25    0.22
  -6  -7  -5    0.01    0.25
  -6   7  -5    0.04    0.23
  -8  -8   5   -0.31    0.27
  -7  -8   5   -0.34    0.23
  -7   8   5   -0.08    0.15
  -6  -8   5    0.28    0.22
   6  -8  -5    0.33    0.29
  -6   8   5    0.36    0.14
  -5  -8   5   -0.14    0.17
   5  -8  -5    0.08    0.22
  -5   8   5    0.07    0.11
  -4  -8   5    0.28    0.16
   4  -8  -5    0.42    0.21
  -4   8   5    0.43    0.09
  -4   8   5    0.54    0.11
  -4   8   5    0.37    0.12
   4   8  -5    0.22    0.13
  -3  -8   5    1.36    0.21
   3  -8  -5    1.77    0.28
  -3   8   5    1.74    0.14
   3   8  -5    1.28    0.18
  -3   8   5    1.37    0.15
   3   8  -5    1.42    0.20
  -3   8   5    1.78    0.18
  -2  -8   5   11.82    0.56
   2  -8  -5   12.25    0.61
   2  -8  -5   11.64    0.47
  -2   8   5   12.82    0.46
   2   8  -5   11.75    0.52
   2   8  -5   11.73    0.53
  -2   8   5   11.67    0.44
  -2   8   5   11.46    0.42
   1  -8  -5    1.22    0.15
   1  -8  -5    1.40    0.24
  -1  -8   5    1.53    0.19
  -1   8   5    1.29    0.12
  -1   8   5    1.26    0.13
   1   8  -5    1.14    0.17
   1   8  -5    1.46    0.18
  -1   8   5    1.64    0.14
   0  -8   5   14.90    0.61
   0  -8  -5   14.68    0.74
   0  -8  -5   15.64    0.52
   0  -8   5   15.73    0.58
   0   8   5   15.86    0.55
   0   8  -5   14.92    0.62
   0   8  -5   14.83    0.62
   0   8   5   15.51    0.56
   1  -8   5    0.59    0.13
  -1  -8  -5    0.94    0.12
  -1  -8  -5    0.90    0.14
   1  -8   5    0.68    0.12
  -1   8  -5    0.39    0.16
   1   8   5    0.86    0.12
   1   8   5    0.95    0.14
  -2  -8  -5    4.94    0.32
   2  -8   5    4.71    0.27
  -2  -8  -5    4.63    0.24
   2   8   5    5.25    0.29
  -2   8  -5    5.04    0.36
   2   8   5    5.01    0.31
   3  -8   5    1.81    0.19
  -3  -8  -5    1.99    0.17
  -3  -8  -5    1.36    0.21
  -3   8  -5    1.47    0.23
   3   8   5    1.49    0.17
  -4  -8  -5    0.19    0.19
  -4   8  -5    0.16    0.19
  -5  -8  -5   -0.15    0.20
  -5   8  -5   -0.36    0.19
  -6   8  -5   -0.30    0.21
  -8  -9   5    1.34    0.35
  -7  -9   5    5.87    0.50
  -7   9   5    6.05    0.36
  -6  -9   5   11.75    0.66
   6  -9  -5   13.81    0.80
  -6   9   5   13.82    0.54
   5  -9  -5   25.51    1.13
  -5  -9   5   26.03    0.99
  -5   9   5   25.52    0.87
  -5   9   5   22.72    0.84
  -4  -9   5   32.25    1.15
   4  -9  -5   30.08    1.25
  -4   9   5   30.68    0.97
  -4   9   5   30.56    1.04
   4   9  -5   29.70    1.08
   3  -9  -5   33.92    1.33
   3  -9  -5   32.38    1.10
  -3  -9   5   33.00    1.22
   3   9  -5   33.12    1.16
  -3   9   5   36.33    1.10
  -3   9   5   33.65    1.10
   3   9  -5   32.38    1.19
  -3   9   5   34.08    1.05
  -2  -9   5   41.97    1.52
   2  -9  -5   45.04    1.65
   2  -9  -5   44.93    1.36
  -2   9   5   45.13    1.42
   2   9  -5   44.01    1.50
  -2   9   5   43.15    1.35
  -2   9   5   43.02    1.41
   2   9  -5   44.74    1.46
   1  -9  -5   19.33    0.65
   1  -9  -5   18.81    0.84
  -1  -9   5   19.19    0.75
   1   9  -5   19.18    0.73
   1   9  -5   17.55    0.73
  -1   9   5   19.88    0.65
  -1   9   5   19.69    0.69
  -1   9   5   18.39    0.66
   0  -9   5   16.34    0.67
   0  -9  -5   17.25    0.59
   0  -9  -5   17.98    0.81
   0  -9   5   18.15    0.65
   0   9   5   16.77    0.61
   0   9  -5   18.61    0.70
   0   9   5   17.45    0.64
   0   9  -5   17.80    0.70
  -1  -9  -5   16.20    0.53
   1  -9   5   15.25    0.57
  -1  -9  -5   15.18    0.61
  -1   9  -5   15.27    0.64
   1   9   5   15.48    0.60
   1   9   5   16.09    0.58
  -1   9  -5   15.95    0.65
  -2  -9  -5    1.45    0.15
   2  -9   5    1.64    0.19
  -2  -9  -5    1.32    0.19
  -2   9  -5    1.83    0.24
   2   9   5    1.56    0.19
   2   9   5    1.42    0.16
   3  -9   5    0.53    0.15
  -3  -9  -5    0.62    0.12
  -3  -9  -5    0.21    0.16
   3   9   5    0.33    0.12
  -3   9  -5    0.29    0.19
  -4  -9  -5    0.88    0.22
  -4   9  -5    0.98    0.23
  -5   9  -5    1.02    0.25
  -6   9  -5    0.04    0.22
  -7 -10   5    0.51    0.27
  -7  10   5    0.41    0.15
   6 -10  -5    0.64    0.31
  -6 -10   5    0.21    0.22
  -6  10   5    0.34    0.13
   5 -10  -5    3.57    0.43
  -5 -10   5    3.71    0.36
   4 -10  -5   12.10    0.67
  -4 -10   5   12.20    0.59
   4  10  -5   11.90    0.56
  -4  10   5   11.64    0.42
   3 -10  -5   14.78    0.72
   3 -10  -5   13.50    0.58
  -3 -10   5   14.43    0.66
   3  10  -5   14.71    0.64
   3  10  -5   14.09    0.62
  -3  10   5   14.88    0.50
  -3  10   5   14.42    0.52
  -3  10   5   16.39    0.54
   2 -10  -5   47.67    1.74
  -2 -10   5   45.61    1.62
   2 -10  -5   45.01    1.44
   2  10  -5   45.47    1.59
  -2  10   5   48.21    1.51
   2  10  -5   47.21    1.56
  -2  10   5   48.78    1.45
  -2  10   5   46.66    1.50
   1 -10  -5   78.14    2.79
   1 -10  -5   78.38    2.32
  -1 -10   5   82.56    2.59
  -1  10   5   74.74    2.50
   1  10  -5   77.20    2.57
   1  10  -5   83.02    2.50
  -1  10   5   82.76    2.42
   0 -10  -5  119.84    3.47
   0 -10  -5  119.85    4.14
   0 -10   5  119.53    3.53
   0  10   5  121.29    3.79
   0  10  -5  122.96    3.85
   0  10   5  126.39    3.66
   0  10  -5  120.25    3.72
  -1 -10  -5  113.02    3.23
   1 -10   5  114.04    3.29
  -1  10  -5  107.91    3.49
   1  10   5  117.82    3.57
  -1  10  -5  114.70    3.61
   1  10   5  112.84    3.43
   2 -10   5   78.04    2.33
  -2 -10  -5   79.94    2.55
  -2 -10  -5   78.58    2.28
  -2  10  -5   80.30    2.59
   2  10   5   77.07    2.44
   2  10   5   79.68    2.55
   3 -10   5   51.19    1.57
  -3 -10  -5   50.63    1.52
  -3  10  -5   51.40    1.77
   3  10   5   50.77    1.66
  -4  10  -5   27.69    1.07
  -5  10  -5    8.92    0.53
  -6  10  -5    3.46    0.38
   7 -11  -5    5.73    0.62
   6 -11  -5    7.87    0.65
  -6 -11   5    8.27    0.55
  -5 -11   5   22.80    0.94
   5 -11  -5   21.66    1.05
   4 -11  -5   33.46    1.37
  -4 -11   5   33.66    1.25
   4  11  -5   33.20    1.18
   3 -11  -5   13.10    0.67
  -3 -11   5   13.16    0.63
   3 -11  -5   12.58    0.55
  -3  11   5   13.05    0.47
  -3  11   5   13.16    0.45
   3  11  -5   12.76    0.58
   3  11  -5   12.35    0.58
   2 -11  -5   70.68    2.55
  -2 -11   5   72.96    2.39
   2 -11  -5   68.98    2.15
  -2  11   5   73.56    2.18
   2  11  -5   74.24    2.36
   2  11  -5   71.18    2.29
  -2  11   5   71.68    2.26
   1 -11  -5   39.83    1.49
  -1 -11   5   40.66    1.37
   1 -11  -5   38.91    1.22
   1  11  -5   39.55    1.33
  -1  11   5   38.75    1.24
   1  11  -5   37.77    1.35
  -1  11   5   37.96    1.28
   0 -11  -5   41.26    1.58
   0 -11  -5   42.09    1.28
   0 -11   5   41.74    1.35
   0  11  -5   40.35    1.40
   0  11   5   42.59    1.38
   0  11   5   43.13    1.34
   0  11  -5   41.69    1.44
  -1 -11  -5    8.61    0.37
  -1 -11  -5    9.26    0.61
   1 -11   5    9.00    0.43
  -1  11  -5    8.91    0.47
   1  11   5    8.94    0.42
   1  11   5    8.76    0.40
  -1  11  -5    8.36    0.47
   2 -11   5    3.07    0.27
  -2 -11  -5    2.95    0.22
   2  11   5    2.32    0.23
  -2  11  -5    2.48    0.31
   3 -11   5    2.47    0.26
  -3 -11  -5    2.27    0.23
  -3  11  -5    1.86    0.29
   3  11   5    1.95    0.23
  -4  11  -5    0.32    0.24
  -5  11  -5   -0.20    0.20
  -6  11  -5    0.56    0.24
   7 -12  -5    0.26    0.34
   6 -12  -5   -0.09    0.29
   5 -12  -5    0.10    0.26
  -5 -12   5   -0.10    0.21
  -4 -12   5    0.28    0.21
   4 -12  -5    0.45    0.24
   4  12  -5    0.06    0.15
   3 -12  -5    0.23    0.21
  -3 -12   5    0.46    0.20
   3 -12  -5    0.22    0.18
   3  12  -5    0.33    0.17
  -3  12   5    0.55    0.10
   3  12  -5    0.46    0.16
  -3  12   5    0.47    0.08
   2 -12  -5    4.26    0.40
   2 -12  -5    4.12    0.31
   2  12  -5    4.14    0.35
   2  12  -5    4.61    0.35
  -2  12   5    4.13    0.23
  -2  12   5    4.36    0.23
   1 -12  -5   -0.10    0.13
  -1 -12   5    0.04    0.19
   1 -12  -5   -0.09    0.18
  -1  12   5    0.05    0.09
   1  12  -5    0.23    0.14
   1  12  -5    0.04    0.14
  -1  12   5    0.01    0.07
   0 -12  -5    3.21    0.25
   0 -12   5    2.94    0.30
   0 -12  -5    2.81    0.34
   0  12   5    3.01    0.24
   0  12   5    2.72    0.22
   0  12  -5    2.69    0.29
   0  12  -5    3.43    0.32
   1 -12   5    5.48    0.34
  -1 -12  -5    5.66    0.51
  -1 -12  -5    5.57    0.30
  -1  12  -5    5.14    0.37
   1  12   5    5.06    0.30
   1  12   5    5.49    0.33
  -1  12  -5    5.35    0.38
  -2 -12  -5    0.32    0.14
   2 -12   5    0.21    0.15
   2  12   5    0.34    0.12
  -2  12  -5    0.33    0.18
  -2  12  -5    0.26    0.17
  -4 -12  -5    5.01    6.38
  -5 -12  -5    2.77    6.70
  -6  12  -5   -0.06    0.21
   7 -13  -5    3.89    0.55
   6 -13  -5    5.59    0.57
   4 -13  -5   17.82    0.88
   4 -13  -5   17.24    0.75
   4  13  -5   17.85    0.76
   3 -13  -5    7.08    0.49
   3 -13  -5    6.16    0.40
  -3  13   5    6.64    0.28
   3  13  -5    5.98    0.42
   3  13  -5    6.50    0.42
  -3  13   5    6.78    0.29
   2 -13  -5   41.28    1.35
   2 -13  -5   40.71    1.60
   2  13  -5   42.56    1.45
  -2  13   5   43.49    1.33
  -2  13   5   43.05    1.37
   2  13  -5   42.16    1.48
  -1 -13   5   16.92    0.70
   1 -13  -5   16.94    0.62
   1 -13  -5   16.26    0.76
  -1  13   5   15.68    0.60
  -1  13   5   16.23    0.59
   1  13  -5   15.44    0.68
   1  13  -5   15.53    0.67
   0 -13  -5   14.86    0.73
   0 -13  -5   15.39    0.57
   0 -13   5   14.33    0.64
   0  13  -5   15.00    0.64
   0  13   5   14.03    0.57
   0  13   5   14.56    0.56
   0  13  -5   14.06    0.63
  -1 -13  -5    2.81    0.34
   1 -13   5    2.79    0.28
  -1 -13  -5    2.38    0.24
  -1  13  -5    2.78    0.30
   1  13   5    2.58    0.25
   1  13   5    2.78    0.23
  -1  13  -5    2.65    0.29
  -2 -13  -5   -0.55    0.28
  -2 -13  -5   -0.06    0.13
   2 -13   5    0.18    0.16
  -2  13  -5   -0.07    0.17
  -2  13  -5    0.33    0.17
   2  13   5    0.06    0.11
   3 -13   5    0.78    0.21
  -3 -13  -5    3.55    5.62
   3  13   5    0.36    0.13
  -4 -13  -5    1.29    6.24
  -4  13  -5    1.12    0.28
  -5  13  -5    0.09    0.22
   6 -14  -5    0.50    0.33
   5 -14  -5    1.25    0.34
   5  14  -5   -1.83    4.45
   4 -14  -5    7.67    0.56
   4 -14  -5    6.38    0.46
   4  14  -5    4.02    4.46
   4  14  -5    7.69    0.47
   3 -14  -5    6.11    0.48
   3 -14  -5    5.65    0.39
  -3  14   5    6.02    0.26
  -3  14   5    6.14    0.28
   3  14  -5    6.40    0.42
   3  14  -5    5.82    0.41
   2 -14  -5   19.94    0.91
   2 -14  -5   20.00    0.77
   2  14  -5   21.17    0.84
  -2  14   5   21.93    0.71
  -2  14   5   20.77    0.73
   2  14  -5   20.77    0.83
   1 -14  -5   51.38    1.63
  -1 -14   5   51.92    1.71
   1 -14  -5   53.58    1.93
  -1  14   5   53.04    1.70
   1  14  -5   51.48    1.78
   1  14  -5   51.82    1.74
  -1  14   5   53.50    1.65
   0 -14   5   60.81    1.92
   0 -14  -5   60.57    1.84
   0 -14  -5   60.92    2.19
   0  14   5   61.43    1.97
   0  14  -5   58.53    1.97
   0  14   5   62.09    1.91
   0  14  -5   59.97    2.03
  -1 -14  -5   52.97    1.61
  -1 -14  -5   53.36    1.95
   1 -14   5   52.13    1.68
  -1  14  -5   54.74    1.75
  -1  14  -5   50.78    1.79
   1  14   5   52.76    1.69
  -2 -14  -5   38.33    1.56
  -2 -14  -5   40.30    1.24
   2 -14   5   40.22    1.32
  -2  14  -5   38.24    1.37
  -2  14  -5   40.59    1.41
   2  14   5   38.77    1.32
   3 -14   5   31.47    1.09
  -3  14  -5   31.22    1.13
   3  14   5   28.86    1.08
  -3  14  -5   30.04    1.17
  -4 -14  -5   -0.92    6.05
  -5  14  -5    4.83    0.43
   6 -15  -5    3.14    0.49
   3 -15  -5   11.57    0.66
   3 -15  -5   10.35    0.55
   3  15  -5   11.27    0.57
  -3  15   5   11.03    0.43
  -3  15   5   11.34    0.42
   3  15  -5   11.14    0.58
   2 -15  -5   23.89    0.88
   2 -15  -5   24.18    1.04
  -2  15   5   23.76    0.83
   2  15  -5   23.71    0.93
   2  15  -5   23.86    0.95
  -2  15   5   24.35    0.81
   1 -15  -5   11.29    0.61
   1 -15  -5   10.86    0.50
  -1 -15   5   11.25    0.57
  -1  15   5    9.77    0.45
   1  15  -5   10.73    0.54
   1  15  -5   11.26    0.55
  -1  15   5   10.85    0.45
   0 -15   5    9.41    0.52
   0 -15  -5    9.83    0.58
   0 -15  -5    9.97    0.46
   0  15  -5    9.44    0.51
   0  15   5   10.48    0.45
   0  15   5    9.62    0.45
   0  15  -5    9.39    0.51
   1 -15   5   12.03    0.56
  -1 -15  -5   11.12    0.48
  -1 -15  -5   10.38    0.62
  -1  15  -5   10.25    0.55
   1  15   5   11.43    0.49
  -1  15  -5   11.23    0.55
  -2 -15  -5    1.49    0.21
   2 -15   5    1.63    0.25
  -2 -15  -5    1.55    0.32
   2  15   5    1.54    0.19
  -2  15  -5    1.28    0.24
  -2  15  -5    1.58    0.24
   3 -15   5    0.38    0.22
  -3 -15  -5    2.23    5.45
  -3 -15  -5    1.58    0.40
  -3  15  -5    0.26    0.21
   3  15   5    0.17    0.13
  -3  15  -5    0.15    0.18
  -4 -15  -5    3.51    5.88
  -5  15  -5   -0.09    0.22
   6 -16  -5   -0.09    0.31
   5 -16  -5   -0.03    0.27
   5  16  -5   -3.82    4.49
   4  16  -5    4.04    4.54
   3 -16  -5   -0.05    0.21
   3 -16  -5   -0.01    0.23
   3  16  -5    0.06    0.17
  -3  16   5    0.08    0.08
   3  16  -5   -0.06    0.19
  -3  16   5    0.01    0.09
   2 -16  -5    0.60    0.25
  -2 -16   5    0.13    0.22
   2 -16  -5   -0.02    0.19
   2  16  -5    0.16    0.16
   2  16  -5    0.31    0.19
  -2  16   5    0.01    0.09
  -2  16   5    0.01    0.10
  -1 -16   5    0.32    0.21
   1 -16  -5    0.23    0.18
   1 -16  -5    0.03    0.21
   1  16  -5   -0.10    0.16
  -1  16   5   -0.05    0.09
  -1  16   5    0.16    0.11
   1  16  -5    0.01    0.17
   0 -16  -5    0.50    0.23
   0 -16   5    0.26    0.19
   0 -16  -5    0.27    0.17
   0  16   5    0.19    0.11
   0  16  -5    0.43    0.17
   0  16  -5    0.19    0.18
   1 -16   5    1.33    0.26
  -1 -16  -5    1.01    0.29
  -1 -16  -5    1.23    0.20
   1  16   5    0.87    0.16
  -1  16  -5    1.06    0.20
  -1  16  -5    1.18    0.23
  -2 -16  -5    0.51    0.27
  -2 -16  -5    0.60    0.18
   2 -16   5    0.48    0.22
  -2  16  -5    0.32    0.19
   2  16   5    0.23    0.13
  -2  16  -5    0.48    0.18
   3 -16   5    0.06    0.20
  -3 -16  -5    5.37    5.42
  -3 -16  -5   -0.21    0.32
  -4  16  -5   -0.03    0.19
  -4  16  -5    0.01    0.23
  -5  16  -5   -0.16    0.21
  -5  16  -5   -0.02    0.21
   6 -17  -5    1.53    0.41
   5 -17  -5    5.95    0.58
   4 -17  -5   10.73    0.61
   4 -17  -5   11.66    0.72
   3 -17  -5    7.81    0.57
   3 -17  -5    8.21    0.50
   3  17  -5    8.20    0.50
  -3  17   5    8.15    0.34
   3  17  -5    8.40    0.53
  -3  17   5    7.34    0.35
  -2 -17   5   12.50    0.65
   2 -17  -5   13.48    0.71
   2 -17  -5   12.42    0.60
   2  17  -5   13.63    0.64
  -2  17   5   13.06    0.52
   2  17  -5   13.82    0.66
  -2  17   5   12.96    0.51
   1 -17  -5   14.56    0.62
  -1 -17   5   12.82    0.68
   1 -17  -5   14.32    0.72
  -1  17   5   14.05    0.56
  -1  17   5   14.58    0.57
   1  17  -5   13.11    0.65
   1  17  -5   14.12    0.66
   0 -17   5    3.36    0.37
   0 -17  -5    4.49    0.41
   0 -17  -5    3.95    0.33
   0  17   5    3.84    0.30
   0  17  -5    3.77    0.35
   0  17  -5    3.67    0.36
  -1 -17  -5    0.70    0.25
  -1 -17  -5    0.35    0.18
   1 -17   5    0.53    0.23
  -1  17  -5    0.46    0.18
  -1  17  -5    0.58    0.20
   1  17   5    0.68    0.15
  -2 -17  -5    0.10    0.16
   2 -17   5    0.11    0.21
  -2 -17  -5   -0.12    0.26
  -2  17  -5    0.37    0.19
  -2  17  -5    0.09    0.15
   2  17   5    0.13    0.12
  -3 -17  -5    0.12    5.33
   3 -17   5   -0.03    0.21
   3  17   5    0.02    0.12
  -3  17  -5    0.14    0.19
  -3  17  -5   -0.06    0.17
  -4  17  -5    0.11    0.24
  -4  17  -5    0.35    0.21
  -5  17  -5    0.20    0.22
   5 -18  -5    0.17    0.29
   4 -18  -5    1.08    0.32
   4 -18  -5    0.35    0.27
   3 -18  -5    3.42    0.43
  -3 -18   5    4.38    0.41
   3 -18  -5    3.64    0.38
   3  18  -5    4.02    0.38
  -3  18   5    3.94    0.25
  -3  18   5    4.01    0.24
   3  18  -5    4.28    0.42
   2 -18  -5   12.79    0.61
   2 -18  -5   13.48    0.72
  -2 -18   5   12.04    0.66
   2  18  -5   12.68    0.63
   2  18  -5   13.10    0.65
  -2  18   5   13.00    0.51
   1 -18  -5   22.90    1.00
  -1 -18   5   22.61    0.95
   1 -18  -5   22.53    0.86
   1  18  -5   22.62    0.91
   1  18  -5   22.49    0.93
  -1  18   5   22.83    0.82
   0 -18  -5   28.79    1.16
   0 -18  -5   28.00    0.99
   0 -18   5   26.37    1.07
   0  18   5   27.90    0.99
   0  18  -5   27.39    1.04
   0  18  -5   27.19    1.07
  -1 -18  -5   20.68    0.79
   1 -18   5   19.98    0.88
  -1 -18  -5   22.63    0.96
  -1  18  -5   21.23    0.85
   1  18   5   21.13    0.80
  -1  18  -5   20.87    0.88
  -2 -18  -5   17.17    0.67
   2 -18   5   17.16    0.77
   2  18   5   15.33    0.68
  -2  18  -5   16.35    0.74
  -2  18  -5   16.91    0.72
   3 -18   5   12.61    0.66
  -3  18  -5   12.62    0.62
  -3  18  -5   12.04    0.64
   3  18   5   11.56    0.58
  -4  18  -5    6.09    0.45
  -4  18  -5    5.89    0.48
   5 -19  -5    2.82    0.45
   4 -19  -5    6.11    0.54
   4 -19  -5    5.28    0.47
   3 -19  -5   10.27    0.66
  -3 -19   5    9.54    0.59
   3 -19  -5    9.44    0.56
   3  19  -5   10.39    0.60
  -3  19   5    9.58    0.41
   3  19  -5    9.70    0.56
  -2 -19   5    8.46    0.55
   2 -19  -5    8.20    0.56
   2 -19  -5    8.18    0.49
   2  19  -5    8.32    0.51
   2  19  -5    8.12    0.53
  -2  19   5    8.31    0.39
  -1 -19   5    6.09    0.49
   1 -19  -5    7.25    0.52
   1 -19  -5    6.67    0.43
  -1  19   5    7.06    0.38
   1  19  -5    6.30    0.46
   1  19  -5    6.27    0.45
   0 -19  -5    4.00    0.42
   0 -19   5    3.22    0.38
   0 -19  -5    3.67    0.34
   0  19  -5    3.20    0.35
   0  19   5    3.44    0.31
   0  19  -5    4.03    0.38
   1 -19   5    1.28    0.28
  -1 -19  -5    1.30    0.24
  -1 -19  -5    1.11    0.29
  -1  19  -5    1.33    0.26
   1  19   5    1.26    0.18
  -1  19  -5    0.99    0.22
   2 -19   5    0.68    0.26
  -2 -19  -5    0.77    0.21
   2  19   5    0.61    0.16
  -2  19  -5    0.57    0.22
  -2  19  -5    0.43    0.18
   3 -19   5   -0.01    0.24
  -3  19  -5    0.35    0.21
  -3  19  -5    0.19    0.17
   3  19   5   -0.03    0.13
  -4  19  -5    0.14    0.22
  -4  19  -5    0.01    0.18
   4 -20  -5    0.00    0.26
   3 -20  -5    0.18    0.25
   3 -20  -5    0.23    0.27
  -3 -20   5    0.13    0.23
   3  20  -5    0.12    0.24
  -3  20   5    0.10    0.10
   3  20  -5    0.02    0.19
   2 -20  -5    0.25    0.25
  -2 -20   5   -0.19    0.21
   2 -20  -5   -0.09    0.21
   2  20  -5   -0.03    0.17
   2  20  -5   -0.07    0.20
  -2  20   5   -0.04    0.10
   1 -20  -5    0.12    0.23
   1 -20  -5   -0.09    0.19
  -1 -20   5   -0.08    0.21
   1  20  -5   -0.22    0.17
   1  20  -5   -0.05    0.19
  -1  20   5   -0.13    0.11
   0 -20   5    0.03    0.22
   0 -20  -5   -0.02    0.19
   0 -20  -5    0.19    0.23
   0  20  -5   -0.05    0.17
   0  20  -5    0.18    0.20
   0  20   5    0.02    0.13
  -1 -20  -5    0.18    0.18
   1 -20   5   -0.08    0.22
  -1  20  -5    0.17    0.16
   1  20   5   -0.16    0.11
  -1  20  -5   -0.16    0.18
   2 -20   5    0.25    0.26
   2  20   5    0.03    0.14
  -2  20  -5   -0.21    0.15
  -2  20  -5    0.17    0.19
   3 -20   5   -0.12    0.25
  -3  20  -5   -0.09    0.17
  -3  20  -5    0.14    0.20
   3  20   5    0.07    0.15
  -4  20  -5   -0.09    0.17
   4 -21  -5    3.75    0.49
   3 -21  -5    5.93    0.47
   3 -21  -5    5.35    0.52
   3  21  -5    5.54    0.50
   3  21  -5    5.23    0.46
  -3  21   5    5.24    0.30
   2 -21  -5    3.39    0.43
  -2 -21   5    3.14    0.41
   2 -21  -5    3.23    0.37
   2  21  -5    2.92    0.34
   2  21  -5    3.23    0.40
  -2  21   5    3.02    0.25
   1 -21  -5    2.42    0.35
   1 -21  -5    2.43    0.32
  -1 -21   5    1.78    0.33
   1  21  -5    2.06    0.28
   1  21  -5    1.99    0.32
  -1  21   5    2.72    0.25
   0 -21  -5    2.54    0.32
   0 -21   5    2.20    0.37
   0  21   5    2.47    0.26
   0  21  -5    2.49    0.30
   0  21  -5    2.12    0.32
  -1 -21  -5    1.16    0.25
   1 -21   5    1.90    0.34
   1  21   5    1.42    0.21
  -1  21  -5    1.24    0.27
  -1  21  -5    1.43    0.25
   2 -21   5   -0.37    0.24
   2  21   5   -0.02    0.13
  -2  21  -5   -0.03    0.16
  -2  21  -5    0.21    0.19
   3  21   5    0.05    0.14
  -3  21  -5    0.16    0.17
   4 -22  -5    1.04    0.35
   3 -22  -5    1.45    0.35
   3  22  -5    0.89    0.25
   3  22  -5    1.13    0.30
  -3  22   5    1.50    0.17
   2 -22  -5    4.55    0.46
   2 -22  -5    4.15    0.42
  -2  22   5    4.60    0.30
   2  22  -5    4.99    0.46
   2  22  -5    4.23    0.40
  -1 -22   5    6.50    0.53
   1 -22  -5    7.99    0.57
   1 -22  -5    7.13    0.49
   1  22  -5    7.50    0.52
   1  22  -5    7.13    0.49
  -1  22   5    7.81    0.43
   0 -22   5    6.35    0.54
   0 -22  -5    6.61    0.46
   0  22  -5    5.52    0.44
   0  22  -5    5.93    0.48
   0  22   5    6.15    0.41
   1 -22   5    9.74    0.65
  -1 -22  -5   10.47    0.56
  -1  22  -5   11.06    0.62
   1  22   5    9.71    0.51
  -1  22  -5   10.65    0.57
  -2  22  -5    5.11    0.41
   2  22   5    4.74    0.37
  -2  22  -5    5.84    0.45
   3  22   5    4.65    0.39
  -4  23   5    2.48    0.22
   3 -23  -5    2.18    0.40
   3  23  -5    1.64    0.29
  -3  23   5    2.19    0.22
  -2  23   5    2.08    0.23
   2  23  -5    2.18    0.34
   2  23  -5    1.91    0.29
   1  23  -5    3.81    0.42
  -1  23   5    2.87    0.26
   1  23  -5    2.59    0.32
   0 -23  -5    1.18    0.27
   0  23   5    1.22    0.19
   0  23  -5    0.73    0.21
   0  23  -5    1.35    0.29
   1  23   5    0.22    0.15
  -1  23  -5    0.43    0.23
  -1  23  -5    0.22    0.18
  -2  23  -5    0.39    0.19
   2  23   5    0.61    0.18
   3  23   5    0.05    0.15
   3  24  -5   -0.14    0.20
   2  24  -5   -0.08    0.24
  -2  24   5    0.07    0.11
   2  24  -5   -0.15    0.19
  -1  24   5   -0.11    0.11
   1  24  -5   -0.12    0.19
   1  24  -5   -0.10    0.23
   0  24  -5   -0.18    0.17
   0  24   5    0.08    0.14
  -1  24  -5   -0.11    0.16
   1  24   5    0.00    0.13
  -8   0   6    3.85    0.41
  -7   0   6   11.71    0.61
   6   0  -6   24.23    1.07
  -6   0   6   24.65    0.95
  -5   0   6   92.30    2.95
   5   0  -6   90.51    3.18
   4   0  -6  118.47    4.01
  -4   0   6  118.06    3.75
   3   0  -6  203.69    6.91
  -3   0   6  217.85    6.24
   3   0  -6  210.36    6.19
   3   0  -6  199.44    6.44
  -3   0   6  211.29    6.49
   2   0  -6  296.39    9.47
   2   0  -6  303.79   10.14
  -2   0   6  311.78    9.50
  -2   0   6  322.79    9.16
   2   0  -6  306.37    9.14
   1   0  -6  301.28    9.01
   1   0  -6  304.77    9.33
  -1   0   6  303.98    9.34
  -1   0   6  303.32    8.96
   0   0   6  246.57    7.59
   0   0  -6  238.80    7.59
   0   0   6  243.04    6.88
   0   0   6  256.80    7.33
   1   0   6   89.02    2.82
  -1   0  -6   87.07    2.84
   1   0   6   92.35    2.73
   2   0   6   87.19    2.80
  -2   0  -6   88.46    2.83
   2   0   6   89.40    2.71
  -3   0  -6    8.82    0.46
  -4   0  -6    5.65    0.41
  -5   0  -6    0.12    0.21
  -6   0  -6    0.33    0.26
  -8  -1   6    1.47    0.29
  -8   1   6    1.23    0.26
  -7  -1   6    2.41    0.30
  -7   1   6    2.91    0.34
  -6  -1   6    1.92    0.26
   6  -1  -6    2.51    0.36
  -6   1   6    2.86    0.30
   5  -1  -6    1.80    0.29
  -5  -1   6    1.61    0.22
  -5   1   6    1.51    0.21
   5   1  -6    2.83    0.35
   4  -1  -6    3.15    0.32
  -4  -1   6    2.94    0.28
  -4   1   6    3.00    0.29
   4   1  -6    3.80    0.33
   3  -1  -6   23.83    0.95
  -3  -1   6   22.81    0.84
  -3  -1   6   22.86    0.88
   3   1  -6   23.49    0.91
  -3   1   6   23.51    0.88
  -3   1   6   22.97    0.81
  -3   1   6   23.81    0.85
   2  -1  -6    6.88    0.45
  -2  -1   6    7.03    0.39
  -2  -1   6    6.67    0.34
   2   1  -6    7.26    0.42
   2   1  -6    6.55    0.37
  -2   1   6    7.88    0.35
   2   1  -6    6.60    0.37
  -2   1   6    7.51    0.34
  -2   1   6    8.03    0.39
  -1  -1   6    2.92    0.26
   1  -1  -6    3.66    0.25
   1  -1  -6    3.38    0.38
  -1  -1   6    2.74    0.22
   1  -1  -6    3.71    0.29
   1   1  -6    2.95    0.28
  -1   1   6    3.68    0.25
   1   1  -6    2.76    0.26
  -1   1   6    3.58    0.21
   0  -1  -6   76.61    2.42
   0  -1   6   78.54    2.33
   0  -1   6   76.38    2.43
   0   1   6   76.59    2.42
   0   1  -6   77.07    2.44
   0   1   6   71.05    2.14
   0   1   6   76.35    2.32
  -1  -1  -6   28.13    0.98
   1  -1   6   29.39    0.93
   1  -1   6   26.93    0.95
  -1   1  -6   27.20    0.98
   1   1   6   26.70    0.95
   1   1   6   28.29    0.93
  -2  -1  -6   39.15    1.41
   2  -1   6   40.81    1.38
   2  -1   6   44.49    1.34
  -2   1  -6   40.74    1.41
   2   1   6   44.17    1.34
   2   1   6   39.89    1.38
  -3  -1  -6   16.39    0.68
  -3   1  -6   16.65    0.69
  -4  -1  -6   16.61    0.72
  -4   1  -6   16.88    0.73
  -5  -1  -6   11.02    0.59
  -5   1  -6   10.71    0.58
  -6  -1  -6    1.13    0.29
  -6   1  -6    1.02    0.28
  -7  -1  -6    0.84    0.30
  -8  -2   6   -0.03    0.22
  -8   2   6   -0.14    0.20
  -7  -2   6   -0.11    0.20
  -7   2   6   -0.03    0.18
  -6  -2   6    0.12    0.18
   6  -2  -6    0.01    0.24
  -6   2   6    0.09    0.16
  -5  -2   6    0.33    0.16
   5  -2  -6    0.31    0.21
   5   2  -6    0.41    0.19
  -5   2   6    0.32    0.15
   4  -2  -6   13.31    0.64
  -4  -2   6   13.14    0.57
  -4   2   6   12.35    0.54
  -4   2   6   12.90    0.55
   4   2  -6   12.84    0.59
  -3  -2   6    0.71    0.14
  -3  -2   6    0.43    0.16
   3  -2  -6    0.88    0.21
   3   2  -6    0.79    0.13
  -3   2   6    0.94    0.17
  -3   2   6    0.66    0.12
  -3   2   6    0.86    0.14
   3   2  -6    0.56    0.16
  -3   2   6    0.79    0.17
   3   2  -6    0.89    0.16
  -2  -2   6    2.25    0.22
   2  -2  -6    2.36    0.31
  -2  -2   6    2.46    0.26
   2  -2  -6    1.78    0.17
   2  -2  -6    1.46    0.15
  -2   2   6    2.11    0.21
   2   2  -6    2.57    0.25
   2   2  -6    2.01    0.19
  -2   2   6    1.97    0.23
  -2   2   6    1.99    0.18
   2   2  -6    2.41    0.26
  -1  -2   6   -0.04    0.11
   1  -2  -6    0.37    0.11
  -1  -2   6   -0.01    0.07
   1  -2  -6   -0.03    0.16
  -1   2   6    0.04    0.06
   1   2  -6   -0.08    0.12
  -1   2   6    0.12    0.10
   0  -2   6    7.19    0.33
   0  -2   6    6.79    0.35
   0  -2  -6    6.61    0.34
   0   2   6    6.77    0.31
   0   2  -6    6.34    0.36
   0   2   6    6.90    0.33
  -1  -2  -6    4.61    0.31
   1  -2   6    4.98    0.28
   1  -2   6    4.56    0.28
  -1   2  -6    4.46    0.32
   1   2   6    4.40    0.27
   1   2   6    4.62    0.26
   2  -2   6    2.09    0.22
   2  -2   6    2.04    0.22
  -2  -2  -6    1.95    0.22
  -2   2  -6    1.86    0.22
   2   2   6    1.96    0.23
   2   2   6    2.01    0.21
  -3  -2  -6    0.07    0.15
  -3   2  -6   -0.03    0.15
  -4  -2  -6    0.17    0.19
  -4   2  -6   -0.10    0.19
  -5  -2  -6    0.04    0.22
  -5   2  -6    0.05    0.21
  -6  -2  -6   -0.15    0.22
  -6   2  -6   -0.21    0.23
  -7  -2  -6   -0.09    0.25
  -8  -3   6    0.78    0.27
  -8   3   6    0.82    0.23
  -7  -3   6    2.15    0.31
  -7   3   6    2.20    0.26
  -6  -3   6    2.29    0.29
   6  -3  -6    2.88    0.40
  -6   3   6    3.24    0.29
   5  -3  -6    0.83    0.25
  -5  -3   6    0.64    0.18
  -5   3   6    0.63    0.16
   5   3  -6    0.93    0.21
  -4  -3   6    3.69    0.32
   4  -3  -6    4.09    0.38
   4   3  -6    4.17    0.31
  -4   3   6    3.43    0.30
  -4   3   6    3.38    0.28
  -3  -3   6    1.01    0.19
   3  -3  -6    1.14    0.23
  -3   3   6    0.78    0.13
   3   3  -6    0.98    0.17
  -3   3   6    0.58    0.12
  -3   3   6    0.94    0.15
   3   3  -6    0.96    0.15
   3   3  -6    0.99    0.17
  -3   3   6    0.57    0.16
  -2  -3   6    2.99    0.25
   2  -3  -6    2.02    0.18
   2  -3  -6    3.60    0.36
  -2  -3   6    2.66    0.28
   2  -3  -6    2.33    0.21
  -2   3   6    2.56    0.26
  -2   3   6    2.50    0.19
  -2   3   6    2.53    0.23
   2   3  -6    3.10    0.28
   2   3  -6    3.16    0.28
   2   3  -6    2.95    0.29
  -1  -3   6    6.04    0.34
   1  -3  -6    5.59    0.33
  -1  -3   6    5.60    0.30
   1  -3  -6    5.71    0.44
   1  -3  -6    5.94    0.30
   1   3  -6    5.89    0.35
  -1   3   6    5.29    0.30
   1   3  -6    5.64    0.34
  -1   3   6    5.65    0.27
   0  -3   6   91.74    2.88
   0  -3  -6   87.39    2.86
   0  -3   6   91.60    2.77
   0   3   6   96.25    2.75
   0   3  -6   89.19    2.89
   0   3   6   89.50    2.85
   0   3   6   87.90    2.55
   1  -3   6   97.90    2.92
   1  -3   6   97.62    3.02
  -1  -3  -6   95.78    3.03
   1   3   6   98.18    2.90
  -1   3  -6   88.42    3.05
   1   3   6   95.93    3.01
  -2  -3  -6   37.11    1.31
   2  -3   6   36.86    1.27
   2  -3   6   39.87    1.26
   2   3   6   38.52    1.29
  -2   3  -6   37.74    1.32
   2   3   6   38.91    1.24
  -3  -3  -6    7.65    0.43
   3   3   6    8.80    0.40
  -3   3  -6    8.45    0.45
  -4  -3  -6   16.23    0.70
  -4   3  -6   14.40    0.68
  -5  -3  -6   11.51    0.63
  -5   3  -6   11.54    0.61
  -6  -3  -6    0.59    0.26
  -6   3  -6    1.12    0.28
  -7  -3  -6    0.89    0.30
  -8  -4   6    5.09    0.47
  -8   4   6    4.36    0.40
  -7  -4   6   11.39    0.62
  -7   4   6   10.23    0.54
   6  -4  -6   23.49    1.13
  -6  -4   6   25.94    1.00
  -6   4   6   25.89    0.94
  -5  -4   6   50.42    1.73
   5  -4  -6   50.90    1.92
  -5   4   6   50.46    1.69
  -4  -4   6  107.46    3.38
   4  -4  -6  104.27    3.64
  -4   4   6  105.34    3.34
   4   4  -6  101.45    3.53
  -4   4   6  107.66    3.22
  -3  -4   6  220.06    6.96
   3  -4  -6  222.83    7.44
  -3   4   6  227.56    6.92
   3   4  -6  218.73    6.93
  -3   4   6  225.55    6.63
  -3   4   6  227.54    6.89
   3   4  -6  227.45    6.68
   3   4  -6  216.87    7.33
  -2  -4   6  296.45    8.86
  -2  -4   6  298.89    9.23
   2  -4  -6  296.27    9.87
   2   4  -6  308.52    8.88
  -2   4   6  286.94    9.15
   2   4  -6  303.07    9.77
  -2   4   6  306.89    8.89
  -2   4   6  297.82    9.18
   2   4  -6  289.61    9.20
  -1  -4   6  252.04    7.90
   1  -4  -6  246.25    8.49
  -1  -4   6  254.99    7.59
   1   4  -6  256.69    7.62
  -1   4   6  263.77    7.86
   1   4  -6  253.83    7.90
  -1   4   6  259.45    7.62
   0  -4   6  210.31    6.38
   0  -4  -6  202.05    6.35
   0  -4   6  216.72    6.14
   0   4  -6  210.78    6.39
   0   4   6  199.07    6.34
   0   4   6  208.64    6.10
   0   4   6  191.97    5.73
   1  -4   6  109.68    3.27
   1  -4   6  107.77    3.02
  -1  -4  -6  105.25    3.39
   1  -4   6  108.10    3.37
   1   4   6  109.20    3.25
   1   4   6  104.36    3.37
  -1   4  -6  107.59    3.42
  -2  -4  -6   44.10    1.53
  -2   4  -6   44.06    1.55
   2   4   6   46.65    1.51
   2   4   6   46.88    1.46
  -3  -4  -6    8.82    0.47
   3   4   6    9.86    0.44
  -3   4  -6    9.26    0.49
  -4  -4  -6    1.88    0.28
  -4   4  -6    2.13    0.28
  -5  -4  -6    0.59    0.24
  -5   4  -6    0.75    0.25
  -6  -4  -6   -0.09    0.22
  -6   4  -6   -0.05    0.23
  -7  -4  -6   -0.02    0.26
  -8  -5   6    1.35    0.31
  -8   5   6    1.21    0.25
   7  -5  -6    1.96    0.42
  -7  -5   6    2.02    0.31
  -7   5   6    1.76    0.24
  -6  -5   6    0.56    0.21
   6  -5  -6    1.07    0.30
  -6   5   6    0.67    0.17
  -5  -5   6    1.42    0.23
   5  -5  -6    2.27    0.34
  -5   5   6    2.22    0.25
  -4  -5   6    6.48    0.41
   4  -5  -6    7.27    0.50
  -4   5   6    7.28    0.35
   4   5  -6    6.31    0.36
  -4   5   6    6.32    0.37
  -3  -5   6   16.57    0.71
   3  -5  -6   16.27    0.78
  -3   5   6   17.60    0.66
  -3   5   6   16.52    0.59
  -3   5   6   16.81    0.63
   3   5  -6   16.61    0.67
   3   5  -6   15.76    0.64
   3   5  -6   17.16    0.69
  -2  -5   6   13.16    0.60
   2  -5  -6   12.75    0.67
  -2   5   6   13.55    0.52
  -2   5   6   13.13    0.48
   2   5  -6   12.61    0.57
   2   5  -6   12.85    0.57
  -2   5   6   13.48    0.53
   2   5  -6   13.40    0.55
  -1  -5   6   10.06    0.46
   1  -5  -6   10.43    0.60
  -1  -5   6   10.63    0.49
  -1   5   6    9.74    0.40
   1   5  -6   10.97    0.50
  -1   5   6   11.30    0.45
   1   5  -6   10.28    0.49
  -1   5   6   10.67    0.43
   0  -5  -6   25.91    0.98
   0  -5   6   29.47    1.02
   0  -5   6   28.04    0.98
   0   5  -6   29.90    1.05
   0   5   6   30.52    0.95
   0   5  -6   29.01    1.01
   0   5   6   29.28    0.98
   1  -5   6   31.80    0.99
  -1  -5  -6   32.21    1.13
   1  -5   6   36.09    1.12
   1  -5   6   33.32    1.12
  -1   5  -6   31.70    1.17
   1   5   6   32.54    1.08
   1   5   6   34.18    1.13
   2  -5   6   33.64    0.98
  -2  -5  -6   32.40    1.15
   2   5   6   32.01    1.13
  -2   5  -6   33.38    1.19
   2   5   6   32.69    1.09
  -3  -5  -6   21.49    0.84
  -3   5  -6   21.92    0.85
   3   5   6   22.42    0.82
   3   5   6   19.91    0.77
  -4  -5  -6   12.47    0.62
  -4   5  -6   12.72    0.61
  -5  -5  -6    3.99    0.42
  -5   5  -6    4.10    0.39
  -6  -5  -6    2.13    0.34
  -6   5  -6    2.45    0.32
  -8  -6   6   -0.15    0.25
  -8   6   6    0.16    0.20
  -7  -6   6   -0.07    0.22
   7  -6  -6    0.34    0.32
  -7   6   6    0.26    0.18
   6  -6  -6    0.23    0.27
  -6  -6   6    0.06    0.19
  -6   6   6    0.25    0.15
   5  -6  -6    0.25    0.23
  -5  -6   6    0.13    0.17
  -5   6   6    0.24    0.13
   4  -6  -6    6.27    0.47
  -4  -6   6    5.74    0.39
  -4   6   6    5.95    0.31
  -4   6   6    5.88    0.35
  -3  -6   6    0.93    0.20
   3  -6  -6    1.21    0.26
   3   6  -6    1.15    0.14
  -3   6   6    1.05    0.11
   3   6  -6    1.06    0.17
  -3   6   6    1.19    0.16
   3   6  -6    1.00    0.18
  -2  -6   6    0.10    0.15
   2  -6  -6    0.10    0.19
  -2   6   6    0.44    0.11
   2   6  -6   -0.01    0.13
   2   6  -6    0.32    0.10
  -2   6   6    0.05    0.06
  -2   6   6    0.18    0.09
   2   6  -6    0.26    0.14
   1  -6  -6    0.58    0.23
   1  -6  -6    0.67    0.15
   1  -6  -6    0.84    0.12
  -1  -6   6    0.82    0.16
  -1   6   6    0.94    0.11
   1   6  -6    1.08    0.18
  -1   6   6    1.00    0.13
   1   6  -6    1.16    0.17
  -1   6   6    0.71    0.12
   0  -6  -6    0.18    0.11
   0  -6   6   -0.12    0.12
   0  -6  -6    0.20    0.09
   0  -6   6    0.05    0.09
   0   6  -6   -0.05    0.14
   0   6  -6    0.43    0.14
   0   6   6    0.22    0.07
   0   6   6    0.26    0.10
  -1  -6  -6    2.10    0.15
  -1  -6  -6    2.11    0.24
   1  -6   6    2.43    0.19
   1  -6   6    2.20    0.25
   1  -6   6    2.17    0.24
   1   6   6    2.23    0.22
   1   6   6    2.35    0.20
  -1   6  -6    1.95    0.24
  -2  -6  -6    0.17    0.15
   2  -6   6    0.28    0.10
  -2   6  -6    0.07    0.17
   2   6   6    0.31    0.11
   2   6   6    0.25    0.14
  -3  -6  -6    0.57    0.19
  -3   6  -6    0.21    0.18
   3   6   6    0.59    0.13
   3   6   6    0.37    0.16
  -4  -6  -6    0.20    0.19
  -4   6  -6   -0.22    0.20
  -5  -6  -6   -0.04    0.22
  -5   6  -6    0.02    0.22
  -6  -6  -6   -0.35    0.23
  -6   6  -6    0.40    0.26
  -8  -7   6    0.73    0.30
   7  -7  -6    2.69    0.46
  -7  -7   6    1.98    0.33
  -7   7   6    2.12    0.25
   6  -7  -6    1.64    0.35
  -6  -7   6    0.82    0.24
  -6   7   6    1.16    0.19
   5  -7  -6    4.97    0.47
  -5  -7   6    4.32    0.37
  -5   7   6    4.40    0.31
  -5   7   6    4.19    0.31
   4  -7  -6    4.41    0.43
  -4  -7   6    4.19    0.35
  -4   7   6    3.53    0.30
  -4   7   6    3.55    0.25
  -3  -7   6    1.26    0.22
   3  -7  -6    1.06    0.26
   3   7  -6    0.96    0.17
  -3   7   6    1.03    0.16
  -3   7   6    0.97    0.12
   3   7  -6    1.24    0.20
   2  -7  -6    1.84    0.28
  -2  -7   6    1.58    0.22
   2   7  -6    2.64    0.29
  -2   7   6    1.47    0.16
  -2   7   6    1.84    0.21
   2   7  -6    1.64    0.21
  -2   7   6    1.30    0.13
   1  -7  -6   17.18    0.83
   1  -7  -6   17.02    0.61
  -1  -7   6   18.84    0.73
  -1   7   6   18.03    0.65
   1   7  -6   17.72    0.72
  -1   7   6   18.45    0.66
   1   7  -6   18.57    0.72
  -1   7   6   18.42    0.62
   0  -7   6   21.16    0.80
   0  -7   6   21.44    0.73
   0  -7  -6   21.72    0.76
   0  -7  -6   21.14    0.67
   0  -7  -6   17.95    0.98
   0   7  -6   21.59    0.82
   0   7   6   21.85    0.73
   0   7  -6   20.68    0.81
   0   7   6   21.09    0.75
  -1  -7  -6   50.32    1.45
   1  -7   6   50.81    1.49
  -1  -7  -6   50.47    1.66
   1   7   6   49.47    1.58
  -1   7  -6   48.96    1.70
   1   7   6   50.32    1.64
  -2  -7  -6   30.88    1.08
   2  -7   6   28.91    0.92
   2   7   6   28.87    1.05
   2   7   6   30.27    1.01
  -2   7  -6   29.50    1.11
  -3  -7  -6   16.41    0.70
   3   7   6   15.58    0.63
  -3   7  -6   16.41    0.72
  -4  -7  -6   10.87    0.58
  -4   7  -6   10.78    0.58
  -5  -7  -6    4.89    0.44
  -5   7  -6    5.21    0.43
  -6   7  -6    2.34    0.34
  -8  -8   6    2.83    0.40
   7  -8  -6    7.37    0.65
  -7  -8   6    7.08    0.53
  -7   8   6    7.37    0.43
   6  -8  -6   24.13    1.15
  -6  -8   6   24.36    1.00
  -6   8   6   23.16    0.89
   5  -8  -6   34.90    1.43
  -5  -8   6   36.04    1.28
  -5   8   6   33.41    1.18
  -5   8   6   31.59    1.13
   4  -8  -6   85.98    3.00
  -4  -8   6   80.84    2.76
  -4   8   6   83.80    2.55
  -4   8   6   84.36    2.67
   3  -8  -6  164.56    5.46
  -3  -8   6  162.46    5.09
  -3   8   6  158.78    4.97
   3   8  -6  160.49    4.88
   3   8  -6  157.69    5.05
  -3   8   6  158.61    4.77
   2  -8  -6  122.22    4.10
   2  -8  -6  120.20    3.43
  -2  -8   6  116.27    3.80
   2   8  -6  114.69    3.78
  -2   8   6  121.84    3.56
   2   8  -6  116.12    3.65
  -2   8   6  120.18    3.70
   1  -8  -6  158.68    5.46
  -1  -8   6  162.75    5.06
   1  -8  -6  163.18    4.57
  -1   8   6  158.83    4.99
   1   8  -6  157.52    4.88
  -1   8   6  167.57    4.81
   1   8  -6  159.34    5.06
   0  -8  -6  114.87    3.97
   0  -8  -6  115.78    3.24
   0  -8   6  109.09    3.61
   0  -8   6  115.64    3.30
   0   8   6  114.24    3.56
   0   8  -6  109.49    3.51
   0   8  -6  114.18    3.63
   0   8   6  116.70    3.44
  -1  -8  -6   79.56    2.49
  -1  -8  -6   80.75    2.22
   1  -8   6   76.56    2.26
   1   8   6   75.06    2.38
  -1   8  -6   75.05    2.54
   1   8   6   77.46    2.48
   2  -8   6   28.08    0.90
  -2  -8  -6   27.47    1.02
   2   8   6   28.62    0.97
  -2   8  -6   26.41    1.06
   2   8   6   29.35    1.01
  -3  -8  -6    7.84    0.47
   3   8   6    8.69    0.42
  -3   8  -6    8.17    0.50
  -4  -8  -6    2.01    0.28
  -4   8  -6    2.30    0.31
  -5   8  -6    0.19    0.24
  -6   8  -6   -0.29    0.23
  -8  -9   6    1.38    0.34
   7  -9  -6    1.94    0.43
  -7  -9   6    1.40    0.31
  -7   9   6    1.37    0.22
   6  -9  -6    2.84    0.45
  -6  -9   6    2.04    0.31
  -6   9   6    2.32    0.27
  -5  -9   6    0.45    0.21
   5  -9  -6    0.33    0.26
  -5   9   6    0.34    0.12
  -5   9   6    0.28    0.15
   4  -9  -6    0.54    0.25
  -4  -9   6    0.06    0.19
  -4   9   6    0.78    0.14
  -4   9   6    0.36    0.09
   3  -9  -6    0.38    0.24
  -3  -9   6    0.16    0.18
  -3   9   6    0.35    0.11
  -3   9   6    0.30    0.08
   3   9  -6    0.18    0.16
   3   9  -6    0.25    0.14
  -2  -9   6   20.53    0.79
   2  -9  -6   16.99    0.65
   2  -9  -6   18.03    0.85
  -2   9   6   18.09    0.65
   2   9  -6   17.28    0.74
   2   9  -6   18.23    0.74
  -2   9   6   18.38    0.63
  -1  -9   6    2.53    0.29
   1  -9  -6    1.98    0.33
   1  -9  -6    1.95    0.22
  -1   9   6    2.28    0.20
   1   9  -6    2.99    0.29
   1   9  -6    1.83    0.22
  -1   9   6    2.33    0.19
   0  -9  -6   22.18    0.72
   0  -9   6   21.12    0.83
   0  -9   6   21.76    0.78
   0  -9  -6   23.00    1.01
   0   9   6   22.99    0.79
   0   9  -6   20.37    0.84
   0   9   6   22.08    0.76
   0   9  -6   20.58    0.83
  -1  -9  -6   31.68    0.97
   1  -9   6   32.04    1.03
  -1   9  -6   31.37    1.13
   1   9   6   32.44    1.11
   1   9   6   31.75    1.06
  -1   9  -6   31.93    1.17
   2  -9   6   13.21    0.52
  -2  -9  -6   14.26    0.47
   2   9   6   13.18    0.54
  -2   9  -6   12.18    0.64
   2   9   6   14.41    0.59
   3   9   6   13.05    0.56
  -3   9  -6   13.05    0.66
  -4   9  -6    8.58    0.53
  -5   9  -6    5.72    0.47
  -6   9  -6    0.99    0.27
   7 -10  -6    0.07    0.33
  -7 -10   6   -0.35    0.23
  -7  10   6    0.04    0.15
   6 -10  -6    0.23    0.30
  -6 -10   6   -0.17    0.22
  -6  10   6   -0.06    0.14
   5 -10  -6    1.13    0.33
  -5 -10   6    0.93    0.24
  -5  10   6    0.79    0.14
  -5  10   6    0.86    0.16
  -4 -10   6    0.03    0.19
   4 -10  -6    0.16    0.23
  -4  10   6    0.41    0.09
  -4  10   6    0.25    0.12
   3 -10  -6    0.05    0.22
  -3 -10   6    0.40    0.20
  -3  10   6    0.07    0.09
  -3  10   6    0.21    0.07
   3  10  -6    0.02    0.14
   3  10  -6    0.01    0.15
  -2 -10   6    2.31    0.26
   2 -10  -6    1.86    0.31
   2 -10  -6    1.75    0.21
   2  10  -6    1.95    0.24
  -2  10   6    2.23    0.19
  -2  10   6    1.99    0.17
   2  10  -6    1.74    0.23
   1 -10  -6    0.44    0.25
   1 -10  -6    0.52    0.15
  -1 -10   6    0.58    0.17
  -1  10   6    0.69    0.12
  -1  10   6    0.58    0.10
   1  10  -6    0.72    0.17
   1  10  -6    0.39    0.17
   0 -10  -6    4.10    0.26
   0 -10  -6    5.12    0.49
   0 -10   6    4.80    0.35
   0  10  -6    3.85    0.35
   0  10   6    4.59    0.26
   0  10  -6    3.91    0.36
   0  10   6    4.72    0.27
  -1 -10  -6    0.10    0.12
   1 -10   6    0.27    0.14
  -1  10  -6    0.05    0.16
   1  10   6    0.02    0.09
   1  10   6    0.08    0.12
  -1  10  -6   -0.15    0.16
   2 -10   6    0.87    0.17
  -2 -10  -6    0.66    0.13
   2  10   6    0.30    0.16
   2  10   6    0.73    0.13
  -2  10  -6    0.80    0.22
  -3  10  -6    0.20    0.22
   3  10   6    0.45    0.14
  -4 -10  -6   -6.91    6.78
  -5  10  -6    0.05    0.24
  -6  10  -6   -0.08    0.24
   7 -11  -6    1.48    0.43
  -6 -11   6    2.25    0.34
   6 -11  -6    3.41    0.49
  -5 -11   6    5.27    0.45
   5 -11  -6    5.33    0.52
  -5  11   6    4.59    0.30
  -5  11   6    4.58    0.29
   4 -11  -6    0.09    0.24
  -4 -11   6    0.31    0.21
  -4  11   6   -0.02    0.11
  -4  11   6    0.25    0.09
   3 -11  -6    3.56    0.41
  -3 -11   6    3.26    0.37
   3 -11  -6    3.06    0.31
  -3  11   6    3.12    0.22
   3  11  -6    3.28    0.34
   3  11  -6    3.28    0.34
  -3  11   6    3.29    0.21
  -2 -11   6    1.31    0.22
   2 -11  -6    1.35    0.28
   2 -11  -6    1.10    0.20
   2  11  -6    0.79    0.18
  -2  11   6    1.27    0.14
   2  11  -6    1.04    0.21
  -2  11   6    1.01    0.12
   1 -11  -6    6.13    0.33
   1 -11  -6    5.42    0.49
   1  11  -6    5.81    0.39
  -1  11   6    5.96    0.30
  -1  11   6    5.87    0.31
   1  11  -6    5.73    0.40
   0 -11   6   17.31    0.69
   0 -11  -6   17.69    0.62
   0 -11  -6   16.92    0.84
   0  11  -6   17.68    0.74
   0  11   6   17.27    0.64
   0  11  -6   17.40    0.72
   0  11   6   18.22    0.67
   1 -11   6    9.42    0.44
  -1 -11  -6    8.51    0.67
  -1 -11  -6    8.90    0.38
   1  11   6    9.96    0.42
  -1  11  -6    9.01    0.49
  -1  11  -6    9.02    0.50
   1  11   6    9.14    0.44
   2 -11   6   18.65    0.68
  -2 -11  -6   18.06    0.62
  -2  11  -6   17.83    0.79
   2  11   6   17.12    0.69
   2  11   6   18.70    0.73
  -3 -11  -6   11.44    6.48
   3  11   6   15.99    0.65
  -3  11  -6   16.37    0.76
  -4  11  -6    5.13    0.45
  -5  11  -6    5.08    0.45
   7 -12  -6    3.94    0.57
   6 -12  -6   17.09    0.97
   5 -12  -6   31.12    1.36
  -5  12   6   28.69    0.98
   4 -12  -6   56.94    2.18
  -4  12   6   56.66    1.82
  -4  12   6   57.97    1.76
   3 -12  -6   79.76    2.80
   3 -12  -6   72.09    2.33
   3  12  -6   75.64    2.47
  -3  12   6   77.88    2.43
   3  12  -6   78.83    2.56
  -3  12   6   77.63    2.34
   2 -12  -6   37.95    1.48
   2 -12  -6   35.34    1.20
  -2  12   6   38.52    1.19
  -2  12   6   36.19    1.23
   2  12  -6   37.53    1.31
   2  12  -6   37.52    1.34
  -1 -12   6   90.97    2.73
   1 -12  -6   89.33    2.64
   1 -12  -6   88.67    3.17
   1  12  -6   89.52    2.83
  -1  12   6   91.87    2.84
   1  12  -6   91.56    2.93
  -1  12   6   87.29    2.74
   0 -12  -6   51.85    1.54
   0 -12  -6   50.46    1.91
   0 -12   6   49.13    1.62
   0  12   6   51.81    1.67
   0  12  -6   49.85    1.69
   0  12   6   52.04    1.62
   0  12  -6   49.69    1.74
   1 -12   6   30.88    1.04
  -1 -12  -6   28.25    1.29
  -1 -12  -6   31.40    0.98
   1  12   6   30.55    1.04
  -1  12  -6   30.03    1.11
   1  12   6   31.59    1.08
  -1  12  -6   30.81    1.14
  -2 -12  -6   22.66    3.44
   2 -12   6   24.24    0.86
  -2 -12  -6   24.98    0.79
   2  12   6   24.65    0.87
  -2  12  -6   23.83    0.94
  -2  12  -6   22.16    0.96
  -3 -12  -6   12.12    6.36
   3  12   6    4.36    0.31
  -3  12  -6    3.10    0.37
  -4 -12  -6   -3.93    6.79
  -5  12  -6    0.13    0.24
   7 -13  -6    1.53    0.43
   6 -13  -6    1.61    0.42
   5 -13  -6    1.14    0.36
   5  13  -6   -3.25    4.35
   4 -13  -6    0.26    0.26
  -4  13   6    0.38    0.10
  -4  13   6    0.29    0.08
   3 -13  -6    0.61    0.21
   3 -13  -6    0.44    0.26
  -3  13   6    0.51    0.09
   3  13  -6    0.33    0.17
  -3  13   6    0.44    0.10
   3  13  -6    0.39    0.19
   2 -13  -6    6.00    0.48
   2 -13  -6    5.92    0.37
   2  13  -6    6.17    0.42
  -2  13   6    6.10    0.30
   2  13  -6    6.67    0.44
  -2  13   6    6.74    0.32
   1 -13  -6    3.15    0.38
   1 -13  -6    3.02    0.29
  -1 -13   6    3.58    0.36
  -1  13   6    3.28    0.23
   1  13  -6    3.83    0.35
   1  13  -6    3.58    0.34
  -1  13   6    3.35    0.25
   0 -13  -6    4.99    0.48
   0 -13   6    4.90    0.39
   0 -13  -6    5.65    0.32
   0  13   6    5.17    0.31
   0  13  -6    5.35    0.39
   0  13  -6    5.32    0.38
   0  13   6    4.83    0.30
  -1 -13  -6    8.88    0.41
  -1 -13  -6    9.47    0.61
   1 -13   6    9.11    0.48
   1  13   6    9.88    0.46
  -1  13  -6    9.16    0.51
  -1  13  -6    9.39    0.51
   1  13   6    9.10    0.43
  -2 -13  -6    8.55    0.69
  -2 -13  -6    8.82    0.39
   2 -13   6    8.90    0.46
   2  13   6    7.83    0.42
  -2  13  -6    8.29    0.50
  -2  13  -6    7.77    0.50
  -3 -13  -6   -5.07    6.15
  -4 -13  -6   -3.82    6.62
  -5  13  -6    3.73    0.43
   6 -14  -6    0.11    0.32
   5  14  -6    2.04    4.51
   4 -14  -6    0.74    0.29
  -4  14   6    0.69    0.10
  -4  14   6    0.97    0.12
   3 -14  -6   -0.10    0.18
   3 -14  -6   -0.24    0.22
  -3  14   6   -0.05    0.07
   3  14  -6   -0.05    0.18
  -3  14   6    0.06    0.09
   3  14  -6   -0.30    0.15
   2 -14  -6    0.24    0.18
   2 -14  -6    0.22    0.23
  -2  14   6    0.22    0.09
   2  14  -6    0.15    0.18
  -2  14   6    0.15    0.10
   2  14  -6   -0.14    0.16
   1 -14  -6   -0.08    0.16
  -1 -14   6    0.03    0.20
   1 -14  -6    0.26    0.22
   1  14  -6    0.25    0.18
   1  14  -6    0.01    0.15
  -1  14   6    0.07    0.11
  -1  14   6   -0.07    0.08
   0 -14  -6   -0.22    0.15
   0 -14  -6    0.03    0.23
   0 -14   6   -0.14    0.17
   0  14   6   -0.03    0.09
   0  14  -6   -0.16    0.14
   0  14  -6    0.09    0.17
   0  14   6   -0.09    0.11
  -1 -14  -6    0.73    0.18
   1 -14   6    0.85    0.22
  -1 -14  -6    1.31    0.30
   1  14   6    0.92    0.18
   1  14   6    0.69    0.14
  -1  14  -6    0.92    0.21
  -1  14  -6    1.07    0.23
   2 -14   6   -0.04    0.17
  -2 -14  -6    0.13    0.29
  -2  14  -6   -0.14    0.18
   2  14   6    0.03    0.10
  -2  14  -6   -0.04    0.17
  -3 -14  -6    4.69    6.13
  -3  14  -6    0.62    0.26
  -4  14  -6   -0.22    0.24
  -5  14  -6   -0.01    0.25
   6 -15  -6    2.77    0.49
   5 -15  -6    0.57    0.32
   5  15  -6   -1.07    4.59
   3 -15  -6    0.01    0.24
   3 -15  -6    0.29    0.22
   3  15  -6    0.15    0.20
   3  15  -6    0.14    0.18
  -3  15   6    0.40    0.11
  -3  15   6    0.25    0.09
   2 -15  -6    1.50    0.24
   2 -15  -6    1.81    0.32
   2  15  -6    1.48    0.26
  -2  15   6    1.65    0.18
  -2  15   6    1.62    0.19
   2  15  -6    1.43    0.24
   1 -15  -6    2.40    0.26
   1 -15  -6    3.19    0.39
  -1 -15   6    2.30    0.31
  -1  15   6    2.37    0.22
  -1  15   6    2.46    0.22
   1  15  -6    2.38    0.29
   1  15  -6    2.10    0.26
   0 -15   6   11.14    0.58
   0 -15  -6   11.95    0.67
   0 -15  -6   11.78    0.51
   0  15  -6   11.67    0.56
   0  15  -6   11.24    0.58
   0  15   6   11.81    0.52
   0  15   6   11.11    0.49
  -1 -15  -6    7.79    0.40
  -1 -15  -6    8.25    0.58
   1 -15   6    7.86    0.48
   1  15   6    8.10    0.40
  -1  15  -6    8.05    0.48
  -1  15  -6    7.57    0.46
   2 -15   6   10.66    0.54
  -2 -15  -6    9.77    0.68
  -2  15  -6    9.66    0.54
  -2  15  -6    9.91    0.55
   2  15   6    9.79    0.47
  -3 -15  -6    7.95    0.68
  -3  15  -6    5.55    0.45
   3  15   6    5.82    0.37
  -3  15  -6    4.94    0.46
  -4  15  -6    2.36    0.35
  -4  15  -6    2.73    0.33
   6 -16  -6    7.98    0.69
   5  16  -6   -1.24    4.49
   4 -16  -6   25.11    1.18
   4 -16  -6   23.22    0.98
  -4  16   6   26.54    0.84
  -4  16   6   25.50    0.86
   3 -16  -6   35.12    1.25
   3 -16  -6   34.56    1.47
   3  16  -6   36.81    1.35
  -3  16   6   36.09    1.15
   3  16  -6   36.16    1.31
  -3  16   6   34.41    1.18
   2 -16  -6   28.47    1.20
   2 -16  -6   27.42    1.01
  -2 -16   6   28.01    1.07
   2  16  -6   28.90    1.08
   2  16  -6   28.96    1.11
  -2  16   6   26.64    0.97
  -2  16   6   28.58    0.95
   1 -16  -6   40.27    1.54
  -1 -16   6   39.62    1.38
   1 -16  -6   39.27    1.29
  -1  16   6   39.04    1.28
  -1  16   6   35.28    1.31
   1  16  -6   39.60    1.43
   1  16  -6   39.07    1.37
   0 -16  -6   30.59    1.03
   0 -16   6   28.46    1.12
   0 -16  -6   32.88    1.27
   0  16   6   29.11    1.08
   0  16  -6   31.12    1.16
   0  16  -6   28.88    1.11
   0  16   6   30.67    1.05
  -1 -16  -6   17.58    0.67
   1 -16   6   17.25    0.77
  -1 -16  -6   17.38    0.86
   1  16   6   17.23    0.69
  -1  16  -6   17.12    0.76
  -1  16  -6   17.72    0.74
   2 -16   6    5.40    0.42
  -2 -16  -6    4.70    0.53
  -2  16  -6    5.70    0.41
  -2  16  -6    5.53    0.42
   2  16   6    5.14    0.34
  -3 -16  -6    2.42    0.47
  -3  16  -6    1.94    0.31
  -3  16  -6    2.21    0.30
   3  16   6    2.26    0.26
  -4  16  -6    1.17    0.27
  -4  16  -6    0.79    0.29
   5 -17  -6    0.86    0.34
   4 -17  -6    0.44    0.29
   4 -17  -6    0.71    0.28
  -4  17   6    0.67    0.12
  -4  17   6    0.58    0.11
   3 -17  -6    0.34    0.27
   3 -17  -6   -0.13    0.21
  -3  17   6    0.14    0.09
   3  17  -6   -0.14    0.18
   3  17  -6    0.04    0.21
  -3  17   6    0.11    0.11
  -2 -17   6    0.08    0.22
   2 -17  -6    0.27    0.25
   2 -17  -6   -0.04    0.20
   2  17  -6    0.17    0.19
  -2  17   6    0.22    0.12
   2  17  -6   -0.01    0.21
  -2  17   6    0.20    0.10
   1 -17  -6    3.18    0.33
   1 -17  -6    3.72    0.42
  -1 -17   6    3.63    0.40
   1  17  -6    3.56    0.38
  -1  17   6    3.64    0.27
   1  17  -6    3.30    0.37
  -1  17   6    3.58    0.29
   0 -17  -6    2.69    0.36
   0 -17   6    2.82    0.35
   0 -17  -6    2.86    0.29
   0  17  -6    2.93    0.34
   0  17   6    2.62    0.26
   0  17  -6    3.37    0.36
  -1 -17  -6    4.45    0.49
  -1 -17  -6    5.85    0.37
   1 -17   6    5.86    0.46
  -1  17  -6    4.99    0.42
   1  17   6    4.82    0.33
  -1  17  -6    6.05    0.41
  -2 -17  -6    5.49    0.54
   2 -17   6    5.69    0.46
  -2  17  -6    6.28    0.43
   2  17   6    4.55    0.35
  -2  17  -6    5.55    0.43
  -3  17  -6    3.54    0.40
   3  17   6    3.10    0.31
  -3  17  -6    3.40    0.37
  -4  17  -6    1.53    0.28
  -4  17  -6    1.69    0.32
   5 -18  -6   -0.03    0.28
   4 -18  -6    0.18    0.25
   4 -18  -6   -0.04    0.26
  -4  18   6   -0.02    0.08
  -4  18   6    0.06    0.10
  -3 -18   6    0.20    0.22
   3 -18  -6    0.12    0.23
   3 -18  -6    0.11    0.25
  -3  18   6    0.13    0.09
   3  18  -6    0.10    0.22
  -3  18   6    0.06    0.11
   3  18  -6   -0.06    0.18
  -2 -18   6    0.01    0.23
   2 -18  -6   -0.16    0.20
   2 -18  -6    0.06    0.24
   2  18  -6   -0.02    0.18
   2  18  -6    0.05    0.21
  -2  18   6    0.03    0.09
  -2  18   6    0.05    0.12
  -1 -18   6    0.19    0.24
   1 -18  -6    0.30    0.21
   1 -18  -6    0.38    0.25
  -1  18   6    0.34    0.15
  -1  18   6    0.53    0.13
   1  18  -6    0.33    0.20
   1  18  -6    0.56    0.24
   0 -18   6   -0.37    0.21
   0 -18  -6   -0.04    0.18
   0 -18  -6    0.04    0.24
   0  18  -6    0.26    0.17
   0  18  -6    0.18    0.19
   0  18   6    0.14    0.11
  -1 -18  -6   -0.23    0.25
   1 -18   6   -0.25    0.21
  -1 -18  -6   -0.18    0.18
  -1  18  -6   -0.08    0.16
  -1  18  -6   -0.09    0.19
   1  18   6    0.06    0.12
   2 -18   6    0.05    0.24
  -2 -18  -6   -0.20    0.30
   2  18   6    0.06    0.13
  -2  18  -6    0.05    0.17
  -2  18  -6    0.05    0.20
  -3  18  -6    0.09    0.19
   3  18   6    0.02    0.13
  -3  18  -6    0.21    0.21
  -4  18  -6    0.26    0.21
   5 -19  -6    0.02    0.28
   4 -19  -6    0.59    0.30
   4 -19  -6    0.22    0.27
  -4  19   6    0.30    0.10
  -4  19   6    0.47    0.12
   3 -19  -6   -0.19    0.23
   3 -19  -6   -0.13    0.25
  -3 -19   6    0.00    0.23
   3  19  -6   -0.34    0.17
   3  19  -6   -0.21    0.22
  -3  19   6   -0.04    0.11
  -3  19   6   -0.13    0.09
   2 -19  -6    0.91    0.25
   2 -19  -6    1.31    0.32
  -2 -19   6    1.04    0.29
  -2  19   6    1.17    0.17
   2  19  -6    1.40    0.29
  -2  19   6    1.19    0.16
   2  19  -6    0.94    0.24
   1 -19  -6    1.99    0.34
  -1 -19   6    1.46    0.31
   1 -19  -6    1.79    0.27
  -1  19   6    2.15    0.22
   1  19  -6    1.87    0.27
   1  19  -6    1.58    0.29
   0 -19  -6    2.95    0.31
   0 -19  -6    3.01    0.38
   0 -19   6    2.20    0.36
   0  19  -6    2.21    0.28
   0  19  -6    2.49    0.32
   0  19   6    2.58    0.25
  -1 -19  -6    2.39    0.38
  -1 -19  -6    2.96    0.33
   1 -19   6    2.79    0.37
  -1  19  -6    3.46    0.35
  -1  19  -6    3.40    0.37
   1  19   6    2.83    0.27
   2 -19   6    4.24    0.46
  -2  19  -6    4.69    0.40
   2  19   6    4.88    0.35
  -2  19  -6    4.67    0.42
   3  19   6    2.05    0.26
  -3  19  -6    3.44    0.37
  -3  19  -6    3.34    0.38
   4 -20  -6    9.72    0.71
  -4  20   6   10.36    0.42
   3 -20  -6   15.32    0.73
  -3 -20   6   13.73    0.73
   3 -20  -6   14.27    0.81
   3  20  -6   15.52    0.78
  -3  20   6   13.97    0.56
   3  20  -6   14.62    0.73
   2 -20  -6   13.14    0.66
   2 -20  -6   12.77    0.75
  -2 -20   6   12.79    0.70
  -2  20   6   12.99    0.54
   2  20  -6   13.65    0.72
   2  20  -6   13.23    0.68
   1 -20  -6   16.39    0.80
  -1 -20   6   14.13    0.75
   1 -20  -6   14.71    0.68
  -1  20   6   14.33    0.61
   1  20  -6   15.01    0.71
   1  20  -6   15.34    0.75
   0 -20  -6   15.18    0.77
   0 -20   6   14.66    0.76
   0 -20  -6   14.37    0.64
   0  20  -6   13.42    0.71
   0  20   6   13.22    0.60
   0  20  -6   14.45    0.69
  -1 -20  -6    6.43    0.42
  -1 -20  -6    7.19    0.54
   1 -20   6    6.53    0.52
   1  20   6    5.69    0.38
  -1  20  -6    6.12    0.45
  -1  20  -6    6.32    0.48
   2 -20   6    2.02    0.37
   2  20   6    1.60    0.23
  -2  20  -6    1.80    0.27
  -2  20  -6    2.53    0.31
   3  20   6    1.24    0.22
  -3  20  -6    1.30    0.25
  -3  20  -6    1.90    0.29
   4 -21  -6    0.54    0.32
  -4  21   6    0.20    0.10
   3 -21  -6    0.17    0.27
   3  21  -6   -0.14    0.19
  -3  21   6    0.05    0.10
   2 -21  -6    0.10    0.25
   2 -21  -6   -0.04    0.23
  -2 -21   6    0.00    0.22
   2  21  -6    0.12    0.23
  -2  21   6    0.04    0.11
   2  21  -6   -0.20    0.17
   1 -21  -6    0.59    0.25
   1 -21  -6    0.82    0.29
  -1 -21   6    0.43    0.26
   1  21  -6    0.45    0.20
  -1  21   6    0.47    0.14
   1  21  -6    0.41    0.24
   0 -21  -6    2.62    0.38
   0 -21  -6    2.33    0.31
   0 -21   6    2.17    0.38
   0  21  -6    2.47    0.31
   0  21   6    2.49    0.27
   0  21  -6    2.70    0.35
   1 -21   6    1.71    0.35
  -1  21  -6    1.91    0.27
   1  21   6    1.70    0.24
  -1  21  -6    1.74    0.31
   2 -21   6    2.08    0.38
   2  21   6    1.55    0.24
  -2  21  -6    1.82    0.28
  -2  21  -6    2.03    0.31
   3  21   6    0.78    0.20
  -4  22   6    0.11    0.10
   3 -22  -6   -0.28    0.25
   3  22  -6   -0.48    0.18
  -3  22   6    0.14    0.10
   2 -22  -6    0.01    0.26
  -2  22   6   -0.07    0.10
   2  22  -6   -0.19    0.18
   2  22  -6   -0.31    0.21
   1 -22  -6    0.15    0.25
   1 -22  -6   -0.17    0.22
  -1  22   6    0.06    0.12
   1  22  -6   -0.06    0.22
   1  22  -6   -0.18    0.17
   0 -22  -6    0.48    0.24
   0  22  -6    0.27    0.24
   0  22   6    0.34    0.15
   0  22  -6    0.21    0.19
   1  22   6    0.04    0.14
  -1  22  -6    0.20    0.22
  -1  22  -6    0.03    0.18
  -2  22  -6    0.15    0.18
   2  22   6   -0.11    0.13
  -3  23   6    0.13    0.11
   3  23  -6    0.35    0.23
   2 -23  -6    0.19    0.26
  -2  23   6    0.11    0.12
   2  23  -6   -0.02    0.24
   2  23  -6   -0.06    0.20
  -1  23   6    0.45    0.14
   1  23  -6    0.44    0.25
   1  23  -6    0.25    0.20
   0  23   6    1.92    0.23
   0  23  -6    2.72    0.36
   0  23  -6    1.94    0.29
   1  23   6    0.47    0.16
  -1  23  -6    0.38    0.20
   2  23   6    1.31    0.23
   2  24  -6    4.32    0.43
   1  24  -6    5.44    0.47
  -8   0   7   -0.18    0.22
  -7   0   7    0.19    0.20
   6   0  -7    0.37    0.26
  -6   0   7   -0.03    0.18
  -5   0   7    0.15    0.17
   5   0  -7    0.40    0.21
   4   0  -7    0.35    0.19
  -4   0   7    0.14    0.17
  -3   0   7    0.07    0.11
   3   0  -7    0.30    0.19
  -3   0   7    0.34    0.17
  -2   0   7    0.23    0.13
   2   0  -7    0.25    0.13
  -2   0   7    0.23    0.09
   2   0  -7    0.17    0.13
   2   0  -7    0.15    0.18
  -1   0   7    0.19    0.14
   1   0  -7    0.07    0.15
   1   0  -7    0.10    0.14
   0   0   7    0.01    0.08
   0   0   7    0.19    0.13
   0   0  -7   -0.02    0.14
   1   0   7   -0.02    0.09
   1   0   7    0.07    0.13
  -1   0  -7    0.05    0.15
   2   0   7   -0.02    0.13
   2   0   7    0.09    0.10
  -2   0  -7   -0.25    0.14
  -3   0  -7   -0.21    0.17
  -4   0  -7   -0.05    0.20
  -5   0  -7    0.00    0.22
  -6   0  -7   -0.07    0.22
  -8  -1   7    0.05    0.23
  -8   1   7   -0.16    0.21
  -7  -1   7    2.54    0.32
  -7   1   7    2.20    0.30
  -6  -1   7    8.79    0.52
   6  -1  -7    9.22    0.62
   6   1  -7    9.18    0.58
  -6   1   7    9.35    0.51
  -5  -1   7   18.75    0.78
   5  -1  -7   18.35    0.85
   5   1  -7   17.52    0.82
  -5   1   7   18.33    0.76
   4  -1  -7   47.37    1.79
  -4  -1   7   49.34    1.69
   4   1  -7   46.07    1.76
  -4   1   7   50.24    1.61
  -4   1   7   50.22    1.68
   3  -1  -7   56.30    2.12
  -3  -1   7   62.60    2.00
  -3  -1   7   62.86    1.90
   3   1  -7   50.76    1.86
  -3   1   7   60.74    1.88
  -3   1   7   63.54    1.98
   3   1  -7   57.82    2.09
   2  -1  -7   59.26    2.00
  -2  -1   7   61.06    1.94
  -2  -1   7   62.96    2.04
   2  -1  -7   62.61    2.22
   2  -1  -7   61.96    1.96
  -2   1   7   60.76    1.93
   2   1  -7   58.77    2.02
   2   1  -7   64.15    2.19
  -2   1   7   64.24    2.03
   2   1  -7   61.75    1.96
  -1  -1   7  123.24    3.66
   1  -1  -7  116.63    3.80
  -1  -1   7  116.89    3.82
   1  -1  -7  115.95    3.69
  -1   1   7  126.17    3.82
   1   1  -7  124.41    3.71
   1   1  -7  122.09    3.82
  -1   1   7  122.61    3.65
   0  -1   7   93.79    2.73
   0  -1  -7   80.80    2.83
   0  -1   7   92.22    2.84
   0   1   7   87.39    2.83
   0   1  -7   88.86    2.85
   0   1   7   90.43    2.72
   1  -1   7   78.57    2.33
   1  -1   7   72.17    2.40
  -1  -1  -7   73.27    2.42
   1   1   7   73.93    2.40
  -1   1  -7   73.09    2.43
   1   1   7   78.08    2.32
   2  -1   7   28.64    1.04
  -2  -1  -7   29.70    1.08
   2  -1   7   30.92    1.02
   2   1   7   30.61    1.03
  -2   1  -7   29.63    1.09
   2   1   7   29.72    1.05
  -3  -1  -7   20.90    0.83
  -3   1  -7   20.01    0.83
  -4  -1  -7    3.51    0.38
  -4   1  -7    3.77    0.39
  -5  -1  -7    1.05    0.28
  -5   1  -7    0.57    0.24
  -6  -1  -7    0.53    0.26
  -6   1  -7    0.72    0.29
  -8  -2   7    4.31    0.46
  -8   2   7    4.07    0.42
  -7  -2   7   14.20    0.70
  -7   2   7   12.42    0.65
   6  -2  -7   21.50    1.02
  -6  -2   7   21.89    0.91
  -6   2   7   22.58    0.89
   5  -2  -7   14.84    0.76
  -5  -2   7   15.05    0.68
   5   2  -7   15.33    0.71
  -5   2   7   14.64    0.66
   4  -2  -7   11.52    0.62
  -4  -2   7   11.27    0.56
   4   2  -7   11.94    0.57
  -4   2   7   11.17    0.55
  -4   2   7   11.11    0.51
  -3  -2   7   11.61    0.52
   3  -2  -7   11.95    0.63
  -3  -2   7   11.62    0.57
  -3   2   7   12.39    0.49
   3   2  -7   10.51    0.52
   3   2  -7   12.23    0.56
  -3   2   7   11.01    0.54
   3   2  -7   11.20    0.53
  -2  -2   7    1.16    0.16
  -2  -2   7    1.73    0.21
   2  -2  -7    1.49    0.26
  -2   2   7    1.38    0.19
   2   2  -7    1.38    0.20
   2   2  -7    1.61    0.22
   2   2  -7    1.07    0.17
   1  -2  -7    0.15    0.14
  -1  -2   7   -0.05    0.13
   1  -2  -7   -0.11    0.11
   1  -2  -7    0.23    0.22
  -1   2   7    0.08    0.08
   1   2  -7    0.00    0.14
  -1   2   7    0.38    0.13
   1   2  -7   -0.01    0.14
   0  -2   7    3.61    0.28
   0  -2  -7    3.16    0.29
   0  -2   7    3.65    0.26
   0   2   7    3.68    0.27
   0   2   7    3.84    0.25
   0   2  -7    3.44    0.31
  -1  -2  -7    9.97    0.49
   1  -2   7   10.20    0.47
   1  -2   7   10.56    0.47
   1   2   7   10.48    0.44
   1   2   7   10.99    0.47
  -1   2  -7    9.92    0.51
  -2  -2  -7   11.19    0.53
   2  -2   7   11.63    0.50
  -2   2  -7   10.84    0.54
   2   2   7   11.62    0.51
   2   2   7   11.27    0.48
  -3  -2  -7   19.14    0.78
  -3   2  -7   17.98    0.78
  -4  -2  -7   16.07    0.73
  -4   2  -7   15.96    0.74
  -5  -2  -7    5.62    0.48
  -5   2  -7    5.71    0.47
  -6  -2  -7    2.77    0.37
  -6   2  -7    3.58    0.43
  -8  -3   7    0.28    0.26
  -8   3   7   -0.03    0.21
   7  -3  -7    1.85    0.39
  -7  -3   7    1.90    0.31
  -7   3   7    2.22    0.28
   6  -3  -7    7.18    0.56
  -6  -3   7    7.28    0.47
  -6   3   7    6.74    0.44
   5  -3  -7   13.62    0.72
  -5  -3   7   12.77    0.63
  -5   3   7   12.58    0.60
   5   3  -7   13.70    0.64
   4  -3  -7   37.78    1.49
  -4  -3   7   37.98    1.37
   4   3  -7   38.62    1.40
  -4   3   7   38.47    1.35
  -4   3   7   38.17    1.28
  -3  -3   7   92.52    2.97
   3  -3  -7   91.11    3.19
   3   3  -7   85.09    2.93
   3   3  -7   91.54    3.09
  -3   3   7   95.67    2.80
   3   3  -7   87.70    2.83
  -3   3   7   94.18    2.93
   2  -3  -7  102.43    3.83
  -2  -3   7  110.78    3.56
   2  -3  -7  111.03    3.40
  -2  -3   7  117.51    3.42
   2  -3  -7  104.72    3.49
  -2   3   7  115.90    3.54
   2   3  -7  113.10    3.77
  -2   3   7  114.23    3.38
   2   3  -7  109.47    3.55
   2   3  -7  117.03    3.44
  -1  -3   7   70.37    2.12
   1  -3  -7   69.71    2.47
  -1  -3   7   68.33    2.23
   1  -3  -7   68.08    2.18
   1  -3  -7   67.00    2.13
   1   3  -7   69.58    2.17
   1   3  -7   65.63    2.22
  -1   3   7   66.67    2.09
  -1   3   7   64.48    2.18
   0  -3  -7   76.91    2.52
   0  -3   7   80.69    2.54
   0  -3   7   79.55    2.44
   0   3   7   77.54    2.41
   0   3   7   80.54    2.52
   0   3  -7   76.75    2.56
  -1  -3  -7   71.01    2.34
   1  -3   7   77.26    2.27
   1  -3   7   68.77    2.33
   1   3   7   71.50    2.33
  -1   3  -7   73.89    2.38
   1   3   7   71.62    2.24
  -2  -3  -7   38.31    1.34
   2   3   7   38.77    1.27
  -2   3  -7   36.72    1.35
   2   3   7   39.69    1.32
  -3  -3  -7   16.24    0.71
  -3   3  -7   16.50    0.72
  -4  -3  -7    3.80    0.37
  -4   3  -7    3.18    0.37
  -5  -3  -7    1.99    0.32
  -5   3  -7    1.76    0.31
  -6  -3  -7    0.10    0.25
  -6   3  -7    0.25    0.26
  -8  -4   7   -0.42    0.23
   7  -4  -7   -0.21    0.29
  -7  -4   7    0.19    0.24
  -7   4   7    0.08    0.19
   6  -4  -7    0.06    0.26
  -6  -4   7    0.11    0.20
  -6   4   7    0.26    0.17
  -5  -4   7    0.30    0.19
   5  -4  -7    0.08    0.22
  -5   4   7    0.28    0.17
   5   4  -7    0.27    0.18
   4  -4  -7    0.22    0.22
  -4  -4   7    0.23    0.18
  -4   4   7    0.07    0.15
   4   4  -7    0.06    0.15
  -4   4   7    0.06    0.10
   3  -4  -7    3.78    0.43
  -3  -4   7    3.82    0.35
   3   4  -7    3.31    0.32
  -3   4   7    3.71    0.26
   3   4  -7    4.01    0.30
   3   4  -7    3.55    0.34
  -3   4   7    3.77    0.30
  -2  -4   7   22.19    0.83
  -2  -4   7   23.41    0.87
   2  -4  -7   22.12    1.00
   2  -4  -7   21.15    0.80
   2   4  -7   23.00    0.88
  -2   4   7   21.65    0.77
   2   4  -7   23.58    0.87
   2   4  -7   23.11    0.85
  -2   4   7   20.88    0.82
  -1  -4   7    7.24    0.38
  -1  -4   7    6.57    0.40
   1  -4  -7    6.14    0.35
   1  -4  -7    6.98    0.40
   1  -4  -7    7.05    0.54
   1   4  -7    7.05    0.43
   1   4  -7    6.40    0.40
  -1   4   7    7.61    0.36
  -1   4   7    7.38    0.33
   0  -4  -7    7.06    0.38
   0  -4   7    7.43    0.38
   0  -4   7    7.31    0.41
   0   4  -7    6.71    0.43
   0   4   7    7.29    0.34
   0   4  -7    8.52    0.45
   0   4   7    7.64    0.37
   1  -4   7    1.34    0.19
  -1  -4  -7    1.19    0.20
   1  -4   7    1.34    0.17
   1   4   7    1.40    0.16
   1   4   7    1.06    0.17
  -1   4  -7    1.02    0.23
  -2  -4  -7    0.34    0.17
   2   4   7    0.39    0.12
   2   4   7    0.46    0.15
  -2   4  -7    0.25    0.18
  -3  -4  -7   -0.11    0.16
  -3   4  -7   -0.30    0.18
  -4  -4  -7    0.29    0.22
  -4   4  -7    0.29    0.22
  -5  -4  -7   -0.19    0.21
  -5   4  -7   -0.20    0.22
  -6  -4  -7    0.07    0.24
  -6   4  -7    0.07    0.24
  -8  -5   7   -0.17    0.26
  -7  -5   7    4.52    0.45
   7  -5  -7    4.64    0.55
  -7   5   7    4.94    0.40
  -6  -5   7    4.24    0.40
   6  -5  -7    3.95    0.48
  -6   5   7    4.42    0.35
  -5  -5   7   18.56    0.81
   5  -5  -7   19.54    0.93
  -5   5   7   18.21    0.74
  -5   5   7   18.39    0.76
   4  -5  -7   35.63    1.43
  -4  -5   7   35.06    1.30
  -4   5   7   35.66    1.18
  -4   5   7   35.51    1.25
   4   5  -7   35.42    1.28
   3  -5  -7   19.33    0.92
  -3  -5   7   19.78    0.82
   3   5  -7   20.35    0.80
   3   5  -7   19.85    0.79
   3   5  -7   19.86    0.77
  -3   5   7   20.26    0.76
  -3   5   7   20.11    0.71
   2  -5  -7  103.53    3.77
  -2  -5   7  106.61    3.47
   2   5  -7  109.05    3.47
   2   5  -7  113.96    3.36
   2   5  -7  112.60    3.64
  -2   5   7  110.10    3.43
  -2   5   7  103.32    3.28
   1  -5  -7   62.06    2.23
  -1  -5   7   60.76    2.00
  -1  -5   7   60.78    1.92
  -1   5   7   59.49    1.86
   1   5  -7   61.65    1.95
   1   5  -7   59.21    2.01
  -1   5   7   56.50    1.94
   0  -5   7   72.01    2.36
   0  -5   7   73.54    2.27
   0  -5  -7   73.32    2.33
   0   5   7   71.34    2.31
   0   5  -7   70.92    2.30
   0   5   7   75.50    2.23
   0   5  -7   68.62    2.37
   1  -5   7   90.45    2.54
  -1  -5  -7   88.16    2.86
   1  -5   7   91.92    2.77
   1  -5   7   94.44    2.86
   1   5   7   91.14    2.74
   1   5   7   84.43    2.84
  -1   5  -7   84.83    2.91
  -2  -5  -7   24.85    0.94
   2   5   7   25.42    0.89
  -2   5  -7   24.87    0.98
   2   5   7   25.76    0.93
  -3  -5  -7    8.88    0.50
  -3   5  -7    8.93    0.52
  -4  -5  -7    1.54    0.28
  -4   5  -7    1.69    0.30
  -5  -5  -7    1.29    0.30
  -5   5  -7    1.25    0.30
  -6   5  -7    0.40    0.25
  -8  -6   7    5.09    0.51
  -7  -6   7    8.24    0.58
   7  -6  -7    8.92    0.70
  -7   6   7    9.16    0.52
  -6  -6   7   11.62    0.63
   6  -6  -7   11.89    0.74
  -6   6   7   11.42    0.57
  -5  -6   7   19.17    0.82
   5  -6  -7   18.45    0.92
  -5   6   7   17.69    0.75
  -5   6   7   17.90    0.72
   4  -6  -7    8.72    0.58
  -4  -6   7    7.90    0.49
  -4   6   7    8.26    0.38
  -4   6   7    7.75    0.42
  -3  -6   7   35.77    1.30
   3  -6  -7   36.10    1.43
   3   6  -7   36.32    1.26
   3   6  -7   32.49    1.22
  -3   6   7   36.16    1.22
  -3   6   7   34.11    1.14
  -2  -6   7   10.16    0.54
   2  -6  -7   11.28    0.68
  -2   6   7   10.23    0.47
   2   6  -7   11.06    0.53
  -2   6   7   11.51    0.44
   2   6  -7   10.61    0.50
   2   6  -7   10.96    0.54
   1  -6  -7    5.37    0.51
  -1  -6   7    6.00    0.38
  -1  -6   7    5.98    0.36
  -1   6   7    6.01    0.32
   1   6  -7    5.83    0.40
  -1   6   7    5.50    0.30
   1   6  -7    6.40    0.39
   0  -6  -7    0.04    0.13
   0  -6   7   -0.21    0.13
   0  -6   7    0.09    0.11
   0   6  -7    0.14    0.16
   0   6   7   -0.03    0.11
   0   6   7    0.01    0.08
   0   6  -7    0.07    0.17
   1  -6   7   10.23    0.39
  -1  -6  -7   10.20    0.49
  -1   6  -7    9.89    0.54
   1   6   7   10.44    0.45
   1   6   7   10.80    0.48
  -2  -6  -7   22.67    0.90
   2   6   7   24.33    0.89
   2   6   7   23.70    0.85
  -2   6  -7   23.97    0.96
  -3  -6  -7   15.76    0.70
  -3   6  -7   15.54    0.72
  -4  -6  -7    6.50    0.46
  -4   6  -7    6.17    0.46
  -5  -6  -7    5.38    0.49
  -5   6  -7    5.49    0.47
  -6   6  -7    2.73    0.36
  -8  -7   7    0.54    0.30
   7  -7  -7    1.57    0.41
  -7  -7   7    1.58    0.31
  -7   7   7    1.84    0.26
  -6  -7   7    4.96    0.43
   6  -7  -7    4.95    0.53
  -6   7   7    4.42    0.36
  -5  -7   7   11.01    0.59
   5  -7  -7   10.58    0.68
  -5   7   7   10.59    0.52
  -5   7   7   10.29    0.49
  -4  -7   7   19.94    0.86
   4  -7  -7   20.89    0.97
  -4   7   7   20.34    0.73
  -4   7   7   20.35    0.77
  -3  -7   7   35.31    1.34
   3  -7  -7   37.17    1.49
   3   7  -7   36.83    1.31
   3   7  -7   37.65    1.29
  -3   7   7   37.15    1.19
  -3   7   7   37.28    1.26
   2  -7  -7  105.65    3.71
  -2  -7   7  105.41    3.40
  -2   7   7  106.68    3.19
   2   7  -7  104.29    3.28
   2   7  -7  104.38    3.39
  -2   7   7  105.14    3.33
   2   7  -7  107.78    3.51
  -1  -7   7  109.79    3.46
   1  -7  -7  107.24    3.78
  -1   7   7  109.58    3.40
  -1   7   7  108.53    3.27
   1   7  -7  106.48    3.35
   1   7  -7  106.17    3.46
   0  -7   7   55.10    1.84
   0  -7   7   55.89    1.68
   0  -7  -7   51.76    2.11
   0  -7  -7   58.89    1.61
   0   7  -7   54.89    1.82
   0   7   7   54.85    1.79
   0   7  -7   54.09    1.87
   0   7   7   53.67    1.73
   1  -7   7   56.03    1.63
  -1  -7  -7   53.45    1.83
  -1  -7  -7   52.49    1.58
   1   7   7   56.55    1.75
  -1   7  -7   55.28    1.89
   1   7   7   56.56    1.82
  -2  -7  -7   27.09    1.00
   2   7   7   26.12    0.93
   2   7   7   26.78    0.98
  -2   7  -7   27.01    1.05
  -3  -7  -7    6.55    0.44
   3   7   7    6.29    0.38
  -3   7  -7    6.22    0.47
  -4   7  -7    4.31    0.41
  -5   7  -7    1.39    0.30
  -6   7  -7    0.25    0.26
  -8  -8   7   -0.16    0.27
   7  -8  -7    0.07    0.33
  -7  -8   7    0.27    0.25
  -7   8   7    0.06    0.18
   6  -8  -7    0.17    0.30
  -6  -8   7   -0.12    0.21
  -6   8   7    0.21    0.16
   5  -8  -7    0.47    0.28
  -5  -8   7    0.49    0.22
  -5   8   7    0.10    0.13
  -5   8   7    0.09    0.15
   4  -8  -7    1.37    0.31
  -4  -8   7    0.89    0.24
  -4   8   7    0.87    0.17
  -4   8   7    0.99    0.14
  -3  -8   7    0.73    0.21
   3  -8  -7    0.67    0.27
   3   8  -7    0.85    0.18
  -3   8   7    0.81    0.12
   3   8  -7    0.95    0.21
  -3   8   7    0.74    0.15
   2  -8  -7    0.27    0.28
  -2  -8   7    0.60    0.20
   2   8  -7    0.68    0.18
  -2   8   7    0.44    0.10
   2   8  -7    0.47    0.19
  -2   8   7    0.69    0.14
   1  -8  -7    1.59    0.35
  -1  -8   7    1.69    0.23
   1  -8  -7    2.03    0.23
   1   8  -7    1.80    0.24
   1   8  -7    1.78    0.23
  -1   8   7    2.10    0.22
  -1   8   7    2.44    0.21
   0  -8  -7   -0.03    0.12
   0  -8  -7    0.76    0.35
   0  -8   7    0.05    0.18
   0   8   7    0.09    0.12
   0   8  -7    0.00    0.16
   0   8  -7   -0.14    0.16
   0   8   7   -0.03    0.08
  -1  -8  -7    0.72    0.13
   1  -8   7    1.04    0.17
   1   8   7    0.61    0.13
  -1   8  -7    0.98    0.23
   1   8   7    0.80    0.17
   2   8   7    0.59    0.17
   2   8   7    0.50    0.13
  -2   8  -7    0.31    0.21
  -3   8  -7    0.19    0.22
   3   8   7    0.32    0.14
  -4   8  -7    0.04    0.22
  -5   8  -7   -0.14    0.24
   7  -9  -7    1.60    0.44
  -7  -9   7    1.59    0.33
  -7   9   7    1.83    0.25
   6  -9  -7    3.18    0.48
  -6  -9   7    2.49    0.35
  -6   9   7    2.97    0.31
   5  -9  -7   15.33    0.86
  -5  -9   7   15.82    0.75
  -5   9   7   14.78    0.62
  -5   9   7   14.81    0.60
   4  -9  -7   20.67    0.99
  -4  -9   7   20.53    0.89
  -4   9   7   19.72    0.75
  -4   9   7   20.26    0.72
   3  -9  -7   36.22    1.48
  -3  -9   7   35.67    1.34
  -3   9   7   35.93    1.16
   3   9  -7   35.02    1.27
   3   9  -7   35.91    1.30
  -3   9   7   36.64    1.22
   2  -9  -7   94.69    3.44
  -2  -9   7   95.57    3.15
  -2   9   7   95.91    3.06
  -2   9   7   98.12    2.95
   2   9  -7  100.03    3.06
   2   9  -7   99.20    3.16
   1  -9  -7   12.86    0.49
   1  -9  -7   12.11    0.74
  -1  -9   7   12.72    0.59
   1   9  -7   12.15    0.59
  -1   9   7   13.11    0.51
  -1   9   7   12.72    0.49
   1   9  -7   12.38    0.59
   0  -9   7   40.20    1.30
   0  -9  -7   42.37    1.23
   0  -9  -7   39.37    1.63
   0   9   7   40.04    1.35
   0   9  -7   40.32    1.43
   0   9   7   40.00    1.31
   0   9  -7   39.07    1.39
  -1  -9  -7   44.60    1.27
   1  -9   7   41.95    1.33
  -1   9  -7   42.08    1.48
  -1   9  -7   41.82    1.52
   1   9   7   43.36    1.39
   1   9   7   42.09    1.44
   2   9   7   14.13    0.58
   2   9   7   14.49    0.62
  -2   9  -7   14.38    0.70
  -4  -9  -7   13.89    7.41
  -5   9  -7    1.34    0.31
   7 -10  -7    7.93    0.72
  -7 -10   7    6.62    0.57
  -7  10   7    6.74    0.43
   6 -10  -7   12.47    0.81
  -6 -10   7   10.97    0.67
  -6  10   7   11.43    0.54
  -5 -10   7   13.92    0.74
   5 -10  -7   16.20    0.88
  -5  10   7   14.56    0.60
  -5  10   7   14.71    0.59
   4 -10  -7   15.16    0.84
  -4 -10   7   15.16    0.75
  -4  10   7   15.08    0.60
  -4  10   7   15.26    0.56
  -3 -10   7   12.68    0.67
   3 -10  -7   14.71    0.77
  -3  10   7   13.63    0.50
  -3  10   7   12.64    0.52
   3  10  -7   13.82    0.64
   3  10  -7   12.78    0.63
   2 -10  -7    7.05    0.39
  -2 -10   7    6.93    0.45
   2 -10  -7    6.85    0.57
  -2  10   7    7.40    0.34
   2  10  -7    7.62    0.46
  -2  10   7    7.24    0.35
   2  10  -7    6.75    0.45
   1 -10  -7    2.64    0.25
   1 -10  -7    2.69    0.40
   1  10  -7    2.30    0.25
  -1  10   7    2.26    0.22
   1  10  -7    2.17    0.27
  -1  10   7    1.98    0.21
   0 -10  -7    0.93    0.16
   0 -10   7    0.75    0.22
   0 -10  -7    0.86    0.34
   0  10  -7    0.68    0.19
   0  10   7    0.91    0.14
   0  10  -7    0.96    0.22
   0  10   7    1.05    0.16
  -1 -10  -7    5.26    0.27
   1 -10   7    4.78    0.32
  -1  10  -7    4.84    0.40
   1  10   7    4.77    0.30
   1  10   7    5.48    0.32
  -1  10  -7    4.54    0.41
  -2 -10  -7    2.13    5.71
  -2  10  -7    9.46    0.56
   2  10   7    9.56    0.49
   2  10   7    9.00    0.44
  -3 -10  -7   -4.00    6.31
  -4 -10  -7   -6.26    7.11
  -5  10  -7    2.83    0.37
   7 -11  -7    1.27    0.43
  -7  11   7    0.46    0.17
   6 -11  -7    4.36    0.56
  -6  11   7    3.58    0.30
   5 -11  -7   10.32    0.72
  -5 -11   7    9.27    0.60
  -5  11   7    9.46    0.44
  -5  11   7    9.55    0.43
   5  11  -7    3.24    4.43
  -4 -11   7   18.74    0.86
   4 -11  -7   18.62    0.95
  -4  11   7   18.29    0.68
  -4  11   7   18.08    0.65
  -3 -11   7   30.86    1.17
   3 -11  -7   30.00    1.29
   3  11  -7   29.70    1.14
  -3  11   7   29.27    1.01
  -3  11   7   30.40    0.98
   3  11  -7   28.17    1.10
   2 -11  -7   37.45    1.26
   2 -11  -7   40.36    1.60
  -2  11   7   39.28    1.31
  -2  11   7   39.83    1.27
   2  11  -7   39.12    1.42
   2  11  -7   41.05    1.39
   1 -11  -7   64.85    2.41
   1 -11  -7   64.44    1.94
   1  11  -7   65.41    2.18
   1  11  -7   64.54    2.10
  -1  11   7   64.03    2.09
  -1  11   7   64.65    2.02
   0 -11  -7   30.56    1.31
   0 -11   7   30.86    1.07
   0 -11  -7   31.52    0.98
   0  11   7   30.11    1.04
   0  11  -7   30.54    1.13
   0  11   7   30.09    1.07
   0  11  -7   30.77    1.15
  -1 -11  -7   16.08    0.93
   1 -11   7   16.82    0.66
  -1 -11  -7   16.95    0.59
  -1  11  -7   16.81    0.74
   1  11   7   17.71    0.68
   1  11   7   17.07    0.65
  -1  11  -7   15.59    0.74
  -2  11  -7   14.49    0.73
   2  11   7   15.05    0.62
   2  11   7   15.37    0.66
   3  11   7    8.31    0.44
  -3  11  -7    7.99    0.56
  -4  11  -7    2.76    0.37
  -5  11  -7    0.65    0.29
   7 -12  -7    0.00    0.35
   6 -12  -7    0.19    0.33
  -6  12   7    0.15    0.13
   5  12  -7    6.09    4.51
   4 -12  -7    0.10    0.27
  -4  12   7    0.25    0.10
  -4  12   7    0.10    0.11
   3 -12  -7    0.43    0.28
  -3  12   7    0.17    0.11
   3  12  -7   -0.29    0.16
   3  12  -7    0.26    0.21
  -3  12   7    0.25    0.09
   2 -12  -7    0.24    0.18
   2 -12  -7    0.34    0.26
   2  12  -7    0.40    0.21
   2  12  -7    0.21    0.17
  -2  12   7    0.32    0.12
  -2  12   7    0.26    0.09
  -1 -12   7    0.81    0.22
   1 -12  -7    0.29    0.17
   1 -12  -7    0.49    0.29
  -1  12   7    0.34    0.11
  -1  12   7    0.37    0.13
   1  12  -7    0.55    0.21
   1  12  -7    0.45    0.18
   0 -12  -7    0.32    0.27
   0 -12   7    0.07    0.19
   0 -12  -7    0.19    0.15
   0  12  -7   -0.14    0.15
   0  12   7    0.02    0.12
   0  12  -7    0.04    0.18
   0  12   7    0.06    0.09
  -1 -12  -7   -0.04    0.14
   1 -12   7    0.32    0.18
  -1 -12  -7    0.06    0.29
   1  12   7    0.19    0.11
  -1  12  -7    0.38    0.19
  -1  12  -7    0.15    0.19
   1  12   7    0.15    0.14
   2  12   7    0.13    0.12
  -2  12  -7    0.25    0.19
   2  12   7   -0.20    0.15
  -2  12  -7   -0.06    0.19
  -3  12  -7    0.07    0.23
   3  12   7   -0.13    0.12
  -4  12  -7   -0.32    0.25
  -5  12  -7   -0.22    0.25
   6 -13  -7    2.82    0.50
   5 -13  -7    7.00    0.63
  -5  13   7    6.31    0.33
   5  13  -7    6.18    4.51
  -5  13   7    6.49    0.33
   4 -13  -7    9.62    0.69
  -4  13   7   10.14    0.41
  -4  13   7    9.31    0.41
   3 -13  -7   22.83    0.90
   3 -13  -7   23.48    1.12
   3  13  -7   24.16    0.97
  -3  13   7   25.10    0.83
  -3  13   7   24.31    0.85
   3  13  -7   26.00    1.01
   2 -13  -7   31.65    1.10
   2 -13  -7   32.17    1.37
   2  13  -7   33.54    1.24
   2  13  -7   32.85    1.20
  -2  13   7   32.27    1.08
  -2  13   7   32.92    1.11
   1 -13  -7   29.44    1.27
   1 -13  -7   29.19    0.99
  -1 -13   7   30.36    1.09
   1  13  -7   28.90    1.13
  -1  13   7   29.90    1.01
  -1  13   7   29.33    1.03
   1  13  -7   29.54    1.09
   0 -13  -7   22.80    0.80
   0 -13   7   23.05    0.90
   0 -13  -7   22.14    1.06
   0  13   7   24.00    0.84
   0  13  -7   23.57    0.94
   0  13   7   22.01    0.85
   0  13  -7   23.67    0.91
  -1 -13  -7   17.35    0.63
   1 -13   7   16.67    0.71
  -1 -13  -7   15.84    0.90
   1  13   7   17.74    0.67
  -1  13  -7   16.60    0.76
   1  13   7   17.83    0.71
  -1  13  -7   17.19    0.75
  -2 -13  -7    6.27    0.63
  -2  13  -7    5.59    0.44
   2  13   7    5.90    0.35
  -2  13  -7    5.88    0.46
  -3 -13  -7    2.94    6.72
  -3  13  -7    4.59    0.47
   3  13   7    4.79    0.35
  -3  13  -7    5.42    0.43
  -4  13  -7    1.22    0.33
  -5  13  -7    0.36    0.28
   6 -14  -7    6.69    0.67
   5 -14  -7   10.82    0.77
  -5  14   7   10.85    0.45
  -5  14   7   11.10    0.45
   4 -14  -7   14.53    0.83
  -4  14   7   13.38    0.53
  -4  14   7   13.35    0.51
   3 -14  -7    5.05    0.39
   3 -14  -7    5.74    0.52
   3  14  -7    5.68    0.45
  -3  14   7    5.14    0.29
  -3  14   7    5.15    0.29
   3  14  -7    5.15    0.44
   2 -14  -7    2.08    0.28
   2 -14  -7    2.74    0.40
  -2  14   7    2.71    0.22
   2  14  -7    2.24    0.29
   2  14  -7    2.38    0.31
  -2  14   7    2.57    0.22
   1 -14  -7    0.43    0.28
   1 -14  -7    0.16    0.18
  -1 -14   7    0.31    0.22
  -1  14   7    0.06    0.12
  -1  14   7    0.10    0.10
   1  14  -7    0.13    0.16
   1  14  -7    0.26    0.19
   0 -14  -7    0.73    0.19
   0 -14   7    0.43    0.23
   0 -14  -7    0.67    0.31
   0  14  -7    0.98    0.24
   0  14   7    0.76    0.16
   0  14   7    0.65    0.14
   0  14  -7    0.61    0.20
  -1 -14  -7    3.29    0.44
  -1 -14  -7    3.28    0.27
   1 -14   7    2.89    0.33
  -1  14  -7    3.44    0.35
   1  14   7    2.90    0.26
  -1  14  -7    3.33    0.35
   1  14   7    3.40    0.31
  -2 -14  -7   -2.06    5.96
  -2 -14  -7    3.01    0.48
  -2  14  -7    3.43    0.38
  -2  14  -7    2.54    0.32
   2  14   7    3.01    0.27
  -3 -14  -7    0.80    6.46
  -3  14  -7    3.89    0.45
  -3  14  -7    4.22    0.41
   3  14   7    4.08    0.33
  -4  14  -7    4.72    0.50
   6 -15  -7    1.91    0.46
   5 -15  -7    4.69    0.57
  -5  15   7    5.38    0.29
   5  15  -7    2.90    4.46
   4 -15  -7    8.85    0.67
  -4  15   7    8.94    0.39
  -4  15   7    8.91    0.39
   3 -15  -7   16.55    0.74
   3 -15  -7   18.64    0.94
  -3  15   7   18.40    0.67
   3  15  -7   17.98    0.80
  -3  15   7   17.80    0.65
   3  15  -7   18.54    0.83
   2 -15  -7   22.56    1.05
   2 -15  -7   21.90    0.85
   2  15  -7   23.06    0.96
  -2  15   7   22.77    0.83
   2  15  -7   23.18    0.94
  -2  15   7   23.21    0.81
   1 -15  -7   13.02    0.73
   1 -15  -7   12.52    0.56
  -1 -15   7   13.06    0.65
  -1  15   7   12.03    0.53
  -1  15   7   12.43    0.53
   1  15  -7   12.72    0.62
   1  15  -7   13.11    0.65
   0 -15   7   19.99    0.84
   0 -15  -7   20.27    0.97
   0 -15  -7   20.29    0.74
   0  15   7   20.28    0.78
   0  15  -7   19.99    0.86
   0  15   7   19.54    0.75
   0  15  -7   19.65    0.82
  -1 -15  -7    8.71    0.63
   1 -15   7    8.82    0.53
  -1  15  -7    9.45    0.54
  -1  15  -7    9.00    0.51
   1  15   7    9.96    0.49
   1  15   7    8.46    0.44
  -2 -15  -7    8.94    0.73
  -2  15  -7    9.25    0.57
  -2  15  -7    9.44    0.55
   2  15   7    9.08    0.46
  -3 -15  -7    6.10    0.71
  -3  15  -7    5.52    0.47
   3  15   7    4.74    0.35
  -3  15  -7    4.82    0.46
  -4  15  -7    0.57    0.29
  -4  15  -7    0.37    0.24
   5 -16  -7   -0.09    0.31
   4 -16  -7    0.11    0.28
  -4  16   7    0.18    0.11
  -4  16   7    0.17    0.10
   3 -16  -7   -0.07    0.27
   3 -16  -7    0.34    0.23
   3  16  -7   -0.17    0.17
  -3  16   7   -0.06    0.09
   3  16  -7   -0.19    0.21
  -3  16   7    0.14    0.11
  -2 -16   7    1.04    0.27
   2 -16  -7    0.84    0.30
   2 -16  -7    0.92    0.24
   2  16  -7    0.54    0.23
  -2  16   7    0.76    0.13
  -2  16   7    0.92    0.16
   2  16  -7    0.44    0.20
   1 -16  -7   -0.06    0.19
   1 -16  -7    0.10    0.26
  -1 -16   7    0.08    0.23
  -1  16   7   -0.10    0.10
   1  16  -7    0.11    0.17
   1  16  -7    0.21    0.22
  -1  16   7    0.01    0.12
   0 -16   7    0.38    0.23
   0 -16  -7    0.96    0.31
   0 -16  -7    0.60    0.20
   0  16  -7    0.81    0.24
   0  16  -7    0.60    0.20
   0  16   7    0.75    0.18
   0  16   7    0.60    0.14
   1 -16   7    0.44    0.25
  -1 -16  -7    0.39    0.33
   1  16   7    0.62    0.15
  -1  16  -7    0.96    0.25
  -1  16  -7    0.61    0.19
  -2 -16  -7   -6.04    5.64
  -2 -16  -7   -0.38    0.31
  -2  16  -7    0.00    0.19
   2  16   7    0.02    0.12
  -2  16  -7    0.21    0.22
  -3 -16  -7    0.06    0.35
  -3  16  -7    0.09    0.21
  -3  16  -7    0.19    0.23
   3  16   7   -0.10    0.12
  -4  16  -7    0.05    0.26
  -4  16  -7   -0.16    0.21
   5 -17  -7    3.14    0.50
   4 -17  -7    6.20    0.58
  -4  17   7    6.29    0.32
  -4  17   7    6.43    0.32
   3 -17  -7    8.49    0.51
   3 -17  -7    8.90    0.64
   3  17  -7    8.91    0.56
  -3  17   7    8.54    0.40
   3  17  -7    8.44    0.57
  -3  17   7    8.77    0.39
   2 -17  -7   12.97    0.62
  -2 -17   7   14.12    0.70
   2 -17  -7   13.31    0.77
  -2  17   7   13.47    0.55
  -2  17   7   13.32    0.54
   2  17  -7   13.44    0.68
   2  17  -7   13.74    0.70
  -1 -17   7   19.47    0.86
   1 -17  -7   19.88    0.96
   1 -17  -7   18.76    0.76
  -1  17   7   19.08    0.75
   1  17  -7   18.61    0.86
  -1  17   7   19.03    0.73
   1  17  -7   20.06    0.83
   0 -17   7   10.08    0.61
   0 -17  -7   10.86    0.52
   0 -17  -7   11.21    0.68
   0  17   7   10.93    0.52
   0  17   7   10.25    0.49
   0  17  -7   11.03    0.61
   0  17  -7   10.74    0.57
  -1 -17  -7    7.04    0.60
   1 -17   7    7.83    0.54
   1  17   7    7.84    0.42
  -1  17  -7    8.04    0.49
  -1  17  -7    8.10    0.51
  -2 -17  -7    3.38    0.48
  -2  17  -7    4.13    0.42
   2  17   7    3.64    0.31
  -2  17  -7    3.85    0.40
  -3 -17  -7    1.44    0.43
  -3  17  -7    1.15    0.26
  -3  17  -7    1.76    0.32
   3  17   7    1.29    0.21
  -4  17  -7    0.41    0.23
   5 -18  -7    6.49    0.64
   4 -18  -7    2.77    0.43
  -4  18   7    2.92    0.24
  -4  18   7    2.78    0.23
  -3 -18   7    5.35    0.45
   3 -18  -7    4.66    0.51
   3 -18  -7    4.33    0.42
   3  18  -7    5.02    0.45
  -3  18   7    4.86    0.30
   3  18  -7    5.25    0.48
  -3  18   7    5.40    0.30
  -2 -18   7    1.74    0.31
   2 -18  -7    1.56    0.28
   2 -18  -7    1.90    0.37
  -2  18   7    1.91    0.21
  -2  18   7    1.48    0.19
   2  18  -7    1.50    0.27
   2  18  -7    1.86    0.31
   1 -18  -7   -0.03    0.20
   1 -18  -7    0.28    0.27
  -1 -18   7   -0.10    0.23
   1  18  -7    0.16    0.22
  -1  18   7    0.11    0.11
  -1  18   7    0.00    0.14
   1  18  -7   -0.14    0.17
   0 -18  -7    0.06    0.19
   0 -18   7   -0.01    0.23
   0 -18  -7   -0.33    0.24
   0  18  -7   -0.01    0.20
   0  18   7   -0.09    0.11
   0  18  -7   -0.06    0.16
  -1 -18  -7    1.81    0.40
   1 -18   7    1.90    0.33
  -1  18  -7    1.98    0.28
   1  18   7    1.69    0.22
  -1  18  -7    2.27    0.31
  -2 -18  -7    1.86    0.41
   2  18   7    2.04    0.25
  -2  18  -7    2.54    0.31
  -2  18  -7    2.53    0.33
  -3  18  -7    2.82    0.34
  -3  18  -7    3.51    0.42
   4 -19  -7    2.59    0.44
  -4  19   7    2.56    0.24
  -4  19   7    2.64    0.24
   3 -19  -7    4.08    0.48
   3 -19  -7    3.18    0.38
  -3 -19   7    3.84    0.42
  -3  19   7    3.47    0.27
  -3  19   7    3.63    0.26
   3  19  -7    2.63    0.33
   2 -19  -7   11.25    0.60
  -2 -19   7   11.64    0.66
   2 -19  -7   11.87    0.74
   2  19  -7   11.88    0.64
  -2  19   7   12.95    0.54
   2  19  -7   12.28    0.68
  -2  19   7   11.12    0.50
  -1 -19   7    7.24    0.54
   1 -19  -7    6.60    0.45
   1 -19  -7    7.70    0.57
  -1  19   7    6.50    0.40
   1  19  -7    7.77    0.51
  -1  19   7    7.09    0.38
   1  19  -7    7.16    0.52
   0 -19  -7    7.89    0.57
   0 -19   7    6.90    0.54
   0 -19  -7    6.98    0.45
   0  19  -7    7.29    0.52
   0  19  -7    7.16    0.48
   0  19   7    6.85    0.40
  -1 -19  -7    8.42    0.63
   1 -19   7    8.61    0.58
  -1  19  -7    8.84    0.53
   1  19   7    7.48    0.44
  -1  19  -7    8.50    0.56
   2  19   7    3.32    0.31
  -2  19  -7    3.75    0.41
  -2  19  -7    3.19    0.37
  -3  19  -7    0.78    0.23
   4 -20  -7    0.01    0.30
  -4  20   7   -0.06    0.12
  -4  20   7    0.11    0.11
   3 -20  -7   -0.15    0.24
   3 -20  -7    0.29    0.29
  -3  20   7   -0.02    0.13
   3  20  -7   -0.24    0.19
  -3  20   7    0.08    0.10
  -2 -20   7    0.07    0.23
   2 -20  -7    0.46    0.26
   2 -20  -7    0.52    0.30
   2  20  -7    0.80    0.28
  -2  20   7    0.46    0.13
   2  20  -7    0.19    0.21
  -1 -20   7    0.13    0.25
   1 -20  -7    0.28    0.23
   1 -20  -7    0.32    0.27
   1  20  -7    0.22    0.23
   1  20  -7   -0.02    0.19
  -1  20   7    0.20    0.13
   0 -20  -7   -0.08    0.27
   0 -20   7   -0.02    0.25
   0 -20  -7   -0.15    0.21
   0  20  -7   -0.06    0.22
   0  20  -7   -0.30    0.16
   0  20   7   -0.09    0.11
  -1 -20  -7    0.26    0.30
   1 -20   7    0.30    0.27
  -1  20  -7    0.73    0.26
   1  20   7    0.46    0.16
  -1  20  -7    0.36    0.20
  -2  20  -7    0.21    0.22
   2  20   7    0.08    0.14
  -2  20  -7    0.19    0.19
  -4  21   7    3.93    0.28
   3 -21  -7    3.97    0.49
  -3  21   7    4.61    0.30
   3  21  -7    3.71    0.43
   2 -21  -7    7.32    0.49
   2 -21  -7    6.35    0.56
  -2  21   7    6.24    0.36
   2  21  -7    7.60    0.55
   2  21  -7    6.16    0.50
   1 -21  -7    5.27    0.43
  -1 -21   7    4.17    0.46
   1 -21  -7    5.28    0.52
  -1  21   7    5.21    0.34
   1  21  -7    5.30    0.49
   1  21  -7    4.89    0.45
   0 -21  -7    3.83    0.47
   0 -21   7    3.45    0.45
   0  21   7    3.70    0.31
   0  21  -7    3.53    0.40
   0  21  -7    4.17    0.45
   1 -21   7    3.28    0.44
  -1  21  -7    2.95    0.34
  -1  21  -7    3.41    0.41
   1  21   7    3.64    0.32
  -2  21  -7    1.60    0.27
   2  21   7    1.48    0.23
   3 -22  -7    1.46    0.36
  -3  22   7    1.38    0.18
   2 -22  -7    0.20    0.28
   2  22  -7    0.26    0.21
  -2  22   7    0.43    0.13
   2  22  -7    0.33    0.26
   1 -22  -7   -0.02    0.27
   1  22  -7   -0.12    0.18
  -1  22   7    0.03    0.12
   1  22  -7    0.00    0.23
   0  22   7   -0.11    0.11
   0  22  -7    0.02    0.23
   0  22  -7    0.07    0.19
   1  22   7    0.36    0.15
  -1  22  -7    0.15    0.20
   2  22   7    0.81    0.20
   2 -23  -7    4.00    0.49
   2  23  -7    2.95    0.40
   2  23  -7    3.00    0.36
   1 -23  -7    4.70    0.50
   1  23  -7    2.94    0.39
   1  23  -7    3.36    0.40
  -1  23   7    3.70    0.30
   0  23  -7    1.58    0.28
   0  23   7    1.46    0.22
  -7   0   8   -0.14    0.20
   6   0  -8    0.45    0.26
  -6   0   8    0.49    0.22
  -5   0   8    9.23    0.55
   5   0  -8    9.27    0.58
   4   0  -8   37.52    1.49
  -4   0   8   39.28    1.34
  -4   0   8   40.12    1.42
  -3   0   8   57.31    1.89
   3   0  -8   54.70    2.03
  -3   0   8   55.25    1.80
   2   0  -8  129.13    4.41
  -2   0   8  131.99    4.12
   2   0  -8  119.80    4.09
   2   0  -8  135.49    3.97
  -2   0   8  132.22    3.94
   1   0  -8  125.93    3.79
  -1   0   8  128.36    3.90
   1   0  -8  118.16    3.89
  -1   0   8  118.80    3.73
   0   0  -8   93.24    3.06
   0   0   8   95.99    3.05
   0   0   8   96.39    2.93
   1   0   8   79.96    2.55
  -1   0  -8   77.35    2.58
   1   0   8   79.33    2.45
  -2   0  -8   34.88    1.27
  -3   0  -8   31.23    1.18
  -4   0  -8   19.19    0.86
  -5   0  -8    4.18    0.44
  -6   0  -8    0.38    0.26
  -8  -1   8    2.94    0.39
  -7  -1   8    2.61    0.35
   7  -1  -8    2.92    0.44
  -7   1   8    3.60    0.40
   6  -1  -8   17.58    0.90
  -6  -1   8   17.63    0.82
  -6   1   8   19.06    0.83
   6   1  -8   18.55    0.88
  -5  -1   8   25.79    1.05
   5  -1  -8   25.61    1.12
  -5   1   8   27.28    1.05
   5   1  -8   25.77    1.09
   4  -1  -8   23.59    1.02
  -4  -1   8   23.54    0.95
  -4   1   8   24.58    0.89
   4   1  -8   22.05    0.98
  -4   1   8   22.88    0.93
   3  -1  -8   23.62    1.02
  -3  -1   8   23.74    0.93
  -3  -1   8   23.03    0.88
  -3   1   8   24.45    0.92
  -3   1   8   24.32    0.87
   3   1  -8   25.43    1.01
   2  -1  -8   20.60    0.80
  -2  -1   8   21.53    0.83
   2  -1  -8   20.74    0.94
  -2  -1   8   20.15    0.77
  -2   1   8   20.43    0.76
   2   1  -8   21.08    0.81
   2   1  -8   23.07    0.91
  -2   1   8   21.46    0.82
   2   1  -8   19.43    0.81
   1  -1  -8    0.29    0.16
  -1  -1   8    0.33    0.12
   1  -1  -8    0.44    0.17
  -1  -1   8    0.25    0.15
  -1   1   8    0.50    0.12
   1   1  -8    0.24    0.17
  -1   1   8    0.43    0.15
   1   1  -8    0.20    0.16
   0  -1   8    0.55    0.17
   0  -1  -8    0.09    0.16
   0  -1   8    0.21    0.11
   0   1  -8   -0.16    0.16
   0   1   8    0.14    0.14
   0   1   8    0.28    0.11
  -1  -1  -8    2.09    0.25
   1  -1   8    2.43    0.25
   1  -1   8    1.94    0.22
  -1   1  -8    1.59    0.25
   1   1   8    2.10    0.23
   1   1   8    1.87    0.22
  -2  -1  -8   -0.24    0.15
   2   1   8    0.00    0.10
  -2   1  -8   -0.19    0.16
  -3  -1  -8    0.03    0.21
  -3   1  -8    0.28    0.22
  -4  -1  -8    1.06    0.28
  -4   1  -8    0.42    0.25
  -5  -1  -8    1.31    0.30
  -5   1  -8    0.48    0.25
  -6  -1  -8    0.20    0.26
  -6   1  -8    0.27    0.26
  -8  -2   8    0.07    0.25
   7  -2  -8   -0.06    0.28
  -7  -2   8    0.11    0.23
  -7   2   8   -0.05    0.21
   6  -2  -8    0.33    0.27
  -6  -2   8    0.40    0.23
  -6   2   8    0.59    0.22
   5  -2  -8    0.38    0.24
  -5  -2   8   -0.03    0.20
   5   2  -8    0.23    0.20
  -5   2   8    0.23    0.19
  -4  -2   8    1.30    0.24
   4  -2  -8    1.45    0.30
   4   2  -8    1.50    0.25
  -4   2   8    1.09    0.22
  -4   2   8    1.05    0.17
  -3  -2   8    0.99    0.16
  -3  -2   8    1.05    0.21
   3  -2  -8    1.19    0.27
  -3   2   8    1.24    0.20
   3   2  -8    1.24    0.22
  -3   2   8    0.98    0.15
   2  -2  -8    1.68    0.30
  -2  -2   8    1.32    0.20
  -2  -2   8    1.37    0.17
  -2   2   8    1.23    0.20
   2   2  -8    1.44    0.22
   2   2  -8    1.35    0.19
  -2   2   8    1.88    0.21
   2   2  -8    1.57    0.24
  -1  -2   8    2.00    0.20
   1  -2  -8    2.30    0.35
  -1  -2   8    2.12    0.24
   1  -2  -8    1.76    0.21
   1  -2  -8    1.76    0.22
   1   2  -8    1.75    0.23
   1   2  -8    1.67    0.22
  -1   2   8    1.78    0.19
  -1   2   8    1.69    0.21
   0  -2  -8   -0.18    0.14
   0  -2   8   -0.07    0.09
   0  -2   8   -0.26    0.13
   0   2   8   -0.04    0.09
   0   2  -8    0.24    0.17
   0   2   8   -0.18    0.12
   1  -2   8    0.08    0.10
  -1  -2  -8    0.06    0.15
   1  -2   8    0.07    0.14
   1   2   8    0.07    0.13
   1   2   8    0.34    0.12
  -1   2  -8   -0.01    0.16
  -2  -2  -8   -0.04    0.17
   2   2   8    0.08    0.11
  -2   2  -8   -0.07    0.17
   2   2   8   -0.03    0.14
  -3  -2  -8   -0.10    0.18
  -3   2  -8   -0.46    0.18
  -4  -2  -8   -0.14    0.20
  -4   2  -8   -0.42    0.20
  -5  -2  -8    0.00    0.24
  -5   2  -8    0.07    0.23
  -6  -2  -8   -0.21    0.24
  -6   2  -8   -0.04    0.24
  -8  -3   8    2.53    0.39
  -7  -3   8    4.73    0.47
  -7   3   8    4.84    0.43
   6  -3  -8   15.07    0.85
  -6  -3   8   17.01    0.79
  -6   3   8   16.09    0.75
   5  -3  -8   20.44    0.97
  -5  -3   8   19.79    0.88
   5   3  -8   20.54    0.87
  -5   3   8   20.29    0.85
   4  -3  -8   20.69    0.97
  -4  -3   8   21.43    0.89
  -4   3   8   21.09    0.79
  -4   3   8   20.58    0.84
   4   3  -8   21.15    0.87
  -3  -3   8   24.78    0.96
   3  -3  -8   23.67    1.07
  -3  -3   8   24.37    0.91
  -3   3   8   24.51    0.87
  -3   3   8   25.25    0.93
   3   3  -8   25.11    0.98
  -2  -3   8   27.88    1.02
  -2  -3   8   27.34    0.97
   2  -3  -8   27.86    1.17
   2   3  -8   26.11    1.02
  -2   3   8   26.21    0.93
   2   3  -8   27.09    1.07
   2   3  -8   28.04    1.00
  -2   3   8   27.18    1.00
  -1  -3   8   13.30    0.55
   1  -3  -8   11.37    0.55
   1  -3  -8   14.84    0.76
   1  -3  -8   12.84    0.59
  -1  -3   8   12.57    0.58
  -1   3   8   13.24    0.52
  -1   3   8   12.91    0.56
   1   3  -8   12.03    0.60
   1   3  -8   13.93    0.61
   0  -3   8    0.42    0.17
   0  -3  -8    0.04    0.17
   0  -3   8    0.94    0.15
   0   3   8    0.25    0.15
   0   3  -8    0.43    0.19
   0   3   8    0.52    0.13
   1  -3   8    0.40    0.16
   1  -3   8    0.73    0.15
  -1  -3  -8    0.44    0.18
  -1   3  -8    0.46    0.20
   1   3   8    0.65    0.13
   1   3   8    0.27    0.15
  -2  -3  -8    0.10    0.17
   2   3   8    0.21    0.16
   2   3   8    0.35    0.13
  -2   3  -8    0.06    0.19
  -3  -3  -8    2.24    0.29
  -3   3  -8    1.98    0.30
  -4  -3  -8    0.55    0.24
  -4   3  -8    0.08    0.23
  -5  -3  -8    0.37    0.25
  -5   3  -8    0.63    0.26
  -6  -3  -8    0.19    0.27
  -6   3  -8    0.43    0.26
   7  -4  -8   -0.21    0.30
  -7  -4   8    0.12    0.25
  -7   4   8    0.05    0.20
  -6  -4   8    1.90    0.30
   6  -4  -8    2.07    0.38
  -6   4   8    1.76    0.27
   5  -4  -8    6.24    0.52
  -5  -4   8    6.49    0.47
  -5   4   8    6.08    0.43
  -5   4   8    5.61    0.39
  -4  -4   8   22.84    0.94
   4  -4  -8   21.18    1.02
  -4   4   8   23.17    0.83
   4   4  -8   21.82    0.89
  -4   4   8   22.98    0.88
  -3  -4   8   67.53    2.28
   3  -4  -8   65.68    2.49
  -3   4   8   68.88    2.14
  -3   4   8   70.12    2.25
   3   4  -8   68.51    2.36
  -2  -4   8   52.18    1.72
   2  -4  -8   52.44    2.01
  -2  -4   8   52.48    1.80
   2   4  -8   55.35    1.75
  -2   4   8   52.09    1.76
   2   4  -8   54.11    1.88
   2   4  -8   53.28    1.80
  -2   4   8   51.63    1.68
   1  -4  -8  105.61    3.31
  -1  -4   8  103.05    3.29
  -1  -4   8  110.76    3.45
   1  -4  -8  115.52    3.79
   1   4  -8  104.24    3.33
   1   4  -8  107.62    3.45
  -1   4   8  102.24    3.26
  -1   4   8  108.66    3.40
   0  -4   8  134.52    4.15
   0  -4  -8  127.77    4.12
   0  -4   8  136.17    3.98
   0   4   8  127.68    4.11
   0   4  -8  126.43    4.17
   0   4   8  129.72    3.95
   0   4  -8  131.81    4.03
   1  -4   8   69.78    2.12
  -1  -4  -8   67.55    2.19
   1   4   8   65.65    2.17
  -1   4  -8   61.81    2.22
   1   4   8   66.56    2.08
  -2  -4  -8   50.62    1.79
  -2   4  -8   50.85    1.82
   2   4   8   52.85    1.69
   2   4   8   55.16    1.77
  -3  -4  -8   23.50    0.94
  -3   4  -8   23.19    0.97
  -4  -4  -8   13.95    0.69
  -4   4  -8   12.60    0.69
  -5  -4  -8    2.54    0.36
  -5   4  -8    3.00    0.38
  -6   4  -8    0.98    0.30
   7  -5  -8    3.81    0.53
  -7  -5   8    4.15    0.46
  -7   5   8    4.96    0.42
   6  -5  -8    8.91    0.66
  -6  -5   8    9.06    0.58
  -6   5   8    9.12    0.52
  -5  -5   8   12.27    0.65
   5  -5  -8   11.91    0.72
  -5   5   8   12.24    0.59
  -5   5   8   12.56    0.57
   4  -5  -8   22.88    1.07
  -4  -5   8   23.77    0.96
  -4   5   8   22.39    0.83
  -4   5   8   22.99    0.88
  -3  -5   8   10.48    0.56
   3  -5  -8   11.02    0.68
   3   5  -8   10.34    0.55
  -3   5   8   11.35    0.52
   3   5  -8   11.49    0.52
  -3   5   8   11.01    0.47
  -2  -5   8   15.58    0.69
   2  -5  -8   14.45    0.84
  -2  -5   8   15.91    0.65
   2   5  -8   16.41    0.70
   2   5  -8   16.95    0.71
  -2   5   8   16.29    0.65
   2   5  -8   16.85    0.69
  -2   5   8   16.10    0.61
  -1  -5   8   21.62    0.81
  -1  -5   8   20.12    0.85
   1  -5  -8   21.83    1.04
   1   5  -8   21.37    0.87
  -1   5   8   22.03    0.76
  -1   5   8   21.31    0.80
   1   5  -8   22.02    0.86
  -1  -5  -8    1.64    0.24
   1   5   8    2.04    0.23
  -1   5  -8    1.64    0.27
   1   5   8    2.00    0.22
  -2  -5  -8    0.00    0.17
   2   5   8    0.31    0.17
   2   5   8    0.13    0.11
  -2   5  -8    0.13    0.22
  -3  -5  -8    0.99    0.24
  -3   5  -8    0.65    0.25
  -4  -5  -8    0.40    0.23
  -4   5  -8    0.26    0.25
  -5   5  -8    0.06    0.24
   7  -6  -8    0.07    0.33
  -7  -6   8    0.02    0.25
  -7   6   8    0.17    0.21
  -6  -6   8    0.00    0.22
   6  -6  -8   -0.03    0.29
  -6   6   8    0.09    0.18
  -5  -6   8    0.21    0.22
   5  -6  -8    0.33    0.27
  -5   6   8    0.35    0.17
  -5   6   8    0.00    0.12
  -4  -6   8    2.30    0.31
   4  -6  -8    3.03    0.42
  -4   6   8    2.40    0.28
  -4   6   8    2.47    0.24
   3  -6  -8    0.25    0.27
  -3  -6   8    0.48    0.19
  -3   6   8    0.52    0.16
   3   6  -8    0.61    0.15
   3   6  -8    0.30    0.17
  -3   6   8    0.43    0.11
  -2  -6   8    0.22    0.15
   2  -6  -8   -0.30    0.22
   2   6  -8   -0.09    0.14
  -2   6   8    0.05    0.09
  -2   6   8   -0.08    0.12
   2   6  -8   -0.22    0.13
   2   6  -8    0.26    0.17
   1  -6  -8    2.32    0.40
  -1  -6   8    1.83    0.21
  -1  -6   8    2.02    0.25
  -1   6   8    1.61    0.19
  -1   6   8    1.93    0.21
   1   6  -8    1.91    0.24
   1   6  -8    2.22    0.28
   0  -6   8    2.21    0.23
   0  -6   8    2.49    0.27
   0  -6   8    2.79    0.29
   0   6   8    2.38    0.23
   0   6  -8    2.46    0.30
   0   6   8    2.57    0.25
   0   6  -8    2.28    0.28
  -1   6  -8   -0.02    0.18
   1   6   8   -0.13    0.13
   1   6   8    0.54    0.13
  -2  -6  -8   -0.08    0.17
   2   6   8    0.16    0.12
   2   6   8    0.07    0.15
  -2   6  -8   -0.16    0.19
  -3   6  -8   -0.03    0.21
  -4   6  -8   -0.11    0.23
  -5   6  -8   -0.23    0.23
   7  -7  -8    4.05    0.57
  -7  -7   8    4.52    0.49
  -7   7   8    5.07    0.41
  -6  -7   8   11.63    0.67
   6  -7  -8   11.63    0.78
  -6   7   8   11.27    0.58
  -5  -7   8   13.34    0.69
   5  -7  -8   12.93    0.78
  -5   7   8   12.32    0.56
  -5   7   8   12.21    0.58
  -4  -7   8   30.41    1.18
   4  -7  -8   29.32    1.30
  -4   7   8   29.16    1.06
  -4   7   8   29.03    1.01
   3  -7  -8   32.01    1.41
  -3  -7   8   34.23    1.26
   3   7  -8   35.10    1.21
  -3   7   8   32.93    1.10
  -3   7   8   32.04    1.16
  -2  -7   8    4.88    0.36
   2  -7  -8    4.62    0.53
   2   7  -8    4.24    0.32
   2   7  -8    5.25    0.38
  -2   7   8    4.68    0.31
   2   7  -8    4.61    0.37
  -2   7   8    4.84    0.27
   1  -7  -8   27.63    1.20
  -1  -7   8   25.82    1.01
  -1   7   8   26.81    0.95
   1   7  -8   26.81    1.04
  -1   7   8   26.41    0.91
   1   7  -8   25.84    0.99
  -2   7  -8   -0.11    0.21
   2   7   8    0.25    0.13
   2   7   8   -0.03    0.15
  -3   7  -8    2.33    0.34
  -4   7  -8    0.15    0.25
  -5   7  -8    0.37    0.26
  -7  -8   8    0.37    0.28
   7  -8  -8    0.40    0.36
  -7   8   8    0.04    0.18
   6  -8  -8    3.06    0.49
  -6  -8   8    2.56    0.36
  -6   8   8    3.03    0.33
   5  -8  -8    4.81    0.53
  -5  -8   8    4.87    0.46
  -5   8   8    4.90    0.34
  -5   8   8    4.31    0.32
  -4  -8   8   16.61    0.80
   4  -8  -8   18.15    0.94
  -4   8   8   17.33    0.69
  -4   8   8   16.63    0.65
   3  -8  -8   52.51    2.06
  -3  -8   8   51.99    1.84
   3   8  -8   52.96    1.83
   3   8  -8   56.15    1.79
  -3   8   8   50.28    1.67
  -3   8   8   53.36    1.76
  -2  -8   8   26.30    1.02
   2  -8  -8   26.07    1.20
   2   8  -8   27.75    1.01
  -2   8   8   26.25    0.95
   2   8  -8   26.40    1.03
  -2   8   8   26.89    0.91
  -1  -8   8   86.26    2.68
   1  -8  -8   75.57    2.95
  -1   8   8   76.55    2.50
  -1   8   8   82.76    2.61
   1   8  -8   84.10    2.69
   1   8  -8   81.58    2.59
   0  -8  -8  107.93    3.61
   0  -8   8   97.55    2.91
   0   8  -8   92.40    3.11
   0   8  -8  100.06    3.23
   0   8   8   99.05    3.03
   0   8   8   96.32    3.14
  -1  -8  -8   39.95    4.66
  -1   8  -8   45.97    1.53
  -1   8  -8   44.62    1.58
   1   8   8   42.48    1.43
   1   8   8   44.11    1.49
   2   8   8   42.84    1.43
   2   8   8   41.01    1.37
  -2   8  -8   38.15    1.50
  -3  -8  -8   16.49    7.00
  -3   8  -8   16.91    0.82
  -4  -8  -8   -6.60    7.05
  -5   8  -8    2.43    0.37
   7  -9  -8    4.52    0.62
  -7  -9   8    4.64    0.52
  -7   9   8    5.19    0.39
  -6  -9   8    5.13    0.50
   6  -9  -8    5.25    0.59
  -6   9   8    5.44    0.37
  -5  -9   8   11.81    0.67
   5  -9  -8   12.63    0.79
  -5   9   8   11.34    0.51
  -5   9   8   11.20    0.53
   4  -9  -8   12.43    0.76
  -4  -9   8   11.42    0.64
  -4   9   8   11.22    0.48
  -4   9   8   11.20    0.51
   3  -9  -8    4.07    0.50
  -3  -9   8    4.62    0.41
   3   9  -8    4.54    0.40
  -3   9   8    4.24    0.30
  -3   9   8    4.93    0.28
   3   9  -8    4.78    0.42
   2  -9  -8   27.14    1.25
  -2  -9   8   27.96    1.07
   2   9  -8   28.99    1.05
   2   9  -8   28.69    1.08
  -2   9   8   27.84    0.95
  -2   9   8   27.37    0.99
   1  -9  -8   19.95    1.04
  -1   9   8   21.35    0.77
   1   9  -8   20.09    0.86
   1   9  -8   20.11    0.84
  -1   9   8   20.79    0.74
  -2  -9  -8    9.92    6.07
  -3  -9  -8   -4.65    6.47
  -3   9  -8   -0.14    0.24
  -4   9  -8    0.24    0.26
  -5   9  -8    0.22    0.27
   7 -10  -8    0.07    0.36
  -7  10   8    0.13    0.16
  -6 -10   8   -0.01    0.25
   6 -10  -8   -0.04    0.34
  -6  10   8    0.15    0.15
  -5 -10   8    0.38    0.25
   5 -10  -8    0.06    0.29
  -5  10   8    0.06    0.14
  -5  10   8   -0.01    0.11
   4 -10  -8    0.14    0.29
  -4 -10   8    0.32    0.23
  -4  10   8    0.05    0.13
  -4  10   8    0.23    0.11
   3 -10  -8    2.09    0.39
  -3 -10   8    1.79    0.28
  -3  10   8    1.92    0.24
  -3  10   8    2.07    0.20
   3  10  -8    2.17    0.28
   3  10  -8    2.14    0.27
   2 -10  -8    0.62    0.31
  -2  10   8    0.89    0.13
   2  10  -8    0.40    0.17
  -2  10   8    0.69    0.15
   2  10  -8    0.92    0.22
   1 -10  -8   -0.24    0.29
   1 -10  -8   -0.06    0.14
  -1  10   8   -0.10    0.11
  -1  10   8    0.07    0.09
   1  10  -8   -0.13    0.18
   1  10  -8    0.06    0.16
  -3 -10  -8   11.66    7.12
  -4  10  -8   -0.02    0.25
  -5  10  -8   -0.28    0.25
   7 -11  -8    4.21    0.62
  -7  11   8    3.71    0.32
   6 -11  -8    9.70    0.76
  -6  11   8    7.89    0.44
   5 -11  -8   10.32    0.74
  -5  11   8    9.30    0.44
  -5  11   8    9.16    0.45
   4 -11  -8   15.86    0.91
  -4  11   8   15.26    0.62
  -4  11   8   16.48    0.61
   3 -11  -8   21.22    1.09
   3  11  -8   22.77    0.94
  -3  11   8   21.50    0.81
   3  11  -8   22.94    0.92
  -3  11   8   22.05    0.78
   2 -11  -8    7.77    0.62
   2  11  -8    8.18    0.50
   2  11  -8    8.13    0.49
  -2  11   8    7.70    0.37
  -2  11   8    7.71    0.39
   1 -11  -8    7.72    0.40
   1 -11  -8    8.55    0.64
   1  11  -8    8.25    0.50
   1  11  -8    8.45    0.48
  -1  11   8    7.68    0.39
  -1  11   8    7.72    0.39
   0 -11  -8    2.15    0.22
   0 -11  -8    2.12    0.39
   0 -11   8    2.09    0.28
   0  11  -8    2.00    0.27
   0  11   8    2.03    0.25
   0  11   8    2.53    0.24
   0  11  -8    2.28    0.30
  -2 -11  -8   -5.01    6.31
  -2  11  -8    0.03    0.19
   2  11   8   -0.04    0.16
  -2  11  -8   -0.07    0.21
   2  11   8   -0.15    0.11
  -3  11  -8    0.05    0.25
  -4  11  -8    0.33    0.27
  -5  11  -8    0.79    0.31
   6 -12  -8    0.92    0.40
  -6  12   8    0.26    0.15
  -6  12   8    0.89    0.17
   5 -12  -8    6.07    0.63
  -5  12   8    5.82    0.34
  -5  12   8    5.46    0.33
   4 -12  -8   13.86    0.85
  -4  12   8   13.96    0.55
  -4  12   8   13.92    0.56
   3 -12  -8   17.60    0.95
   3  12  -8   18.22    0.82
   3  12  -8   18.52    0.80
  -3  12   8   17.89    0.68
  -3  12   8   17.52    0.66
   2 -12  -8   35.06    1.49
   2 -12  -8   33.65    1.16
  -2  12   8   34.21    1.16
   2  12  -8   36.92    1.27
   2  12  -8   34.68    1.31
  -2  12   8   33.72    1.19
   1 -12  -8   52.90    2.09
  -1 -12   8   56.69    1.74
   1 -12  -8   53.21    1.65
  -1  12   8   51.40    1.77
  -1  12   8   52.09    1.71
   1  12  -8   53.80    1.87
   1  12  -8   54.12    1.80
   0 -12  -8   35.06    1.53
   0 -12  -8   38.89    1.17
   0 -12   8   37.80    1.27
   0  12  -8   36.22    1.36
   0  12   8   34.23    1.23
   0  12  -8   37.02    1.32
   0  12   8   36.38    1.27
  -1 -12  -8   24.64    3.95
  -1 -12  -8   30.23    1.37
  -1  12  -8   30.30    1.17
  -1  12  -8   30.40    1.14
   1  12   8   29.35    1.04
   1  12   8   30.33    1.08
   2  12   8   18.12    0.75
   2  12   8   20.62    0.81
  -2  12  -8   19.87    0.89
  -2  12  -8   19.02    0.86
  -3  12  -8   11.41    0.69
  -4  12  -8    5.30    0.52
   6 -13  -8    4.83    0.62
  -6  13   8    4.85    0.31
  -6  13   8    3.96    0.32
   5 -13  -8   11.98    0.83
  -5  13   8   11.76    0.51
  -5  13   8   12.11    0.51
   4 -13  -8    8.44    0.66
  -4  13   8    7.96    0.38
  -4  13   8    7.45    0.38
   3 -13  -8   10.36    0.70
   3  13  -8    9.96    0.57
  -3  13   8    9.72    0.43
  -3  13   8    9.58    0.44
   2 -13  -8   11.27    0.74
   2 -13  -8   11.62    0.55
   2  13  -8   13.39    0.63
  -2  13   8   11.50    0.51
   2  13  -8   12.10    0.64
  -2  13   8   11.37    0.49
   1 -13  -8    3.69    0.50
  -1 -13   8    4.30    0.41
   1 -13  -8    3.70    0.33
  -1  13   8    3.62    0.28
   1  13  -8    3.80    0.38
   1  13  -8    4.10    0.41
  -1  13   8    3.90    0.27
   0 -13  -8    1.78    0.22
   0 -13  -8    2.16    0.42
   0 -13   8    1.54    0.28
   0  13  -8    1.70    0.29
   0  13  -8    1.79    0.27
   0  13   8    1.66    0.21
   0  13   8    1.58    0.20
  -1 -13  -8    0.48    0.34
  -1 -13  -8    5.08    5.97
  -1  13  -8    0.40    0.22
  -2 -13  -8   -6.33    6.25
  -2 -13  -8    1.63    0.48
   2  13   8   -0.12    0.11
  -2  13  -8    0.15    0.22
   2  13   8    0.11    0.18
  -2  13  -8   -0.14    0.19
  -3  13  -8   -0.29    0.21
  -3  13  -8    0.01    0.24
  -4  13  -8    0.16    0.26
   6 -14  -8    0.03    0.34
  -6  14   8    0.25    0.14
   5  14  -8    7.54    4.61
   4 -14  -8    0.08    0.31
  -4  14   8    0.04    0.10
  -4  14   8    0.18    0.12
   3 -14  -8    0.05    0.30
  -3  14   8    0.09    0.10
   3  14  -8    0.15    0.19
  -3  14   8    0.14    0.12
   2 -14  -8    0.10    0.28
   2 -14  -8    0.05    0.19
  -2  14   8    0.10    0.10
   2  14  -8    0.18    0.22
  -2  14   8    0.15    0.13
   2  14  -8   -0.23    0.17
   1 -14  -8   -0.25    0.17
   1 -14  -8   -0.22    0.28
  -1 -14   8   -0.12    0.21
   1  14  -8   -0.02    0.17
  -1  14   8   -0.03    0.09
  -1  14   8    0.24    0.14
   1  14  -8    0.04    0.20
   0 -14  -8    1.18    0.21
   0 -14   8    0.85    0.25
   0 -14  -8    0.81    0.34
   0  14  -8    0.90    0.25
   0  14   8    0.88    0.18
   0  14  -8    0.79    0.21
   0  14   8    0.87    0.16
  -1 -14  -8   -1.01    5.72
  -1 -14  -8   -0.39    0.31
  -1  14  -8    0.01    0.18
   1  14   8    0.11    0.11
   1  14   8    0.08    0.16
  -1  14  -8    0.06    0.20
  -2 -14  -8    0.10    0.38
  -2 -14  -8   -2.71    6.40
   2  14   8   -0.18    0.11
  -2  14  -8   -0.09    0.22
  -2  14  -8    0.08    0.20
  -3  14  -8    0.18    0.25
  -3  14  -8   -0.38    0.21
  -4  14  -8   -0.03    0.22
  -4  14  -8   -0.04    0.25
   5 -15  -8    4.28    0.58
  -5  15   8    4.57    0.29
  -5  15   8    4.10    0.28
   4 -15  -8    7.41    0.65
  -4  15   8    6.88    0.35
  -4  15   8    6.79    0.35
   3 -15  -8    5.70    0.57
  -3  15   8    6.17    0.33
   3  15  -8    5.50    0.47
  -3  15   8    5.68    0.33
   2 -15  -8   10.24    0.53
   2 -15  -8    9.80    0.71
  -2 -15   8   11.65    0.60
  -2  15   8   10.39    0.47
   2  15  -8   11.11    0.61
  -2  15   8   11.04    0.49
   2  15  -8    9.76    0.62
   1 -15  -8    5.04    0.37
   1 -15  -8    4.82    0.53
  -1 -15   8    4.94    0.44
  -1  15   8    4.71    0.32
   1  15  -8    5.37    0.46
   1  15  -8    4.72    0.41
  -1  15   8    4.99    0.33
   0 -15   8    1.59    0.30
   0 -15  -8    1.77    0.40
   0  15  -8    1.44    0.28
   0  15   8    1.53    0.22
   0  15   8    1.56    0.20
   0  15  -8    1.21    0.24
  -1 -15  -8   -0.10    0.33
  -1  15  -8   -0.20    0.17
   1  15   8   -0.12    0.11
  -1  15  -8    0.15    0.21
   1  15   8   -0.03    0.16
  -2 -15  -8   -0.51    0.38
   2  15   8    0.44    0.15
  -2  15  -8    0.27    0.21
  -2  15  -8    0.54    0.26
  -3 -15  -8    0.91    0.45
  -3  15  -8    0.05    0.24
  -3  15  -8    0.01    0.23
  -4  15  -8    0.22    0.25
   5 -16  -8    2.98    0.52
  -5  16   8    3.45    0.26
  -5  16   8    3.67    0.25
   4 -16  -8    4.30    0.54
  -4  16   8    4.11    0.27
  -4  16   8    4.46    0.28
   3 -16  -8    9.68    0.55
   3 -16  -8    9.23    0.70
   3  16  -8   10.11    0.59
  -3  16   8   10.10    0.45
  -3  16   8    9.52    0.44
   2 -16  -8   13.23    0.63
   2 -16  -8   13.36    0.82
  -2 -16   8   15.61    0.72
   2  16  -8   13.90    0.71
  -2  16   8   14.86    0.60
  -2  16   8   14.25    0.58
   2  16  -8   14.37    0.74
   1 -16  -8   25.40    0.91
  -1 -16   8   25.01    1.01
   1 -16  -8   24.20    1.16
   1  16  -8   25.04    1.00
   1  16  -8   25.31    1.05
  -1  16   8   24.81    0.93
  -1  16   8   24.25    0.91
   0 -16  -8   19.69    1.01
   0 -16   8   19.68    0.87
   0  16  -8   19.97    0.85
   0  16  -8   20.54    0.89
   0  16   8   18.69    0.77
   0  16   8   20.58    0.80
  -1 -16  -8   13.22    0.86
   1  16   8   15.28    0.67
  -1  16  -8   15.28    0.71
   1  16   8   13.67    0.62
  -1  16  -8   14.97    0.74
  -2 -16  -8   14.20    0.91
  -2  16  -8   15.92    0.76
  -2  16  -8   16.47    0.79
   2  16   8   14.35    0.66
  -3 -16  -8    5.40    0.68
  -3  16  -8    5.13    0.49
  -3  16  -8    4.68    0.46
   5 -17  -8    4.16    0.58
  -5  17   8    4.29    0.28
   4 -17  -8    5.92    0.61
  -4  17   8    5.89    0.33
  -4  17   8    6.16    0.33
   3 -17  -8    6.42    0.48
   3 -17  -8    7.01    0.61
  -3  17   8    6.50    0.36
  -3  17   8    7.08    0.36
   3  17  -8    7.11    0.50
   2 -17  -8    3.20    0.46
  -2 -17   8    2.90    0.36
   2 -17  -8    3.17    0.34
  -2  17   8    2.63    0.24
   2  17  -8    2.24    0.31
  -2  17   8    2.64    0.26
   2  17  -8    3.10    0.37
   1 -17  -8    5.53    0.55
   1 -17  -8    5.27    0.39
  -1 -17   8    5.08    0.46
  -1  17   8    5.61    0.36
   1  17  -8    5.74    0.45
  -1  17   8    5.26    0.34
   1  17  -8    5.26    0.48
   0 -17   8    1.25    0.31
   0 -17  -8    1.09    0.38
   0  17   8    1.38    0.23
   0  17   8    1.56    0.20
   0  17  -8    0.87    0.22
   0  17  -8    1.36    0.29
  -1 -17  -8   -0.03    0.33
  -1  17  -8    0.56    0.25
  -1  17  -8    0.23    0.20
   1  17   8    0.40    0.15
  -2 -17  -8   -0.14    0.32
  -2  17  -8    0.17    0.22
   2  17   8    0.23    0.14
  -2  17  -8    0.02    0.20
  -3 -17  -8   -0.04    0.37
  -3  17  -8   -0.04    0.21
  -3  17  -8   -0.02    0.23
  -5  18   8    0.20    0.11
  -5  18   8    0.05    0.12
   4 -18  -8    0.40    0.32
  -4  18   8    0.26    0.11
  -4  18   8    0.02    0.13
   3 -18  -8    0.17    0.24
  -3 -18   8    0.45    0.24
   3 -18  -8    0.11    0.29
  -3  18   8    0.01    0.10
  -3  18   8    0.13    0.13
   2 -18  -8   -0.12    0.22
  -2 -18   8   -0.03    0.23
   2 -18  -8    0.21    0.28
  -2  18   8    0.01    0.10
   2  18  -8    0.10    0.23
  -2  18   8   -0.08    0.13
   2  18  -8   -0.08    0.18
   1 -18  -8    0.04    0.20
   1 -18  -8    0.11    0.29
  -1 -18   8   -0.29    0.22
  -1  18   8    0.14    0.12
   1  18  -8   -0.06    0.18
  -1  18   8    0.05    0.15
   1  18  -8    0.07    0.23
   0 -18  -8    0.11    0.30
   0 -18   8    0.17    0.26
   0  18   8   -0.14    0.16
   0  18  -8    0.21    0.23
   0  18  -8    0.02    0.18
   0  18   8    0.29    0.14
  -1 -18  -8   -0.35    0.32
   1  18   8   -0.07    0.12
  -1  18  -8   -0.05    0.22
  -1  18  -8    0.01    0.19
  -2 -18  -8   -0.61    0.32
   2  18   8    0.14    0.13
  -2  18  -8    0.13    0.22
  -2  18  -8    0.01    0.19
  -3  18  -8    0.07    0.21
  -5  19   8    2.42    0.23
   4 -19  -8    5.17    0.57
  -4  19   8    5.06    0.31
  -4  19   8    5.24    0.32
   3 -19  -8    2.47    0.43
   3 -19  -8    2.08    0.34
  -3  19   8    1.73    0.20
  -3  19   8    2.30    0.25
   2 -19  -8    2.36    0.41
  -2 -19   8    2.12    0.34
   2 -19  -8    2.09    0.32
  -2  19   8    2.06    0.23
   2  19  -8    1.97    0.31
  -2  19   8    2.05    0.24
   2  19  -8    2.15    0.35
  -1 -19   8    1.87    0.34
   1 -19  -8    2.06    0.40
   1 -19  -8    1.88    0.29
  -1  19   8    1.82    0.22
   1  19  -8    2.34    0.35
  -1  19   8    1.53    0.23
   1  19  -8    2.10    0.30
   0 -19   8    0.33    0.26
   0 -19  -8    0.31    0.30
   0  19   8    0.08    0.13
   0  19  -8    0.03    0.19
   0  19  -8    0.08    0.23
  -1 -19  -8    0.47    0.34
   1  19   8    0.05    0.13
  -1  19  -8    0.49    0.25
  -1  19  -8   -0.01    0.18
  -2 -19  -8   -0.51    0.34
  -2  19  -8    0.64    0.26
  -2  19  -8    0.25    0.21
   2  19   8    0.38    0.16
  -4  20   8    2.42    0.24
   3 -20  -8    6.18    0.60
  -3  20   8    5.68    0.35
  -3  20   8    6.36    0.38
   2 -20  -8    5.12    0.54
   2 -20  -8    4.43    0.44
   2  20  -8    5.47    0.47
   2  20  -8    5.19    0.50
  -2  20   8    5.12    0.36
  -2  20   8    4.94    0.33
  -1 -20   8   10.31    0.63
   1 -20  -8   10.14    0.56
   1 -20  -8   10.06    0.68
   1  20  -8    9.81    0.63
  -1  20   8    9.59    0.49
   1  20  -8    9.78    0.59
   0 -20  -8   12.04    0.74
   0 -20   8   11.04    0.69
   0  20  -8   11.35    0.63
   0  20   8   10.59    0.54
   0  20  -8   10.92    0.67
  -1 -20  -8    4.88    0.57
  -1  20  -8    5.31    0.44
   1  20   8    4.44    0.35
  -1  20  -8    4.80    0.46
  -2  20  -8    6.43    0.50
   2  20   8    5.85    0.41
  -3  21   8    1.34    0.18
   2 -21  -8    2.05    0.40
   2  21  -8    1.80    0.34
   2  21  -8    1.62    0.29
  -2  21   8    1.48    0.20
   1 -21  -8    2.68    0.42
   1  21  -8    2.52    0.33
  -1  21   8    2.75    0.28
   1  21  -8    2.48    0.38
   0 -21  -8    0.77    0.34
   0  21   8    0.57    0.17
   0  21  -8    0.18    0.20
   0  21  -8    0.47    0.26
  -1  21  -8   -0.30    0.17
   1  21   8    0.06    0.14
   2  21   8    0.23    0.16
   2  22  -8   -0.09    0.19
   2  22  -8    0.08    0.26
   1 -22  -8    0.20    0.28
   1  22  -8    0.16    0.20
  -1  22   8   -0.05    0.12
   1  22  -8   -0.11    0.23
   0 -22  -8    0.16    0.30
   0  22   8    0.00    0.13
   0  22  -8   -0.14    0.19
   2  23  -8   -0.08    0.20
  -7   0   9    0.07    0.24
   6   0  -9   -0.12    0.24
  -6   0   9   -0.06    0.21
   5   0  -9    0.01    0.23
  -5   0   9    0.14    0.20
  -4   0   9    0.05    0.18
   4   0  -9   -0.19    0.22
  -4   0   9   -0.03    0.12
  -3   0   9   -0.08    0.15
  -3   0   9    0.16    0.11
   3   0  -9    0.14    0.21
   2   0  -9    0.06    0.21
  -2   0   9   -0.01    0.10
  -2   0   9    0.00    0.15
  -1   0   9   -0.02    0.15
   1   0  -9   -0.05    0.17
   1   0  -9   -0.01    0.17
  -1   0   9    0.00    0.10
   0   0   9    0.06    0.16
   0   0  -9   -0.31    0.16
   0   0   9    0.08    0.11
   1   0   9   -0.03    0.15
   1   0   9    0.13    0.11
  -1   0  -9    0.11    0.18
  -2   0  -9   -0.11    0.18
  -3   0  -9    0.04    0.22
  -4   0  -9    0.01    0.24
  -5   0  -9    0.21    0.25
  -7  -1   9    0.40    0.27
  -7   1   9    1.05    0.28
   6  -1  -9   -0.04    0.26
  -6  -1   9    0.16    0.23
  -6   1   9   -0.06    0.21
  -5  -1   9    0.30    0.22
   5  -1  -9    0.52    0.26
   5   1  -9    0.35    0.25
  -5   1   9    0.32    0.22
  -4  -1   9    0.43    0.15
   4  -1  -9    0.34    0.24
  -4  -1   9    0.37    0.21
   4   1  -9    0.33    0.22
  -4   1   9    0.31    0.19
  -4   1   9    0.25    0.14
  -3  -1   9    2.60    0.32
  -3  -1   9    1.60    0.21
   3  -1  -9    2.17    0.33
  -3   1   9    1.45    0.19
  -3   1   9    1.27    0.23
   3   1  -9    1.74    0.29
   2  -1  -9    9.75    0.60
  -2  -1   9    8.99    0.49
  -2  -1   9    8.96    0.44
   2   1  -9    9.65    0.56
  -2   1   9    8.39    0.43
  -2   1   9    9.19    0.48
   1  -1  -9   21.25    0.84
  -1  -1   9   20.15    0.82
   1  -1  -9   19.92    0.98
  -1  -1   9   20.49    0.77
   1  -1  -9   19.47    0.81
   1   1  -9   20.98    0.84
   1   1  -9   18.29    0.82
  -1   1   9   20.85    0.76
  -1   1   9   21.06    0.82
   0  -1   9   36.05    1.29
   0  -1  -9   35.38    1.30
   0  -1   9   36.41    1.23
   0   1  -9   36.66    1.31
   0   1   9   35.50    1.28
   0   1   9   36.10    1.21
   1  -1   9   21.33    0.82
  -1  -1  -9   19.07    0.84
   1  -1   9   21.61    0.79
   1   1   9   21.39    0.78
  -1   1  -9   20.35    0.86
   1   1   9   20.35    0.81
  -2  -1  -9    8.67    0.51
  -2   1  -9    9.01    0.53
  -3  -1  -9    9.50    0.56
  -3   1  -9    8.79    0.56
  -4  -1  -9    5.85    0.48
  -4   1  -9    5.14    0.49
  -5  -1  -9    1.12    0.31
  -5   1  -9    1.17    0.31
  -7  -2   9   14.06    0.78
  -7   2   9   13.94    0.74
  -6  -2   9   11.72    0.67
   6  -2  -9   11.08    0.71
  -6   2   9   11.34    0.63
   5  -2  -9   39.70    1.65
  -5  -2   9   43.59    1.56
  -5   2   9   41.57    1.51
   4  -2  -9   57.85    2.14
  -4  -2   9   56.46    1.97
  -4   2   9   54.79    1.93
  -4   2   9   56.07    1.86
   4   2  -9   58.84    2.06
   3  -2  -9   87.92    3.09
  -3  -2   9   88.33    2.86
  -3  -2   9   85.71    2.73
  -3   2   9   87.58    2.83
  -3   2   9   83.46    2.71
   3   2  -9   87.77    3.02
   2  -2  -9   64.85    2.35
  -2  -2   9   60.69    2.04
  -2  -2   9   65.23    2.15
  -2   2   9   63.20    2.13
   2   2  -9   67.59    2.08
  -2   2   9   62.43    2.03
   2   2  -9   64.46    2.28
  -1  -2   9   50.77    1.70
  -1  -2   9   53.03    1.80
  -1   2   9   52.77    1.78
   1   2  -9   51.04    1.80
   1   2  -9   55.10    1.78
  -1   2   9   51.88    1.69
   0  -2  -9   41.13    1.45
   0  -2   9   41.33    1.46
   0  -2   9   44.09    1.40
   0   2   9   41.08    1.36
   0   2  -9   38.70    1.47
   0   2   9   41.30    1.44
  -1  -2  -9    4.09    0.39
   1  -2   9    4.94    0.34
   1   2   9    4.67    0.36
  -1   2  -9    4.94    0.40
   1   2   9    4.83    0.32
  -2  -2  -9    3.60    0.38
  -2   2  -9    3.09    0.38
  -3  -2  -9    0.47    0.23
  -3   2  -9    0.12    0.24
  -4  -2  -9   -0.11    0.22
  -4   2  -9   -0.35    0.23
  -5  -2  -9   -0.26    0.23
  -5   2  -9   -0.36    0.22
   7  -3  -9    0.57    0.35
  -7  -3   9    0.80    0.30
  -7   3   9    0.83    0.26
   6  -3  -9    0.44    0.31
  -6  -3   9    0.45    0.26
  -6   3   9    0.42    0.22
  -5  -3   9    2.32    0.32
   5  -3  -9    2.14    0.37
  -5   3   9    1.68    0.23
  -5   3   9    2.34    0.29
   4  -3  -9    0.85    0.30
  -4  -3   9    0.91    0.24
   4   3  -9    0.69    0.22
  -4   3   9    0.91    0.21
  -4   3   9    0.86    0.17
  -3  -3   9    2.12    0.27
   3  -3  -9    2.37    0.39
  -3  -3   9    1.94    0.23
   3   3  -9    2.69    0.34
  -3   3   9    2.35    0.29
  -3   3   9    3.00    0.26
   2  -3  -9   11.81    0.73
  -2  -3   9   12.03    0.58
  -2  -3   9   12.91    0.56
   2   3  -9   11.42    0.59
   2   3  -9   12.69    0.62
  -2   3   9   12.28    0.56
  -2   3   9   11.35    0.51
   2   3  -9   11.55    0.57
   1  -3  -9   30.85    1.28
  -1  -3   9   27.67    1.08
  -1  -3   9   28.60    1.02
  -1   3   9   29.91    1.06
   1   3  -9   28.48    1.10
   1   3  -9   28.69    1.08
  -1   3   9   27.84    0.99
   0  -3   9    5.85    0.37
   0  -3   9    5.58    0.40
   0   3  -9    6.55    0.46
   0   3   9    6.15    0.38
   0   3  -9    5.82    0.44
   0   3   9    5.54    0.33
  -1  -3  -9   26.94    1.03
   1   3   9   27.12    1.00
  -1   3  -9   27.15    1.06
   1   3   9   26.75    0.96
  -2  -3  -9   12.15    0.61
  -2   3  -9   11.57    0.63
  -3  -3  -9    6.05    0.46
  -3   3  -9    5.38    0.47
  -4  -3  -9    4.28    0.45
  -4   3  -9    5.01    0.47
  -5   3  -9    1.34    0.33
  -7  -4   9    0.14    0.26
   7  -4  -9    0.18    0.32
  -7   4   9    0.05    0.21
   6  -4  -9   -0.29    0.28
  -6  -4   9   -0.11    0.23
  -6   4   9    0.29    0.20
  -5  -4   9   -0.07    0.21
   5  -4  -9   -0.21    0.25
  -5   4   9   -0.16    0.12
  -5   4   9    0.11    0.18
  -4  -4   9    1.09    0.25
   4  -4  -9    1.44    0.34
  -4   4   9    1.45    0.23
   4   4  -9    1.23    0.22
  -4   4   9    1.30    0.18
  -3  -4   9    0.54    0.20
   3  -4  -9    0.90    0.30
  -3   4   9    0.91    0.19
   3   4  -9    0.89    0.20
  -3   4   9    0.70    0.14
   2  -4  -9    0.02    0.28
  -2  -4   9    0.16    0.12
  -2  -4   9    0.12    0.16
  -2   4   9    0.07    0.14
   2   4  -9    0.20    0.16
  -2   4   9    0.02    0.09
   2   4  -9    0.35    0.19
   2   4  -9    0.45    0.20
  -1  -4   9    0.25    0.13
   1  -4  -9    1.02    0.34
  -1  -4   9    0.38    0.18
   1   4  -9    0.40    0.18
   1   4  -9    0.19    0.20
  -1   4   9    0.38    0.12
  -1   4   9    0.43    0.17
   0  -4   9    4.32    0.37
   0  -4  -9    9.64    4.63
   0  -4   9    4.73    0.34
   0   4  -9    5.30    0.44
   0   4   9    4.50    0.33
   0   4  -9    3.93    0.40
   0   4   9    4.21    0.30
   1   4   9    1.38    0.19
   1   4   9    1.60    0.22
  -1   4  -9    1.53    0.29
  -2  -4  -9   -0.10    0.19
   2   4   9    0.00    0.12
  -2   4  -9   -0.25    0.20
  -3  -4  -9   -0.06    0.20
  -3   4  -9   -0.02    0.24
  -4   4  -9    0.09    0.25
  -5   4  -9   -0.02    0.24
  -7  -5   9    0.55    0.29
   7  -5  -9    0.74    0.37
  -7   5   9    0.81    0.25
   6  -5  -9   -0.22    0.29
  -6  -5   9   -0.11    0.24
  -6   5   9    0.09    0.19
   5  -5  -9    0.35    0.29
  -5  -5   9    0.37    0.23
  -5   5   9    0.25    0.18
  -5   5   9    0.12    0.14
  -4  -5   9    0.13    0.21
   4  -5  -9    0.22    0.27
  -4   5   9   -0.02    0.12
  -4   5   9    0.16    0.17
  -3  -5   9    4.69    0.38
   3  -5  -9    3.75    0.48
   3   5  -9    3.87    0.34
  -3   5   9    4.22    0.30
  -3   5   9    3.93    0.33
  -2  -5   9    8.59    0.48
   2  -5  -9    9.60    0.65
  -2  -5   9    8.83    0.46
  -2   5   9    8.44    0.40
   2   5  -9    8.34    0.49
   2   5  -9    7.88    0.50
  -2   5   9    8.47    0.45
   2   5  -9    8.55    0.48
   1  -5  -9   12.42    0.75
  -1  -5   9   10.83    0.52
  -1  -5   9   10.29    0.55
   1   5  -9   10.77    0.58
  -1   5   9   10.70    0.48
   1   5  -9   11.69    0.59
  -1   5   9   11.07    0.52
   0  -5   9   28.01    0.98
   0   5  -9   24.97    1.05
   0   5   9   25.75    0.97
   0   5   9   26.39    0.93
   0   5  -9   25.80    1.03
  -1   5  -9   25.70    1.04
   1   5   9   25.61    0.96
   1   5   9   25.46    0.92
  -2  -5  -9   15.46    2.76
   2   5   9   11.69    0.53
  -2   5  -9   10.11    0.63
  -3   5  -9    8.11    0.56
  -4   5  -9    4.43    0.47
  -5   5  -9    0.93    0.31
  -7  -6   9   10.99    0.71
   7  -6  -9   10.46    0.80
  -7   6   9   10.84    0.61
   6  -6  -9   15.16    0.94
  -6  -6   9   17.35    0.85
  -6   6   9   16.64    0.74
  -5  -6   9   29.87    1.19
   5  -6  -9   27.43    1.30
  -5   6   9   28.22    1.08
  -5   6   9   28.63    1.05
  -4  -6   9   50.09    1.75
   4  -6  -9   47.52    1.93
  -4   6   9   46.80    1.58
  -4   6   9   48.43    1.66
   3  -6  -9   56.04    2.25
  -3  -6   9   62.38    2.03
  -3   6   9   59.21    1.97
  -3   6   9   57.97    1.88
   2  -6  -9   51.55    2.05
  -2  -6   9   52.90    1.81
  -2   6   9   53.19    1.69
   2   6  -9   54.44    1.76
   2   6  -9   53.30    1.86
   2   6  -9   50.81    1.82
  -2   6   9   52.11    1.77
   1  -6  -9   32.46    1.35
  -1  -6   9   29.24    1.08
  -1  -6   9   32.31    1.15
   1   6  -9   30.20    1.12
  -1   6   9   29.73    1.03
   1   6  -9   27.29    1.14
  -1   6   9   28.95    1.08
   0   6  -9   51.22    1.85
   0   6   9   53.55    1.77
   0   6   9   52.75    1.70
   0   6  -9   52.75    1.81
   1   6   9   16.19    0.65
  -1   6  -9   16.15    0.79
   1   6   9   16.76    0.70
  -3  -6  -9   -7.31    6.58
  -3   6  -9    0.31    0.26
  -4   6  -9   -0.46    0.23
  -5   6  -9   -0.08    0.25
  -7  -7   9    0.64    0.31
   7  -7  -9    0.85    0.40
  -7   7   9    0.74    0.23
  -6  -7   9    0.39    0.27
   6  -7  -9    0.64    0.36
  -6   7   9    0.51    0.19
   5  -7  -9    0.27    0.32
  -5  -7   9    0.36    0.25
  -5   7   9    0.12    0.16
  -5   7   9    0.17    0.14
   4  -7  -9    0.89    0.34
  -4  -7   9    0.97    0.26
  -4   7   9    0.48    0.18
  -4   7   9    0.78    0.16
  -3  -7   9    1.14    0.24
   3  -7  -9    0.81    0.33
  -3   7   9    0.66    0.14
  -3   7   9    0.96    0.19
  -2  -7   9   12.17    0.58
   2  -7  -9   10.34    0.75
  -2   7   9   11.13    0.51
   2   7  -9   11.04    0.57
   2   7  -9   11.03    0.53
  -2   7   9   10.21    0.48
   2   7  -9   11.06    0.59
   1  -7  -9    3.08    0.47
   1   7  -9    3.69    0.38
   1   7  -9    3.84    0.38
  -1   7   9    3.17    0.28
  -1   7   9    3.56    0.26
   0  -7  -9    6.08    0.64
   0   7   9    5.77    0.36
   0   7   9    5.56    0.33
   0   7  -9    5.29    0.46
   0   7  -9    5.89    0.46
   1   7   9   28.70    1.05
   1   7   9   26.96    0.99
  -1   7  -9   28.76    1.10
  -1   7  -9   28.22    1.13
   2   7   9   10.19    0.52
   2   7   9   10.10    0.49
  -2   7  -9    9.94    0.62
  -3   7  -9    5.15    0.49
  -4   7  -9    2.55    0.38
  -5   7  -9    1.49    0.35
   7  -8  -9    0.25    0.37
  -7  -8   9    0.16    0.29
  -7   8   9    0.15    0.18
  -6  -8   9   -0.02    0.25
   6  -8  -9   -0.21    0.31
  -6   8   9    0.36    0.18
  -5  -8   9   -0.09    0.23
   5  -8  -9    0.08    0.29
  -5   8   9    0.00    0.15
  -5   8   9    0.07    0.12
  -4  -8   9    0.44    0.23
   4  -8  -9    0.27    0.32
  -4   8   9    0.19    0.15
  -4   8   9    0.26    0.13
   3  -8  -9    0.38    0.30
  -3  -8   9    0.46    0.21
  -3   8   9    0.45    0.12
  -3   8   9    0.37    0.16
  -2  -8   9    4.33    0.37
   2  -8  -9    3.44    0.49
  -2   8   9    3.89    0.31
   2   8  -9    4.16    0.39
  -2   8   9    4.14    0.28
   2   8  -9    4.42    0.39
   1  -8  -9    3.54    4.31
   1  -8  -9    1.81    0.39
   1   8  -9    1.37    0.23
   1   8  -9    1.62    0.28
  -1   8   9    1.65    0.18
  -1   8   9    1.48    0.20
  -2  -8  -9   12.12    6.11
  -3  -8  -9   -6.79    6.63
  -3   8  -9    0.00    0.24
  -4   8  -9   -0.13    0.25
  -5   8  -9   -0.01    0.26
   7  -9  -9    0.02    0.37
  -7  -9   9    0.04    0.29
  -7   9   9    0.12    0.18
  -6  -9   9    0.09    0.27
   6  -9  -9    0.59    0.37
  -6   9   9    0.53    0.18
   5  -9  -9    0.59    0.35
  -5  -9   9   -0.04    0.25
  -5   9   9    0.11    0.13
  -5   9   9    0.17    0.16
   4  -9  -9    1.85    0.41
  -4  -9   9    1.66    0.30
  -4   9   9    1.71    0.22
  -4   9   9    1.56    0.19
   3  -9  -9    5.01    0.58
  -3  -9   9    6.02    0.45
  -3   9   9    5.32    0.35
  -3   9   9    5.33    0.32
   2  -9  -9   10.85    0.75
  -2   9   9   10.32    0.47
  -2   9   9   10.68    0.50
   2   9  -9   10.88    0.57
   2   9  -9   11.49    0.60
   1  -9  -9   20.29    1.03
   1   9  -9   19.56    0.82
  -1   9   9   19.04    0.75
   1   9  -9   18.93    0.85
  -1   9   9   18.93    0.72
   0  -9  -9   11.64    0.79
   0   9   9   10.99    0.52
   0   9   9   10.60    0.49
   0   9  -9   12.50    0.64
   0   9  -9   11.29    0.62
  -1  -9  -9   12.59    3.11
   1   9   9   12.91    0.58
  -1   9  -9   12.65    0.67
  -1   9  -9   12.07    0.67
   1   9   9   12.42    0.55
   2   9   9   10.74    0.54
  -2   9  -9    9.93    0.63
   2   9   9    9.99    0.50
  -3  -9  -9   10.06    7.21
  -3   9  -9    5.35    0.51
  -4   9  -9    2.42    0.40
   7 -10  -9    6.87    0.75
   6 -10  -9   11.92    0.88
  -6  10   9   12.05    0.56
  -6  10   9   11.40    0.57
   5 -10  -9   24.52    1.26
  -5  10   9   24.19    0.90
  -5  10   9   25.01    0.93
   4 -10  -9   36.92    1.65
  -4  10   9   37.48    1.26
  -4  10   9   37.63    1.30
   3 -10  -9   39.44    1.71
  -3  10   9   39.57    1.34
  -3  10   9   42.04    1.39
   2 -10  -9   43.04    1.78
   2  10  -9   43.31    1.55
  -2  10   9   41.82    1.40
   2  10  -9   41.60    1.48
  -2  10   9   42.29    1.45
   1 -10  -9   21.63    1.11
   1  10  -9   22.36    0.94
  -1  10   9   22.60    0.85
  -1  10   9   22.01    0.82
   1  10  -9   22.48    0.90
   0 -10  -9   17.42    3.41
   0 -10  -9   23.02    1.13
   0  10  -9   22.93    0.91
   0  10   9   21.06    0.83
   0  10  -9   22.50    0.94
   0  10   9   20.46    0.80
  -1 -10  -9    9.18    0.76
  -1  10  -9    8.64    0.57
  -1  10  -9    8.53    0.56
   1  10   9    8.88    0.48
   1  10   9    9.11    0.45
  -2 -10  -9    6.63    6.67
  -2  10  -9    1.61    0.29
  -2  10  -9    0.95    0.28
   2  10   9    1.12    0.23
   2  10   9    1.19    0.19
  -3  10  -9    0.24    0.27
  -4  10  -9   -0.02    0.26
   6 -11  -9    0.46    0.39
  -6  11   9    0.69    0.18
  -6  11   9    0.72    0.18
   5 -11  -9    0.57    0.37
  -5  11   9    0.04    0.14
  -5  11   9    0.18    0.13
   4 -11  -9    0.21    0.34
  -4  11   9    0.28    0.12
  -4  11   9    0.35    0.15
   3 -11  -9    2.29    0.45
  -3  11   9    2.30    0.23
  -3  11   9    2.18    0.25
   2 -11  -9    9.35    0.75
  -2  11   9   10.29    0.48
  -2  11   9   10.05    0.46
   2  11  -9    9.90    0.59
   2  11  -9   10.93    0.58
   1 -11  -9    1.04    0.41
  -1 -11   9    1.95    0.28
  -1  11   9    1.29    0.20
   1  11  -9    1.64    0.28
  -1  11   9    1.28    0.17
   1  11  -9    0.99    0.22
   0 -11  -9   12.40    0.83
   0 -11   9   12.84    0.61
   0 -11  -9   13.94    6.18
   0  11  -9   12.84    0.65
   0  11   9   12.19    0.55
   0  11   9   12.78    0.58
   0  11  -9   12.67    0.67
  -1 -11  -9   -1.02    6.17
  -1 -11  -9    8.63    0.74
   1  11   9    9.08    0.47
  -1  11  -9    8.09    0.55
   1  11   9    8.64    0.44
  -1  11  -9    8.27    0.57
   2  11   9    3.54    0.31
   2  11   9    4.28    0.38
  -2  11  -9    3.95    0.45
  -2  11  -9    4.10    0.42
  -3  11  -9    3.36    0.43
  -4  11  -9    1.53    0.36
   6 -12  -9    0.24    0.38
  -6  12   9    0.15    0.14
  -6  12   9    0.10    0.14
   5 -12  -9    0.35    0.35
  -5  12   9    0.24    0.14
  -5  12   9    0.32    0.14
   4 -12  -9    0.18    0.35
  -4  12   9    0.16    0.13
  -4  12   9    0.25    0.12
   3 -12  -9    0.05    0.31
  -3  12   9    0.07    0.13
  -3  12   9    0.02    0.10
   2 -12  -9    0.71    0.36
  -2  12   9    0.80    0.17
   2  12  -9    0.22    0.24
   2  12  -9    0.62    0.21
  -2  12   9    0.78    0.14
  -1 -12   9    0.78    0.23
   1 -12  -9   -0.19    0.33
  -1  12   9    0.14    0.11
   1  12  -9    0.19    0.18
   1  12  -9    0.20    0.21
  -1  12   9    0.30    0.15
  -2 -12  -9    4.34    6.82
  -2  12  -9    0.28    0.23
  -2  12  -9    0.31    0.24
  -3  12  -9    0.07    0.24
  -3  12  -9    0.27    0.28
  -4  12  -9    0.02    0.27
   6 -13  -9    0.17    0.38
  -6  13   9    0.37    0.14
  -6  13   9    0.21    0.14
   5 -13  -9    0.51    0.35
  -5  13   9    0.16    0.13
  -5  13   9    0.04    0.12
   4 -13  -9    2.97    0.51
  -4  13   9    2.32    0.24
  -4  13   9    2.75    0.26
   3 -13  -9    1.90    0.43
  -3  13   9    1.75    0.20
  -3  13   9    1.65    0.19
   2 -13  -9    6.01    0.60
   2  13  -9    6.18    0.50
  -2  13   9    6.19    0.35
   2  13  -9    5.95    0.46
  -2  13   9    5.81    0.36
  -1 -13   9    7.32    0.48
   1 -13  -9    5.15    0.62
   1 -13  -9    6.74    0.41
   1  13  -9    6.34    0.46
  -1  13   9    6.05    0.38
   1  13  -9    6.35    0.49
  -1  13   9    6.24    0.36
   0 -13  -9   10.32    0.78
   0  13  -9   11.21    0.61
   0  13  -9   12.22    0.65
   0  13   9   11.51    0.54
   0  13   9   11.26    0.52
  -1 -13  -9    0.34    6.36
  -1 -13  -9    5.37    0.67
  -1  13  -9    6.47    0.48
   1  13   9    6.06    0.40
  -1  13  -9    7.08    0.51
   1  13   9    6.18    0.37
  -2 -13  -9    6.88    0.77
  -2  13  -9    5.51    0.50
   2  13   9    4.97    0.35
   2  13   9    5.13    0.41
  -2  13  -9    4.96    0.48
  -3  13  -9    3.88    0.46
  -3  13  -9    4.95    0.52
  -4  13  -9    1.65    0.37
  -6  14   9    5.90    0.38
  -6  14   9    6.69    0.36
   5 -14  -9   14.66    0.96
  -5  14   9   14.82    0.61
  -5  14   9   14.55    0.61
   4 -14  -9   21.95    1.16
  -4  14   9   21.19    0.81
  -4  14   9   21.37    0.79
   3 -14  -9   21.77    1.11
  -3  14   9   19.96    0.77
  -3  14   9   19.92    0.76
   2 -14  -9   24.36    1.21
   2  14  -9   25.61    0.99
   2  14  -9   24.23    1.04
  -2  14   9   24.13    0.88
  -2  14   9   23.31    0.90
   1 -14  -9   14.79    0.92
  -1 -14   9   16.02    0.73
   1 -14  -9   16.28    0.65
  -1  14   9   14.79    0.65
  -1  14   9   14.06    0.62
   1  14  -9   15.79    0.77
   1  14  -9   15.70    0.72
   0 -14  -9   10.21    0.79
   0  14   9   11.18    0.54
   0  14  -9   10.56    0.63
   0  14   9   11.46    0.52
   0  14  -9   11.69    0.61
  -1 -14  -9   -3.08    6.29
  -1 -14  -9    4.22    0.56
  -1  14  -9    5.38    0.45
   1  14   9    4.16    0.32
  -1  14  -9    4.77    0.46
   1  14   9    4.87    0.39
  -2 -14  -9    1.44    0.48
   2  14   9    1.61    0.27
   2  14   9    1.55    0.22
  -2  14  -9    0.93    0.27
  -2  14  -9    1.39    0.32
  -3 -14  -9    1.57    0.53
  -3  14  -9    0.80    0.31
  -3  14  -9    0.26    0.25
  -6  15   9    0.27    0.13
   5 -15  -9    0.21    0.35
  -5  15   9    0.33    0.13
  -5  15   9    0.35    0.13
   4 -15  -9    0.04    0.35
  -4  15   9    0.22    0.12
  -4  15   9    0.05    0.13
   3 -15  -9    1.55    0.41
  -3  15   9    2.06    0.24
  -3  15   9    2.14    0.23
   2 -15  -9    3.71    0.52
  -2 -15   9    3.68    0.40
   2  15  -9    3.20    0.39
  -2  15   9    3.72    0.29
   2  15  -9    3.33    0.35
  -2  15   9    3.40    0.28
  -1 -15   9    2.43    0.36
   1 -15  -9    3.46    0.50
  -1  15   9    2.88    0.27
   1  15  -9    2.61    0.31
   1  15  -9    2.64    0.36
  -1  15   9    2.50    0.29
   0 -15  -9    3.17    0.51
   0  15   9    4.12    0.33
   0  15  -9    4.15    0.40
   0  15  -9    4.12    0.43
   0  15   9    3.82    0.30
  -1 -15  -9    3.35    0.55
   1  15   9    4.13    0.32
   1  15   9    4.72    0.38
  -1  15  -9    4.78    0.45
  -1  15  -9    4.55    0.43
  -2 -15  -9    2.38    0.53
  -2  15  -9    3.13    0.38
   2  15   9    2.71    0.29
  -2  15  -9    3.02    0.39
  -3 -15  -9    2.54    0.58
  -3  15  -9    1.37    0.31
  -3  15  -9    1.81    0.37
   5 -16  -9    0.17    0.33
  -5  16   9    0.13    0.13
  -5  16   9    0.27    0.12
   4 -16  -9    0.05    0.33
  -4  16   9    0.26    0.12
  -4  16   9    0.31    0.14
   3 -16  -9    0.01    0.31
  -3  16   9    0.07    0.13
  -3  16   9    0.18    0.11
   2 -16  -9    0.66    0.24
   2 -16  -9    0.04    0.33
  -2 -16   9    0.60    0.26
   2  16  -9    0.04    0.19
  -2  16   9    0.41    0.16
   2  16  -9    0.32    0.25
  -2  16   9    0.21    0.12
  -1 -16   9   -0.07    0.23
   1 -16  -9    0.05    0.33
  -1  16   9    0.13    0.13
   1  16  -9   -0.04    0.18
   1  16  -9    0.03    0.23
  -1  16   9    0.17    0.15
   0 -16  -9   -0.26    0.35
   0  16   9    0.20    0.17
   0  16   9    0.06    0.12
   0  16  -9    0.08    0.20
   0  16  -9    0.34    0.24
  -1 -16  -9   -0.07    0.38
   1  16   9    0.37    0.20
   1  16   9    0.27    0.14
  -1  16  -9    0.10    0.20
  -1  16  -9    0.36    0.25
  -2 -16  -9    0.31    0.37
  -2  16  -9    0.35    0.25
   2  16   9   -0.06    0.13
  -2  16  -9    0.15    0.22
  -3 -16  -9    0.29    0.42
  -3  16  -9    0.21    0.23
  -3  16  -9    0.19    0.26
  -5  17   9    0.12    0.12
   4 -17  -9    0.83    0.38
  -4  17   9    0.81    0.15
  -4  17   9    1.02    0.17
   3 -17  -9    1.21    0.39
  -3  17   9    1.00    0.16
  -3  17   9    0.92    0.18
   2 -17  -9    3.75    0.39
  -2 -17   9    3.12    0.37
   2 -17  -9    2.96    0.47
  -2  17   9    3.03    0.29
   2  17  -9    3.02    0.39
  -2  17   9    3.15    0.27
   2  17  -9    2.70    0.33
  -1 -17   9    1.69    0.33
   1 -17  -9    2.00    0.41
   1  17  -9    1.80    0.33
  -1  17   9    1.50    0.21
   1  17  -9    1.39    0.27
  -1  17   9    1.56    0.22
   0 -17  -9    4.04    0.54
   0  17   9    4.21    0.33
   0  17  -9    4.18    0.45
   0  17  -9    4.56    0.42
   0  17   9    4.59    0.37
  -1 -17  -9    6.32    0.66
  -1  17  -9    7.37    0.55
  -1  17  -9    6.89    0.50
   1  17   9    6.03    0.40
  -2 -17  -9    0.45    0.41
  -2  17  -9    1.76    0.31
  -2  17  -9    1.92    0.34
   2  17   9    1.45    0.23
  -3 -17  -9    2.66    0.57
  -5  18   9    6.10    0.35
   4 -18  -9    8.91    0.74
  -4  18   9    8.39    0.43
  -4  18   9    8.94    0.44
   3 -18  -9   10.23    0.76
  -3  18   9    9.55    0.47
  -3  18   9   10.76    0.50
   2 -18  -9   10.76    0.75
  -2 -18   9   10.66    0.62
   2 -18  -9   11.63    0.60
   2  18  -9   10.84    0.67
  -2  18   9   10.61    0.51
  -2  18   9    9.85    0.50
   2  18  -9   10.95    0.62
   1 -18  -9    6.89    0.64
  -1 -18   9    7.21    0.53
   1  18  -9    6.82    0.53
   1  18  -9    6.58    0.50
  -1  18   9    7.28    0.42
  -1  18   9    7.21    0.41
   0 -18  -9    7.22    0.66
   0  18  -9    6.95    0.54
   0  18  -9    7.03    0.50
   0  18   9    7.47    0.46
   0  18   9    7.01    0.42
  -1 -18  -9    2.56    0.49
   1  18   9    2.87    0.29
  -1  18  -9    2.80    0.38
  -1  18  -9    2.74    0.33
  -2 -18  -9   -0.73    0.34
  -2  18  -9    0.68    0.29
  -2  18  -9    0.07    0.21
   2  18   9    0.27    0.16
  -4  19   9   -0.02    0.11
   3 -19  -9    0.57    0.34
  -3  19   9    0.57    0.16
  -3  19   9    0.40    0.14
   2 -19  -9    0.89    0.36
  -2 -19   9    0.76    0.28
   2 -19  -9    0.47    0.27
   2  19  -9    0.68    0.28
  -2  19   9    0.86    0.17
   2  19  -9    0.36    0.22
  -2  19   9    0.92    0.19
  -1 -19   9    1.31    0.30
   1 -19  -9    0.96    0.37
   1  19  -9    0.92    0.23
   1  19  -9    1.48    0.32
  -1  19   9    1.10    0.19
  -1  19   9    1.23    0.22
   0 -19  -9    1.29    0.40
   0  19   9    1.70    0.23
   0  19  -9    1.72    0.29
   0  19  -9    1.58    0.32
  -1 -19  -9    2.40    0.49
  -1  19  -9    2.61    0.38
  -1  19  -9    2.14    0.32
   1  19   9    2.55    0.29
  -2 -19  -9    1.02    0.42
   2  19   9    1.48    0.24
  -3  20   9   -0.13    0.11
   2 -20  -9    0.18    0.32
  -2  20   9   -0.03    0.11
  -2  20   9   -0.01    0.15
   2  20  -9    0.08    0.20
   1 -20  -9    0.35    0.32
  -1  20   9    0.03    0.12
  -1  20   9    0.02    0.16
   1  20  -9   -0.06    0.19
   1  20  -9    0.03    0.24
   0 -20  -9    0.46    0.35
   0  20  -9    0.25    0.25
   0  20   9    0.29    0.15
   0  20  -9    0.13    0.20
  -1 -20  -9   -0.45    0.33
  -1  20  -9    0.18    0.21
   1  20   9    0.11    0.15
   2  20   9    0.00    0.14
   2  21  -9    1.43    0.29
   1 -21  -9    2.60    0.44
  -1  21   9    1.76    0.23
   1  21  -9    1.84    0.35
   1  21  -9    1.92    0.31
   0 -21  -9    1.05    0.37
   0  21   9    0.99    0.20
   0  21  -9    0.59    0.23
   2  22  -9    5.16    0.48
  -7   0  10    6.36    0.54
  -6   0  10   10.07    0.63
   5   0 -10    2.11    0.35
  -5   0  10    2.04    0.30
  -4   0  10   10.00    0.54
  -4   0  10   10.31    0.57
   4   0 -10   11.23    0.65
  -3   0  10    0.46    0.15
  -3   0  10    0.50    0.20
  -2   0  10    1.91    0.22
  -2   0  10    1.65    0.25
   2   0 -10    2.16    0.34
  -1   0  10    5.94    0.37
  -1   0  10    5.45    0.41
   0   0 -10   16.81    0.79
   0   0  10   19.42    0.79
   0   0  10   17.68    0.72
  -1   0 -10    0.11    0.20
  -2   0 -10   17.65    0.82
  -3   0 -10    7.26    0.53
  -4   0 -10    2.58    0.38
  -5   0 -10    1.97    0.36
  -7  -1  10    2.99    0.40
  -7   1  10    2.88    0.38
  -6  -1  10    9.60    0.62
   6  -1 -10   10.04    0.67
  -6   1  10    9.75    0.60
   5  -1 -10    9.10    0.63
  -5  -1  10   10.04    0.58
   5   1 -10    9.35    0.59
  -5   1  10    8.65    0.54
  -4  -1  10   24.79    0.96
  -4  -1  10   25.17    1.01
   4  -1 -10   25.50    1.11
   4   1 -10   24.60    1.07
  -4   1  10   24.40    0.99
  -4   1  10   24.46    0.95
   3  -1 -10   33.37    1.39
  -3  -1  10   35.38    1.22
  -3  -1  10   34.23    1.27
  -3   1  10   34.33    1.26
   3   1 -10   36.32    1.37
  -3   1  10   32.33    1.20
   2  -1 -10   35.85    1.41
  -2  -1  10   33.87    1.21
  -2  -1  10   36.08    1.29
  -2   1  10   35.14    1.28
   2   1 -10   35.07    1.38
  -2   1  10   33.00    1.20
  -1  -1  10   33.84    1.15
   1  -1 -10   33.63    1.40
  -1  -1  10   33.40    1.22
  -1   1  10   31.99    1.20
  -1   1  10   30.22    1.13
   0  -1  10   18.66    0.75
   0  -1  10   18.68    0.80
   0   1 -10   17.82    0.82
   0   1  10   19.18    0.74
   0   1 -10   20.23    0.85
   0   1  10   18.69    0.79
  -1  -1 -10    9.76    0.56
   1   1  10    9.19    0.47
  -1   1 -10    9.95    0.57
  -2  -1 -10    4.80    0.45
  -2   1 -10    5.18    0.47
  -3  -1 -10    1.61    0.32
  -3   1 -10    1.55    0.33
  -4  -1 -10    0.19    0.24
  -4   1 -10    0.03    0.25
  -5   1 -10    0.26    0.26
  -7  -2  10   -0.18    0.25
  -7   2  10    0.10    0.23
  -6  -2  10    0.10    0.24
   6  -2 -10    0.35    0.31
  -6   2  10    0.20    0.23
  -5  -2  10    0.78    0.26
   5  -2 -10    0.42    0.30
  -5   2  10    0.66    0.22
  -5   2  10    0.68    0.19
  -4  -2  10    1.81    0.29
   4  -2 -10    1.57    0.35
  -4   2  10    1.14    0.20
   4   2 -10    1.55    0.28
  -4   2  10    1.94    0.26
  -3  -2  10    0.16    0.18
  -3  -2  10   -0.01    0.12
   3  -2 -10    0.22    0.27
  -3   2  10    0.24    0.13
  -3   2  10    0.19    0.18
   3   2 -10    0.47    0.23
  -2  -2  10    0.59    0.21
   2  -2 -10    0.44    0.29
  -2  -2  10    0.67    0.16
  -2   2  10    0.60    0.15
  -2   2  10    0.59    0.19
   2   2 -10    0.51    0.24
   1  -2 -10    0.59    0.32
  -1  -2  10    0.38    0.14
  -1  -2  10    0.10    0.19
  -1   2  10    0.19    0.12
  -1   2  10    0.17    0.18
   1   2 -10    0.27    0.20
   0  -2  10    0.42    0.19
   0  -2  10    0.22    0.13
   0   2  10    0.28    0.18
   0   2 -10    0.23    0.22
   0   2  10    0.19    0.12
   0   2 -10    0.14    0.19
   1   2  10    0.07    0.17
  -1   2 -10   -0.27    0.20
   1   2  10   -0.01    0.11
  -2   2 -10    0.28    0.23
  -3   2 -10   -0.09    0.24
  -4   2 -10   -0.27    0.23
  -5   2 -10   -0.28    0.23
  -7  -3  10    2.22    0.37
  -7   3  10    2.27    0.33
  -6  -3  10   10.31    0.64
   6  -3 -10    9.58    0.69
  -6   3  10    9.60    0.58
  -5  -3  10   18.43    0.85
   5  -3 -10   16.57    0.92
  -5   3  10   17.74    0.79
  -5   3  10   19.06    0.78
  -4  -3  10   17.96    0.81
   4  -3 -10   17.76    0.93
  -4   3  10   17.84    0.78
   4   3 -10   18.77    0.82
  -4   3  10   18.73    0.75
   3  -3 -10   14.00    0.78
  -3  -3  10   13.62    0.65
  -3  -3  10   14.21    0.63
   3   3 -10   14.46    0.69
  -3   3  10   13.35    0.59
  -3   3  10   13.34    0.63
  -2  -3  10   32.71    1.15
   2  -3 -10   32.89    1.36
  -2  -3  10   31.72    1.20
  -2   3  10   31.73    1.18
   2   3 -10   31.81    1.26
  -2   3  10   31.55    1.12
  -1  -3  10   34.08    1.26
   1  -3 -10   38.07    1.48
  -1  -3  10   32.10    1.19
   1   3 -10   35.01    1.27
   1   3 -10   30.52    1.28
  -1   3  10   35.91    1.25
  -1   3  10   33.16    1.17
   0  -3  10   17.04    0.67
   0   3  10   14.94    0.68
   0   3  10   14.95    0.63
   0   3 -10   15.94    0.74
   0   3 -10   14.68    0.73
   1   3  10   20.93    0.80
   1   3  10   21.78    0.86
  -1   3 -10   20.02    0.91
  -2   3 -10    4.62    0.47
  -3   3 -10    1.02    0.32
  -4   3 -10    0.25    0.27
  -5   3 -10   -0.06    0.26
  -7  -4  10    5.40    0.53
   7  -4 -10    5.37    0.60
  -7   4  10    4.77    0.46
  -6  -4  10    7.16    0.56
   6  -4 -10    7.64    0.64
  -6   4  10    7.07    0.49
   5  -4 -10    2.74    0.44
  -5  -4  10    2.64    0.35
  -5   4  10    2.40    0.30
  -5   4  10    2.83    0.32
   4  -4 -10    3.63    0.48
  -4  -4  10    3.90    0.40
  -4   4  10    3.59    0.31
  -4   4  10    3.29    0.33
   3  -4 -10    1.34    0.34
  -3  -4  10    1.29    0.24
  -3  -4  10    1.44    0.21
   3   4 -10    1.59    0.24
  -3   4  10    1.15    0.18
  -3   4  10    1.23    0.22
  -2  -4  10    0.06    0.12
   2  -4 -10    0.29    0.30
  -2  -4  10    0.35    0.19
  -2   4  10    0.43    0.18
   2   4 -10    0.12    0.19
  -2   4  10    0.33    0.13
  -1  -4  10    1.99    0.24
  -1  -4  10    2.43    0.29
   1  -4 -10    2.58    0.41
  -1   4  10    2.14    0.24
   1   4 -10    2.38    0.32
   1   4 -10    2.29    0.30
  -1   4  10    2.64    0.30
   0   4 -10    5.84    0.49
   0   4  10    6.14    0.41
   0   4 -10    6.29    0.48
   0   4  10    6.01    0.36
   1   4  10    3.32    0.30
   1   4  10    3.59    0.33
  -1   4 -10    3.27    0.37
  -2   4 -10   14.58    0.76
  -3   4 -10    8.41    0.59
  -4   4 -10    2.55    0.39
  -5   4 -10    2.22    0.39
   7  -5 -10    2.93    0.51
  -7  -5  10    3.23    0.43
  -7   5  10    3.15    0.38
  -6  -5  10    9.11    0.61
   6  -5 -10    9.05    0.70
  -6   5  10    7.16    0.49
   5  -5 -10    7.86    0.65
  -5  -5  10    9.44    0.58
  -5   5  10    8.30    0.49
  -5   5  10    8.03    0.47
  -4  -5  10   18.41    0.81
   4  -5 -10   17.05    0.93
  -4   5  10   17.76    0.75
  -4   5  10   16.48    0.70
  -3  -5  10   33.78    1.28
   3  -5 -10   34.79    1.47
  -3   5  10   35.03    1.20
  -3   5  10   34.10    1.25
  -2  -5  10   28.75    1.07
   2  -5 -10   30.34    1.30
  -2  -5  10   29.71    1.12
  -2   5  10   27.74    1.01
  -2   5  10   27.54    1.07
   2   5 -10   29.22    1.13
   1  -5 -10   16.40    0.87
  -1  -5  10   14.70    0.69
  -1  -5  10   15.80    0.67
  -1   5  10   14.48    0.66
   1   5 -10   15.84    0.73
   1   5 -10   15.49    0.75
  -1   5  10   14.93    0.62
   0   5 -10   25.61    1.03
   0   5  10   24.21    0.92
   0   5  10   24.61    0.96
   0   5 -10   25.69    1.05
   1   5  10    9.54    0.48
   1   5  10    9.00    0.50
  -1   5 -10    9.65    0.59
  -2   5 -10    4.96    0.48
  -3   5 -10    1.16    0.33
  -4   5 -10    0.25    0.27
  -5   5 -10   -0.16    0.27
  -7  -6  10   -0.01    0.27
   7  -6 -10    0.17    0.36
  -7   6  10    0.31    0.21
   6  -6 -10    0.23    0.33
  -6  -6  10    0.08    0.26
  -6   6  10   -0.03    0.19
  -5  -6  10    0.60    0.26
   5  -6 -10    0.11    0.33
  -5   6  10    0.66    0.20
  -5   6  10    0.79    0.18
   4  -6 -10    0.81    0.35
  -4  -6  10    0.91    0.25
  -4   6  10    0.78    0.17
  -4   6  10    0.45    0.19
  -3  -6  10    0.47    0.21
   3  -6 -10    0.39    0.33
  -3   6  10    0.56    0.15
  -3   6  10    0.56    0.19
   2  -6 -10    7.66    4.38
  -2  -6  10    0.59    0.21
   2  -6 -10    0.63    0.34
   1  -6 -10    0.02    0.30
  -1  -6 -10   -3.88    4.75
  -1   6 -10   -0.17    0.21
  -1   6 -10   -0.13    0.22
   1   6  10    0.22    0.13
   1   6  10    0.09    0.18
  -2  -6 -10   -0.93    5.78
  -2   6 -10   -0.32    0.22
  -3   6 -10   -0.12    0.25
  -4   6 -10   -0.09    0.26
   7  -7 -10    1.62    0.46
  -7  -7  10    2.03    0.39
   6  -7 -10    4.93    0.59
  -6  -7  10    5.28    0.52
  -6   7  10    5.00    0.39
   5  -7 -10   10.77    0.78
  -5  -7  10   11.09    0.65
  -5   7  10   11.26    0.55
  -5   7  10   10.56    0.53
  -4  -7  10   15.94    0.76
   4  -7 -10   13.84    0.88
  -4   7  10   15.72    0.67
  -4   7  10   14.87    0.64
   3  -7 -10   22.04    1.10
  -3  -7  10   21.16    0.91
  -3   7  10   21.63    0.82
  -3   7  10   22.19    0.86
  -2  -7  10   26.31    1.01
   2  -7 -10   25.65    1.21
  -2   7  10   24.66    0.95
  -2   7  10   23.12    0.89
   2   7 -10   24.59    0.97
   1  -7 -10   22.34    1.08
   1   7 -10   20.85    0.89
   1   7 -10   20.45    0.91
  -1   7  10   20.36    0.83
  -1   7  10   21.39    0.80
   0  -7 -10   20.14    1.10
   0   7 -10   19.14    0.85
   0   7 -10   17.43    0.85
   0   7  10   17.82    0.72
   0   7  10   19.04    0.77
   1   7  10   11.09    0.53
  -1   7 -10   11.80    0.66
  -1   7 -10   11.21    0.66
   1   7  10   11.31    0.56
  -2  -7 -10   13.69    3.59
  -3   7 -10    0.25    0.28
  -4   7 -10    0.45    0.29
  -7  -8  10    4.64    0.53
   7  -8 -10    4.08    0.62
  -6  -8  10    3.24    0.42
   6  -8 -10    3.72    0.56
  -6   8  10    3.72    0.35
  -5  -8  10    2.69    0.37
   5  -8 -10    3.06    0.51
  -5   8  10    3.16    0.32
  -5   8  10    2.85    0.29
   4  -8 -10    1.71    0.41
  -4  -8  10    1.96    0.30
  -4   8  10    1.55    0.20
  -4   8  10    1.38    0.23
   3  -8 -10    1.14    0.38
  -3  -8  10    1.40    0.26
  -3   8  10    1.17    0.21
  -3   8  10    1.07    0.17
   2  -8 -10    0.39    0.37
   2   8 -10    0.44    0.19
  -2   8  10    0.43    0.17
  -2   8  10    0.53    0.14
   1  -8 -10    3.20    0.50
   1   8 -10    2.78    0.36
  -1   8  10    3.26    0.31
  -1   8  10    3.88    0.29
   1   8 -10    3.20    0.34
   0  -8 -10    5.18    5.19
   0  -8 -10    3.12    0.53
   0   8 -10    3.07    0.37
   0   8  10    3.31    0.32
   0   8 -10    3.79    0.42
   0   8  10    3.47    0.28
  -1   8 -10    6.69    0.52
   1   8  10    7.01    0.40
  -1   8 -10    6.67    0.54
   1   8  10    7.44    0.44
  -2   8 -10    6.95    0.57
  -3   8 -10    4.92    0.52
  -4   8 -10    2.68    0.41
   6  -9 -10    6.60    0.69
  -6   9  10    6.38    0.44
  -6   9  10    7.15    0.44
   5  -9 -10    8.42    0.73
  -5   9  10    8.94    0.47
  -5   9  10    8.01    0.45
   4  -9 -10    9.21    0.74
  -4   9  10    9.53    0.48
  -4   9  10    9.87    0.50
   3  -9 -10   19.99    1.10
  -3   9  10   21.40    0.83
  -3   9  10   21.29    0.79
   2  -9 -10   22.45    1.16
   2   9 -10   22.91    0.92
  -2   9  10   22.64    0.84
  -2   9  10   21.52    0.87
   1  -9 -10   21.01    1.10
  -1   9  10   21.43    0.84
   1   9 -10   22.10    0.94
  -1   9  10   20.71    0.80
   1   9 -10   20.84    0.89
   0  -9 -10    8.09    0.72
   0   9  10    8.15    0.45
   0   9 -10    7.26    0.53
   0   9  10    8.35    0.42
   0   9 -10    8.16    0.55
  -1   9 -10   10.10    0.63
   1   9  10   10.88    0.51
  -1   9 -10   10.96    0.66
   1   9  10   10.51    0.55
  -2   9 -10    4.65    0.46
  -2   9 -10    4.04    0.48
  -3   9 -10    0.90    0.33
  -4   9 -10    0.91    0.34
   6 -10 -10    0.92    0.42
  -6  10  10    0.65    0.19
  -6  10  10    0.55    0.18
   5 -10 -10    0.07    0.35
  -5  10  10    0.17    0.16
  -5  10  10    0.01    0.12
   4 -10 -10    0.08    0.34
  -4  10  10    0.46    0.15
  -4  10  10    0.51    0.17
   3 -10 -10    0.96    0.40
  -3  10  10    0.87    0.16
  -3  10  10    1.06    0.20
   2 -10 -10    2.08    0.46
  -2  10  10    2.10    0.24
   2  10 -10    1.79    0.27
  -2  10  10    2.35    0.28
   0 -10 -10    6.57    5.64
   0 -10 -10    1.03    0.41
   0  10 -10    1.15    0.29
   0  10 -10    1.13    0.26
   0  10  10    0.72    0.16
   0  10  10    0.75    0.20
  -1 -10 -10   -0.58    6.07
  -1  10 -10    0.10    0.24
   1  10  10    0.37    0.14
   1  10  10    0.23    0.18
  -1  10 -10    0.29    0.23
   2  10  10   -0.13    0.12
  -2  10 -10   -0.04    0.24
  -2  10 -10    0.12    0.26
  -3  10 -10    0.35    0.28
  -4  10 -10    0.11    0.28
   6 -11 -10    3.33    0.57
  -6  11  10    3.52    0.32
  -6  11  10    3.19    0.32
   5 -11 -10    3.46    0.56
  -5  11  10    3.74    0.31
  -5  11  10    3.37    0.30
   4 -11 -10   12.32    0.87
  -4  11  10   13.15    0.58
  -4  11  10   12.07    0.55
   3 -11 -10   20.81    1.14
  -3  11  10   20.83    0.80
  -3  11  10   21.77    0.83
   2 -11 -10   12.78    0.87
  -2  11  10   13.16    0.59
   2  11 -10   13.81    0.67
  -2  11  10   12.32    0.55
   1 -11 -10   22.57    1.17
  -1  11  10   22.22    0.88
   1  11 -10   22.77    0.99
   1  11 -10   23.79    0.94
  -1  11  10   21.75    0.84
   0 -11 -10    7.63    0.72
   0  11  10    7.62    0.44
   0  11 -10    7.71    0.53
   0  11 -10    7.84    0.56
   0  11  10    7.24    0.41
  -1 -11 -10    4.95    0.66
  -1  11 -10    3.52    0.41
   1  11  10    2.82    0.28
  -1  11 -10    3.84    0.43
   1  11  10    3.58    0.33
  -2  11 -10    2.79    0.37
  -2  11 -10    2.75    0.40
   2  11  10    2.77    0.29
  -3  11 -10    0.51    0.29
  -3  11 -10    0.52    0.27
   6 -12 -10    2.24    0.52
  -6  12  10    2.18    0.26
  -6  12  10    1.64    0.22
   5 -12 -10    1.64    0.47
  -5  12  10    2.65    0.28
  -5  12  10    2.35    0.26
   4 -12 -10    3.05    0.53
  -4  12  10    2.52    0.27
  -4  12  10    2.50    0.28
   3 -12 -10   -0.21    0.33
  -3  12  10    0.34    0.16
  -3  12  10    0.24    0.12
   2 -12 -10   -0.10    0.35
  -2  12  10    0.16    0.12
   2  12 -10    0.04    0.19
  -2  12  10    0.01    0.15
   1 -12 -10    5.34    0.65
   1  12 -10    5.15    0.50
  -1  12  10    5.45    0.37
  -1  12  10    5.43    0.35
   1  12 -10    6.01    0.46
   0 -12 -10   -0.67    6.04
   0 -12 -10    5.26    0.64
   0  12 -10    5.78    0.48
   0  12  10    5.09    0.35
   0  12 -10    5.09    0.45
   0  12  10    5.68    0.39
  -1 -12 -10    3.24    0.56
  -1  12 -10    3.31    0.38
   1  12  10    3.23    0.33
   1  12  10    3.26    0.29
  -1  12 -10    3.29    0.40
   2  12  10    3.27    0.31
  -2  12 -10    3.40    0.43
  -2  12 -10    3.56    0.42
  -3  12 -10    2.31    0.40
  -3  12 -10    2.53    0.38
  -6  13  10    3.05    0.30
   5 -13 -10    4.89    0.64
  -5  13  10    4.09    0.32
  -5  13  10    4.31    0.32
   4 -13 -10    6.18    0.68
  -4  13  10    6.40    0.38
  -4  13  10    7.04    0.40
   3 -13 -10   14.37    0.94
  -3  13  10   15.98    0.66
  -3  13  10   15.41    0.64
   2 -13 -10   11.87    0.84
  -2  13  10   12.86    0.58
  -2  13  10   12.48    0.56
   2  13 -10   14.00    0.68
   1 -13 -10   16.06    1.01
   1  13 -10   17.35    0.84
   1  13 -10   16.41    0.77
  -1  13  10   15.98    0.68
  -1  13  10   16.82    0.71
   0 -13 -10    2.67    0.52
   0  13 -10    3.26    0.39
   0  13  10    3.50    0.33
   0  13  10    3.09    0.29
   0  13 -10    2.94    0.34
  -1 -13 -10    4.26    0.62
   1  13  10    5.29    0.39
  -1  13 -10    5.36    0.50
  -1  13 -10    5.43    0.48
   1  13  10    4.39    0.34
  -2 -13 -10    3.96    0.65
  -2  13 -10    3.57    0.42
   2  13  10    3.31    0.32
  -2  13 -10    4.26    0.49
  -3  13 -10    0.13    0.25
  -3  13 -10    0.40    0.29
   5 -14 -10    0.54    0.41
  -5  14  10    0.38    0.15
  -5  14  10    0.26    0.13
   4 -14 -10    0.12    0.36
  -4  14  10    0.05    0.11
  -4  14  10    0.02    0.14
   3 -14 -10    0.81    0.39
  -3  14  10    0.68    0.15
  -3  14  10    0.61    0.17
   2 -14 -10   -0.28    0.35
  -2  14  10    0.08    0.15
  -2  14  10   -0.08    0.11
   2  14 -10    0.12    0.19
   1 -14 -10    0.36    0.40
   1  14 -10    0.18    0.20
  -1  14  10    0.11    0.12
  -1  14  10    0.22    0.17
   1  14 -10    0.42    0.26
   0 -14 -10    0.24    0.43
   0  14 -10    0.36    0.21
   0  14 -10    0.28    0.24
   0  14  10    0.22    0.14
   0  14  10    0.36    0.18
  -1 -14 -10   -0.08    0.36
   1  14  10    0.09    0.15
  -1  14 -10    0.25    0.25
  -1  14 -10   -0.06    0.21
   1  14  10    0.06    0.18
  -2 -14 -10   -0.12    0.40
  -2  14 -10    0.18    0.24
  -2  14 -10    0.55    0.30
   2  14  10    0.20    0.15
  -3 -14 -10    0.78    0.48
  -3  14 -10   -0.30    0.23
  -3  14 -10    0.21    0.28
  -5  15  10    3.81    0.30
  -5  15  10    4.07    0.31
   4 -15 -10    6.06    0.67
  -4  15  10    6.20    0.37
  -4  15  10    6.12    0.37
   3 -15 -10    6.21    0.65
  -3  15  10    6.46    0.38
  -3  15  10    6.06    0.36
   2 -15 -10    6.78    0.68
  -2 -15  10    8.37    0.52
  -2  15  10    6.91    0.41
   2  15 -10    7.67    0.51
  -2  15  10    6.58    0.39
   1 -15 -10   10.58    0.82
   1  15 -10   11.92    0.68
   1  15 -10   12.11    0.63
  -1  15  10   10.89    0.55
  -1  15  10   10.61    0.53
   0 -15 -10    2.38    0.51
   0  15 -10    2.56    0.37
   0  15  10    2.64    0.31
   0  15 -10    2.87    0.34
   0  15  10    2.59    0.28
  -1 -15 -10    3.08    0.56
   1  15  10    3.65    0.33
  -1  15 -10    3.19    0.41
   1  15  10    3.32    0.37
  -1  15 -10    3.83    0.43
  -2 -15 -10    2.17    0.55
   2  15  10    1.65    0.23
  -2  15 -10    1.26    0.29
  -2  15 -10    1.84    0.36
  -3  15 -10   -0.14    0.25
  -5  16  10    0.94    0.17
   4 -16 -10    0.59    0.37
  -4  16  10    0.32    0.15
  -4  16  10    0.31    0.13
   3 -16 -10   -0.30    0.31
  -3  16  10    0.14    0.14
  -3  16  10    0.12    0.12
  -2 -16  10    0.44    0.24
   2 -16 -10    0.07    0.36
  -2  16  10    0.30    0.16
  -2  16  10    0.17    0.13
   2  16 -10    0.15    0.20
   1 -16 -10    0.81    0.41
  -1  16  10    0.98    0.19
   1  16 -10    1.36    0.31
  -1  16  10    1.25    0.22
   1  16 -10    0.89    0.24
   0 -16 -10    1.18    0.46
   0  16  10    1.40    0.25
   0  16  10    1.49    0.22
   0  16 -10    1.58    0.29
   0  16 -10    1.67    0.34
  -1 -16 -10    1.16    0.44
   1  16  10    1.84    0.28
  -1  16 -10    2.52    0.38
  -1  16 -10    1.78    0.31
   1  16  10    1.57    0.23
  -2 -16 -10    2.12    0.52
  -2  16 -10    2.78    0.41
   2  16  10    3.04    0.32
  -2  16 -10    2.70    0.37
  -4  17  10    3.38    0.29
   3 -17 -10    6.01    0.63
  -3  17  10    5.19    0.34
  -3  17  10    5.32    0.36
   2 -17 -10    5.56    0.61
  -2 -17  10    6.35    0.48
  -2  17  10    5.55    0.37
  -2  17  10    4.63    0.34
   2  17 -10    5.63    0.48
   1 -17 -10    4.94    0.59
   1  17 -10    6.17    0.52
   1  17 -10    5.51    0.47
  -1  17  10    5.39    0.38
  -1  17  10    4.89    0.36
   0 -17 -10    3.33    0.56
   0  17 -10    3.48    0.43
   0  17 -10    3.70    0.42
   0  17  10    3.43    0.32
   0  17  10    3.91    0.38
  -1 -17 -10    2.18    0.53
  -1  17 -10    3.05    0.40
   1  17  10    2.90    0.31
   1  17  10    3.57    0.38
  -1  17 -10    2.88    0.35
  -2 -17 -10    1.75    0.51
   2  17  10    1.64    0.25
  -2  17 -10    2.30    0.35
  -4  18  10    0.14    0.12
   3 -18 -10    0.20    0.34
  -3  18  10    0.02    0.12
  -3  18  10    0.16    0.15
   2 -18 -10    0.15    0.33
  -2 -18  10   -0.09    0.23
  -2  18  10    0.03    0.15
   2  18 -10    0.03    0.19
  -2  18  10   -0.09    0.11
   1 -18 -10   -0.16    0.33
  -1  18  10    0.33    0.17
   1  18 -10    0.27    0.20
   1  18 -10    0.28    0.25
  -1  18  10    0.23    0.14
   0 -18 -10   -0.20    0.36
   0  18 -10    0.25    0.21
   0  18  10    0.13    0.19
   0  18  10    0.14    0.15
   0  18 -10    0.36    0.27
  -1 -18 -10   -0.57    0.34
   1  18  10    0.06    0.15
  -1  18 -10    0.46    0.26
  -1  18 -10    0.00    0.20
  -3  19  10    3.29    0.28
   2 -19 -10    3.93    0.54
  -2  19  10    4.12    0.32
   1 -19 -10    3.00    0.50
  -1  19  10    2.95    0.34
   1  19 -10    2.61    0.34
  -1  19  10    2.70    0.29
   1  19 -10    3.64    0.44
   0 -19 -10    2.27    0.48
   0  19 -10    1.92    0.36
   0  19  10    1.99    0.28
   0  19 -10    1.94    0.31
   0  19  10    1.82    0.25
   1  19  10    0.99    0.21
  -1  19 -10    0.57    0.25
   1  20 -10    0.19    0.20
   1  20 -10    0.32    0.25
   0  20 -10    0.24    0.22
  -7   0  11    0.01    0.24
  -6   0  11    0.16    0.22
   5   0 -11    0.07    0.27
  -5   0  11    0.01    0.21
  -4   0  11   -0.05    0.19
   4   0 -11    0.15    0.25
  -4   0  11    0.07    0.15
  -3   0  11    0.12    0.19
   3   0 -11   -0.30    0.24
  -3   0  11   -0.03    0.13
  -2   0  11    0.03    0.18
   2   0 -11   -0.17    0.26
  -2   0  11   -0.04    0.12
  -1   0  11    0.00    0.12
   1   0 -11   -0.58    0.30
  -1   0  11    0.04    0.19
   0   0  11    0.00    0.12
   0   0  11   -0.05    0.19
  -7  -1  11    3.64    0.45
  -7   1  11    2.83    0.37
  -6  -1  11    6.17    0.49
  -6   1  11    5.12    0.46
  -5  -1  11   10.65    0.61
   5  -1 -11   10.01    0.67
  -5   1  11    9.48    0.58
   4  -1 -11    6.67    0.55
  -4  -1  11    6.49    0.44
  -4  -1  11    6.36    0.47
  -4   1  11    6.43    0.43
  -4   1  11    6.58    0.46
   4   1 -11    6.98    0.52
  -3  -1  11    8.76    0.53
   3  -1 -11    9.98    0.64
  -3  -1  11    9.72    0.52
  -3   1  11    9.07    0.49
   3   1 -11    9.01    0.61
  -3   1  11    9.93    0.54
  -2  -1  11    1.33    0.21
   2  -1 -11    1.94    0.36
  -2  -1  11    1.39    0.26
   2   1 -11    1.87    0.35
  -2   1  11    1.44    0.21
  -2   1  11    1.05    0.24
  -1  -1  11    1.01    0.19
  -1  -1  11    1.30    0.25
   1  -1 -11    1.12    0.38
  -1   1  11    0.90    0.24
  -1   1  11    0.81    0.18
   1   1 -11    1.17    0.35
   0  -1  11    0.39    0.15
   0   1  11    0.26    0.14
   0   1  11    0.47    0.22
  -7  -2  11    1.02    0.29
  -7   2  11    0.87    0.27
   6  -2 -11    5.20    0.54
  -6  -2  11    5.09    0.47
  -6   2  11    4.64    0.43
   5  -2 -11   14.47    0.81
  -5  -2  11   13.98    0.72
  -5   2  11   12.90    0.65
  -5   2  11   13.76    0.69
   4  -2 -11   25.85    1.18
  -4  -2  11   27.00    1.06
  -4   2  11   26.58    1.04
  -4   2  11   24.29    0.99
  -3  -2  11   32.21    1.22
   3  -2 -11   33.78    1.42
  -3  -2  11   34.12    1.28
   3   2 -11   34.45    1.35
  -3   2  11   34.61    1.22
  -3   2  11   34.63    1.28
  -2  -2  11   51.96    1.85
  -2  -2  11   52.91    1.78
   2  -2 -11   55.95    2.04
  -2   2  11   51.52    1.84
  -2   2  11   51.49    1.76
   2   2 -11   54.25    1.97
  -1  -2  11   40.57    1.45
  -1  -2  11   43.34    1.54
   1  -2 -11   45.29    1.74
  -1   2  11   41.69    1.53
  -1   2  11   41.12    1.44
   0   2  11   33.10    1.28
   0   2 -11   35.72    1.33
   0   2  11   33.97    1.21
  -1   2 -11   21.09    0.95
  -2   2 -11    6.30    0.54
  -3   2 -11    8.33    0.62
  -4   2 -11    0.63    0.30
  -7  -3  11    2.56    0.39
   6  -3 -11    4.55    0.54
  -6  -3  11    5.40    0.48
  -6   3  11    4.76    0.43
  -5  -3  11   10.12    0.61
   5  -3 -11   10.60    0.72
  -5   3  11   10.06    0.56
  -5   3  11    9.64    0.56
   4  -3 -11    8.01    0.64
  -4  -3  11    7.99    0.53
  -4   3  11    8.13    0.50
  -4   3  11    8.58    0.47
  -3  -3  11   10.59    0.56
   3  -3 -11   11.32    0.73
  -3  -3  11   10.62    0.59
  -3   3  11   10.56    0.53
   3   3 -11   11.80    0.62
  -3   3  11   10.77    0.58
  -2  -3  11    2.13    0.26
  -2  -3  11    2.54    0.32
   2  -3 -11    3.18    0.47
  -2   3  11    2.74    0.29
  -2   3  11    2.85    0.34
   2   3 -11    2.87    0.35
  -1  -3  11    3.10    0.37
  -1  -3  11    2.19    0.26
   1  -3 -11    3.54    0.48
  -1   3  11    3.05    0.29
  -1   3  11    2.77    0.34
   0   3 -11   -0.06    0.22
   0   3  11    0.10    0.19
   0   3  11    0.16    0.12
  -1   3 -11    0.37    0.25
  -2   3 -11    0.18    0.25
  -3   3 -11    0.57    0.30
  -4   3 -11    0.49    0.30
  -7  -4  11    0.30    0.28
   6  -4 -11    0.34    0.32
  -6  -4  11    0.21    0.24
  -6   4  11    0.03    0.19
  -5  -4  11    0.11    0.23
   5  -4 -11    0.11    0.31
  -5   4  11    0.42    0.21
  -5   4  11   -0.06    0.15
   4  -4 -11    0.72    0.35
  -4  -4  11    1.00    0.26
  -4   4  11    1.13    0.20
  -4   4  11    1.35    0.25
  -3  -4  11    0.39    0.21
   3  -4 -11    0.12    0.29
  -3  -4  11    0.16    0.15
  -3   4  11    0.10    0.13
  -3   4  11    0.27    0.19
   2  -4 -11   -0.32    0.31
  -2  -4  11    0.04    0.19
  -2  -4  11    0.11    0.14
   2   4 -11   -0.07    0.21
  -2   4  11    0.15    0.18
  -2   4  11    0.21    0.13
   1  -4 -11    0.31    0.34
   1  -4 -11    1.73    5.06
  -1  -4  11    0.09    0.13
  -1   4  11    0.06    0.18
  -1   4  11    0.19    0.13
   0   4 -11   -0.22    0.20
   0   4  11   -0.10    0.17
   0   4  11   -0.06    0.11
   0   4 -11   -0.05    0.23
  -1   4 -11    0.04    0.23
   1   4  11    0.11    0.13
  -2   4 -11   -0.26    0.24
  -3   4 -11   -0.03    0.27
  -4   4 -11   -0.22    0.26
  -7  -5  11    2.23    0.39
   7  -5 -11    2.07    0.46
   6  -5 -11    5.96    0.61
  -6  -5  11    5.96    0.52
  -6   5  11    5.58    0.43
  -5  -5  11    7.57    0.55
   5  -5 -11    8.08    0.69
  -5   5  11    7.65    0.49
  -5   5  11    7.63    0.47
   4  -5 -11    4.39    0.55
  -4  -5  11    4.77    0.44
  -4   5  11    4.73    0.38
  -4   5  11    4.27    0.34
  -3  -5  11    1.48    0.26
   3  -5 -11    1.51    0.38
  -3   5  11    1.25    0.20
  -3   5  11    1.43    0.24
   2  -5 -11    0.48    0.33
  -2  -5  11    0.72    0.23
  -2  -5  11    0.66    0.18
  -2   5  11    0.53    0.20
   2   5 -11    0.49    0.24
  -2   5  11    0.70    0.16
   1  -5 -11    1.33    0.38
   1  -5 -11   -4.76    5.20
   0  -5 -11   -2.10    5.66
   0   5 -11   -0.09    0.24
   0   5 -11   -0.01    0.21
   0   5  11   -0.01    0.18
   0   5  11   -0.01    0.12
  -1   5 -11    0.06    0.24
  -1   5 -11    0.35    0.25
   1   5  11    0.24    0.13
  -2   5 -11    0.29    0.28
  -3   5 -11    1.11    0.35
  -4   5 -11    0.43    0.30
  -7  -6  11    1.58    0.36
   7  -6 -11    1.53    0.45
   6  -6 -11    1.87    0.43
  -6  -6  11    2.06    0.35
  -6   6  11    2.15    0.29
   5  -6 -11   13.58    0.88
  -5  -6  11   13.80    0.73
  -5   6  11   13.56    0.65
  -5   6  11   13.50    0.66
   4  -6 -11   25.94    1.25
  -4  -6  11   27.91    1.09
  -4   6  11   24.98    1.01
  -4   6  11   24.61    0.97
   3  -6 -11   23.38    1.13
  -3  -6  11   23.36    0.96
  -3   6  11   22.57    0.92
  -3   6  11   21.78    0.87
   2  -6 -11   27.22    1.25
  -2   6  11   25.53    0.97
  -2   6  11   26.42    1.03
   1  -6 -11   37.81    1.58
  -1   6  11   36.50    1.34
  -1   6  11   33.40    1.25
   1   6 -11   38.66    1.37
   0  -6 -11   28.42    1.34
   0   6 -11   28.30    1.12
   0   6  11   26.19    0.99
   0   6  11   27.03    1.05
   0   6 -11   24.82    1.12
  -1  -6 -11   20.03    6.01
  -1   6 -11   18.03    0.88
   1   6  11   19.11    0.81
  -1   6 -11   18.12    0.88
   1   6  11   16.91    0.74
  -2   6 -11   12.52    0.75
  -3   6 -11    3.68    0.46
  -4   6 -11    1.44    0.37
  -7  -7  11    2.49    0.40
   7  -7 -11    2.82    0.53
  -6  -7  11    3.18    0.41
   6  -7 -11    2.93    0.51
  -6   7  11    2.75    0.33
   5  -7 -11    8.96    0.75
  -5  -7  11    9.36    0.61
  -5   7  11    9.18    0.52
  -5   7  11    8.36    0.49
   4  -7 -11    3.70    0.54
  -4  -7  11    4.44    0.44
  -4   7  11    3.74    0.36
  -4   7  11    3.77    0.33
   3  -7 -11    1.62    0.41
  -3   7  11    1.63    0.21
  -3   7  11    1.52    0.24
   2  -7 -11    9.56    2.28
   2  -7 -11    7.02    0.66
  -2   7  11    6.43    0.44
  -2   7  11    7.09    0.40
   1  -7 -11    3.23    0.49
   1   7 -11    2.94    0.34
  -1   7  11    3.39    0.29
  -1   7  11    3.34    0.34
   0  -7 -11    0.82    4.86
   0  -7 -11    0.63    0.40
   0   7 -11    0.11    0.24
   0   7 -11    0.03    0.21
   0   7  11   -0.02    0.18
   0   7  11   -0.04    0.12
  -1  -7 -11    1.93    5.85
   1   7  11    0.20    0.20
  -1   7 -11   -0.03    0.25
   1   7  11    0.09    0.14
  -1   7 -11   -0.37    0.22
  -2   7 -11   -0.03    0.27
  -3   7 -11    0.51    0.30
  -4   7 -11    0.37    0.32
   6  -8 -11    0.18    0.37
  -6   8  11    0.21    0.18
  -6   8  11    0.04    0.16
   5  -8 -11    0.46    0.37
  -5   8  11    0.35    0.15
  -5   8  11    0.26    0.18
   4  -8 -11   -0.17    0.33
  -4   8  11    0.13    0.17
  -4   8  11    0.02    0.12
   3  -8 -11   -0.14    0.32
  -3   8  11    0.35    0.18
  -3   8  11    0.30    0.14
   2  -8 -11   -3.50    4.34
   2  -8 -11   -0.28    0.34
  -2   8  11    0.13    0.12
  -2   8  11    0.15    0.17
   1  -8 -11    7.73    5.12
   0  -8 -11    6.60    5.86
   0  -8 -11    0.32    0.44
  -2   8 -11   -0.16    0.23
  -2   8 -11    0.05    0.25
  -3   8 -11    0.06    0.28
  -4   8 -11    0.29    0.31
   6  -9 -11    3.60    0.58
  -6   9  11    4.21    0.36
  -6   9  11    3.47    0.35
   5  -9 -11    3.18    0.56
  -5   9  11    3.58    0.32
  -5   9  11    3.69    0.35
   4  -9 -11    2.86    0.53
  -4   9  11    3.18    0.32
  -4   9  11    2.95    0.29
   3  -9 -11    3.36    0.53
  -3   9  11    3.23    0.33
  -3   9  11    3.81    0.31
   2  -9 -11    0.94    0.42
  -2   9  11    0.53    0.15
  -2   9  11    0.60    0.19
   1  -9 -11   -0.04    0.38
  -1   9  11    0.16    0.13
   1   9 -11   -0.07    0.19
  -1   9  11    0.01    0.17
   1   9 -11    0.41    0.24
   0  -9 -11   -0.37    0.41
   0  -9 -11    4.94    6.00
   0   9 -11    0.15    0.26
   0   9 -11    0.28    0.22
   0   9  11    0.17    0.18
  -1  -9 -11    1.30    0.49
  -1   9 -11    0.27    0.27
   1   9  11    0.49    0.16
  -1   9 -11    0.37    0.25
   1   9  11    0.30    0.20
  -2   9 -11    1.13    0.31
  -2   9 -11    1.05    0.34
  -3   9 -11    0.31    0.30
   6 -10 -11    1.08    0.45
  -6  10  11    0.86    0.20
   5 -10 -11    6.46    0.70
  -5  10  11    7.07    0.43
  -5  10  11    6.98    0.42
   4 -10 -11   10.33    0.81
  -4  10  11   11.80    0.56
  -4  10  11   11.00    0.54
   3 -10 -11   12.10    0.85
  -3  10  11   12.91    0.60
  -3  10  11   11.75    0.55
   2 -10 -11   28.82    1.37
  -2  10  11   27.22    1.04
  -2  10  11   25.32    0.99
   1 -10 -11   22.52    1.20
   1  10 -11   24.15    0.97
  -1  10  11   22.09    0.90
   1  10 -11   23.70    1.02
  -1  10  11   20.37    0.85
   0 -10 -11   28.23    6.90
   0 -10 -11   27.34    1.36
   0  10  11   26.38    1.01
   0  10 -11   28.27    1.18
   0  10 -11   26.14    1.11
   0  10  11   27.09    1.05
  -1 -10 -11   11.70    0.91
  -1  10 -11   10.40    0.65
   1  10  11    9.63    0.55
  -1  10 -11    9.79    0.65
   1  10  11    8.94    0.50
  -2  10 -11    5.50    0.56
  -2  10 -11    5.82    0.54
  -3  10 -11    3.58    0.47
  -3  10 -11    3.89    0.46
  -6  11  11    1.40    0.22
   5 -11 -11    3.60    0.59
  -5  11  11    3.95    0.33
  -5  11  11    4.51    0.35
   4 -11 -11    4.21    0.60
  -4  11  11    3.74    0.33
  -4  11  11    3.86    0.32
   3 -11 -11    1.76    0.47
  -3  11  11    2.30    0.25
  -3  11  11    1.83    0.25
   2 -11 -11    5.43    0.66
  -2  11  11    4.94    0.34
  -2  11  11    4.67    0.37
   1 -11 -11   10.84    6.11
   1  11 -11    0.90    0.31
   0 -11 -11   -0.31    6.03
   0 -11 -11    0.30    0.41
   0  11 -11    0.32    0.25
   0  11  11    0.26    0.19
   0  11  11    0.14    0.13
   0  11 -11   -0.10    0.21
  -1 -11 -11    1.11    0.48
   1  11  11    0.41    0.16
  -1  11 -11    0.66    0.26
   1  11  11    0.31    0.20
  -1  11 -11    0.78    0.31
  -2  11 -11    0.13    0.28
  -2  11 -11   -0.37    0.23
  -3  11 -11    0.28    0.27
  -3  11 -11    0.10    0.28
   5 -12 -11    0.18    0.38
  -5  12  11    0.08    0.14
  -5  12  11    0.10    0.13
   4 -12 -11    0.08    0.37
  -4  12  11    0.05    0.13
  -4  12  11   -0.08    0.14
   3 -12 -11   -0.32    0.34
  -3  12  11    0.01    0.11
  -3  12  11    0.14    0.16
   2 -12 -11   -0.32    0.38
  -2  12  11    0.03    0.16
  -2  12  11    0.01    0.12
   1 -12 -11   -0.30    0.41
   1  12 -11    0.24    0.25
   1  12 -11   -0.32    0.18
  -1  12  11    0.02    0.12
  -1  12  11   -0.12    0.15
   0 -12 -11   -0.46    0.39
   0  12 -11    0.10    0.24
   0  12  11   -0.03    0.17
   0  12 -11   -0.01    0.20
   0  12  11    0.13    0.13
  -1 -12 -11   -0.11    0.41
  -1  12 -11    0.00    0.23
   1  12  11   -0.08    0.18
  -1  12 -11    0.20    0.27
   1  12  11    0.08    0.14
  -2 -12 -11    0.93    0.50
  -2  12 -11   -0.10    0.23
  -2  12 -11   -0.07    0.26
  -3  12 -11   -0.22    0.26
  -3  12 -11    0.02    0.25
   5 -13 -11    1.25    0.48
  -5  13  11    1.49    0.21
  -5  13  11    1.65    0.22
   4 -13 -11    0.67    0.44
  -4  13  11    1.00    0.19
  -4  13  11    0.80    0.19
   3 -13 -11    2.73    0.52
  -3  13  11    2.33    0.28
  -3  13  11    2.30    0.26
   2 -13 -11    0.43    0.40
  -2  13  11    0.51    0.15
  -2  13  11    0.39    0.18
   1 -13 -11   -0.15    0.39
  -1  13  11    0.19    0.13
   1  13 -11   -0.31    0.18
   1  13 -11    0.07    0.24
  -1  13  11   -0.01    0.17
   0 -13 -11   -0.92    0.37
   0  13  11    0.01    0.13
   0  13  11    0.14    0.18
   0  13 -11    0.22    0.26
   0  13 -11   -0.14    0.20
  -1 -13 -11    1.42    0.49
   1  13  11    0.75    0.18
  -1  13 -11    0.71    0.29
   1  13  11    1.15    0.24
  -1  13 -11    0.91    0.27
  -2 -13 -11    0.79    0.49
  -2  13 -11    0.10    0.28
  -2  13 -11    0.49    0.27
  -5  14  11    3.43    0.30
   4 -14 -11    4.14    0.63
  -4  14  11    4.77    0.34
  -4  14  11    4.69    0.35
   3 -14 -11    8.52    0.76
  -3  14  11    8.30    0.45
  -3  14  11    8.62    0.47
   2 -14 -11   13.46    0.93
  -2  14  11   13.07    0.60
  -2  14  11   13.58    0.62
   1 -14 -11    9.34    0.80
  -1  14  11    9.36    0.51
  -1  14  11    8.38    0.47
   1  14 -11   10.75    0.65
   0 -14 -11   15.47    1.02
   0  14  11   16.26    0.73
   0  14 -11   16.44    0.86
   0  14  11   14.69    0.69
   0  14 -11   17.06    0.81
  -1 -14 -11    5.05    0.67
   1  14  11    5.03    0.38
  -1  14 -11    6.73    0.54
   1  14  11    5.43    0.43
  -1  14 -11    5.64    0.55
  -2 -14 -11    2.21    0.58
  -2  14 -11    2.84    0.41
  -2  14 -11    2.40    0.37
   4 -15 -11    2.59    0.53
  -4  15  11    2.76    0.28
  -4  15  11    2.62    0.28
   3 -15 -11    1.67    0.46
  -3  15  11    1.22    0.19
  -3  15  11    1.46    0.22
   2 -15 -11    0.73    0.43
  -2  15  11    0.68    0.19
  -2  15  11    0.66    0.16
   1 -15 -11   -0.11    0.40
   1  15 -11    0.58    0.28
   1  15 -11    0.10    0.20
  -1  15  11    0.34    0.15
  -1  15  11    0.43    0.19
   0 -15 -11   -0.62    0.39
   0  15  11   -0.04    0.14
   0  15 -11    0.07    0.22
   0  15 -11    0.45    0.27
   0  15  11    0.02    0.18
  -1 -15 -11   -0.63    0.38
   1  15  11    0.01    0.20
   1  15  11   -0.16    0.13
  -1  15 -11    0.52    0.29
  -1  15 -11   -0.08    0.20
  -2  15 -11    0.19    0.24
  -2  15 -11    0.29    0.27
  -4  16  11    0.06    0.12
   3 -16 -11    0.05    0.34
  -3  16  11   -0.07    0.12
  -3  16  11   -0.04    0.14
   2 -16 -11   -0.51    0.33
  -2  16  11    0.07    0.16
  -2  16  11   -0.06    0.12
   1 -16 -11   -0.64    0.35
  -1  16  11   -0.10    0.12
  -1  16  11   -0.12    0.16
   1  16 -11   -0.09    0.19
   0 -16 -11   -0.47    0.37
   0  16  11   -0.20    0.18
   0  16  11   -0.08    0.13
   0  16 -11    0.12    0.25
   0  16 -11   -0.25    0.20
  -1 -16 -11   -0.43    0.38
  -1  16 -11    0.18    0.23
   1  16  11    0.00    0.15
  -1  16 -11    0.03    0.25
  -3  17  11    0.54    0.16
   2 -17 -11    0.37    0.38
  -2  17  11    0.07    0.16
  -2  17  11    0.21    0.13
   1 -17 -11   -0.26    0.34
   1  17 -11    0.13    0.21
  -1  17  11   -0.06    0.16
  -1  17  11   -0.02    0.13
   0 -17 -11   -0.18    0.41
   0  17 -11    0.59    0.26
   0  17  11    0.02    0.14
   0  17 -11   -0.14    0.20
   0  17  11   -0.28    0.18
   1  17  11   -0.07    0.15
   1  17  11    0.51    0.23
  -1  17 -11    0.14    0.23
  -1  17 -11    0.69    0.30
  -2  18  11    4.00    0.32
   1  18 -11    5.06    0.47
  -1  18  11    4.11    0.34
   0  18 -11    5.90    0.50
   0  18 -11    5.68    0.54
   0  18  11    5.43    0.40
   1  18  11    2.76    0.32
   1  19 -11    0.10    0.20
  -6   0  12    8.26    0.56
  -5   0  12   13.74    0.70
  -4   0  12   21.29    0.90
  -4   0  12   19.85    0.87
   3   0 -12   27.60    1.16
  -3   0  12   25.00    1.01
  -3   0  12   25.35    1.05
  -2   0  12   23.45    0.97
   2   0 -12   27.57    1.16
  -2   0  12   25.25    1.04
  -1   0  12   11.02    0.56
  -1   0  12   10.46    0.62
   1   0 -12   11.82    0.77
  -6  -1  12    0.13    0.23
  -6   1  12    0.11    0.22
  -5  -1  12    1.00    0.25
   5  -1 -12    1.36    0.33
  -5   1  12    0.84    0.25
  -4  -1  12    2.33    0.29
   4  -1 -12    2.60    0.39
  -4  -1  12    2.22    0.31
  -4   1  12    2.91    0.33
   4   1 -12    3.41    0.42
  -4   1  12    3.38    0.37
  -3  -1  12    4.92    0.42
   3  -1 -12    4.13    0.51
  -3  -1  12    4.28    0.38
  -3   1  12    4.73    0.38
  -3   1  12    5.46    0.43
   3   1 -12    4.34    0.49
   2  -1 -12   10.59    0.70
  -2  -1  12    9.83    0.54
  -2  -1  12    9.92    0.58
   2   1 -12   10.15    0.65
  -2   1  12   10.13    0.58
  -2   1  12    9.41    0.52
  -1  -1  12   16.74    0.80
  -1  -1  12   17.17    0.73
   1  -1 -12   17.08    0.93
   1   1 -12   16.31    0.92
  -1   1  12   16.50    0.72
  -1   1  12   16.44    0.78
  -6  -2  12    0.08    0.22
  -6   2  12    0.01    0.21
   5  -2 -12    0.49    0.30
  -5  -2  12    0.37    0.21
  -5   2  12   -0.04    0.16
  -5   2  12    0.30    0.21
  -4  -2  12    0.46    0.22
   4  -2 -12    0.42    0.30
  -4   2  12    0.21    0.20
  -4   2  12    0.44    0.17
  -3  -2  12   -0.04    0.14
  -3  -2  12    0.06    0.20
   3  -2 -12   -0.43    0.28
  -3   2  12    0.04    0.18
   3   2 -12   -0.09    0.24
  -3   2  12   -0.11    0.13
  -2  -2  12    0.28    0.17
  -2  -2  12    0.26    0.22
   2  -2 -12    0.12    0.32
   2   2 -12    0.41    0.28
  -2   2  12    0.42    0.21
  -2   2  12    0.44    0.17
   1  -2 -12    0.59    0.36
  -1  -2  12    0.29    0.16
  -1   2  12    0.34    0.15
  -1   2  12    0.47    0.23
   1   2 -12    0.65    0.36
   0   2  12    0.49    0.17
  -6  -3  12    0.87    0.27
  -6   3  12    0.28    0.22
   5  -3 -12    0.74    0.33
  -5  -3  12    0.87    0.26
  -5   3  12    0.50    0.19
  -5   3  12    0.79    0.23
  -4  -3  12    2.09    0.31
   4  -3 -12    2.35    0.40
  -4   3  12    2.06    0.29
  -4   3  12    1.86    0.26
  -3  -3  12    7.69    0.49
   3  -3 -12    7.79    0.63
  -3  -3  12    8.83    0.54
  -3   3  12    8.06    0.49
  -3   3  12    7.64    0.46
  -2  -3  12    5.59    0.46
   2  -3 -12    5.28    0.59
  -2  -3  12    5.93    0.43
  -2   3  12    5.77    0.43
  -2   3  12    5.44    0.38
   2   3 -12    5.38    0.51
   1  -3 -12   13.47    0.82
  -1   3  12   11.97    0.59
  -1   3  12   11.53    0.64
   1   3 -12   11.94    0.79
   0   3  12    9.21    0.54
   0   3  12    8.42    0.48
   6  -4 -12    9.23    0.72
  -6  -4  12   10.33    0.64
  -6   4  12    9.94    0.58
   5  -4 -12   11.08    0.76
  -5  -4  12   11.61    0.65
  -5   4  12   10.67    0.59
  -5   4  12   11.24    0.61
   4  -4 -12   24.40    1.18
  -4  -4  12   25.82    1.05
  -4   4  12   25.42    1.02
  -4   4  12   24.28    0.98
   3  -4 -12   19.47    0.99
  -3  -4  12   18.64    0.84
  -3  -4  12   18.44    0.80
  -3   4  12   18.51    0.82
  -3   4  12   18.10    0.78
  -2  -4  12   10.40    0.57
   2  -4 -12   10.25    0.75
   2   4 -12   11.45    0.65
  -2   4  12   10.20    0.58
  -2   4  12   10.22    0.53
   1  -4 -12    8.69    0.69
   1  -4 -12   11.11    5.85
  -1   4  12    7.46    0.45
  -1   4  12    8.30    0.52
   0   4  12    5.14    0.44
   0   4  12    5.66    0.38
  -1   4 -12    0.75    0.29
   6  -5 -12    0.36    0.36
  -6  -5  12    0.63    0.28
  -6   5  12    0.63    0.23
   5  -5 -12    0.97    0.38
  -5  -5  12    1.16    0.28
  -5   5  12    1.00    0.21
  -5   5  12    0.97    0.24
   4  -5 -12    3.74    0.52
  -4  -5  12    4.13    0.42
  -4   5  12    4.31    0.39
  -4   5  12    3.72    0.35
   3  -5 -12    7.55    0.66
  -3  -5  12    8.79    0.54
  -3   5  12    7.58    0.46
  -3   5  12    8.66    0.51
   2  -5 -12    7.81    0.68
   2  -5 -12    0.02    5.20
  -2   5  12    8.13    0.50
  -2   5  12    7.77    0.45
   1  -5 -12   -3.61    5.57
   1  -5 -12    5.63    0.62
   0  -5 -12    6.58    0.72
   0   5  12    5.96    0.39
   0   5  12    5.94    0.45
  -1   5 -12    8.85    0.63
  -3   5 -12    1.61    0.39
   6  -6 -12    0.07    0.34
  -6  -6  12    0.03    0.24
  -6   6  12    0.20    0.20
   5  -6 -12   -0.04    0.33
  -5  -6  12    0.25    0.23
  -5   6  12    0.28    0.17
  -5   6  12    0.35    0.19
   4  -6 -12    0.34    0.35
  -4  -6  12    0.41    0.24
  -4   6  12    0.59    0.17
  -4   6  12    0.27    0.19
   3  -6 -12   -0.28    0.32
  -3   6  12    0.30    0.19
  -3   6  12    0.29    0.15
   2  -6 -12   -0.32    0.35
   2  -6 -12   -3.45    5.22
  -2   6  12    0.10    0.18
  -2   6  12    0.10    0.14
   1  -6 -12    0.34    0.37
   1  -6 -12   -2.81    5.31
  -1   6  12   -0.04    0.19
  -1   6  12    0.15    0.13
   0  -6 -12    1.36    5.34
   0   6  12    0.35    0.15
   0   6  12    0.30    0.21
  -1   6 -12    0.60    0.28
  -2   6 -12   -0.09    0.27
  -3   6 -12    0.01    0.29
   6  -7 -12    1.20    0.43
  -6   7  12    0.75    0.21
   5  -7 -12    0.44    0.35
  -5   7  12    0.06    0.18
  -5   7  12    0.02    0.15
   4  -7 -12    1.44    0.41
  -4   7  12    0.85    0.19
  -4   7  12    1.13    0.23
   3  -7 -12    9.34    0.72
  -3   7  12    7.41    0.48
  -3   7  12    7.21    0.45
   2  -7 -12    4.30    0.58
  -2   7  12    3.73    0.32
  -2   7  12    3.89    0.37
   1  -7 -12    7.35    0.68
  -1   7  12    7.64    0.43
  -1   7  12    7.80    0.49
   0  -7 -12    5.19    0.67
   0   7  12    4.71    0.40
   0   7  12    4.69    0.35
   0   7 -12    4.87    0.50
  -1   7 -12    7.17    0.60
  -1   7 -12    7.35    0.60
  -2   7 -12    2.82    0.41
  -2   7 -12    2.97    0.43
  -3   7 -12    1.56    0.38
   6  -8 -12    9.19    0.79
  -6   8  12    9.05    0.54
   5  -8 -12    7.67    0.72
  -5   8  12    7.59    0.48
  -5   8  12    7.44    0.46
   4  -8 -12   19.48    1.06
  -4   8  12   16.69    0.76
  -4   8  12   18.52    0.80
   3  -8 -12   13.56    0.88
  -3   8  12   13.37    0.62
  -3   8  12   12.91    0.65
   2  -8 -12    5.08    0.62
  -2   8  12    4.44    0.38
  -2   8  12    4.40    0.34
   1  -8 -12    0.83    5.55
   1  -8 -12    6.61    0.65
  -1   8  12    5.46    0.38
  -1   8  12    6.13    0.43
   0  -8 -12    4.51    0.64
   0   8 -12    3.77    0.42
   0   8  12    3.55    0.38
   0   8  12    4.27    0.34
  -1  -8 -12    2.44    0.55
  -1   8 -12    0.72    0.33
  -1   8 -12    0.55    0.27
  -2   8 -12   -0.14    0.27
  -2   8 -12   -0.21    0.25
  -3   8 -12   -0.01    0.29
   5  -9 -12    0.90    0.42
  -5   9  12    0.84    0.19
  -5   9  12    1.00    0.22
   4  -9 -12    2.41    0.50
  -4   9  12    2.57    0.30
  -4   9  12    2.85    0.33
   3  -9 -12    5.61    0.64
  -3   9  12    5.49    0.38
  -3   9  12    5.49    0.41
   2  -9 -12    5.06    0.65
  -2   9  12    4.44    0.33
  -2   9  12    4.05    0.37
   1  -9 -12   -6.23    5.94
   0  -9 -12    5.95    0.70
   0   9 -12    6.14    0.53
   0   9  12    5.32    0.39
   0   9  12    5.75    0.43
  -1  -9 -12    4.62    0.68
   1   9  12    4.07    0.35
  -1   9 -12    3.39    0.43
  -1   9 -12    3.40    0.45
  -2   9 -12    2.28    0.40
  -2   9 -12    2.83    0.41
  -3   9 -12    1.28    0.38
  -3   9 -12    0.91    0.32
   5 -10 -12   -0.11    0.36
  -5  10  12    0.27    0.15
  -5  10  12    0.00    0.16
   4 -10 -12    0.01    0.36
  -4  10  12    0.17    0.15
  -4  10  12    0.20    0.17
   3 -10 -12   -0.22    0.35
  -3  10  12    0.10    0.14
  -3  10  12    0.15    0.18
   2 -10 -12   -0.05    0.39
  -2  10  12    0.29    0.19
  -2  10  12   -0.02    0.12
   1 -10 -12   -0.32    0.41
  -1  10  12    0.38    0.16
  -1  10  12    0.39    0.20
   0 -10 -12    0.14    0.39
   0  10  12    0.24    0.15
   0  10  12    0.10    0.20
   0  10 -12    0.22    0.24
  -1 -10 -12    0.49    0.44
  -1  10 -12    0.38    0.29
   1  10  12    0.04    0.14
  -1  10 -12    0.37    0.27
  -2  10 -12    0.01    0.26
  -2  10 -12    0.05    0.27
  -3  10 -12   -0.01    0.27
   5 -11 -12    0.24    0.39
  -5  11  12    0.09    0.14
   4 -11 -12    0.60    0.38
  -4  11  12    0.62    0.20
  -4  11  12    0.60    0.17
   3 -11 -12    2.20    0.50
  -3  11  12    2.01    0.24
  -3  11  12    2.02    0.27
   2 -11 -12    3.42    0.58
  -2  11  12    3.53    0.34
  -2  11  12    3.46    0.31
   1 -11 -12    5.39    0.67
  -1  11  12    5.75    0.42
  -1  11  12    5.75    0.39
   0 -11 -12    3.69    0.59
   0  11 -12    3.20    0.38
   0  11  12    3.34    0.31
   0  11  12    2.82    0.35
  -1 -11 -12    3.75    0.63
   1  11  12    4.32    0.35
  -1  11 -12    3.58    0.46
  -1  11 -12    3.81    0.44
  -2 -11 -12    2.85    0.62
  -2  11 -12    1.80    0.38
  -2  11 -12    1.48    0.33
  -5  12  12    6.68    0.43
   4 -12 -12    7.44    0.74
  -4  12  12    7.73    0.46
  -4  12  12    7.76    0.47
   3 -12 -12    8.09    0.76
  -3  12  12    8.06    0.48
  -3  12  12    7.96    0.45
   2 -12 -12    5.26    0.68
  -2  12  12    5.92    0.42
  -2  12  12    5.56    0.38
   1 -12 -12    3.69    0.61
  -1  12  12    4.21    0.38
  -1  12  12    3.84    0.34
   0 -12 -12   -0.03    0.40
   0  12  12    0.42    0.17
   0  12  12    0.35    0.21
   0  12 -12    0.58    0.24
  -1 -12 -12    0.31    0.46
   1  12  12    0.85    0.20
  -1  12 -12    0.67    0.27
  -1  12 -12    0.69    0.31
  -2  12 -12   -0.26    0.24
  -2  12 -12   -0.29    0.27
   4 -13 -12    0.77    0.44
  -4  13  12    0.98    0.19
  -4  13  12    0.83    0.20
   3 -13 -12    0.37    0.41
  -3  13  12    1.05    0.21
  -3  13  12    0.98    0.18
   2 -13 -12    2.47    0.54
  -2  13  12    2.07    0.26
  -2  13  12    2.73    0.32
   1 -13 -12    4.02    0.64
  -1  13  12    4.47    0.35
  -1  13  12    4.07    0.38
   0 -13 -12    2.56    0.58
   0  13 -12    2.64    0.36
   0  13  12    2.69    0.30
   0  13  12    3.28    0.36
  -1 -13 -12    2.09    0.56
   1  13  12    2.83    0.31
  -1  13 -12    2.76    0.42
  -1  13 -12    3.00    0.39
  -2  13 -12    1.12    0.31
  -2  13 -12    1.74    0.38
  -4  14  12    0.09    0.13
   3 -14 -12    0.10    0.38
  -3  14  12    0.19    0.17
  -3  14  12    0.21    0.14
   2 -14 -12   -0.32    0.37
  -2  14  12    0.17    0.17
  -2  14  12    0.21    0.14
   1 -14 -12   -0.69    0.40
  -1  14  12    0.18    0.14
  -1  14  12    0.36    0.20
   0 -14 -12   -0.47    0.40
   0  14 -12    0.23    0.24
   0  14  12   -0.04    0.19
   0  14  12    0.08    0.14
  -1  14 -12    0.19    0.25
   1  14  12    0.15    0.15
  -1  14 -12    0.74    0.31
  -3  15  12    1.12    0.19
   2 -15 -12    1.55    0.49
  -2  15  12    1.70    0.25
  -2  15  12    1.62    0.23
   1 -15 -12    2.16    0.54
  -1  15  12    1.64    0.23
  -1  15  12    2.00    0.28
   0  15  12    1.86    0.25
   0  15 -12    1.86    0.32
   0  15  12    2.09    0.30
  -1  15 -12    1.37    0.31
  -1  15 -12    1.70    0.37
   1  15  12    0.96    0.21
  -2  16  12    3.09    0.30
  -1  16  12    1.18    0.24
  -1  16  12    1.41    0.22
   0  16  12    0.15    0.15
   0  16  12    0.43    0.21
   0  16 -12    0.27    0.22
   1  16  12    0.34    0.17
   0  17 -12    0.65    0.25
  -6   0  13    0.13    0.22
  -5   0  13   -0.07    0.21
  -4   0  13    0.05    0.16
  -4   0  13    0.24    0.20
   3   0 -13   -0.21    0.28
  -3   0  13   -0.06    0.15
  -3   0  13    0.15    0.19
  -2   0  13    0.04    0.21
   2   0 -13    0.02    0.31
  -2   0  13    0.17    0.15
   1   0 -13    0.47    0.35
  -6  -1  13    5.77    0.48
  -6   1  13    4.70    0.44
  -5  -1  13    6.58    0.49
  -5   1  13    5.99    0.47
   4  -1 -13    4.54    0.48
  -4  -1  13    4.53    0.39
  -4  -1  13    5.06    0.42
  -4   1  13    4.80    0.41
  -4   1  13    4.68    0.40
  -3  -1  13    8.43    0.53
  -3  -1  13    8.65    0.51
   3  -1 -13    7.66    0.62
  -3   1  13    8.11    0.50
   3   1 -13    7.60    0.59
  -3   1  13    8.15    0.51
  -2  -1  13   11.66    0.64
   2  -1 -13   10.62    0.74
  -2  -1  13   10.90    0.59
   2   1 -13   11.42    0.72
  -2   1  13   10.61    0.61
  -2   1  13   11.17    0.58
   1  -1 -13    6.04    0.63
   1   1 -13    7.07    0.63
  -1   1  13    5.96    0.43
  -6  -2  13    0.16    0.23
  -6   2  13    0.42    0.23
  -5  -2  13    0.13    0.22
  -5   2  13    0.17    0.18
  -5   2  13    0.27    0.22
  -4  -2  13    0.42    0.22
   4  -2 -13    0.21    0.28
  -4   2  13    0.08    0.15
  -4   2  13    0.07    0.20
   3  -2 -13    0.92    0.35
  -3  -2  13    1.00    0.25
  -3  -2  13    0.87    0.21
  -3   2  13    0.94    0.21
  -3   2  13    0.89    0.24
   2  -2 -13    2.93    0.46
  -2  -2  13    2.15    0.29
  -2   2  13    2.92    0.32
   2   2 -13    2.62    0.40
  -2   2  13    3.20    0.38
   1  -2 -13    5.84    0.63
  -1   2  13    5.50    0.47
  -1   2  13    4.95    0.39
   1   2 -13    5.89    0.61
  -6  -3  13    2.29    0.34
  -5  -3  13    6.71    0.51
  -5   3  13    6.46    0.48
  -5   3  13    6.20    0.47
   4  -3 -13    5.17    0.52
  -4  -3  13    5.05    0.43
  -4   3  13    4.16    0.38
  -4   3  13    4.85    0.41
  -3  -3  13    9.37    0.55
  -3  -3  13    8.79    0.56
   3  -3 -13    9.29    0.68
  -3   3  13    9.01    0.55
  -3   3  13    9.41    0.53
   2  -3 -13    9.93    0.74
  -2   3  13    9.42    0.53
   2   3 -13    9.43    0.65
  -2   3  13   10.14    0.59
   1  -3 -13    6.98    0.68
   1   3 -13    7.48    0.66
  -1   3  13    7.43    0.46
  -1   3  13    6.75    0.51
   0  -3 -13    6.09    0.70
  -6  -4  13    0.48    0.26
   5  -4 -13    0.97    0.37
  -5  -4  13    0.90    0.27
  -5   4  13    0.53    0.21
  -5   4  13    0.81    0.24
  -4  -4  13    0.43    0.23
   4  -4 -13    0.30    0.30
  -4   4  13    0.36    0.20
  -4   4  13    0.20    0.16
   3  -4 -13    0.14    0.32
  -3   4  13    0.18    0.20
  -3   4  13   -0.06    0.14
   2  -4 -13    0.03    0.38
  -2   4  13    0.50    0.22
  -2   4  13    0.18    0.16
   1  -4 -13   -0.39    0.37
  -1   4  13    0.21    0.16
   1   4 -13    0.86    0.37
  -1   4  13    0.08    0.21
   0  -4 -13    0.78    0.43
   6  -5 -13    3.68    0.53
  -6  -5  13    5.41    0.49
  -5  -5  13    8.11    0.57
   5  -5 -13    7.69    0.68
  -5   5  13    7.95    0.52
  -5   5  13    8.00    0.51
   4  -5 -13    5.10    0.56
  -4   5  13    5.30    0.42
  -4   5  13    4.82    0.39
   3  -5 -13    6.88    0.64
  -3   5  13    6.55    0.44
  -3   5  13    7.25    0.48
   2  -5 -13    9.11    0.72
   2  -5 -13   -0.23    5.78
  -2   5  13    7.47    0.47
  -2   5  13    8.67    0.53
   1  -5 -13    2.27    0.48
  -1   5  13    1.78    0.24
  -1   5  13    1.65    0.29
   0  -5 -13    4.50    0.61
   6  -6 -13    1.41    0.42
   5  -6 -13    0.30    0.35
  -5   6  13    0.36    0.21
  -5   6  13   -0.01    0.16
   4  -6 -13    0.80    0.35
  -4   6  13    0.72    0.22
  -4   6  13    0.40    0.18
   3  -6 -13    0.36    0.34
  -3   6  13    0.47    0.22
  -3   6  13    0.35    0.17
   2  -6 -13    5.06    0.61
  -2   6  13    5.09    0.44
  -2   6  13    5.04    0.39
   1  -6 -13    2.93    0.49
  -1   6  13    2.34    0.32
  -1   6  13    2.66    0.30
   0  -6 -13    4.85    0.63
   0   6  13    3.91    0.35
   5  -7 -13    7.67    0.71
  -5   7  13    6.51    0.47
  -5   7  13    7.42    0.49
   4  -7 -13    4.57    0.57
  -4   7  13    4.63    0.40
  -4   7  13    4.39    0.37
   3  -7 -13    9.84    0.74
  -3   7  13    8.10    0.49
  -3   7  13    8.46    0.53
   2  -7 -13    7.83    0.70
  -2   7  13    6.41    0.43
  -2   7  13    6.98    0.48
   1  -7 -13    2.56    0.51
  -1   7  13    3.00    0.31
  -1   7  13    3.07    0.36
   0  -7 -13    3.12    0.57
   0   7  13    1.97    0.25
  -1  -7 -13    2.65    0.55
   5  -8 -13    0.18    0.37
  -5   8  13    0.38    0.20
  -5   8  13    0.15    0.16
   4  -8 -13    0.59    0.39
  -4   8  13    0.01    0.18
  -4   8  13    0.13    0.15
   3  -8 -13    0.05    0.35
  -3   8  13    0.31    0.21
  -3   8  13    0.22    0.15
   2  -8 -13   -0.19    0.38
  -2   8  13    0.31    0.15
  -2   8  13    0.09    0.20
   1  -8 -13   -0.05    0.41
  -1   8  13    0.19    0.15
  -1   8  13    0.11    0.20
   0  -8 -13    0.02    0.42
   0   8  13    0.06    0.14
   0   8  13    0.28    0.22
  -1  -8 -13    1.32    0.54
   5  -9 -13    4.49    0.63
  -5   9  13    4.51    0.38
   4  -9 -13    5.37    0.62
  -4   9  13    5.55    0.42
  -4   9  13    4.65    0.39
   3  -9 -13    4.16    0.57
  -3   9  13    4.21    0.40
  -3   9  13    3.98    0.36
   2  -9 -13    7.07    0.69
  -2   9  13    6.40    0.46
  -2   9  13    5.90    0.41
   1  -9 -13    3.42    0.58
  -1   9  13    3.49    0.32
  -1   9  13    3.60    0.38
   0  -9 -13    2.44    0.52
   0   9  13    2.10    0.26
   0   9  13    2.00    0.30
  -1  -9 -13    0.52    0.46
  -2   9 -13    0.44    0.30
   4 -10 -13   -0.18    0.34
  -4  10  13    0.15    0.18
  -4  10  13    0.05    0.14
   3 -10 -13   -0.04    0.37
  -3  10  13    0.13    0.14
  -3  10  13    0.22    0.19
   2 -10 -13    1.19    0.46
  -2  10  13    1.42    0.22
  -2  10  13    1.86    0.28
   1 -10 -13    3.39    0.58
  -1  10  13    2.83    0.30
  -1  10  13    2.97    0.37
   0 -10 -13    3.26    0.59
   0  10  13    3.13    0.32
   0  10  13    3.25    0.39
  -1 -10 -13    2.51    0.60
  -2  10 -13    1.56    0.35
   4 -11 -13    3.32    0.55
  -4  11  13    2.96    0.33
   3 -11 -13    4.85    0.64
  -3  11  13    5.44    0.39
  -3  11  13    5.44    0.42
   2 -11 -13    5.16    0.68
  -2  11  13    4.80    0.37
  -2  11  13    5.90    0.44
   1 -11 -13    2.53    0.57
  -1  11  13    2.65    0.33
  -1  11  13    2.75    0.30
   0 -11 -13    0.83    0.47
   0  11  13    1.50    0.28
   0  11  13    1.37    0.23
  -1  11 -13    1.04    0.30
  -2  11 -13    0.09    0.27
  -4  12  13    0.11    0.14
   3 -12 -13    0.01    0.39
  -3  12  13    0.24    0.18
  -3  12  13    0.03    0.13
   2 -12 -13   -0.29    0.40
  -2  12  13    0.20    0.14
  -2  12  13   -0.11    0.18
   1 -12 -13   -0.27    0.40
  -1  12  13    0.27    0.16
  -1  12  13    0.01    0.20
   0  12  13    0.03    0.14
   0  12  13   -0.17    0.19
  -1  12 -13   -0.03    0.24
  -3  13  13    3.30    0.32
  -2  13  13    2.50    0.31
  -2  13  13    2.81    0.30
  -1  13  13    2.52    0.32
  -1  13  13    2.62    0.31
   0  13  13    0.57    0.23
   0  13  13    0.86    0.20
  -1  13 -13    0.15    0.25
  -2  14  13    0.81    0.19
  -1  14  13    1.77    0.28
  -1  14  13    1.29    0.23
   0  14  13    1.61    0.25
   0  14  13    1.54    0.29
  -5   0  14    3.78    0.40
  -4   0  14   12.93    0.69
  -4   0  14   13.10    0.69
   3   0 -14    7.02    0.58
  -3   0  14    6.95    0.48
  -3   0  14    7.35    0.50
   2   0 -14   12.02    0.78
  -2   0  14   10.91    0.61
   1   0 -14   14.98    0.90
  -5  -1  14    0.44    0.23
  -5   1  14    0.53    0.23
  -4  -1  14    0.91    0.23
  -4  -1  14    1.07    0.27
  -4   1  14    0.99    0.23
  -4   1  14    1.05    0.26
   3  -1 -14   -0.46    0.27
  -3  -1  14   -0.01    0.15
  -3   1  14    0.18    0.16
  -3   1  14    0.22    0.21
   2  -1 -14   -0.33    0.32
  -2   1  14    0.05    0.15
   2   1 -14   -0.20    0.30
   1  -1 -14    0.21    0.37
   1   1 -14    0.36    0.36
   0  -1 -14    1.20    0.45
  -5  -2  14    0.38    0.23
  -5   2  14   -0.05    0.17
  -5   2  14    0.06    0.20
   4  -2 -14    0.77    0.31
  -4  -2  14    0.35    0.23
  -4   2  14    0.63    0.23
  -4   2  14    0.37    0.19
  -3  -2  14   -0.06    0.15
   3  -2 -14   -0.09    0.28
  -3   2  14    0.25    0.21
  -3   2  14   -0.17    0.14
   2  -2 -14   -0.59    0.30
  -2   2  14    0.21    0.21
  -2   2  14   -0.04    0.14
   2   2 -14   -0.35    0.30
   1  -2 -14   -0.26    0.34
   1   2 -14   -0.12    0.33
   0  -2 -14    0.76    0.43
  -5  -3  14    2.56    0.34
  -5   3  14    2.25    0.31
  -5   3  14    2.03    0.29
   4  -3 -14    0.66    0.32
  -4   3  14    0.35    0.21
  -4   3  14    0.50    0.20
   3  -3 -14    0.05    0.30
  -3   3  14    0.15    0.20
  -3   3  14    0.08    0.16
   2  -3 -14   -0.11    0.33
  -2   3  14    0.10    0.15
  -2   3  14    0.79    0.24
   1  -3 -14    0.09    0.37
   1   3 -14    0.43    0.34
   0  -3 -14    1.06    0.46
   5  -4 -14    5.26    0.56
  -5   4  14    4.41    0.42
   4  -4 -14   12.83    0.80
  -4   4  14   12.98    0.68
  -4   4  14   12.60    0.68
   3  -4 -14    8.22    0.67
  -3   4  14    8.55    0.54
  -3   4  14    8.36    0.51
   2  -4 -14    9.70    0.72
  -2   4  14    9.17    0.58
  -2   4  14    8.50    0.52
   1  -4 -14   10.67    0.78
  -1   4  14   10.21    0.57
   0  -4 -14    4.75    0.64
   5  -5 -14    0.51    0.35
  -5   5  14    0.13    0.19
   4  -5 -14    2.18    0.42
  -4   5  14    1.30    0.25
  -4   5  14    1.65    0.28
   3  -5 -14   -0.16    0.31
  -3   5  14    0.04    0.20
  -3   5  14    0.05    0.15
   2  -5 -14   -0.26    0.35
  -2   5  14    0.19    0.16
  -2   5  14    0.19    0.22
   1  -5 -14   -0.21    0.35
  -1   5  14    0.11    0.15
   0  -5 -14   -0.07    0.43
   5  -6 -14    0.02    0.32
   4  -6 -14    0.25    0.33
  -4   6  14    0.16    0.16
  -4   6  14    0.17    0.20
   3  -6 -14    0.11    0.34
  -3   6  14   -0.04    0.19
  -3   6  14    0.24    0.16
   2  -6 -14   -0.46    0.35
  -2   6  14   -0.01    0.14
  -2   6  14    0.05    0.21
   1  -6 -14   -0.42    0.36
  -1   6  14    0.14    0.15
   0  -6 -14   -0.08    0.45
   4  -7 -14    0.56    0.37
  -4   7  14    0.45    0.22
  -4   7  14    0.58    0.20
   3  -7 -14    0.13    0.34
  -3   7  14   -0.12    0.20
  -3   7  14   -0.08    0.14
   2  -7 -14   -0.35    0.37
  -2   7  14    0.01    0.15
  -2   7  14   -0.12    0.21
   1  -7 -14   -0.54    0.39
  -1   7  14    0.04    0.22
  -1   7  14    0.19    0.16
   0  -7 -14    0.13    0.44
   4  -8 -14    8.43    0.70
  -4   8  14    6.97    0.48
   3  -8 -14    7.33    0.69
  -3   8  14    6.89    0.47
  -3   8  14    8.30    0.53
   2  -8 -14    7.39    0.71
  -2   8  14    6.75    0.51
  -2   8  14    6.82    0.46
   1  -8 -14    7.38    0.76
  -1   8  14    7.31    0.48
  -1   8  14    7.89    0.54
   0  -8 -14    4.06    0.62
  -4   9  14    0.51    0.19
   3  -9 -14    0.00    0.35
  -3   9  14    0.24    0.16
  -3   9  14    0.19    0.21
   2  -9 -14   -0.18    0.40
  -2   9  14    0.31    0.16
  -2   9  14    0.45    0.22
   1  -9 -14   -0.54    0.41
  -1   9  14    0.18    0.16
  -1   9  14    0.06    0.21
  -3  10  14    0.28    0.21
  -3  10  14    0.19    0.16
   2 -10 -14   -0.49    0.37
  -2  10  14    0.01    0.20
  -2  10  14    0.21    0.15
  -1  10  14    0.08    0.14
  -1  10  14    0.17    0.22
  -3  11  14    0.14    0.16
  -2  11  14    0.11    0.21
  -2  11  14   -0.05    0.14
  -1  11  14    0.29    0.16
  -1  11  14    0.26    0.22
  -2  12  14    4.85    0.39
  -1  12  14    5.18    0.40
   0  12  14    3.74    0.36
  -4   0  15   -0.06    0.20
  -4   0  15    0.16    0.17
   2   0 -15   -0.21    0.33
   1   0 -15    0.24    0.37
   0   0 -15    1.31    0.45
  -4   1  15    0.32    0.19
  -4   1  15    0.55    0.22
  -3   1  15    3.36    0.39
   2  -1 -15    3.02    0.49
   1  -1 -15    2.16    0.47
   1   1 -15    2.24    0.46
   0  -1 -15    2.50    0.51
   0   1 -15    2.99    0.52
  -4   2  15    1.52    0.27
  -4   2  15    1.50    0.29
   3  -2 -15    6.28    0.59
  -3   2  15    6.34    0.50
  -3   2  15    5.72    0.46
   2  -2 -15    0.57    0.39
   1  -2 -15   -0.01    0.38
   1   2 -15   -0.23    0.35
   0  -2 -15    0.86    0.44
   0   2 -15    1.02    0.42
  -4   3  15    1.00    0.25
  -4   3  15    0.81    0.22
   3  -3 -15    2.33    0.43
  -3   3  15    1.90    0.29
  -3   3  15    2.33    0.33
   2  -3 -15    1.57    0.44
   1  -3 -15    1.91    0.47
   0   3 -15    2.73    0.50
   4  -4 -15    0.07    0.29
  -4   4  15    0.46    0.20
   3  -4 -15    0.47    0.34
  -3   4  15    0.37    0.23
  -3   4  15    0.34    0.18
   2  -4 -15   -0.37    0.36
  -2   4  15    0.18    0.17
   1  -4 -15   -0.35    0.36
  -4   5  15    1.59    0.27
   3  -5 -15    4.34    0.54
  -3   5  15    4.01    0.43
  -3   5  15    3.90    0.39
   2  -5 -15    2.35    0.48
  -2   5  15    2.39    0.30
   1  -5 -15    1.42    0.46
   3  -6 -15    1.98    0.43
  -3   6  15    1.94    0.32
  -3   6  15    1.42    0.25
   2  -6 -15    0.58    0.40
  -2   6  15    0.51    0.19
  -2   6  15    0.93    0.27
  -3   7  15    1.84    0.28
  -2   7  15    1.48    0.30
  -2   7  15    1.11    0.23
  -2   8  15    0.25    0.17
  -2   8  15    0.09    0.21
  -2   9  15    1.68    0.26
  -1   9  15    1.04    0.23
   0   0   0    0.00    0.00
;
_shelx_hkl_checksum              97523
_olex2_submission_special_instructions 'No special instructions were received'
loop_
_space_group_symop_operation_xyz
'x, y, z'
'-x, y+1/2, -z+1/2'
'-x, -y, -z'
'x, -y-1/2, z-1/2'
loop_
_atom_site_label
_atom_site_type_symbol
_atom_site_fract_x
_atom_site_fract_y
_atom_site_fract_z
_atom_site_U_iso_or_equiv
_atom_site_adp_type
_atom_site_occupancy
_atom_site_site_symmetry_order
_atom_site_calc_flag
_atom_site_refinement_flags_posn
_atom_site_refinement_flags_adp
_atom_site_refinement_flags_occupancy
_atom_site_disorder_assembly
_atom_site_disorder_group
I1 I 0.47324(3) 0.37501(2) 0.06835(2) 0.03754(9) Uani 1 1 d . . . . .
O2 O 0.3550(5) 0.29066(12) 0.1381(2) 0.0564(6) Uani 1 1 d . . . . .
O3 O 0.2674(5) 0.45543(15) 0.0471(3) 0.0611(6) Uani 1 1 d . . . . .
O1 O 0.5281(6) 0.3459(2) -0.0892(3) 0.0739(9) Uani 1 1 d . . . . .
O4 O 0.7544(5) 0.39982(18) 0.1784(4) 0.0669(7) Uani 1 1 d . . . . .
C4 C 0.1049(6) 0.37900(13) 0.5363(3) 0.0376(5) Uani 1 1 d . . . . .
C6 C 0.2241(6) 0.36692(16) 0.4189(3) 0.0417(6) Uani 1 1 d . . . . .
N1 N 0.0744(5) 0.45644(16) 0.7253(3) 0.0456(5) Uani 1 1 d . . . . .
C5 C 0.1790(6) 0.44299(17) 0.6208(3) 0.0416(5) Uani 1 1 d . . . . .
C3 C -0.0786(6) 0.33016(18) 0.5607(3) 0.0459(6) Uani 1 1 d . . . . .
C1 C -0.1024(6) 0.4100(2) 0.7524(3) 0.0486(7) Uani 1 1 d . . . . .
H8 H -0.170717 0.421377 0.826291 0.058 Uiso 1 1 calc R U . . .
C2 C -0.1840(7) 0.3450(2) 0.6705(4) 0.0529(7) Uani 1 1 d . . . . .
O5 O 0.1604(5) 0.29988(13) 0.3555(2) 0.0530(6) Uani 1 1 d . . . . .
O6 O 0.3622(6) 0.41549(17) 0.3888(3) 0.0673(7) Uani 1 1 d . . . . .
H3 H 0.313(7) 0.483(2) 0.615(4) 0.055(10) Uiso 1 1 d . . . . .
H7 H 0.237(7) 0.285(2) 0.276(4) 0.067(11) Uiso 1 1 d . . . . .
H4 H -0.117(8) 0.276(3) 0.507(5) 0.075(12) Uiso 1 1 d . . . . .
H5 H -0.297(8) 0.303(3) 0.688(4) 0.067(12) Uiso 1 1 d . . . . .
H2 H 0.127(6) 0.494(2) 0.778(3) 0.040(8) Uiso 1 1 d . . . . .
loop_
_atom_site_aniso_label
_atom_site_aniso_U_11
_atom_site_aniso_U_22
_atom_site_aniso_U_33
_atom_site_aniso_U_23
_atom_site_aniso_U_13
_atom_site_aniso_U_12
I1 0.04414(14) 0.03286(11) 0.03913(13) -0.00226(5) 0.01677(9) -0.00175(5)
O2 0.0909(18) 0.0386(9) 0.0502(13) -0.0063(8) 0.0386(13) -0.0143(10)
O3 0.0629(15) 0.0542(12) 0.0683(16) 0.0038(11) 0.0189(12) 0.0177(11)
O1 0.115(3) 0.0648(15) 0.0603(16) -0.0198(12) 0.0590(17) -0.0218(15)
O4 0.0506(15) 0.0572(13) 0.085(2) 0.0067(14) -0.0010(13) -0.0062(12)
C4 0.0396(14) 0.0394(12) 0.0356(13) 0.0043(8) 0.0117(11) 0.0068(9)
C6 0.0468(16) 0.0458(14) 0.0351(14) 0.0042(9) 0.0142(12) 0.0044(11)
N1 0.0499(15) 0.0477(12) 0.0390(13) -0.0052(10) 0.0095(10) 0.0045(11)
C5 0.0417(14) 0.0450(13) 0.0379(13) 0.0031(10) 0.0085(11) 0.0001(11)
C3 0.0498(15) 0.0406(13) 0.0528(17) -0.0004(10) 0.0230(13) 0.0004(12)
C1 0.0521(17) 0.0545(16) 0.0443(16) -0.0044(13) 0.0217(14) 0.0048(14)
C2 0.060(2) 0.0495(16) 0.0567(19) -0.0035(14) 0.0282(16) -0.0034(16)
O5 0.0734(16) 0.0496(11) 0.0430(12) -0.0033(9) 0.0280(11) 0.0005(11)
O6 0.080(2) 0.0700(16) 0.0631(16) -0.0063(13) 0.0392(14) -0.0213(15)
loop_
_atom_type_symbol
_atom_type_description
_atom_type_scat_dispersion_real
_atom_type_scat_dispersion_imag
_atom_type_scat_source
C C 0.0033 0.0016 'International Tables Vol C Tables 4.2.6.8 and 6.1.1.4'
H H 0.0000 0.0000 'International Tables Vol C Tables 4.2.6.8 and 6.1.1.4'
N N 0.0061 0.0033 'International Tables Vol C Tables 4.2.6.8 and 6.1.1.4'
O O 0.0106 0.0060 'International Tables Vol C Tables 4.2.6.8 and 6.1.1.4'
I I -0.4742 1.8119 'International Tables Vol C Tables 4.2.6.8 and 6.1.1.4'
loop_
_geom_angle_atom_site_label_1
_geom_angle_atom_site_label_2
_geom_angle_atom_site_label_3
_geom_angle
_geom_angle_site_symmetry_1
_geom_angle_site_symmetry_3
_geom_angle_publ_flag
O3 I1 O2 111.66(13) . . ?
O3 I1 O4 111.40(14) . . ?
O1 I1 O2 107.07(12) . . ?
O1 I1 O3 110.23(15) . . ?
O1 I1 O4 108.96(15) . . ?
O4 I1 O2 107.36(14) . . ?
C5 C4 C6 118.0(3) . . ?
C5 C4 C3 119.1(3) . . ?
C3 C4 C6 122.8(3) . . ?
O5 C6 C4 112.6(3) . . ?
O6 C6 C4 122.0(3) . . ?
O6 C6 O5 125.4(3) . . ?
C5 N1 C1 122.6(3) . . ?
N1 C5 C4 119.8(3) . . ?
C4 C3 C2 120.1(3) . . ?
N1 C1 C2 119.9(3) . . ?
C1 C2 C3 118.4(3) . . ?
loop_
_geom_bond_atom_site_label_1
_geom_bond_atom_site_label_2
_geom_bond_distance
_geom_bond_site_symmetry_2
_geom_bond_publ_flag
I1 O2 1.7714(19) . ?
I1 O3 1.754(2) . ?
I1 O1 1.753(2) . ?
I1 O4 1.760(3) . ?
C4 C6 1.496(4) . ?
C4 C5 1.375(4) . ?
C4 C3 1.377(4) . ?
C6 O5 1.303(4) . ?
C6 O6 1.207(4) . ?
N1 C5 1.333(4) . ?
N1 C1 1.334(4) . ?
C3 C2 1.388(4) . ?
C1 C2 1.381(5) . ?
