#------------------------------------------------------------------------------
#$Date: 2016-03-26 15:59:37 +0200 (Sat, 26 Mar 2016) $
#$Revision: 180326 $
#$URL: svn://www.crystallography.net/cod/cif/7/15/40/7154021.cif $
#------------------------------------------------------------------------------
#
# This file is available in the Crystallography Open Database (COD),
# http://www.crystallography.net/
#
# All data on this site have been placed in the public domain by the
# contributors.
#
data_7154021
loop_
_publ_author_name
'Cogswell, Thomas J.'
'Donald, Craig S.'
'Long, De-Liang'
'Marquez, Rodolfo'
_publ_section_title
;
 Short and efficient synthesis of fluorinated \d-lactams.
;
_journal_issue                   3
_journal_name_full               'Organic &amp; biomolecular chemistry'
_journal_page_first              717
_journal_page_last               728
_journal_paper_doi               10.1039/c4ob01547a
_journal_volume                  13
_journal_year                    2015
_chemical_formula_sum            'C11 H12 F N O'
_chemical_formula_weight         193.22
_chemical_name_systematic
;
 ?
;
_space_group_crystal_system      triclinic
_space_group_IT_number           2
_space_group_name_Hall           '-P 1'
_space_group_name_H-M_alt        'P -1'
_symmetry_space_group_name_Hall  '-P 1'
_symmetry_space_group_name_H-M   'P -1'
_atom_sites_solution_hydrogens   geom
_atom_sites_solution_primary     direct
_atom_sites_solution_secondary   difmap
_audit_creation_method           SHELXL-2013
_cell_angle_alpha                110.410(2)
_cell_angle_beta                 96.980(2)
_cell_angle_gamma                92.353(2)
_cell_formula_units_Z            2
_cell_length_a                   6.0469(2)
_cell_length_b                   9.1864(3)
_cell_length_c                   9.4011(3)
_cell_measurement_reflns_used    6489
_cell_measurement_temperature    150(2)
_cell_measurement_theta_max      26.4
_cell_measurement_theta_min      2.34
_cell_volume                     483.85(3)
_computing_cell_refinement
;
CrysAlisPro, Agilent Technologies,
Version 1.171.35.11 (release 16-05-2011 CrysAlis171 .NET)
(compiled May 16 2011,17:55:39)
;
_computing_data_collection
;
CrysAlisPro, Agilent Technologies,
Version 1.171.35.11 (release 16-05-2011 CrysAlis171 .NET)
(compiled May 16 2011,17:55:39)
;
_computing_data_reduction
;
CrysAlisPro, Agilent Technologies,
Version 1.171.35.11 (release 16-05-2011 CrysAlis171 .NET)
(compiled May 16 2011,17:55:39)
;
_computing_molecular_graphics    Mecurry
_computing_publication_material  WinGX
_computing_structure_refinement  'SHELXL-2013 (Sheldrick, 2013)'
_computing_structure_solution    'SHELXS-97 (Sheldrick, 2008)'
_diffrn_ambient_temperature      150(2)
_diffrn_measured_fraction_theta_full 1.000
_diffrn_measured_fraction_theta_max 1.000
_diffrn_measurement_device_type  'Xcalibur, Atlas, Gemini Ultra'
_diffrn_measurement_method       '\w & \p scans'
_diffrn_radiation_type           MoK\a
_diffrn_radiation_wavelength     0.71073
_diffrn_reflns_av_R_equivalents  0.0315
_diffrn_reflns_av_unetI/netI     0.0174
_diffrn_reflns_Laue_measured_fraction_full 1.000
_diffrn_reflns_Laue_measured_fraction_max 1.000
_diffrn_reflns_limit_h_max       7
_diffrn_reflns_limit_h_min       -7
_diffrn_reflns_limit_k_max       11
_diffrn_reflns_limit_k_min       -11
_diffrn_reflns_limit_l_max       11
_diffrn_reflns_limit_l_min       -11
_diffrn_reflns_number            14096
_diffrn_reflns_point_group_measured_fraction_full 1.000
_diffrn_reflns_point_group_measured_fraction_max 1.000
_diffrn_reflns_theta_full        25.242
_diffrn_reflns_theta_max         25.986
_diffrn_reflns_theta_min         2.336
_diffrn_source                   'Enhance (Mo) X-ray Source'
_exptl_absorpt_coefficient_mu    0.098
_exptl_absorpt_correction_type   none
_exptl_absorpt_process_details   none
_exptl_crystal_colour            colourless
_exptl_crystal_density_diffrn    1.326
_exptl_crystal_density_method    none
_exptl_crystal_description       block
_exptl_crystal_F_000             204
_exptl_crystal_size_max          0.160
_exptl_crystal_size_mid          0.120
_exptl_crystal_size_min          0.070
_refine_diff_density_max         0.23
_refine_diff_density_min         -0.20
_refine_diff_density_rms         0.03
_refine_ls_extinction_coef       0.019(6)
_refine_ls_extinction_expression Fc^*^=kFc[1+0.001xFc^2^\l^3^/sin(2\q)]^-1/4^
_refine_ls_extinction_method     SHELXL
_refine_ls_goodness_of_fit_ref   1.086
_refine_ls_hydrogen_treatment    constr
_refine_ls_matrix_type           full
_refine_ls_number_parameters     128
_refine_ls_number_reflns         1907
_refine_ls_number_restraints     0
_refine_ls_restrained_S_all      1.086
_refine_ls_R_factor_all          0.0396
_refine_ls_R_factor_gt           0.0349
_refine_ls_shift/su_max          0.001
_refine_ls_shift/su_mean         0.000
_refine_ls_structure_factor_coef Fsqd
_refine_ls_weighting_details
'w=1/[\s^2^(Fo^2^)+(0.0378P)^2^+0.1864P] where P=(Fo^2^+2Fc^2^)/3'
_refine_ls_weighting_scheme      calc
_refine_ls_wR_factor_gt          0.0883
_refine_ls_wR_factor_ref         0.0921
_reflns_Friedel_coverage         0.000
_reflns_number_gt                1711
_reflns_number_total             1907
_reflns_threshold_expression     'I > 2\s(I)'
_cod_data_source_file            c4ob01547a2.cif
_cod_data_source_block           tc317
_cod_depositor_comments          'Adding full bibliography for 7154021.cif.'
_cod_database_code               7154021
#BEGIN Tags that were not found in dictionaries:
_shelx_space_group_comment
;
The symmetry employed for this shelxl refinement is uniquely defined
by the following loop, which should always be used as a source of
symmetry information in preference to the above space-group names.
They are only intended as comments.
;
_shelx_estimated_absorpt_t_min   0.984
_shelx_estimated_absorpt_t_max   0.993
_shelxl_version_number           2013-4
_shelx_res_file
;
TITL tc317 in P-1
CELL  0.71073   6.0469   9.1864   9.4011  110.410   96.980   92.353
ZERR     2.00   0.0002   0.0003   0.0003    0.002    0.002    0.002
LATT   1
SFAC  C    H    N    O    F
UNIT  22   24   2    2    2
MERG   2
OMIT    -4.00  52.00
FMAP   2
PLAN    5
SIZE     0.070   0.120   0.160
ACTA
BOND
L.S.  14
TEMP  -123.14
WGHT    0.037800    0.186400
EXTI    0.018548
FVAR       0.47598
C1    1    0.951946    0.698842    0.677399    11.00000    0.02017    0.02083 =
         0.01887    0.00723    0.00334    0.00117
C2    1    0.913399    0.839343    0.815416    11.00000    0.02711    0.02546 =
         0.01895    0.00332    0.00173    0.00161
AFIX  13
H2    2    0.955020    0.816740    0.911373    11.00000   -1.20000
AFIX   0
C3    1    0.678216    0.886807    0.809971    11.00000    0.03317    0.03029 =
         0.02023    0.00347    0.00593    0.01186
AFIX  23
H3A   2    0.675945    0.993117    0.885809    11.00000   -1.20000
H3B   2    0.580605    0.814519    0.837399    11.00000   -1.20000
AFIX   0
C4    1    0.589475    0.884066    0.650644    11.00000    0.02933    0.02582 =
         0.02385    0.00637    0.00460    0.01084
AFIX  23
H4A   2    0.688676    0.954111    0.621505    11.00000   -1.20000
H4B   2    0.438038    0.921106    0.649775    11.00000   -1.20000
AFIX   0
C5    1    0.580301    0.718046    0.536933    11.00000    0.01816    0.02255 =
         0.02161    0.00872    0.00369    0.00370
AFIX  13
H5    2    0.467414    0.652763    0.563470    11.00000   -1.20000
AFIX   0
C6    1    0.509881    0.704443    0.372742    11.00000    0.02143    0.01713 =
         0.02128    0.00564    0.00144    0.00467
C7    1    0.288243    0.657685    0.306614    11.00000    0.02201    0.02642 =
         0.02866    0.00945    0.00182    0.00204
AFIX  43
H7    2    0.184021    0.633278    0.364657    11.00000   -1.20000
AFIX   0
C8    1    0.217500    0.646251    0.156867    11.00000    0.02535    0.03302 =
         0.03055    0.00739   -0.00630    0.00267
AFIX  43
H8    2    0.065251    0.614853    0.113344    11.00000   -1.20000
AFIX   0
C9    1    0.367692    0.680376    0.070537    11.00000    0.03749    0.03409 =
         0.02137    0.00842   -0.00221    0.01161
AFIX  43
H9    2    0.320081    0.670596   -0.032726    11.00000   -1.20000
AFIX   0
C10   1    0.588319    0.728974    0.136416    11.00000    0.03192    0.03674 =
         0.02649    0.01513    0.00685    0.00871
AFIX  43
H10   2    0.691866    0.754094    0.078339    11.00000   -1.20000
AFIX   0
C11   1    0.659204    0.741245    0.286330    11.00000    0.02166    0.03024 =
         0.02505    0.01133    0.00157    0.00335
AFIX  43
H11   2    0.810780    0.775015    0.330345    11.00000   -1.20000
AFIX   0
N1    3    0.798556    0.655293    0.552540    11.00000    0.02089    0.01957 =
         0.01718    0.00356    0.00228    0.00473
AFIX  43
H1    2    0.831048    0.581275    0.470827    11.00000   -1.20000
AFIX   0
O1    4    1.124284    0.632072    0.685276    11.00000    0.02169    0.02822 =
         0.02148    0.00438    0.00003    0.00643
F1    5    1.060591    0.962117    0.815906    11.00000    0.04043    0.02806 =
         0.04069   -0.00336    0.00526   -0.00822
HKLF    4

REM  tc317 in P-1
REM R1 =  0.0349 for    1711 Fo > 4sig(Fo)  and  0.0396 for all    1907 data
REM    128 parameters refined using      0 restraints

END

WGHT      0.0378      0.1864

REM Highest difference peak  0.229,  deepest hole -0.202,  1-sigma level  0.035
Q1    1   0.5429  0.7092  0.4425  11.00000  0.05    0.23
Q2    1   0.9190  0.7662  0.7469  11.00000  0.05    0.22
Q3    1   0.5922  0.8027  0.5866  11.00000  0.05    0.22
Q4    1   0.3989  0.7203  0.3599  11.00000  0.05    0.19
Q5    1   0.7864  0.8498  0.8026  11.00000  0.05    0.19
;
_shelx_res_checksum              22133
_shelx_hkl_file
;
  -1   0   0   15.22    0.49
  -1   0   0   15.56    0.55
  -1   0   0   14.50    0.59
  -1   0   0   15.06    0.52
  -1   0   0   15.05    0.53
  -1   0   0   14.66    0.54
  -1   0   0   14.01    0.53
  -1   0   0   15.00    0.54
   1   0   0   14.66    0.59
   1   0   0   14.38    0.52
   1   0   0   14.74    0.54
   1   0   0   15.69    0.55
   1   0   0   15.35    0.53
   1   0   0   14.94    0.51
   1   0   0   13.92    0.52
   1   0   0   12.83    0.52
  -2   0   0    8.40    0.37
  -2   0   0    7.93    0.35
  -2   0   0    9.28    0.40
  -2   0   0    8.68    0.35
  -2   0   0    8.55    0.37
  -2   0   0    8.71    0.36
  -2   0   0    8.94    0.39
   2   0   0    8.46    0.41
   2   0   0    8.92    0.39
   2   0   0    7.28    0.37
   2   0   0    8.74    0.37
   2   0   0    8.90    0.36
   2   0   0    8.35    0.35
   2   0   0    8.35    0.37
   2   0   0    8.78    0.44
  -3   0   0    8.09    0.41
  -3   0   0    8.43    0.43
  -3   0   0    8.05    0.40
  -3   0   0    8.53    0.48
   3   0   0    8.58    0.47
   3   0   0    7.93    0.50
   3   0   0    7.87    0.37
   3   0   0    7.65    0.38
   3   0   0    8.44    0.44
   3   0   0    7.72    0.41
  -4   0   0   17.56    0.74
  -4   0   0   18.24    0.79
  -4   0   0   17.54    0.77
  -4   0   0   18.15    0.72
   4   0   0   17.43    0.75
   4   0   0   18.29    0.73
   4   0   0   18.40    0.72
   4   0   0   17.60    0.79
   4   0   0   17.65    0.82
  -5   0   0    0.00    0.18
  -5   0   0   -0.02    0.22
  -5   0   0   -0.10    0.15
   5   0   0    0.08    0.13
   5   0   0   -0.12    0.17
   5   0   0    0.16    0.17
   5   0   0    0.32    0.15
  -6   0   0    3.50    0.37
  -6   0   0    4.00    0.43
   6   0   0    3.62    0.31
   6   0   0    3.02    0.39
   6   0   0    3.11    0.37
  -7   0   0    3.79    0.47
   7   0   0    3.75    0.46
   7   0   0    2.77    0.38
   7  -1   0    1.93    0.41
   7  -1   0    1.98    0.38
   7  -1   0    1.57    0.31
  -7   1   0    2.65    0.43
   6  -1   0    0.73    0.29
   6  -1   0    1.01    0.24
   6  -1   0    0.63    0.27
   6  -1   0    1.05    0.18
  -6   1   0    0.44    0.29
   5  -1   0    1.64    0.19
   5  -1   0    1.43    0.24
   5  -1   0    1.09    0.26
  -5   1   0    1.06    0.30
  -5   1   0    1.52    0.24
  -5   1   0    1.61    0.22
   4  -1   0    8.92    0.55
   4  -1   0    9.75    0.43
   4  -1   0    8.72    0.48
   4  -1   0   10.09    0.43
  -4   1   0    9.68    0.57
  -4   1   0   10.92    0.45
  -4   1   0    9.72    0.48
  -4   1   0    9.93    0.46
  -4   1   0    9.82    0.45
  -4   1   0   10.65    0.50
   3  -1   0  238.66    7.79
   3  -1   0  241.71    7.99
   3  -1   0  235.39    8.10
   3  -1   0  240.11    8.00
  -3   1   0  250.21    8.17
  -3   1   0  248.20    7.35
  -3   1   0  235.83    8.17
  -3   1   0  237.33    7.84
  -3   1   0  241.83    7.94
  -3   1   0  246.70    8.22
  -3   1   0  247.33    8.17
   2  -1   0    0.30    0.05
   2  -1   0    0.34    0.07
   2  -1   0    0.32    0.12
   2  -1   0    0.39    0.09
  -2   1   0    0.39    0.08
  -2   1   0    0.25    0.08
  -2   1   0    0.44    0.10
  -2   1   0    0.34    0.08
  -2   1   0    0.53    0.07
  -2   1   0    0.37    0.13
  -2   1   0    0.38    0.07
  -2   1   0    0.43    0.12
   1  -1   0   70.79    2.24
   1  -1   0   68.25    2.32
   1  -1   0   69.11    2.28
   1  -1   0   66.50    2.33
   1  -1   0   69.04    2.36
   1  -1   0   70.52    2.31
  -1   1   0   71.15    2.32
  -1   1   0   72.34    2.28
  -1   1   0   71.81    2.10
  -1   1   0   66.50    2.37
  -1   1   0   68.28    2.36
  -1   1   0   71.19    2.50
   0  -1   0    7.54    0.31
   0  -1   0    7.39    0.31
   0  -1   0    7.75    0.33
   0  -1   0    7.49    0.33
   0  -1   0    8.10    0.32
   0  -1   0    7.55    0.28
   0  -1   0    7.79    0.28
   0   1   0    7.37    0.28
   0   1   0    7.83    0.32
   0   1   0    7.49    0.31
   0   1   0    7.57    0.33
   0   1   0    7.63    0.31
   0   1   0    7.26    0.33
   0   1   0    7.92    0.32
  -1  -1   0   29.81    0.90
  -1  -1   0   28.65    1.04
  -1  -1   0   29.16    0.97
  -1  -1   0   29.57    1.03
  -1  -1   0   29.47    1.00
  -1  -1   0   26.94    1.02
  -1  -1   0   29.05    0.96
  -1  -1   0   27.80    1.04
  -1  -1   0   29.21    0.93
  -1  -1   0   28.62    1.01
   1   1   0   26.94    1.01
   1   1   0   28.04    0.88
   1   1   0   27.33    0.94
   1   1   0   27.38    1.01
   1   1   0   28.78    0.99
   1   1   0   29.34    1.02
   1   1   0   28.70    0.95
   1   1   0   28.88    1.01
   1   1   0   28.72    0.98
  -2  -1   0  240.69    9.29
  -2  -1   0  266.97    8.79
  -2  -1   0  257.61    8.35
  -2  -1   0  270.83    7.86
  -2  -1   0  262.39    7.99
  -2  -1   0  261.81    8.51
  -2  -1   0  270.86    8.71
  -2  -1   0  260.35    8.75
  -2  -1   0  258.21    8.30
   2   1   0  246.02    8.16
   2   1   0  265.53    8.64
   2   1   0  260.52    8.57
   2   1   0  252.92    8.61
   2   1   0  249.03    9.16
   2   1   0  254.69    8.60
   2   1   0  262.26    8.38
   2   1   0  262.25    8.58
  -3  -1   0    0.62    0.18
  -3  -1   0    0.55    0.08
  -3  -1   0    0.65    0.16
  -3  -1   0    0.39    0.18
  -3  -1   0    0.26    0.18
  -3  -1   0    0.53    0.11
   3   1   0    0.42    0.15
   3   1   0    0.29    0.13
   3   1   0    0.34    0.16
   3   1   0    0.48    0.19
   3   1   0    0.51    0.16
   3   1   0    0.74    0.17
  -4  -1   0    1.42    0.23
  -4  -1   0    0.69    0.20
  -4  -1   0    1.35    0.20
  -4  -1   0    1.01    0.19
   4   1   0    0.82    0.22
   4   1   0    0.92    0.18
   4   1   0    1.30    0.19
   4   1   0    0.88    0.19
   4   1   0    1.37    0.23
   4   1   0    1.21    0.20
  -5  -1   0   11.72    0.62
  -5  -1   0   10.68    0.57
  -5  -1   0   11.24    0.62
   5   1   0   10.75    0.63
   5   1   0   11.37    0.58
   5   1   0   11.33    0.64
   5   1   0   11.63    0.74
   5   1   0   11.86    0.58
  -6  -1   0   11.86    0.66
  -6  -1   0   11.23    0.65
   6   1   0   10.74    0.68
   6   1   0   11.49    0.69
   6   1   0   12.48    0.62
  -7  -1   0    4.99    0.49
   7   1   0    4.35    0.49
   7   1   0    4.15    0.37
   7   1   0    4.51    0.49
   7  -2   0    2.57    0.42
   7  -2   0    2.79    0.43
  -7   2   0    2.72    0.46
   6  -2   0    9.38    0.43
   6  -2   0    8.81    0.65
   6  -2   0    8.02    0.61
  -6   2   0    8.97    0.64
  -6   2   0    8.03    0.58
   5  -2   0   20.42    0.97
   5  -2   0   19.21    0.98
   5  -2   0   20.20    0.78
  -5   2   0   20.34    0.78
  -5   2   0   17.82    0.93
  -5   2   0   19.26    0.96
  -5   2   0   20.61    0.81
  -5   2   0   20.43    0.84
   4  -2   0   20.29    0.90
   4  -2   0   19.60    0.93
   4  -2   0   20.42    0.77
  -4   2   0   20.37    0.82
  -4   2   0   20.91    0.75
  -4   2   0   21.75    0.81
  -4   2   0   20.53    0.92
  -4   2   0   20.25    0.79
  -4   2   0   21.66    0.74
  -4   2   0   20.84    0.83
  -4   2   0   20.79    0.78
  -4   2   0   19.91    0.93
   3  -2   0    4.68    0.36
   3  -2   0    4.36    0.25
   3  -2   0    3.47    0.32
   3  -2   0    4.25    0.25
   3  -2   0    4.06    0.22
  -3   2   0    4.24    0.30
  -3   2   0    4.92    0.25
  -3   2   0    4.67    0.27
  -3   2   0    4.11    0.28
  -3   2   0    3.83    0.25
  -3   2   0    4.50    0.20
  -3   2   0    4.42    0.20
  -3   2   0    4.71    0.39
  -3   2   0    4.29    0.33
   2  -2   0   15.06    0.54
   2  -2   0   14.47    0.56
   2  -2   0   14.86    0.60
   2  -2   0   15.16    0.65
   2  -2   0   14.85    0.57
   2  -2   0   14.35    0.58
  -2   2   0   14.15    0.59
  -2   2   0   15.23    0.60
  -2   2   0   14.99    0.57
  -2   2   0   15.45    0.58
  -2   2   0   14.70    0.54
  -2   2   0   15.32    0.65
  -2   2   0   14.63    0.63
   1  -2   0  841.60   27.03
   1  -2   0  807.33   29.02
   1  -2   0  837.55   25.89
   1  -2   0  861.27   27.73
   1  -2   0  825.85   27.67
   1  -2   0  818.10   26.56
   1  -2   0  825.15   24.42
   1  -2   0  777.33   27.61
  -1   2   0  794.24   24.05
  -1   2   0  814.88   26.50
  -1   2   0  774.90   27.22
  -1   2   0  802.86   26.68
  -1   2   0  874.91   27.36
  -1   2   0  784.98   27.25
  -1   2   0  850.32   26.20
  -1   2   0  811.04   28.68
   0  -2   0  522.22   18.03
   0  -2   0  517.49   17.55
   0  -2   0  556.34   16.06
   0  -2   0  533.19   18.02
   0  -2   0  544.93   17.66
   0  -2   0  545.32   15.87
   0  -2   0  550.51   18.95
   0  -2   0  513.90   17.91
   0  -2   0  531.12   17.22
   0   2   0  533.25   17.46
   0   2   0  550.02   17.43
   0   2   0  479.07   17.69
   0   2   0  537.38   18.67
   0   2   0  529.41   15.93
   0   2   0  531.23   17.58
   0   2   0  504.01   17.69
   0   2   0  535.43   17.01
   0   2   0  528.75   15.64
   0   2   0  554.57   17.91
  -1  -2   0    1.98    0.16
  -1  -2   0    2.15    0.17
  -1  -2   0    1.97    0.14
  -1  -2   0    2.23    0.20
  -1  -2   0    2.09    0.20
  -1  -2   0    2.17    0.21
  -1  -2   0    2.11    0.18
  -1  -2   0    1.99    0.11
  -1  -2   0    2.18    0.17
   1   2   0    2.00    0.17
   1   2   0    1.67    0.16
   1   2   0    2.11    0.18
   1   2   0    1.75    0.19
   1   2   0    2.18    0.20
   1   2   0    2.00    0.14
   1   2   0    2.07    0.18
   1   2   0    1.85    0.11
   1   2   0    1.88    0.16
  -2  -2   0    6.03    0.40
  -2  -2   0    6.13    0.23
  -2  -2   0    6.33    0.36
  -2  -2   0    6.40    0.32
  -2  -2   0    5.81    0.37
  -2  -2   0    6.18    0.37
  -2  -2   0    6.31    0.32
   2   2   0    5.67    0.36
   2   2   0    5.79    0.33
   2   2   0    5.93    0.30
   2   2   0    5.82    0.32
   2   2   0    6.13    0.35
   2   2   0    5.60    0.22
   2   2   0    5.59    0.28
   2   2   0    5.75    0.36
   2   2   0    5.36    0.37
   2   2   0    5.42    0.37
  -3  -2   0    0.71    0.08
  -3  -2   0    0.66    0.16
  -3  -2   0    0.55    0.11
  -3  -2   0    0.38    0.15
  -3  -2   0    0.87    0.20
  -3  -2   0    0.79    0.19
   3   2   0    0.90    0.20
   3   2   0    0.55    0.18
   3   2   0    0.60    0.18
   3   2   0    0.50    0.13
   3   2   0    0.87    0.19
   3   2   0    0.97    0.19
  -4  -2   0    1.52    0.15
  -4  -2   0    1.80    0.26
  -4  -2   0    1.53    0.23
  -4  -2   0    1.39    0.26
  -4  -2   0    1.99    0.26
  -4  -2   0    2.24    0.14
   4   2   0    2.02    0.26
   4   2   0    1.79    0.23
   4   2   0    2.01    0.25
   4   2   0    1.77    0.30
   4   2   0    1.50    0.25
  -5  -2   0    1.90    0.30
  -5  -2   0    1.73    0.29
  -5  -2   0    1.72    0.27
   5   2   0    1.64    0.26
   5   2   0    1.56    0.27
   5   2   0    1.83    0.31
   5   2   0    2.05    0.34
   5   2   0    1.57    0.26
  -6  -2   0    6.99    0.56
  -6  -2   0    7.74    0.52
   6   2   0    7.47    0.49
   6   2   0    7.23    0.63
   6   2   0    6.36    0.49
   6   2   0    6.46    0.53
   6   2   0    7.03    0.49
   7   2   0    6.40    0.56
   7   2   0    7.15    0.50
   7  -3   0    1.01    0.31
  -7   3   0    2.03    0.43
   6  -3   0    0.34    0.12
   6  -3   0   -0.03    0.22
   6  -3   0    0.30    0.24
  -6   3   0    0.26    0.31
  -6   3   0    0.27    0.21
   5  -3   0    1.57    0.18
   5  -3   0    1.71    0.30
   5  -3   0    1.23    0.29
  -5   3   0    1.31    0.21
  -5   3   0    1.66    0.35
  -5   3   0    1.91    0.24
  -5   3   0    1.65    0.28
  -5   3   0    1.66    0.24
   4  -3   0    0.88    0.13
   4  -3   0    1.20    0.16
   4  -3   0    1.14    0.22
   4  -3   0    0.97    0.23
   4  -3   0    0.87    0.14
  -4   3   0    1.24    0.18
  -4   3   0    0.86    0.26
  -4   3   0    1.20    0.23
  -4   3   0    0.90    0.16
  -4   3   0    1.08    0.14
  -4   3   0    1.30    0.20
  -4   3   0    0.97    0.15
   3  -3   0   90.24    3.01
   3  -3   0   89.24    2.92
   3  -3   0   88.60    2.99
   3  -3   0   86.24    3.13
   3  -3   0   83.58    3.02
  -3   3   0   91.29    2.97
  -3   3   0   87.23    2.75
  -3   3   0   87.48    3.29
  -3   3   0   90.84    3.10
  -3   3   0   88.67    3.04
  -3   3   0   89.73    3.06
   2  -3   0   23.56    0.98
   2  -3   0   23.01    0.89
   2  -3   0   25.44    1.00
   2  -3   0   23.09    0.91
   2  -3   0   23.23    0.90
   2  -3   0   23.29    0.82
  -2   3   0   23.34    0.92
  -2   3   0   23.38    0.96
  -2   3   0   21.81    0.90
  -2   3   0   23.97    0.89
  -2   3   0   23.66    0.81
   1  -3   0   26.15    1.02
   1  -3   0   28.67    1.11
   1  -3   0   27.25    1.06
   1  -3   0   27.88    1.05
   1  -3   0   28.27    1.05
   1  -3   0   28.85    1.05
   1  -3   0   28.41    0.94
   1  -3   0   29.12    0.93
   1  -3   0   28.31    1.06
  -1   3   0   27.28    1.08
  -1   3   0   28.61    0.87
  -1   3   0   26.48    1.01
  -1   3   0   29.07    1.02
  -1   3   0   26.45    1.04
  -1   3   0   26.75    0.99
  -1   3   0   27.50    0.90
   0  -3   0  751.42   23.90
   0  -3   0  735.23   24.44
   0  -3   0  741.23   25.85
   0  -3   0  706.72   23.34
   0  -3   0  725.81   21.46
   0  -3   0  709.63   24.38
   0  -3   0  699.84   23.84
   0  -3   0  743.39   23.18
   0  -3   0  732.26   21.94
   0   3   0  710.12   23.40
   0   3   0  698.08   24.87
   0   3   0  716.93   21.19
   0   3   0  723.12   23.49
   0   3   0  717.37   21.08
   0   3   0  717.64   22.95
   0   3   0  670.03   23.54
   0   3   0  703.43   23.24
  -1  -3   0   73.81    2.52
  -1  -3   0   76.32    2.72
  -1  -3   0   78.04    2.35
  -1  -3   0   71.49    2.55
  -1  -3   0   74.03    2.55
  -1  -3   0   74.98    2.65
  -1  -3   0   74.06    2.63
   1   3   0   74.10    2.46
   1   3   0   73.47    2.29
   1   3   0   73.21    2.28
   1   3   0   73.22    2.57
   1   3   0   71.36    2.53
   1   3   0   72.94    2.66
   1   3   0   73.39    2.50
   1   3   0   69.45    2.37
  -2  -3   0    2.43    0.21
  -2  -3   0    2.86    0.31
  -2  -3   0    2.83    0.25
  -2  -3   0    2.28    0.26
  -2  -3   0    2.28    0.24
  -2  -3   0    2.27    0.28
   2   3   0    2.36    0.26
   2   3   0    2.11    0.14
   2   3   0    1.76    0.25
   2   3   0    2.20    0.23
   2   3   0    1.99    0.28
   2   3   0    2.32    0.26
  -3  -3   0   24.07    0.94
  -3  -3   0   23.71    1.01
  -3  -3   0   25.40    0.92
  -3  -3   0   25.69    1.07
  -3  -3   0   26.62    1.07
  -3  -3   0   24.86    1.06
   3   3   0   25.18    1.06
   3   3   0   26.36    1.06
   3   3   0   22.77    1.00
   3   3   0   25.18    1.10
  -4  -3   0    8.83    0.45
  -4  -3   0    8.35    0.41
  -4  -3   0    8.21    0.55
  -4  -3   0    7.90    0.52
  -4  -3   0    8.49    0.51
   4   3   0    7.84    0.54
   4   3   0    8.85    0.53
   4   3   0    8.67    0.59
   4   3   0    8.50    0.52
   4   3   0    8.25    0.44
  -5  -3   0    8.05    0.47
  -5  -3   0    7.01    0.55
  -5  -3   0    7.48    0.51
   5   3   0    6.74    0.53
   5   3   0    8.77    0.64
   5   3   0    7.74    0.46
   5   3   0    7.56    0.53
   5   3   0    7.92    0.51
  -6  -3   0    0.87    0.22
  -6  -3   0    0.70    0.30
   6   3   0    1.09    0.27
   6   3   0    1.08    0.33
   6   3   0    1.34    0.27
   6   3   0    0.95    0.28
   7  -4   0    1.38    0.34
  -7   4   0    1.18    0.42
   6  -4   0    0.27    0.23
   6  -4   0    0.57    0.25
  -6   4   0    0.08    0.31
  -6   4   0    0.39    0.22
   5  -4   0    2.41    0.23
   5  -4   0    1.78    0.30
   5  -4   0    2.26    0.36
  -5   4   0    1.96    0.39
  -5   4   0    2.42    0.33
  -5   4   0    2.46    0.30
   4  -4   0    9.04    0.46
   4  -4   0    8.55    0.58
   4  -4   0    8.86    0.50
   4  -4   0    9.58    0.45
   4  -4   0    8.62    0.44
  -4   4   0    9.19    0.51
  -4   4   0    9.93    0.62
  -4   4   0    9.33    0.50
  -4   4   0    8.91    0.44
  -4   4   0    8.80    0.55
  -4   4   0    9.26    0.36
  -4   4   0    8.51    0.44
   3  -4   0   12.65    0.66
   3  -4   0   11.73    0.46
   3  -4   0   12.08    0.55
   3  -4   0   12.50    0.55
   3  -4   0   11.38    0.56
  -3   4   0   11.34    0.61
  -3   4   0   12.35    0.58
  -3   4   0   12.45    0.58
  -3   4   0   11.52    0.51
  -3   4   0   12.19    0.56
   2  -4   0   18.29    0.81
   2  -4   0   17.98    0.76
   2  -4   0   18.79    0.83
   2  -4   0   17.89    0.75
   2  -4   0   18.69    0.62
   2  -4   0   17.52    0.68
   2  -4   0   17.14    0.77
  -2   4   0   18.34    0.59
  -2   4   0   18.09    0.76
  -2   4   0   16.86    0.79
  -2   4   0   18.04    0.67
  -2   4   0   17.54    0.76
  -2   4   0   17.77    0.79
  -2   4   0   18.58    0.73
   1  -4   0   49.07    1.79
   1  -4   0   50.75    1.75
   1  -4   0   46.40    1.55
   1  -4   0   46.51    1.76
   1  -4   0   47.68    1.75
   1  -4   0   51.99    1.87
   1  -4   0   46.13    1.72
   1  -4   0   49.80    1.62
  -1   4   0   47.03    1.71
  -1   4   0   49.28    1.78
  -1   4   0   49.06    1.70
  -1   4   0   48.28    1.83
  -1   4   0   46.48    1.72
  -1   4   0   46.30    1.52
  -1   4   0   47.69    1.50
   0  -4   0   47.74    1.64
   0  -4   0   46.93    1.62
   0  -4   0   46.02    1.73
   0  -4   0   49.06    1.71
   0  -4   0   47.03    1.51
   0  -4   0   45.55    1.75
   0  -4   0   46.23    1.69
   0  -4   0   49.96    1.81
   0  -4   0   45.67    1.69
   0   4   0   46.60    1.49
   0   4   0   45.93    1.66
   0   4   0   45.94    1.66
   0   4   0   45.21    1.75
   0   4   0   45.88    1.66
   0   4   0   47.04    1.66
   0   4   0   44.95    1.72
  -1  -4   0    1.98    0.27
  -1  -4   0    1.92    0.25
  -1  -4   0    2.08    0.28
  -1  -4   0    1.59    0.18
  -1  -4   0    1.91    0.23
  -1  -4   0    1.79    0.25
  -1  -4   0    2.40    0.26
   1   4   0    1.95    0.27
   1   4   0    1.87    0.27
   1   4   0    2.07    0.24
   1   4   0    1.86    0.24
   1   4   0    1.81    0.21
   1   4   0    1.46    0.23
  -2  -4   0  119.32    4.18
  -2  -4   0  112.36    4.04
  -2  -4   0  119.50    4.19
  -2  -4   0  124.34    4.05
  -2  -4   0  117.13    3.98
  -2  -4   0  120.83    4.32
   2   4   0  118.21    3.85
   2   4   0  114.75    4.04
   2   4   0  118.06    3.56
   2   4   0  112.47    3.92
   2   4   0  109.72    3.99
  -3  -4   0   20.06    0.83
  -3  -4   0   19.28    0.91
  -3  -4   0   19.33    0.87
  -3  -4   0   17.40    0.83
  -3  -4   0   19.20    0.88
  -3  -4   0   19.14    0.73
  -3  -4   0   17.83    0.79
   3   4   0   18.38    0.60
   3   4   0   18.06    0.87
   3   4   0   17.41    0.87
   3   4   0   18.48    0.77
   3   4   0   17.44    0.84
   3   4   0   18.62    0.85
  -4  -4   0   18.73    0.81
  -4  -4   0   20.28    0.80
  -4  -4   0   18.59    0.90
  -4  -4   0   20.94    0.97
  -4  -4   0   19.18    0.93
   4   4   0   20.50    1.01
   4   4   0   20.44    0.94
   4   4   0   18.66    0.94
   4   4   0   18.39    0.94
  -5  -4   0   -0.06    0.23
  -5  -4   0    0.20    0.15
   5   4   0   -0.01    0.21
   5   4   0    0.00    0.19
   5   4   0    0.34    0.22
   5   4   0    0.13    0.23
  -6  -4   0    0.14    0.26
   6   4   0    0.27    0.23
   6   4   0    0.15    0.23
   6   4   0    0.01    0.20
   6   4   0    0.47    0.23
   6  -5   0    5.14    0.50
   6  -5   0    5.34    0.58
  -6   5   0    4.19    0.47
  -6   5   0    6.27    0.65
   5  -5   0   16.54    0.72
  -5   5   0   14.64    0.81
  -5   5   0   15.24    0.87
  -5   5   0   14.65    0.76
   4  -5   0    1.16    0.29
   4  -5   0    1.81    0.23
   4  -5   0    1.47    0.23
  -4   5   0    2.09    0.24
  -4   5   0    1.56    0.25
  -4   5   0    1.50    0.28
  -4   5   0    1.58    0.22
  -4   5   0    1.46    0.34
   3  -5   0   15.03    0.71
   3  -5   0   15.60    0.66
   3  -5   0   15.07    0.79
   3  -5   0   15.79    0.59
   3  -5   0   16.11    0.71
   3  -5   0   15.31    0.71
  -3   5   0   14.12    0.74
  -3   5   0   15.77    0.66
  -3   5   0   15.36    0.50
  -3   5   0   14.10    0.61
  -3   5   0   15.40    0.70
  -3   5   0   16.15    0.75
  -3   5   0   14.52    0.71
   2  -5   0   71.65    2.63
   2  -5   0   74.03    2.67
   2  -5   0   72.52    2.34
   2  -5   0   73.47    2.65
   2  -5   0   78.50    2.82
   2  -5   0   71.54    2.58
   2  -5   0   76.04    2.39
  -2   5   0   73.80    2.54
  -2   5   0   74.86    2.63
  -2   5   0   73.39    2.51
  -2   5   0   71.72    2.56
  -2   5   0   68.75    2.72
  -2   5   0   74.42    2.22
  -2   5   0   68.24    2.27
   1  -5   0  217.31    7.49
   1  -5   0  220.81    7.33
   1  -5   0  216.18    7.41
   1  -5   0  227.75    7.85
   1  -5   0  221.36    7.50
   1  -5   0  211.58    7.21
   1  -5   0  216.55    6.58
   1  -5   0  224.35    6.98
  -1   5   0  209.44    6.87
  -1   5   0  211.21    7.15
  -1   5   0  209.76    6.98
  -1   5   0  204.56    6.26
  -1   5   0  204.24    7.46
  -1   5   0  209.95    6.30
  -1   5   0  211.98    6.92
   0  -5   0   81.40    2.94
   0  -5   0   79.35    2.85
   0  -5   0   83.34    2.88
   0  -5   0   82.27    2.57
   0  -5   0   80.47    2.81
   0  -5   0   83.31    2.98
   0  -5   0   86.14    3.07
   0   5   0   81.36    2.49
   0   5   0   80.47    2.74
   0   5   0   74.29    2.92
   0   5   0   79.36    2.86
   0   5   0   81.46    2.76
   0   5   0   77.36    2.77
   0   5   0   76.23    2.75
  -1  -5   0   26.75    1.12
  -1  -5   0   28.36    1.13
  -1  -5   0   27.46    0.99
  -1  -5   0   28.07    1.19
  -1  -5   0   28.91    1.18
   1   5   0   26.56    0.97
   1   5   0   26.32    1.07
   1   5   0   26.93    1.09
   1   5   0   26.28    1.09
   1   5   0   24.82    1.12
   1   5   0   26.91    1.15
  -2  -5   0   13.65    0.70
  -2  -5   0   13.92    0.73
  -2  -5   0   12.26    0.67
  -2  -5   0   14.18    0.67
  -2  -5   0   13.70    0.66
   2   5   0   12.19    0.65
   2   5   0   12.07    0.62
   2   5   0   12.62    0.61
   2   5   0   13.38    0.67
   2   5   0   12.35    0.69
   2   5   0   13.52    0.50
  -3  -5   0    0.45    0.23
  -3  -5   0    0.20    0.23
  -3  -5   0    0.34    0.18
  -3  -5   0    0.30    0.17
   3   5   0    0.02    0.16
   3   5   0    0.42    0.21
   3   5   0   -0.08    0.22
   3   5   0    0.19    0.08
   3   5   0   -0.13    0.15
  -4  -5   0    1.21    0.32
  -4  -5   0    1.17    0.23
  -4  -5   0    1.38    0.20
  -4  -5   0    1.17    0.28
   4   5   0    0.79    0.25
   4   5   0    1.14    0.29
   4   5   0    1.07    0.29
   4   5   0    1.08    0.29
  -5  -5   0    1.01    0.20
  -5  -5   0    0.56    0.30
   5   5   0    1.08    0.30
   5   5   0    1.00    0.30
   5   5   0    0.98    0.29
   5   5   0    1.21    0.31
  -6  -5   0    2.68    0.43
   6   5   0    2.66    0.43
   6   5   0    2.64    0.43
   6   5   0    2.55    0.45
  -6   6   0    0.30    0.22
  -6   6   0    0.35    0.32
   5  -6   0    8.14    0.64
   5  -6   0    9.94    0.52
  -5   6   0    8.12    0.56
  -5   6   0   10.62    0.74
  -5   6   0    8.81    0.61
   4  -6   0    0.29    0.23
   4  -6   0    0.24    0.17
   4  -6   0    0.19    0.16
  -4   6   0    0.01    0.18
  -4   6   0   -0.12    0.21
  -4   6   0    0.03    0.15
  -4   6   0    0.13    0.18
   3  -6   0   88.52    3.05
   3  -6   0   85.20    2.72
   3  -6   0   84.39    3.11
   3  -6   0   79.90    2.96
  -3   6   0   87.41    3.06
  -3   6   0   84.38    2.93
  -3   6   0   81.30    2.65
  -3   6   0   86.82    2.90
  -3   6   0   79.39    2.97
  -3   6   0   85.97    2.53
  -3   6   0   77.88    3.17
   2  -6   0    6.96    0.46
   2  -6   0    7.27    0.45
   2  -6   0    6.82    0.46
   2  -6   0    6.79    0.47
   2  -6   0    7.11    0.34
   2  -6   0    6.61    0.39
  -2   6   0    6.65    0.46
  -2   6   0    7.14    0.39
  -2   6   0    6.84    0.31
  -2   6   0    6.56    0.45
  -2   6   0    6.51    0.47
  -2   6   0    7.00    0.50
  -2   6   0    6.72    0.44
   1  -6   0    6.70    0.46
   1  -6   0    6.33    0.46
   1  -6   0    7.16    0.41
   1  -6   0    7.51    0.39
   1  -6   0    7.14    0.48
  -1   6   0    5.55    0.47
  -1   6   0    6.72    0.45
  -1   6   0    6.67    0.36
  -1   6   0    6.50    0.44
  -1   6   0    6.08    0.43
  -1   6   0    6.15    0.40
  -1   6   0    6.84    0.44
  -1   6   0    6.63    0.34
   0  -6   0   31.04    1.14
   0  -6   0   31.71    1.11
   0  -6   0   31.13    1.32
   0  -6   0   30.79    1.28
   0   6   0   30.08    1.26
   0   6   0   29.31    1.04
   0   6   0   28.28    1.19
   0   6   0   28.19    1.19
   0   6   0   27.76    1.18
   0   6   0   28.62    1.17
   0   6   0   29.68    1.25
  -1  -6   0  136.07    4.10
  -1  -6   0  135.15    4.73
  -1  -6   0  131.69    4.69
  -1  -6   0  127.71    4.55
   1   6   0  125.47    4.48
   1   6   0  126.44    4.42
   1   6   0  124.13    4.70
   1   6   0  134.62    4.59
   1   6   0  130.07    4.07
   1   6   0  128.75    4.04
   1   6   0  127.02    4.37
  -2  -6   0    0.63    0.25
  -2  -6   0    0.52    0.25
  -2  -6   0    0.53    0.16
   2   6   0    0.52    0.20
   2   6   0    0.24    0.12
   2   6   0    0.51    0.21
   2   6   0    0.57    0.24
   2   6   0    0.23    0.19
   2   6   0    0.27    0.24
  -3  -6   0   22.11    1.07
  -3  -6   0   21.55    1.07
   3   6   0   22.33    1.08
   3   6   0   19.35    1.01
   3   6   0   21.21    1.04
  -4  -6   0   10.04    0.70
  -4  -6   0   10.22    0.68
   4   6   0   10.42    0.70
   4   6   0   11.09    0.73
   4   6   0   12.24    0.77
   4   6   0   11.07    0.74
  -5  -6   0    3.67    0.49
   5   6   0    3.99    0.52
   5   6   0    3.38    0.49
   5   6   0    3.53    0.48
  -6   7   0    2.73    0.54
   5  -7   0    1.05    0.31
   5  -7   0    0.89    0.22
  -5   7   0    0.86    0.28
  -5   7   0    1.31    0.29
  -5   7   0    1.38    0.40
   4  -7   0    4.86    0.51
   4  -7   0    4.86    0.40
  -4   7   0    4.61    0.47
  -4   7   0    5.60    0.43
  -4   7   0    5.43    0.56
  -4   7   0    5.28    0.47
   3  -7   0    0.45    0.20
   3  -7   0    0.45    0.17
   3  -7   0    1.03    0.26
  -3   7   0    0.44    0.23
  -3   7   0    0.31    0.21
  -3   7   0    0.67    0.23
  -3   7   0    0.40    0.25
  -3   7   0    0.65    0.23
   2  -7   0  162.24    4.90
   2  -7   0  154.46    5.53
   2  -7   0  163.12    5.58
   2  -7   0  155.41    5.51
  -2   7   0  162.33    5.28
  -2   7   0  158.07    4.73
  -2   7   0  149.90    5.69
  -2   7   0  161.11    5.49
  -2   7   0  142.94    5.32
  -2   7   0  155.85    5.27
   1  -7   0   53.44    2.14
   1  -7   0   56.55    2.06
   1  -7   0   59.08    1.90
   1  -7   0   56.32    2.20
  -1   7   0   55.62    2.04
  -1   7   0   53.14    2.05
  -1   7   0   59.18    2.17
  -1   7   0   50.86    2.15
  -1   7   0   56.33    1.79
  -1   7   0   49.34    2.03
  -1   7   0   54.51    2.03
   0  -7   0    1.75    0.31
   0  -7   0    1.97    0.25
   0  -7   0    1.56    0.29
   0   7   0    1.80    0.33
   0   7   0    1.19    0.30
   0   7   0    1.72    0.27
   0   7   0    1.36    0.26
   0   7   0    1.54    0.23
   0   7   0    1.35    0.27
  -1  -7   0    0.05    0.14
  -1  -7   0    0.26    0.22
  -1  -7   0    0.54    0.24
   1   7   0    0.29    0.18
   1   7   0    0.38    0.22
   1   7   0   -0.02    0.21
   1   7   0    0.19    0.16
   1   7   0    0.34    0.24
   1   7   0    0.11    0.13
   1   7   0    0.21    0.19
  -2  -7   0    0.15    0.23
  -2  -7   0    0.12    0.16
  -2  -7   0    0.13    0.22
   2   7   0   -0.01    0.23
   2   7   0    0.03    0.24
   2   7   0    0.17    0.19
   2   7   0    0.24    0.13
   2   7   0    0.22    0.21
  -3  -7   0    9.00    0.68
  -3  -7   0   10.94    0.72
  -3  -7   0   10.52    0.57
   3   7   0    9.34    0.66
   3   7   0    9.79    0.70
   3   7   0    8.89    0.64
  -4  -7   0    0.52    0.28
  -4  -7   0    0.58    0.28
   4   7   0    0.30    0.22
   4   7   0    0.41    0.26
   4   7   0    1.31    0.33
  -5  -7   0    0.14    0.29
   5   7   0   -0.05    0.23
   5   7   0    0.24    0.26
   5   7   0    0.01    0.27
   5  -8   0    1.88    0.39
   5  -8   0    2.03    0.31
  -5   8   0    2.71    0.49
   4  -8   0    5.03    0.44
   4  -8   0    4.54    0.52
  -4   8   0    4.98    0.50
  -4   8   0    5.41    0.61
  -4   8   0    4.59    0.49
   3  -8   0    3.63    0.42
   3  -8   0    4.32    0.40
   3  -8   0    3.51    0.42
  -3   8   0    3.49    0.44
  -3   8   0    2.89    0.40
  -3   8   0    3.59    0.43
  -3   8   0    3.47    0.41
   2  -8   0   20.89    0.88
   2  -8   0   19.54    1.00
   2  -8   0   21.10    0.97
   2  -8   0   19.85    0.94
  -2   8   0   20.67    0.97
  -2   8   0   18.73    1.00
  -2   8   0   20.45    1.00
  -2   8   0   20.10    1.04
  -2   8   0   19.70    0.93
  -2   8   0   19.17    0.96
   1  -8   0    1.14    0.23
   1  -8   0    0.68    0.18
   1  -8   0    0.67    0.26
   1  -8   0    0.52    0.23
  -1   8   0    0.63    0.22
  -1   8   0    0.60    0.19
  -1   8   0    0.18    0.24
  -1   8   0    0.48    0.29
  -1   8   0    0.56    0.25
  -1   8   0    0.76    0.24
  -1   8   0    0.34    0.18
   0  -8   0    2.52    0.30
   0  -8   0    2.13    0.35
   0  -8   0    2.82    0.39
   0   8   0    2.70    0.35
   0   8   0    2.92    0.31
   0   8   0    2.54    0.37
   0   8   0    2.26    0.34
   0   8   0    1.98    0.35
   0   8   0    1.65    0.35
  -1  -8   0    7.84    0.61
  -1  -8   0    7.81    0.48
  -1  -8   0    8.32    0.62
   1   8   0    8.08    0.58
   1   8   0    7.29    0.59
   1   8   0    7.32    0.62
   1   8   0    8.00    0.45
   1   8   0    7.43    0.56
   1   8   0    7.71    0.50
   1   8   0    8.06    0.57
  -2  -8   0    0.33    0.27
  -2  -8   0    0.11    0.23
   2   8   0    0.08    0.27
   2   8   0    0.01    0.22
   2   8   0    0.28    0.23
   2   8   0    0.34    0.15
  -3  -8   0    1.48    0.35
  -3  -8   0    2.21    0.41
   3   8   0    1.55    0.39
   3   8   0    1.53    0.33
  -4  -8   0    2.65    0.46
  -4  -8   0    2.37    0.44
   4   8   0    2.40    0.43
   4   8   0    2.18    0.40
   4   8   0    2.89    0.47
   4  -9   0   -0.04    0.21
   4  -9   0   -0.15    0.19
  -4   9   0    0.05    0.30
   3  -9   0    0.17    0.21
   3  -9   0    0.04    0.20
  -3   9   0   -0.26    0.16
  -3   9   0   -0.21    0.23
   2  -9   0   51.41    2.10
   2  -9   0   54.63    2.17
   2  -9   0   52.46    2.04
  -2   9   0   51.78    2.05
  -2   9   0   48.54    2.18
  -2   9   0   56.79    2.08
  -2   9   0   50.58    2.09
  -2   9   0   52.31    2.19
   1  -9   0    3.79    0.47
   1  -9   0    3.12    0.42
  -1   9   0    2.60    0.37
  -1   9   0    3.25    0.45
  -1   9   0    3.02    0.44
  -1   9   0    3.30    0.48
  -1   9   0    3.58    0.45
   0  -9   0    1.24    0.31
   0   9   0    1.45    0.31
  -1  -9   0    0.55    0.27
  -1  -9   0   -0.11    0.21
   1   9   0   -0.07    0.25
   1   9   0   -0.09    0.19
   1   9   0    0.04    0.19
   1   9   0    0.20    0.16
  -2  -9   0    0.84    0.32
  -2  -9   0    0.66    0.30
   2   9   0    0.32    0.31
   2   9   0    1.29    0.30
  -3  -9   0    3.07    0.51
  -3  -9   0    2.78    0.46
   3   9   0    2.40    0.49
   3   9   0    3.49    0.48
   3 -10   0    0.48    0.26
  -3  10   0    0.65    0.24
   2 -10   0   20.01    1.08
   2 -10   0   18.93    1.02
  -2  10   0   16.30    0.89
   1 -10   0    7.17    0.62
   1 -10   0    7.19    0.59
  -1  10   0    6.64    0.56
  -1  10   0    8.69    0.73
   0 -10   0    2.89    0.47
   0 -10   0    2.55    0.43
   0  10   0    3.23    0.54
   0  10   0    2.61    0.40
   0  10   0    2.62    0.35
  -1 -10   0    3.43    0.48
  -1 -10   0    4.21    0.56
   1  10   0    4.06    0.59
   1  10   0    3.96    0.39
   1  10   0    3.91    0.50
  -2 -10   0    2.18    0.47
  -2 -10   0    2.52    0.44
   2  10   0    1.50    0.37
   2  10   0    2.41    0.50
   0  11  -1    1.40    0.35
   0  11  -1    1.52    0.46
   0 -11   1    1.41    0.38
   0 -11   1    1.85    0.39
  -1  11  -1    0.54    0.36
  -1  11  -1    0.98    0.28
   1 -11   1    1.23    0.34
   1 -11   1    0.42    0.27
   2  10  -1    2.02    0.37
   2  10  -1    2.56    0.51
  -2 -10   1    2.67    0.47
  -2 -10   1    2.34    0.45
   1  10  -1   -0.05    0.28
   1  10  -1   -0.06    0.19
   1  10  -1    0.12    0.17
   1  10  -1    0.33    0.21
  -1 -10   1    0.09    0.24
  -1 -10   1    0.19    0.25
   0  10  -1    0.00    0.20
   0  10  -1    0.09    0.21
   0  10  -1    0.05    0.26
   0 -10   1    0.11    0.23
   0 -10   1    0.13    0.23
  -1  10  -1    4.14    0.47
  -1  10  -1    3.96    0.58
   1 -10   1    3.86    0.52
   1 -10   1    4.48    0.51
  -2  10  -1    3.66    0.54
  -2  10  -1    3.14    0.40
   2 -10   1    3.63    0.44
   2 -10   1    3.70    0.49
  -3  10  -1    3.86    0.45
  -3  10  -1    4.10    0.55
   3 -10   1    4.08    0.51
   3   9  -1    6.27    0.68
   3   9  -1    5.37    0.58
  -3  -9   1    5.66    0.61
  -3  -9   1    7.28    0.71
   2   9  -1    0.67    0.32
   2   9  -1    1.43    0.32
   2   9  -1    1.51    0.31
   2   9  -1    1.36    0.30
  -2  -9   1    2.13    0.41
  -2  -9   1    1.84    0.37
   1   9  -1    3.92    0.46
   1   9  -1    5.21    0.61
   1   9  -1    4.94    0.46
   1   9  -1    5.66    0.49
  -1  -9   1    5.07    0.56
  -1  -9   1    4.63    0.51
   0   9  -1    0.75    0.21
   0   9  -1    0.02    0.26
   0   9  -1    0.30    0.21
   0   9  -1    0.25    0.21
   0   9  -1    0.44    0.26
   0  -9   1    0.29    0.24
   0  -9   1    0.41    0.24
  -1   9  -1   13.84    0.79
  -1   9  -1   16.58    0.96
  -1   9  -1   16.62    0.86
  -1   9  -1   14.48    0.85
  -1   9  -1   14.82    0.68
  -1   9  -1   13.87    0.82
   1  -9   1   15.42    0.84
   1  -9   1   14.40    0.87
  -2   9  -1   15.72    0.81
  -2   9  -1   12.15    0.78
  -2   9  -1   12.65    0.77
  -2   9  -1   12.45    0.72
  -2   9  -1   15.05    0.89
   2  -9   1   15.37    0.85
   2  -9   1   14.17    0.77
   2  -9   1   13.99    0.79
  -3   9  -1    0.16    0.20
  -3   9  -1    0.23    0.28
   3  -9   1    0.00    0.21
   3  -9   1   -0.30    0.17
  -4   9  -1    0.05    0.27
   4  -9   1    0.62    0.29
   4  -9   1    0.09    0.20
   4   8  -1    5.54    0.61
   4   8  -1    5.34    0.58
   4   8  -1    6.36    0.66
  -4  -8   1    5.57    0.61
  -4  -8   1    4.91    0.58
   3   8  -1    1.06    0.33
   3   8  -1    1.55    0.31
   3   8  -1    1.11    0.29
  -3  -8   1    1.42    0.35
  -3  -8   1    1.42    0.34
   2   8  -1    1.21    0.28
   2   8  -1    1.22    0.34
   2   8  -1    1.35    0.29
   2   8  -1    1.63    0.20
   2   8  -1    0.82    0.25
   2   8  -1    1.22    0.33
  -2  -8   1    1.19    0.31
  -2  -8   1    0.94    0.30
  -2  -8   1    1.23    0.23
   1   8  -1    4.85    0.55
   1   8  -1    4.22    0.45
   1   8  -1    4.51    0.50
   1   8  -1    3.99    0.43
   1   8  -1    4.28    0.40
  -1  -8   1    5.07    0.39
  -1  -8   1    5.03    0.52
  -1  -8   1    4.88    0.53
   0   8  -1    1.47    0.28
   0   8  -1    1.91    0.30
   0   8  -1    2.04    0.35
   0   8  -1    1.33    0.27
   0   8  -1    1.79    0.26
   0   8  -1    1.11    0.33
   0  -8   1    1.93    0.23
   0  -8   1    2.01    0.27
   0  -8   1    1.80    0.34
   0  -8   1    1.61    0.32
  -1   8  -1   33.78    1.17
  -1   8  -1   31.88    1.42
  -1   8  -1   33.78    1.37
  -1   8  -1   30.51    1.33
  -1   8  -1   31.82    1.46
  -1   8  -1   29.37    1.34
   1  -8   1   33.73    1.32
   1  -8   1   32.71    1.43
   1  -8   1   30.44    1.37
   1  -8   1   33.98    1.24
  -2   8  -1    8.32    0.42
  -2   8  -1    7.17    0.54
  -2   8  -1    8.95    0.56
  -2   8  -1    7.51    0.54
  -2   8  -1    8.68    0.65
   2  -8   1    7.48    0.53
   2  -8   1    7.21    0.53
   2  -8   1    8.33    0.48
   2  -8   1    7.24    0.55
  -3   8  -1    0.59    0.29
  -3   8  -1    0.65    0.23
  -3   8  -1    0.78    0.31
  -3   8  -1    0.93    0.27
  -3   8  -1    0.51    0.22
   3  -8   1    0.89    0.24
   3  -8   1    1.21    0.27
   3  -8   1    0.89    0.25
  -4   8  -1    7.92    0.56
  -4   8  -1    8.00    0.65
  -4   8  -1    6.50    0.55
   4  -8   1    8.77    0.57
   4  -8   1    7.75    0.63
  -5   8  -1   10.15    0.80
   5  -8   1    7.84    0.69
   5  -8   1   10.03    0.61
   5   7  -1    0.06    0.24
   5   7  -1   -0.46    0.17
   5   7  -1   -0.28    0.21
  -5  -7   1    0.02    0.28
   4   7  -1    0.75    0.29
   4   7  -1    0.10    0.20
   4   7  -1    0.28    0.27
  -4  -7   1    0.46    0.25
  -4  -7   1    0.35    0.30
   3   7  -1   25.33    1.21
   3   7  -1   24.98    1.16
   3   7  -1   21.25    1.10
   3   7  -1   23.66    1.04
  -3  -7   1   25.64    1.22
  -3  -7   1   27.35    1.04
  -3  -7   1   24.42    1.23
   2   7  -1   10.22    0.59
   2   7  -1    9.63    0.68
   2   7  -1   11.49    0.69
   2   7  -1   10.23    0.64
   2   7  -1   10.02    0.64
   2   7  -1   11.14    0.47
  -2  -7   1   12.77    0.59
  -2  -7   1   10.87    0.72
  -2  -7   1   11.60    0.72
   1   7  -1   54.54    1.92
   1   7  -1   57.89    2.14
   1   7  -1   56.25    2.14
   1   7  -1   53.70    2.21
   1   7  -1   57.24    2.22
  -1  -7   1   58.45    2.29
  -1  -7   1   60.31    2.05
  -1  -7   1   60.07    1.99
  -1  -7   1   60.36    2.34
   0   7  -1    1.50    0.32
   0   7  -1    1.46    0.25
   0   7  -1    1.49    0.26
   0   7  -1    1.76    0.31
   0   7  -1    1.92    0.24
   0   7  -1    1.43    0.26
   0   7  -1    1.79    0.29
   0  -7   1    2.24    0.30
   0  -7   1    1.96    0.22
   0  -7   1    2.13    0.32
   0  -7   1    2.09    0.25
   0  -7   1    1.55    0.30
  -1   7  -1   23.35    1.00
  -1   7  -1   23.46    1.09
  -1   7  -1   21.31    1.04
  -1   7  -1   22.93    0.85
  -1   7  -1   21.50    1.00
   1  -7   1   22.51    0.96
   1  -7   1   22.86    0.90
   1  -7   1   22.53    1.01
   1  -7   1   22.85    1.05
  -2   7  -1   14.65    0.78
  -2   7  -1   11.55    0.68
  -2   7  -1   11.94    0.66
  -2   7  -1   11.68    0.70
  -2   7  -1   13.49    0.53
   2  -7   1   13.28    0.63
   2  -7   1   13.43    0.68
   2  -7   1   13.67    0.73
   2  -7   1   13.16    0.56
   2  -7   1   12.98    0.71
  -3   7  -1   11.99    0.70
  -3   7  -1   12.23    0.73
  -3   7  -1   13.44    0.65
  -3   7  -1   11.68    0.74
  -3   7  -1   13.17    0.50
  -3   7  -1   12.22    0.75
   3  -7   1   12.80    0.63
   3  -7   1   12.25    0.73
   3  -7   1   12.71    0.69
  -4   7  -1    7.73    0.57
  -4   7  -1    6.80    0.52
  -4   7  -1    7.91    0.65
   4  -7   1    8.25    0.61
   4  -7   1    7.88    0.52
  -5   7  -1    0.49    0.36
  -5   7  -1    0.84    0.25
  -5   7  -1    0.86    0.28
   5  -7   1    0.70    0.29
   5  -7   1    1.40    0.26
  -6   7  -1    0.97    0.40
   6  -7   1    0.75    0.23
   6   6  -1    3.15    0.53
   6   6  -1    2.37    0.42
   6   6  -1    3.23    0.47
  -6  -6   1    2.74    0.47
   5   6  -1    2.11    0.39
   5   6  -1    1.79    0.39
   5   6  -1    1.44    0.33
  -5  -6   1    1.55    0.35
   4   6  -1    0.05    0.23
   4   6  -1    0.36    0.20
   4   6  -1    0.22    0.23
   4   6  -1   -0.10    0.21
  -4  -6   1   -0.09    0.18
  -4  -6   1   -0.01    0.26
   3   6  -1    9.42    0.65
   3   6  -1    9.61    0.60
   3   6  -1    9.07    0.61
  -3  -6   1    8.98    0.65
  -3  -6   1   10.49    0.51
  -3  -6   1   10.02    0.65
   2   6  -1   30.24    1.24
   2   6  -1   27.48    1.21
   2   6  -1   28.85    0.99
   2   6  -1   29.96    1.29
   2   6  -1   27.83    1.11
   2   6  -1   27.78    1.24
  -2  -6   1   31.58    1.27
  -2  -6   1   32.64    1.14
  -2  -6   1   30.08    1.33
  -2  -6   1   31.28    1.36
   1   6  -1   27.86    1.05
   1   6  -1   29.17    1.18
   1   6  -1   28.16    1.23
   1   6  -1   27.21    1.16
   1   6  -1   28.26    1.21
  -1  -6   1   29.09    1.22
  -1  -6   1   30.35    1.19
  -1  -6   1   29.00    1.03
  -1  -6   1   25.97    1.16
  -1  -6   1   28.83    1.24
   0   6  -1    5.97    0.35
   0   6  -1    6.71    0.45
   0   6  -1    6.01    0.35
   0   6  -1    6.72    0.48
   0   6  -1    5.95    0.42
   0   6  -1    5.74    0.39
   0   6  -1    6.14    0.41
   0   6  -1    5.87    0.40
   0  -6   1    6.23    0.35
   0  -6   1    5.73    0.42
   0  -6   1    6.78    0.45
   0  -6   1    6.99    0.46
   0  -6   1    6.38    0.42
   0  -6   1    5.86    0.43
  -1   6  -1   15.04    0.61
  -1   6  -1   14.69    0.69
  -1   6  -1   14.50    0.71
  -1   6  -1   13.45    0.71
  -1   6  -1   13.97    0.74
  -1   6  -1   14.28    0.57
  -1   6  -1   14.03    0.70
   1  -6   1   15.81    0.73
   1  -6   1   14.24    0.62
   1  -6   1   14.35    0.72
   1  -6   1   15.20    0.74
   1  -6   1   14.20    0.70
   1  -6   1   14.99    0.62
  -2   6  -1    8.61    0.56
  -2   6  -1    8.40    0.50
  -2   6  -1    7.57    0.42
  -2   6  -1    9.08    0.48
  -2   6  -1    7.87    0.51
  -2   6  -1    8.59    0.37
   2  -6   1    9.34    0.50
   2  -6   1    8.51    0.39
   2  -6   1    8.34    0.45
   2  -6   1    8.78    0.53
   2  -6   1    9.15    0.53
  -3   6  -1    6.13    0.28
  -3   6  -1    5.42    0.41
  -3   6  -1    5.61    0.44
  -3   6  -1    5.48    0.47
  -3   6  -1    5.42    0.51
  -3   6  -1    6.05    0.38
   3  -6   1    6.37    0.27
   3  -6   1    5.81    0.42
   3  -6   1    5.97    0.42
   3  -6   1    6.53    0.40
   3  -6   1    5.81    0.47
  -4   6  -1   21.94    1.13
  -4   6  -1   26.15    0.95
  -4   6  -1   24.70    1.17
  -4   6  -1   23.08    1.07
   4  -6   1   24.41    1.01
   4  -6   1   24.56    1.02
   4  -6   1   22.42    1.13
  -5   6  -1    3.09    0.39
  -5   6  -1    4.18    0.46
  -5   6  -1    4.24    0.55
   5  -6   1    4.23    0.39
   5  -6   1    3.67    0.48
  -6   6  -1    3.19    0.51
  -6   6  -1    2.56    0.41
  -6   6  -1    2.86    0.38
   6  -6   1    3.19    0.33
   6   5  -1   16.55    0.96
   6   5  -1   17.88    1.08
   6   5  -1   17.35    0.94
  -6  -5   1   15.97    0.93
   5   5  -1    0.41    0.24
   5   5  -1    0.60    0.25
   5   5  -1    0.13    0.21
   5   5  -1    0.26    0.25
  -5  -5   1    0.05    0.27
   4   5  -1   38.59    1.66
   4   5  -1   40.72    1.64
   4   5  -1   41.18    1.78
   4   5  -1   41.51    1.69
  -4  -5   1   43.23    1.50
  -4  -5   1   45.96    1.77
  -4  -5   1   41.80    1.77
  -4  -5   1   43.46    1.64
  -4  -5   1   41.43    1.61
   3   5  -1    0.41    0.22
   3   5  -1    1.29    0.25
   3   5  -1    1.17    0.28
   3   5  -1    0.93    0.22
  -3  -5   1    0.70    0.23
  -3  -5   1    0.50    0.24
  -3  -5   1    0.97    0.23
  -3  -5   1    0.98    0.22
  -3  -5   1    1.32    0.22
   2   5  -1   11.88    0.62
   2   5  -1   11.85    0.63
   2   5  -1   11.16    0.64
   2   5  -1   11.65    0.62
   2   5  -1   12.29    0.45
   2   5  -1   12.07    0.57
  -2  -5   1   13.08    0.68
  -2  -5   1   11.91    0.62
  -2  -5   1   12.24    0.66
  -2  -5   1   13.83    0.65
  -2  -5   1   12.45    0.64
  -2  -5   1   12.44    0.61
  -2  -5   1   12.03    0.54
  -2  -5   1   13.24    0.48
   1   5  -1   12.90    0.67
   1   5  -1   13.04    0.63
   1   5  -1   12.76    0.56
   1   5  -1   12.41    0.61
   1   5  -1   12.88    0.62
   1   5  -1   12.30    0.60
  -1  -5   1   13.96    0.66
  -1  -5   1   13.79    0.69
  -1  -5   1   13.75    0.64
  -1  -5   1   13.10    0.67
  -1  -5   1   13.23    0.65
  -1  -5   1   13.39    0.56
   0   5  -1    1.69    0.19
   0   5  -1    1.81    0.24
   0   5  -1    1.71    0.23
   0   5  -1    1.94    0.21
   0   5  -1    2.54    0.31
   0   5  -1    1.66    0.25
   0   5  -1    1.79    0.26
   0   5  -1    2.23    0.24
   0  -5   1    1.67    0.19
   0  -5   1    1.89    0.25
   0  -5   1    1.65    0.25
   0  -5   1    2.28    0.26
   0  -5   1    2.16    0.25
   0  -5   1    1.84    0.27
   0  -5   1    1.94    0.25
  -1   5  -1   40.18    1.57
  -1   5  -1   41.89    1.40
  -1   5  -1   43.76    1.58
  -1   5  -1   41.85    1.67
  -1   5  -1   42.24    1.64
  -1   5  -1   42.83    1.38
  -1   5  -1   43.71    1.55
   1  -5   1   44.68    1.47
   1  -5   1   47.08    1.76
   1  -5   1   44.16    1.51
   1  -5   1   42.67    1.64
   1  -5   1   44.70    1.68
   1  -5   1   43.24    1.63
   1  -5   1   44.16    1.65
  -2   5  -1    5.01    0.41
  -2   5  -1    5.08    0.35
  -2   5  -1    4.70    0.36
  -2   5  -1    4.74    0.30
  -2   5  -1    5.35    0.33
   2  -5   1    4.93    0.32
   2  -5   1    4.80    0.24
   2  -5   1    4.98    0.36
   2  -5   1    4.96    0.33
   2  -5   1    4.72    0.41
   2  -5   1    5.05    0.34
  -3   5  -1    0.76    0.24
  -3   5  -1    0.06    0.15
  -3   5  -1    0.18    0.14
  -3   5  -1    0.57    0.17
  -3   5  -1    0.20    0.13
  -3   5  -1    0.07    0.17
   3  -5   1    0.42    0.15
   3  -5   1    0.06    0.16
   3  -5   1    0.28    0.14
  -4   5  -1   31.99    1.09
  -4   5  -1   30.12    1.09
  -4   5  -1   28.27    1.32
  -4   5  -1   27.79    1.23
  -4   5  -1   29.92    1.26
  -4   5  -1   31.66    1.32
   4  -5   1   28.34    1.29
   4  -5   1   30.02    1.17
   4  -5   1   28.22    1.12
  -5   5  -1    0.33    0.22
  -5   5  -1    0.54    0.21
  -5   5  -1    0.09    0.29
   5  -5   1    0.48    0.17
   5  -5   1    0.24    0.19
   5  -5   1    0.39    0.23
  -6   5  -1    2.37    0.34
  -6   5  -1    1.47    0.32
  -6   5  -1    1.78    0.42
   6  -5   1    1.93    0.33
   6  -5   1    2.57    0.28
   6  -5   1    1.25    0.34
   6   4  -1    0.26    0.28
   6   4  -1    0.51    0.23
   6   4  -1    0.04    0.20
   6   4  -1    0.75    0.24
  -6  -4   1    0.12    0.27
   5   4  -1    3.04    0.39
   5   4  -1    3.65    0.41
   5   4  -1    4.15    0.43
   5   4  -1    3.06    0.44
  -5  -4   1    3.68    0.45
  -5  -4   1    3.76    0.30
   4   4  -1    8.99    0.56
   4   4  -1    9.17    0.57
   4   4  -1    8.90    0.63
   4   4  -1    8.96    0.57
  -4  -4   1    8.14    0.56
  -4  -4   1    8.82    0.42
  -4  -4   1    8.85    0.56
  -4  -4   1    9.25    0.48
  -4  -4   1    9.28    0.49
  -4  -4   1    8.90    0.60
   3   4  -1    7.15    0.46
   3   4  -1    8.31    0.52
   3   4  -1    7.30    0.47
   3   4  -1    7.16    0.48
  -3  -4   1    8.38    0.50
  -3  -4   1    8.23    0.44
  -3  -4   1    7.79    0.44
  -3  -4   1    7.97    0.36
  -3  -4   1    8.27    0.47
  -3  -4   1    7.74    0.53
  -3  -4   1    8.15    0.51
  -3  -4   1    7.72    0.39
   2   4  -1   62.68    2.23
   2   4  -1   60.40    2.26
   2   4  -1   60.55    2.04
   2   4  -1   62.49    1.92
   2   4  -1   63.86    2.22
   2   4  -1   59.39    2.02
  -2  -4   1   68.71    2.43
  -2  -4   1   66.73    2.38
  -2  -4   1   59.32    2.29
  -2  -4   1   64.95    2.37
  -2  -4   1   62.60    2.25
  -2  -4   1   66.17    2.28
  -2  -4   1   65.83    2.22
   1   4  -1   29.76    1.00
   1   4  -1   28.82    1.07
   1   4  -1   28.87    1.13
   1   4  -1   27.47    1.09
   1   4  -1   26.95    1.14
   1   4  -1   26.38    0.97
   1   4  -1   27.95    1.10
  -1  -4   1   29.65    1.01
  -1  -4   1   29.02    1.16
  -1  -4   1   30.35    1.21
  -1  -4   1   31.11    1.20
  -1  -4   1   29.60    1.14
  -1  -4   1   29.94    1.13
  -1  -4   1   29.82    1.20
   0   4  -1    8.41    0.38
   0   4  -1    8.71    0.46
   0   4  -1    8.70    0.45
   0   4  -1    9.02    0.52
   0   4  -1    8.69    0.47
   0   4  -1    8.71    0.44
   0   4  -1    8.55    0.39
   0  -4   1    8.82    0.48
   0  -4   1    9.02    0.48
   0  -4   1   10.77    0.50
   0  -4   1    8.91    0.48
   0  -4   1    9.33    0.51
   0  -4   1    9.73    0.41
   0  -4   1    9.03    0.45
   0  -4   1    9.51    0.49
  -1   4  -1  165.25    5.65
  -1   4  -1  161.00    5.50
  -1   4  -1  169.48    5.44
  -1   4  -1  165.03    5.24
  -1   4  -1  162.58    5.88
  -1   4  -1  164.13    4.94
  -1   4  -1  164.76    5.41
  -1   4  -1  165.96    4.97
   1  -4   1  164.82    5.52
   1  -4   1  164.49    5.71
   1  -4   1  169.36    5.69
   1  -4   1  165.00    5.03
   1  -4   1  171.48    5.32
   1  -4   1  172.83    5.99
   1  -4   1  164.26    5.49
  -2   4  -1   23.47    1.00
  -2   4  -1   23.44    1.03
  -2   4  -1   24.13    0.90
  -2   4  -1   24.42    0.98
  -2   4  -1   24.10    0.86
  -2   4  -1   25.32    0.83
   2  -4   1   24.84    0.83
   2  -4   1   24.81    0.93
   2  -4   1   23.93    0.88
   2  -4   1   24.63    0.95
   2  -4   1   23.99    0.98
   2  -4   1   24.99    1.08
  -3   4  -1   11.60    0.60
  -3   4  -1   11.95    0.41
  -3   4  -1   12.21    0.48
  -3   4  -1   12.12    0.64
  -3   4  -1   10.87    0.57
  -3   4  -1   10.65    0.50
  -3   4  -1   12.04    0.63
   3  -4   1   11.55    0.53
   3  -4   1   12.06    0.55
   3  -4   1   12.28    0.64
   3  -4   1   10.49    0.56
   3  -4   1   12.29    0.54
  -4   4  -1    0.54    0.11
  -4   4  -1    0.35    0.20
  -4   4  -1    0.51    0.20
  -4   4  -1    0.50    0.18
  -4   4  -1    0.28    0.25
  -4   4  -1    0.42    0.15
  -4   4  -1    0.40    0.11
   4  -4   1    0.42    0.15
   4  -4   1    0.63    0.18
   4  -4   1    0.33    0.22
   4  -4   1    0.31    0.13
   4  -4   1    0.33    0.16
  -5   4  -1    4.41    0.46
  -5   4  -1    4.03    0.51
   5  -4   1    4.03    0.48
   5  -4   1    4.74    0.44
   5  -4   1    5.37    0.36
  -6   4  -1    1.76    0.34
  -6   4  -1    1.78    0.29
  -6   4  -1    1.94    0.42
   6  -4   1    1.78    0.38
   6  -4   1    1.97    0.24
   6  -4   1    1.71    0.33
  -7   4  -1    2.72    0.42
  -7   4  -1    2.86    0.52
   7  -4   1    3.28    0.45
   7   3  -1    0.01    0.20
   7   3  -1    0.38    0.32
   7   3  -1   -0.02    0.19
  -7  -3   1   -0.38    0.24
   6   3  -1    7.70    0.68
   6   3  -1    8.33    0.55
   6   3  -1    7.87    0.52
   6   3  -1    7.75    0.58
  -6  -3   1    7.80    0.59
   5   3  -1    0.93    0.24
   5   3  -1    0.93    0.25
   5   3  -1    0.73    0.29
   5   3  -1    0.82    0.25
  -5  -3   1    1.00    0.28
  -5  -3   1    1.19    0.30
  -5  -3   1    0.81    0.20
   4   3  -1   49.70    1.94
   4   3  -1   50.55    1.89
   4   3  -1   51.12    2.10
   4   3  -1   51.59    1.91
  -4  -3   1   53.61    2.03
  -4  -3   1   50.73    1.95
  -4  -3   1   52.40    1.82
  -4  -3   1   54.25    1.80
  -4  -3   1   53.21    1.98
  -4  -3   1   52.76    2.03
   3   3  -1   14.32    0.66
   3   3  -1   13.82    0.67
   3   3  -1   13.67    0.66
   3   3  -1   14.22    0.72
   3   3  -1   14.51    0.63
   3   3  -1   13.63    0.57
  -3  -3   1   14.14    0.69
  -3  -3   1   14.84    0.62
  -3  -3   1   15.05    0.62
  -3  -3   1   15.04    0.73
  -3  -3   1   14.93    0.63
  -3  -3   1   14.62    0.68
  -3  -3   1   15.21    0.57
  -3  -3   1   14.59    0.67
   2   3  -1    0.35    0.12
   2   3  -1    0.55    0.20
   2   3  -1    0.32    0.15
   2   3  -1    0.25    0.15
   2   3  -1    0.42    0.21
  -2  -3   1    0.47    0.15
  -2  -3   1    0.39    0.10
  -2  -3   1    0.56    0.12
  -2  -3   1    0.29    0.17
  -2  -3   1    0.43    0.21
  -2  -3   1    0.29    0.15
  -2  -3   1    0.50    0.15
  -2  -3   1    0.26    0.22
   1   3  -1   40.92    1.52
   1   3  -1   39.51    1.33
   1   3  -1   40.35    1.43
   1   3  -1   40.95    1.33
   1   3  -1   40.91    1.51
   1   3  -1   41.68    1.46
  -1  -3   1   44.21    1.38
  -1  -3   1   42.01    1.49
  -1  -3   1   40.68    1.52
  -1  -3   1   43.95    1.57
  -1  -3   1   42.18    1.59
  -1  -3   1   43.01    1.35
  -1  -3   1   43.39    1.57
  -1  -3   1   42.54    1.50
   0   3  -1  120.51    3.87
   0   3  -1  123.28    4.30
   0   3  -1  124.07    3.62
   0   3  -1  113.57    4.14
   0   3  -1  125.14    4.01
   0   3  -1  118.60    4.02
   0   3  -1  120.31    3.67
   0  -3   1  126.57    4.20
   0  -3   1  125.65    4.30
   0  -3   1  128.74    3.78
   0  -3   1  121.83    4.31
   0  -3   1  122.34    4.17
   0  -3   1  130.80    4.50
   0  -3   1  127.48    4.03
  -1   3  -1   50.00    1.89
  -1   3  -1   50.36    1.83
  -1   3  -1   50.21    1.59
  -1   3  -1   51.64    1.70
  -1   3  -1   53.02    1.78
  -1   3  -1   49.25    1.78
  -1   3  -1   50.27    1.72
  -1   3  -1   51.58    1.66
   1  -3   1   51.77    1.77
   1  -3   1   51.90    1.59
   1  -3   1   52.68    1.65
   1  -3   1   51.28    1.81
   1  -3   1   49.11    1.71
   1  -3   1   52.63    1.90
   1  -3   1   45.43    1.80
   1  -3   1   50.38    1.74
  -2   3  -1   14.85    0.67
  -2   3  -1   14.97    0.68
  -2   3  -1   13.88    0.56
  -2   3  -1   15.41    0.59
  -2   3  -1   14.92    0.52
  -2   3  -1   13.85    0.68
  -2   3  -1   15.04    0.56
   2  -3   1   14.80    0.60
   2  -3   1   14.59    0.58
   2  -3   1   12.20    0.63
   2  -3   1   14.62    0.50
   2  -3   1   13.69    0.58
  -3   3  -1  290.14    8.92
  -3   3  -1  297.34    9.53
  -3   3  -1  280.00   10.09
  -3   3  -1  289.52    9.21
  -3   3  -1  270.39    8.46
  -3   3  -1  283.74    9.58
  -3   3  -1  285.68    9.18
  -3   3  -1  276.35    9.21
   3  -3   1  288.13    9.36
   3  -3   1  277.55    8.96
   3  -3   1  279.89    9.12
   3  -3   1  267.97    9.37
  -4   3  -1   12.65    0.68
  -4   3  -1   11.68    0.44
  -4   3  -1   11.07    0.64
  -4   3  -1   12.23    0.49
  -4   3  -1   11.42    0.54
  -4   3  -1   11.71    0.49
  -4   3  -1   11.91    0.44
  -4   3  -1   10.96    0.57
   4  -3   1   10.93    0.55
   4  -3   1   11.27    0.46
   4  -3   1   12.08    0.60
   4  -3   1   10.48    0.64
   4  -3   1   11.50    0.54
  -5   3  -1    2.72    0.36
  -5   3  -1    2.67    0.20
  -5   3  -1    2.35    0.41
   5  -3   1    3.00    0.28
   5  -3   1    2.09    0.34
   5  -3   1    2.52    0.38
  -6   3  -1    6.62    0.54
  -6   3  -1    7.86    0.63
   6  -3   1    6.60    0.58
   6  -3   1    7.85    0.43
   6  -3   1    7.65    0.58
  -7   3  -1    0.80    0.34
  -7   3  -1    0.38    0.24
   7  -3   1    0.46    0.29
   7   2  -1    5.43    0.54
   6   2  -1   19.95    1.01
   6   2  -1   22.76    1.21
   6   2  -1   24.05    0.97
   6   2  -1   21.18    1.03
   6   2  -1   21.46    0.99
  -6  -2   1   22.74    1.10
  -6  -2   1   24.89    1.01
   5   2  -1   28.15    1.19
   5   2  -1   28.73    1.18
   5   2  -1   30.16    1.16
   5   2  -1   28.50    1.37
   5   2  -1   26.40    1.20
  -5  -2   1   30.30    1.30
  -5  -2   1   31.21    1.17
  -5  -2   1   30.43    1.25
   4   2  -1    1.59    0.22
   4   2  -1    1.88    0.23
   4   2  -1    1.92    0.30
   4   2  -1    1.48    0.22
   4   2  -1    1.61    0.24
   4   2  -1    1.45    0.23
  -4  -2   1    1.79    0.22
  -4  -2   1    1.99    0.27
  -4  -2   1    1.88    0.11
  -4  -2   1    1.77    0.16
  -4  -2   1    1.83    0.27
  -4  -2   1    1.61    0.21
   3   2  -1    5.47    0.34
   3   2  -1    5.87    0.44
   3   2  -1    5.40    0.33
   3   2  -1    5.49    0.34
   3   2  -1    5.24    0.35
   3   2  -1    6.09    0.36
   3   2  -1    5.39    0.35
   3   2  -1    5.67    0.37
  -3  -2   1    5.66    0.43
  -3  -2   1    5.91    0.36
  -3  -2   1    5.22    0.31
  -3  -2   1    6.39    0.39
  -3  -2   1    5.88    0.30
  -3  -2   1    6.70    0.40
   2   2  -1   50.28    1.69
   2   2  -1   53.97    1.86
   2   2  -1   54.25    1.84
   2   2  -1   51.53    1.85
   2   2  -1   51.64    1.86
   2   2  -1   54.23    2.00
   2   2  -1   50.68    1.71
  -2  -2   1   54.83    1.75
  -2  -2   1   54.70    1.90
  -2  -2   1   55.29    1.91
  -2  -2   1   54.85    1.85
  -2  -2   1   54.96    1.98
  -2  -2   1   53.51    1.83
  -2  -2   1   54.87    1.97
  -2  -2   1   55.91    1.84
  -2  -2   1   54.32    1.93
  -2  -2   1   50.91    1.89
  -2  -2   1   54.13    1.77
   1   2  -1  212.31    7.50
   1   2  -1  209.90    6.75
   1   2  -1  213.71    6.78
   1   2  -1  221.48    7.13
   1   2  -1  212.80    6.44
   1   2  -1  211.08    7.19
   1   2  -1  221.96    6.55
   1   2  -1  217.59    7.00
   1   2  -1  204.56    7.18
  -1  -2   1  222.86    7.46
  -1  -2   1  220.25    7.16
  -1  -2   1  220.72    6.55
  -1  -2   1  225.22    7.79
  -1  -2   1  225.93    7.04
  -1  -2   1  226.23    6.68
  -1  -2   1  213.20    7.26
  -1  -2   1  226.87    7.27
  -1  -2   1  218.01    7.49
  -1  -2   1  222.65    7.39
   0   2  -1  584.83   19.32
   0   2  -1  598.81   19.69
   0   2  -1  580.06   19.66
   0   2  -1  575.77   20.62
   0   2  -1  584.61   18.54
   0   2  -1  585.40   17.41
   0   2  -1  559.59   19.73
   0   2  -1  616.16   19.27
   0  -2   1  571.09   18.80
   0  -2   1  613.85   18.31
   0  -2   1  580.05   19.44
   0  -2   1  503.89   19.31
   0  -2   1  568.35   18.91
   0  -2   1  583.90   17.05
   0  -2   1  601.02   20.36
   0  -2   1  580.19   19.39
  -1   2  -1    0.53    0.12
  -1   2  -1    0.37    0.08
  -1   2  -1    0.22    0.08
  -1   2  -1    0.40    0.10
  -1   2  -1    0.40    0.07
  -1   2  -1    0.46    0.08
  -1   2  -1    0.36    0.08
  -1   2  -1    0.38    0.12
  -1   2  -1    0.38    0.12
   1  -2   1    0.35    0.07
   1  -2   1    0.47    0.07
   1  -2   1    0.45    0.07
   1  -2   1    0.50    0.10
   1  -2   1    0.37    0.09
   1  -2   1    0.41    0.11
   1  -2   1    0.35    0.09
   1  -2   1    0.32    0.07
  -2   2  -1  123.14    3.91
  -2   2  -1  122.94    4.01
  -2   2  -1  130.88    4.21
  -2   2  -1  126.97    4.15
  -2   2  -1  120.30    4.22
  -2   2  -1  121.25    3.74
  -2   2  -1  123.34    4.12
  -2   2  -1  119.94    4.05
  -2   2  -1  124.76    4.01
   2  -2   1  114.33    4.04
   2  -2   1  118.73    3.92
   2  -2   1  121.48    4.02
   2  -2   1  118.78    3.84
  -3   2  -1   18.96    0.64
  -3   2  -1   18.66    0.77
  -3   2  -1   18.36    0.68
  -3   2  -1   17.91    0.68
  -3   2  -1   18.26    0.81
  -3   2  -1   17.69    0.66
   3  -2   1   17.93    0.63
   3  -2   1   17.04    0.74
   3  -2   1   17.98    0.72
  -4   2  -1   34.25    1.23
  -4   2  -1   33.40    1.16
  -4   2  -1   33.38    1.35
  -4   2  -1   32.50    1.30
  -4   2  -1   34.06    1.22
  -4   2  -1   34.14    1.15
   4  -2   1   29.97    1.23
   4  -2   1   31.14    1.25
   4  -2   1   32.72    1.34
   4  -2   1   33.62    1.22
  -5   2  -1    7.83    0.59
  -5   2  -1    8.58    0.42
  -5   2  -1    8.45    0.42
   5  -2   1    7.40    0.57
   5  -2   1    7.20    0.48
   5  -2   1    7.84    0.43
   5  -2   1    7.05    0.54
  -6   2  -1   12.86    0.78
   6  -2   1   11.38    0.74
   6  -2   1   11.15    0.74
   6  -2   1   12.24    0.58
  -7   2  -1    0.20    0.23
  -7   2  -1   -0.13    0.26
   7  -2   1    0.04    0.24
   7  -2   1   -0.04    0.24
   7   1  -1   -0.18    0.17
   7   1  -1    0.25    0.22
   6   1  -1    2.42    0.26
   6   1  -1    2.45    0.33
   6   1  -1    1.86    0.31
   6   1  -1    2.27    0.30
  -6  -1   1    2.77    0.35
  -6  -1   1    2.11    0.34
   5   1  -1   19.82    0.80
   5   1  -1   19.80    0.86
   5   1  -1   18.68    0.88
   5   1  -1   19.09    0.91
   5   1  -1   19.94    1.06
  -5  -1   1   19.09    0.88
  -5  -1   1   20.99    0.95
  -5  -1   1   21.22    0.89
   4   1  -1   58.37    1.99
   4   1  -1   55.24    2.00
   4   1  -1   56.66    2.00
   4   1  -1   56.38    2.05
   4   1  -1   56.61    2.26
   4   1  -1   53.27    2.07
  -4  -1   1   59.40    2.09
  -4  -1   1   55.29    2.06
  -4  -1   1   60.13    2.16
  -4  -1   1   59.41    2.02
  -4  -1   1   59.17    1.87
   3   1  -1    0.09    0.11
   3   1  -1   -0.13    0.12
   3   1  -1   -0.22    0.13
   3   1  -1    0.05    0.12
   3   1  -1   -0.12    0.10
   3   1  -1    0.03    0.14
   3   1  -1   -0.02    0.18
   3   1  -1   -0.13    0.12
  -3  -1   1    0.03    0.12
  -3  -1   1   -0.07    0.16
  -3  -1   1    0.06    0.16
  -3  -1   1   -0.02    0.08
  -3  -1   1   -0.03    0.10
  -3  -1   1    0.16    0.15
  -3  -1   1    0.15    0.16
  -3  -1   1    0.11    0.14
  -3  -1   1    0.04    0.15
   2   1  -1    0.61    0.12
   2   1  -1    0.40    0.11
   2   1  -1    0.54    0.10
   2   1  -1    0.55    0.10
   2   1  -1    0.54    0.10
   2   1  -1    0.63    0.11
   2   1  -1    0.44    0.13
   2   1  -1    0.55    0.12
  -2  -1   1    0.43    0.12
  -2  -1   1    0.66    0.11
  -2  -1   1    0.52    0.09
  -2  -1   1    0.69    0.12
  -2  -1   1    0.50    0.09
  -2  -1   1    0.48    0.13
  -2  -1   1    0.69    0.13
  -2  -1   1    0.69    0.13
  -2  -1   1    0.56    0.10
  -2  -1   1    0.64    0.10
  -2  -1   1    0.41    0.12
   1   1  -1  963.95   31.15
   1   1  -1  962.26   29.67
   1   1  -1  966.90   28.16
   1   1  -1  947.48   30.69
   1   1  -1  934.16   31.35
   1   1  -1  886.69   33.39
   1   1  -1  990.28   28.68
   1   1  -1  953.37   31.62
   1   1  -1  878.98   29.59
   1   1  -1  907.19   31.35
  -1  -1   1  915.08   31.98
  -1  -1   1  972.34   32.12
  -1  -1   1  972.78   33.48
  -1  -1   1  922.59   30.22
  -1  -1   1  974.24   31.22
  -1  -1   1 1000.00   28.76
  -1  -1   1  913.28   31.29
  -1  -1   1  993.12   31.81
  -1  -1   1  945.62   32.27
  -1  -1   1  950.61   32.03
  -1  -1   1  969.20   29.29
  -1  -1   1  982.38   30.27
   0   1  -1  111.63    3.88
   0   1  -1  100.26    3.67
   0   1  -1  103.91    3.66
   0   1  -1  111.92    3.45
   0   1  -1  110.13    3.22
   0   1  -1  105.46    3.47
   0   1  -1  112.90    3.36
   0   1  -1  111.19    3.65
   0   1  -1  111.84    3.67
   0   1  -1  110.09    3.56
   0  -1   1  110.43    3.34
   0  -1   1  111.54    3.20
   0  -1   1  106.52    3.64
   0  -1   1  114.39    3.82
   0  -1   1   92.60    3.64
   0  -1   1  111.24    3.62
   0  -1   1  112.28    3.43
   0  -1   1  109.19    3.54
   0  -1   1  103.72    3.45
   0  -1   1  110.57    3.65
  -1   1  -1  218.66    6.71
  -1   1  -1  219.87    6.53
  -1   1  -1  222.09    7.07
  -1   1  -1  201.61    7.10
  -1   1  -1  206.69    6.76
  -1   1  -1  206.01    7.12
   1  -1   1  198.29    6.83
   1  -1   1  213.03    6.79
   1  -1   1  200.38    6.82
  -2   1  -1  221.03    7.17
  -2   1  -1  204.20    7.66
  -2   1  -1  227.24    7.18
  -2   1  -1  209.95    7.21
  -2   1  -1  212.92    6.93
  -2   1  -1  210.38    6.88
   2  -1   1  213.51    6.93
   2  -1   1  205.47    6.68
   2  -1   1  201.05    6.96
   2  -1   1  206.85    6.93
  -3   1  -1   35.30    1.20
  -3   1  -1   34.04    1.32
  -3   1  -1   35.87    1.32
  -3   1  -1   35.54    1.25
   3  -1   1   34.54    1.30
   3  -1   1   33.07    1.29
   3  -1   1   34.99    1.27
   3  -1   1   34.15    1.17
  -4   1  -1    4.97    0.36
  -4   1  -1    5.66    0.31
  -4   1  -1    5.11    0.27
  -4   1  -1    5.29    0.45
   4  -1   1    5.61    0.27
   4  -1   1    5.23    0.36
   4  -1   1    4.96    0.36
   4  -1   1    5.01    0.41
   4  -1   1    5.20    0.33
  -5   1  -1    0.17    0.26
  -5   1  -1    0.01    0.15
  -5   1  -1   -0.19    0.12
   5  -1   1    0.00    0.13
   5  -1   1   -0.16    0.18
   5  -1   1   -0.06    0.16
   5  -1   1   -0.09    0.09
  -6   1  -1    5.11    0.52
   6  -1   1    4.44    0.44
   6  -1   1    4.88    0.37
   6  -1   1    4.22    0.49
  -7   1  -1    0.58    0.30
   7  -1   1   -0.09    0.25
   7  -1   1    0.27    0.23
   7  -1   1    0.51    0.24
   7  -1   1    0.50    0.18
   7   0  -1    0.48    0.24
   7   0  -1    0.43    0.29
   7   0  -1    0.32    0.20
  -7   0   1    0.94    0.29
   6   0  -1    1.34    0.34
   6   0  -1    0.90    0.28
   6   0  -1    0.93    0.22
   6   0  -1    1.53    0.27
   6   0  -1    1.38    0.16
  -6   0   1    1.37    0.32
  -6   0   1    1.68    0.30
   5   0  -1    1.98    0.25
   5   0  -1    2.07    0.21
   5   0  -1    2.09    0.32
   5   0  -1    2.40    0.29
   5   0  -1    2.52    0.21
  -5   0   1    2.06    0.32
  -5   0   1    2.37    0.29
  -5   0   1    2.49    0.30
   4   0  -1    1.54    0.21
   4   0  -1    1.64    0.16
   4   0  -1    1.58    0.25
   4   0  -1    1.86    0.16
   4   0  -1    1.47    0.28
   4   0  -1    1.65    0.21
  -4   0   1    2.03    0.20
  -4   0   1    1.77    0.16
  -4   0   1    2.01    0.23
  -4   0   1    1.79    0.23
  -4   0   1    1.59    0.25
   3   0  -1    5.17    0.32
   3   0  -1    4.87    0.40
   3   0  -1    4.84    0.24
   3   0  -1    4.73    0.37
   3   0  -1    4.77    0.25
   3   0  -1    4.93    0.30
  -3   0   1    4.91    0.33
  -3   0   1    4.55    0.27
  -3   0   1    4.86    0.36
  -3   0   1    4.84    0.20
  -3   0   1    4.55    0.33
  -3   0   1    4.77    0.31
  -3   0   1    5.21    0.34
  -3   0   1    4.93    0.29
  -3   0   1    4.47    0.23
  -3   0   1    5.89    0.41
   2   0  -1   38.66    1.32
   2   0  -1   37.56    1.48
   2   0  -1   37.28    1.20
   2   0  -1   38.78    1.32
   2   0  -1   36.91    1.37
   2   0  -1   38.29    1.28
   2   0  -1   37.17    1.28
  -2   0   1   36.67    1.30
  -2   0   1   38.00    1.34
  -2   0   1   39.23    1.27
  -2   0   1   37.43    1.30
  -2   0   1   39.27    1.22
  -2   0   1   38.91    1.39
  -2   0   1   40.27    1.34
  -2   0   1   39.15    1.27
  -2   0   1   38.78    1.37
  -2   0   1   37.44    1.30
  -2   0   1   39.75    1.41
   1   0  -1  170.10    5.84
   1   0  -1  178.24    5.52
   1   0  -1  178.88    5.71
   1   0  -1  175.28    5.72
   1   0  -1  172.38    5.84
   1   0  -1  175.39    5.80
   1   0  -1  168.10    6.25
   1   0  -1  178.21    5.86
   1   0  -1  178.66    5.24
   1   0  -1  179.98    5.87
  -1   0   1  177.94    6.22
  -1   0   1  175.02    5.77
  -1   0   1  171.91    5.90
  -1   0   1  179.46    5.78
  -1   0   1  175.18    5.78
  -1   0   1  175.79    5.92
  -1   0   1  187.57    5.94
  -1   0   1  169.10    5.90
  -1   0   1  179.90    5.87
  -1   0   1  184.00    5.61
   0   0  -1   49.75    1.78
   0   0  -1   51.82    1.69
   0   0  -1   49.49    1.61
   0   0  -1   50.86    1.60
   0   0  -1   49.79    1.71
   0   0  -1   47.07    1.70
   0   0   1   48.33    1.66
   0   0   1   48.65    1.67
   0   0   1   47.68    1.57
   0   0   1   45.23    1.74
   0   0   1   52.04    1.57
   0   0   1   48.51    1.64
   0   0   1   49.52    1.52
  -1   0  -1   16.20    0.62
  -1   0  -1   16.44    0.65
  -1   0  -1   16.54    0.63
  -1   0  -1   17.59    0.60
  -1   0  -1   16.86    0.66
  -1   0  -1   17.11    0.57
   1   0   1   16.86    0.59
   1   0   1   16.86    0.57
   1   0   1   15.49    0.65
   1   0   1   17.25    0.65
   1   0   1   16.14    0.62
   1   0   1   18.22    0.61
   1   0   1   15.51    0.63
   1   0   1   17.41    0.65
   1   0   1   17.42    0.58
  -2   0  -1   18.22    0.74
  -2   0  -1   18.59    0.64
  -2   0  -1   19.45    0.74
  -2   0  -1   18.90    0.68
  -2   0  -1   17.72    0.66
  -2   0  -1   18.04    0.72
  -2   0  -1   17.07    0.75
   2   0   1   18.15    0.65
   2   0   1   18.25    0.73
   2   0   1   18.07    0.70
   2   0   1   17.46    0.73
   2   0   1   18.02    0.62
   2   0   1   18.07    0.67
   2   0   1   16.67    0.70
   2   0   1   17.91    0.76
   2   0   1   19.10    0.64
  -3   0  -1  187.94    6.44
  -3   0  -1  192.99    6.41
  -3   0  -1  191.09    6.14
  -3   0  -1  186.16    6.20
   3   0   1  182.74    6.16
   3   0   1  182.60    6.16
   3   0   1  185.81    6.57
   3   0   1  187.36    6.13
   3   0   1  177.43    5.93
   3   0   1  171.00    6.16
   3   0   1  181.57    6.14
  -4   0  -1    3.09    0.28
  -4   0  -1    3.19    0.24
  -4   0  -1    3.78    0.36
  -4   0  -1    3.67    0.30
   4   0   1    3.20    0.29
   4   0   1    3.57    0.25
   4   0   1    3.14    0.33
   4   0   1    3.48    0.32
   4   0   1    3.36    0.34
  -5   0  -1   10.79    0.55
  -5   0  -1   10.00    0.50
  -5   0  -1   11.62    0.64
   5   0   1   10.89    0.63
   5   0   1   10.47    0.56
   5   0   1   10.24    0.50
   5   0   1   10.41    0.64
  -6   0  -1    4.39    0.48
   6   0   1    4.06    0.45
   6   0   1    3.68    0.36
   6   0   1    3.37    0.41
  -7   0  -1    2.34    0.39
   7   0   1    2.28    0.39
   7   0   1    2.20    0.30
   7   0   1    2.44    0.39
   7  -1  -1    7.02    0.59
   7  -1  -1    6.22    0.63
  -7   1   1    8.68    0.64
   6  -1  -1    7.97    0.60
   6  -1  -1    8.15    0.61
   6  -1  -1    7.76    0.49
  -6   1   1    8.65    0.56
  -6   1   1    8.40    0.61
  -6   1   1    9.13    0.56
   5  -1  -1   26.55    1.19
   5  -1  -1   26.90    1.06
   5  -1  -1   24.26    1.15
  -5   1   1   28.81    1.19
  -5   1   1   28.03    1.11
  -5   1   1   28.25    1.02
  -5   1   1   28.61    1.16
   4  -1  -1   30.60    1.09
   4  -1  -1   32.55    1.28
   4  -1  -1   31.07    1.30
   4  -1  -1   32.66    1.19
  -4   1   1   35.22    1.13
  -4   1   1   34.14    1.15
  -4   1   1   31.77    1.27
  -4   1   1   34.34    1.26
  -4   1   1   32.46    1.29
  -4   1   1   32.88    1.23
   3  -1  -1    0.19    0.11
   3  -1  -1    0.21    0.18
   3  -1  -1    0.18    0.17
  -3   1   1    0.28    0.19
  -3   1   1    0.23    0.12
  -3   1   1    0.42    0.11
  -3   1   1    0.28    0.09
  -3   1   1    0.23    0.14
  -3   1   1    0.31    0.18
  -3   1   1    0.29    0.12
  -3   1   1    0.40    0.09
  -3   1   1    0.12    0.14
   2  -1  -1   59.49    2.06
   2  -1  -1   57.26    1.99
   2  -1  -1   57.87    1.99
   2  -1  -1   57.19    1.91
   2  -1  -1   57.36    1.94
  -2   1   1   60.90    1.99
  -2   1   1   59.41    2.12
  -2   1   1   56.46    1.98
  -2   1   1   58.48    1.78
  -2   1   1   60.22    1.78
  -2   1   1   58.41    1.96
  -2   1   1   60.32    1.86
  -2   1   1   59.90    1.94
  -2   1   1   60.76    2.09
  -2   1   1   53.97    2.21
  -2   1   1   57.74    1.96
  -2   1   1   56.13    1.96
   1  -1  -1  253.29    8.14
   1  -1  -1  253.52    8.47
   1  -1  -1  254.94    8.00
   1  -1  -1  228.96    8.44
   1  -1  -1  262.67    8.91
   1  -1  -1  264.21    8.27
   1  -1  -1  258.74    7.50
   1  -1  -1  253.86    8.47
  -1   1   1  252.39    8.29
  -1   1   1  258.47    8.27
  -1   1   1  260.17    8.97
  -1   1   1  247.88    8.51
  -1   1   1  253.67    8.38
  -1   1   1  255.24    7.57
  -1   1   1  251.45    8.50
  -1   1   1  265.44    8.53
   0  -1  -1   43.05    1.44
   0  -1  -1   43.10    1.47
   0  -1  -1   38.88    1.46
   0  -1  -1   40.96    1.38
   0  -1  -1   41.94    1.41
   0  -1  -1   41.41    1.52
   0  -1  -1   42.28    1.48
   0   1   1   41.17    1.50
   0   1   1   39.81    1.45
   0   1   1   40.83    1.45
   0   1   1   41.72    1.32
   0   1   1   42.53    1.45
   0   1   1   42.57    1.42
   0   1   1   38.96    1.36
  -1  -1  -1    1.83    0.16
  -1  -1  -1    2.05    0.19
  -1  -1  -1    2.52    0.18
  -1  -1  -1    2.27    0.18
  -1  -1  -1    2.11    0.13
  -1  -1  -1    2.20    0.15
  -1  -1  -1    1.80    0.16
   1   1   1    2.22    0.20
   1   1   1    2.31    0.13
   1   1   1    1.97    0.17
   1   1   1    2.28    0.19
   1   1   1    2.09    0.17
   1   1   1    2.09    0.18
   1   1   1    2.42    0.18
   1   1   1    2.24    0.16
  -2  -1  -1   23.77    0.88
  -2  -1  -1   24.12    0.96
  -2  -1  -1   23.50    0.83
  -2  -1  -1   22.67    0.87
  -2  -1  -1   23.74    0.91
  -2  -1  -1   24.57    0.79
   2   1   1   23.79    0.82
   2   1   1   23.58    0.93
   2   1   1   22.88    0.90
   2   1   1   23.12    0.78
   2   1   1   22.80    0.94
   2   1   1   22.14    0.92
   2   1   1   23.43    0.86
  -3  -1  -1    2.52    0.27
  -3  -1  -1    2.29    0.23
  -3  -1  -1    2.65    0.26
  -3  -1  -1    2.44    0.28
  -3  -1  -1    2.38    0.16
   3   1   1    2.74    0.28
   3   1   1    2.80    0.26
   3   1   1    2.49    0.24
   3   1   1    2.51    0.29
   3   1   1    2.39    0.17
  -4  -1  -1    3.53    0.34
  -4  -1  -1    3.44    0.31
  -4  -1  -1    3.50    0.29
  -4  -1  -1    3.89    0.34
   4   1   1    3.55    0.31
   4   1   1    3.52    0.37
   4   1   1    3.41    0.28
   4   1   1    3.36    0.35
   4   1   1    4.07    0.34
  -5  -1  -1   12.76    0.68
  -5  -1  -1   12.47    0.61
  -5  -1  -1   13.45    0.70
  -5  -1  -1   13.97    0.67
   5   1   1   13.06    0.73
   5   1   1   13.07    0.63
   5   1   1   13.23    0.68
   5   1   1   13.38    0.71
   5   1   1   13.73    0.79
  -6  -1  -1   58.56    2.17
   6   1   1   55.37    2.03
   6   1   1   50.56    2.07
   6   1   1   51.32    2.10
  -7  -1  -1    1.51    0.33
   7   1   1    0.53    0.24
   7   1   1    1.21    0.26
   7   1   1    0.91    0.28
   7  -2  -1    3.45    0.47
   7  -2  -1    3.14    0.45
  -7   2   1    4.69    0.56
   6  -2  -1    4.87    0.51
   6  -2  -1    4.57    0.49
  -6   2   1    4.76    0.42
  -6   2   1    5.48    0.42
  -6   2   1    5.04    0.53
   5  -2  -1   14.06    0.76
   5  -2  -1   13.36    0.77
  -5   2   1   15.41    0.80
  -5   2   1   14.67    0.62
  -5   2   1   14.60    0.65
  -5   2   1   14.94    0.66
  -5   2   1   13.47    0.73
  -5   2   1   15.18    0.70
   4  -2  -1   14.74    0.73
   4  -2  -1   14.47    0.76
   4  -2  -1   15.91    0.56
  -4   2   1   16.98    0.59
  -4   2   1   16.30    0.77
  -4   2   1   17.36    0.56
  -4   2   1   16.22    0.62
  -4   2   1   16.51    0.68
  -4   2   1   15.74    0.63
  -4   2   1   16.37    0.69
  -4   2   1   15.40    0.75
   3  -2  -1  152.32    4.90
   3  -2  -1  147.16    5.05
   3  -2  -1  154.97    5.05
   3  -2  -1  148.93    5.21
   3  -2  -1  150.35    5.03
   3  -2  -1  150.79    5.10
  -3   2   1  155.39    5.43
  -3   2   1  148.75    5.10
  -3   2   1  158.56    5.12
  -3   2   1  149.10    4.55
  -3   2   1  150.30    5.04
  -3   2   1  151.11    4.56
  -3   2   1  154.14    4.94
  -3   2   1  150.50    5.03
  -3   2   1  150.17    4.98
   2  -2  -1   23.12    0.92
   2  -2  -1   23.39    0.93
   2  -2  -1   22.45    0.83
   2  -2  -1   22.10    0.84
   2  -2  -1   23.16    0.87
   2  -2  -1   22.37    0.76
  -2   2   1   21.62    0.89
  -2   2   1   21.97    0.82
  -2   2   1   22.12    0.73
  -2   2   1   22.69    0.83
  -2   2   1   23.18    0.91
  -2   2   1   21.41    0.82
   1  -2  -1  237.94    7.61
   1  -2  -1  236.29    8.15
   1  -2  -1  233.92    7.77
   1  -2  -1  224.82    7.49
   1  -2  -1  222.02    7.77
   1  -2  -1  232.48    7.76
   1  -2  -1  234.96    6.91
   1  -2  -1  233.66    6.84
  -1   2   1  225.42    7.46
  -1   2   1  235.12    7.61
  -1   2   1  234.38    7.34
  -1   2   1  225.20    6.70
  -1   2   1  216.58    7.61
  -1   2   1  227.48    7.99
   0  -2  -1  101.26    3.42
   0  -2  -1  103.92    3.37
   0  -2  -1  102.76    3.57
   0  -2  -1  102.53    3.03
   0  -2  -1   99.54    3.43
   0  -2  -1   99.60    3.29
   0  -2  -1   87.25    3.41
   0  -2  -1  101.13    3.34
   0   2   1   99.00    3.39
   0   2   1  103.39    3.32
   0   2   1   99.88    3.27
   0   2   1   98.33    3.10
   0   2   1   97.73    3.53
   0   2   1  101.45    3.35
   0   2   1   92.78    3.19
  -1  -2  -1    8.53    0.41
  -1  -2  -1    7.80    0.37
  -1  -2  -1    7.81    0.43
  -1  -2  -1    8.31    0.33
  -1  -2  -1    8.34    0.41
  -1  -2  -1    8.57    0.37
  -1  -2  -1    8.20    0.39
  -1  -2  -1    8.13    0.35
   1   2   1    8.26    0.42
   1   2   1    8.19    0.39
   1   2   1    8.29    0.32
   1   2   1    8.04    0.40
   1   2   1    7.58    0.36
   1   2   1    8.49    0.38
  -2  -2  -1  158.23    5.32
  -2  -2  -1  167.03    5.05
  -2  -2  -1  162.72    5.62
  -2  -2  -1  161.88    5.42
  -2  -2  -1  163.67    5.26
  -2  -2  -1  168.17    5.59
   2   2   1  163.93    5.49
   2   2   1  161.73    5.23
   2   2   1  161.59    5.34
   2   2   1  159.32    5.38
   2   2   1  155.96    5.78
   2   2   1  161.28    4.96
   2   2   1  161.76    5.50
  -3  -2  -1    2.86    0.27
  -3  -2  -1    2.68    0.31
  -3  -2  -1    3.14    0.27
  -3  -2  -1    3.17    0.18
  -3  -2  -1    2.91    0.29
  -3  -2  -1    2.83    0.21
   3   2   1    2.88    0.30
   3   2   1    2.97    0.22
   3   2   1    2.73    0.29
   3   2   1    2.81    0.31
   3   2   1    2.15    0.26
   3   2   1    2.77    0.21
   3   2   1    2.88    0.23
  -4  -2  -1   20.39    0.76
  -4  -2  -1   21.12    0.87
  -4  -2  -1   19.57    0.86
  -4  -2  -1   21.18    0.96
  -4  -2  -1   20.99    0.91
   4   2   1   19.97    0.92
   4   2   1   19.52    0.94
   4   2   1   20.62    0.99
   4   2   1   21.10    0.88
   4   2   1   21.80    0.89
  -5  -2  -1   11.53    0.66
  -5  -2  -1   12.59    0.64
  -5  -2  -1   11.05    0.60
  -5  -2  -1   12.09    0.68
   5   2   1   10.53    0.60
   5   2   1   12.24    0.66
   5   2   1   11.45    0.60
   5   2   1   10.68    0.68
   5   2   1   10.81    0.71
  -6  -2  -1   -0.02    0.22
  -6  -2  -1    0.06    0.21
   6   2   1    0.01    0.20
   6   2   1    0.17    0.19
   6   2   1    0.00    0.19
   6   2   1   -0.25    0.20
   7   2   1    0.08    0.21
   7   2   1    0.43    0.22
   7  -3  -1    2.50    0.40
  -7   3   1    2.96    0.50
   6  -3  -1    0.62    0.26
   6  -3  -1    0.63    0.25
  -6   3   1    0.80    0.24
  -6   3   1    1.12    0.35
   5  -3  -1    9.50    0.58
   5  -3  -1    9.42    0.63
  -5   3   1    9.34    0.46
  -5   3   1    9.35    0.56
  -5   3   1    9.51    0.64
  -5   3   1    8.86    0.49
  -5   3   1    9.36    0.49
   4  -3  -1    1.23    0.13
   4  -3  -1    1.15    0.13
   4  -3  -1    1.38    0.24
   4  -3  -1    1.27    0.16
   4  -3  -1    1.16    0.24
  -4   3   1    1.49    0.18
  -4   3   1    1.03    0.18
  -4   3   1    1.55    0.23
  -4   3   1    1.43    0.20
  -4   3   1    1.30    0.17
  -4   3   1    1.24    0.11
  -4   3   1    1.32    0.29
  -4   3   1    1.38    0.16
   3  -3  -1   28.92    1.09
   3  -3  -1   30.36    1.11
   3  -3  -1   31.05    1.09
   3  -3  -1   29.62    1.09
   3  -3  -1   29.72    1.15
   3  -3  -1   29.83    1.23
  -3   3   1   30.95    1.04
  -3   3   1   30.19    1.16
  -3   3   1   31.15    1.14
  -3   3   1   30.21    1.15
  -3   3   1   30.30    1.25
  -3   3   1   32.64    1.15
   2  -3  -1   44.74    1.65
   2  -3  -1   45.00    1.74
   2  -3  -1   50.40    1.69
   2  -3  -1   46.54    1.50
   2  -3  -1   48.86    1.80
   2  -3  -1   45.99    1.68
   2  -3  -1   47.70    1.50
   2  -3  -1   46.79    1.50
   2  -3  -1   47.62    1.68
  -2   3   1   44.67    1.66
  -2   3   1   45.70    1.64
  -2   3   1   46.80    1.46
  -2   3   1   47.21    1.63
  -2   3   1   46.82    1.76
   1  -3  -1    7.42    0.40
   1  -3  -1    7.31    0.28
   1  -3  -1    7.18    0.41
   1  -3  -1    6.47    0.36
   1  -3  -1    7.33    0.39
   1  -3  -1    7.44    0.32
   1  -3  -1    6.77    0.39
   1  -3  -1    6.94    0.39
   1  -3  -1    7.32    0.39
  -1   3   1    6.64    0.37
  -1   3   1    6.79    0.36
  -1   3   1    7.00    0.31
  -1   3   1    6.94    0.34
  -1   3   1    7.22    0.40
  -1   3   1    6.38    0.38
   0  -3  -1  435.80   14.63
   0  -3  -1  431.41   12.96
   0  -3  -1  433.20   14.29
   0  -3  -1  439.02   13.05
   0  -3  -1  431.14   14.79
   0  -3  -1  438.99   14.05
   0  -3  -1  448.02   14.49
   0   3   1  430.63   13.25
   0   3   1  419.28   13.40
   0   3   1  402.84   14.43
   0   3   1  421.41   13.67
   0   3   1  383.84   13.78
  -1  -3  -1    3.43    0.28
  -1  -3  -1    2.86    0.24
  -1  -3  -1    3.03    0.28
  -1  -3  -1    2.82    0.29
  -1  -3  -1    3.68    0.35
   1   3   1    2.94    0.30
   1   3   1    2.70    0.27
   1   3   1    2.94    0.23
   1   3   1    3.15    0.27
   1   3   1    3.34    0.33
  -2  -3  -1    9.01    0.47
  -2  -3  -1    9.38    0.54
  -2  -3  -1    7.99    0.44
  -2  -3  -1    8.59    0.42
  -2  -3  -1    9.29    0.49
  -2  -3  -1    9.25    0.51
   2   3   1    8.35    0.35
   2   3   1    8.09    0.47
   2   3   1    8.97    0.44
   2   3   1    8.24    0.32
   2   3   1    8.55    0.47
   2   3   1    7.72    0.49
  -3  -3  -1   77.98    2.78
  -3  -3  -1   74.42    2.69
  -3  -3  -1   80.08    2.92
  -3  -3  -1   83.70    3.01
  -3  -3  -1   82.77    2.87
  -3  -3  -1   79.20    2.51
  -3  -3  -1   80.47    2.67
   3   3   1   77.65    2.76
   3   3   1   77.44    2.86
   3   3   1   77.79    2.67
   3   3   1   78.92    2.47
   3   3   1   80.16    2.87
   3   3   1   79.43    2.98
   3   3   1   78.85    2.70
  -4  -3  -1    9.41    0.55
  -4  -3  -1   10.36    0.52
  -4  -3  -1    9.38    0.46
  -4  -3  -1    9.09    0.58
  -4  -3  -1    9.82    0.60
   4   3   1    9.85    0.62
   4   3   1    9.47    0.56
   4   3   1    9.49    0.59
   4   3   1    9.11    0.46
   4   3   1    8.62    0.57
   4   3   1    9.49    0.46
  -5  -3  -1    5.40    0.48
  -5  -3  -1    6.01    0.49
  -5  -3  -1    5.73    0.43
  -5  -3  -1    5.36    0.44
   5   3   1    5.57    0.54
   5   3   1    5.87    0.44
   5   3   1    4.86    0.36
   5   3   1    5.32    0.48
   5   3   1    5.75    0.52
  -6  -3  -1    2.50    0.38
  -6  -3  -1    2.88    0.34
   6   3   1    2.00    0.34
   6   3   1    2.55    0.41
   6   3   1    2.40    0.41
   7  -4  -1    1.52    0.35
  -7   4   1    1.49    0.42
   6  -4  -1   16.69    0.96
   6  -4  -1   15.67    0.84
  -6   4   1   17.31    0.98
  -6   4   1   16.88    0.89
   5  -4  -1    5.49    0.43
   5  -4  -1    5.41    0.29
   5  -4  -1    5.09    0.52
  -5   4   1    5.13    0.54
  -5   4   1    4.67    0.40
  -5   4   1    5.09    0.33
  -5   4   1    5.24    0.39
   4  -4  -1    2.62    0.27
   4  -4  -1    2.81    0.23
   4  -4  -1    2.53    0.22
   4  -4  -1    2.83    0.36
  -4   4   1    3.32    0.28
  -4   4   1    2.63    0.38
  -4   4   1    2.72    0.30
  -4   4   1    2.73    0.32
  -4   4   1    3.03    0.29
  -4   4   1    2.67    0.25
   3  -4  -1   37.26    1.41
   3  -4  -1   37.80    1.37
   3  -4  -1   37.74    1.41
   3  -4  -1   39.36    1.41
   3  -4  -1   38.46    1.55
   3  -4  -1   39.12    1.29
   3  -4  -1   37.17    1.52
  -3   4   1   37.53    1.49
  -3   4   1   36.38    1.39
  -3   4   1   35.93    1.39
  -3   4   1   38.28    1.38
  -3   4   1   36.92    1.23
   2  -4  -1    7.65    0.43
   2  -4  -1    5.94    0.39
   2  -4  -1    7.80    0.36
   2  -4  -1    7.25    0.44
   2  -4  -1    7.19    0.41
   2  -4  -1    7.48    0.31
   2  -4  -1    6.83    0.43
   2  -4  -1    7.66    0.42
  -2   4   1    6.31    0.39
  -2   4   1    7.12    0.42
  -2   4   1    6.96    0.33
  -2   4   1    7.10    0.41
  -2   4   1    6.89    0.42
   1  -4  -1  354.14   10.52
   1  -4  -1  341.92   11.41
   1  -4  -1  359.57   11.60
   1  -4  -1  348.22   11.85
   1  -4  -1  349.86   10.42
   1  -4  -1  350.70   11.77
   1  -4  -1  352.40   11.89
   1  -4  -1  361.79   12.42
  -1   4   1  345.06   11.31
  -1   4   1  334.64   11.97
  -1   4   1  334.33   10.05
  -1   4   1  333.74   11.43
  -1   4   1  347.90   11.12
  -1   4   1  338.01   11.18
  -1   4   1  343.62   11.01
   0  -4  -1    3.17    0.33
   0  -4  -1    3.38    0.24
   0  -4  -1    3.58    0.26
   0  -4  -1    3.67    0.33
   0  -4  -1    2.80    0.30
   0  -4  -1    3.23    0.29
   0  -4  -1    3.09    0.19
   0  -4  -1    3.79    0.33
   0   4   1    2.55    0.28
   0   4   1    2.68    0.29
   0   4   1    3.23    0.29
   0   4   1    3.06    0.28
   0   4   1    3.15    0.32
  -1  -4  -1   70.54    2.55
  -1  -4  -1   71.24    2.45
  -1  -4  -1   66.78    2.41
  -1  -4  -1   68.48    2.59
   1   4   1   66.67    2.14
   1   4   1   65.97    2.35
   1   4   1   62.78    2.49
   1   4   1   70.72    2.45
   1   4   1   65.51    2.32
   1   4   1   66.21    2.38
  -2  -4  -1   62.10    2.36
  -2  -4  -1   66.43    2.27
  -2  -4  -1   65.94    2.40
  -2  -4  -1   61.40    2.12
  -2  -4  -1   62.09    2.31
  -2  -4  -1   60.54    2.21
  -2  -4  -1   60.27    2.24
   2   4   1   62.11    2.30
   2   4   1   61.03    1.95
   2   4   1   59.19    2.20
   2   4   1   62.21    2.16
   2   4   1   59.38    2.25
  -3  -4  -1    0.12    0.20
  -3  -4  -1    0.00    0.13
  -3  -4  -1   -0.14    0.12
  -3  -4  -1   -0.02    0.15
  -3  -4  -1    0.06    0.18
   3   4   1   -0.22    0.18
   3   4   1    0.16    0.09
   3   4   1    0.07    0.15
   3   4   1    0.19    0.15
   3   4   1    0.06    0.19
   3   4   1    0.12    0.17
  -4  -4  -1    0.76    0.27
  -4  -4  -1    0.82    0.21
  -4  -4  -1    1.04    0.28
  -4  -4  -1    0.57    0.17
   4   4   1    0.65    0.19
   4   4   1    0.94    0.27
   4   4   1    0.86    0.27
   4   4   1    0.81    0.26
   4   4   1    0.85    0.25
  -5  -4  -1    4.24    0.38
  -5  -4  -1    4.11    0.49
  -5  -4  -1    4.14    0.46
   5   4   1    3.92    0.43
   5   4   1    4.25    0.49
   5   4   1    4.54    0.49
   5   4   1    3.79    0.47
  -6  -4  -1   12.44    0.75
   6   4   1    9.47    0.72
   6   4   1   11.19    0.79
   6   4   1   11.62    0.74
   6  -5  -1    2.42    0.41
  -6   5   1    2.61    0.47
  -6   5   1    2.18    0.35
   5  -5  -1    0.71    0.15
   5  -5  -1    0.50    0.24
  -5   5   1    0.54    0.19
  -5   5   1    0.48    0.29
  -5   5   1    0.17    0.19
  -5   5   1    0.71    0.20
   4  -5  -1   64.22    2.19
   4  -5  -1   59.20    2.17
   4  -5  -1   61.97    2.13
   4  -5  -1   56.56    2.34
  -4   5   1   57.40    2.20
  -4   5   1   65.10    2.19
  -4   5   1   58.22    2.36
  -4   5   1   60.84    1.97
   3  -5  -1   53.25    2.00
   3  -5  -1   53.54    2.03
   3  -5  -1   58.07    2.03
   3  -5  -1   57.97    1.83
   3  -5  -1   53.99    2.11
  -3   5   1   56.17    2.04
  -3   5   1   55.18    2.00
  -3   5   1   54.62    2.15
  -3   5   1   54.67    1.78
  -3   5   1   53.63    2.01
   2  -5  -1    4.80    0.26
   2  -5  -1    4.24    0.29
   2  -5  -1    4.75    0.36
   2  -5  -1    5.07    0.38
   2  -5  -1    4.82    0.38
   2  -5  -1    4.30    0.35
  -2   5   1    4.37    0.35
  -2   5   1    4.52    0.35
  -2   5   1    5.08    0.30
  -2   5   1    4.87    0.38
  -2   5   1    4.39    0.34
  -2   5   1    4.27    0.34
   1  -5  -1   25.92    1.05
   1  -5  -1   25.57    1.08
   1  -5  -1   24.00    1.04
   1  -5  -1   22.90    1.04
   1  -5  -1   24.50    0.98
   1  -5  -1   24.34    0.90
   1  -5  -1   28.26    1.11
   1  -5  -1   25.22    0.85
   1  -5  -1   26.12    0.94
  -1   5   1   22.80    1.02
  -1   5   1   25.18    1.01
  -1   5   1   23.09    0.95
  -1   5   1   23.82    1.03
  -1   5   1   23.15    0.98
  -1   5   1   24.60    0.99
   0  -5  -1   30.56    1.10
   0  -5  -1   32.13    1.32
   0  -5  -1   31.72    1.29
   0  -5  -1   30.80    1.26
   0  -5  -1   35.47    1.28
   0  -5  -1   30.47    1.31
   0   5   1   29.31    1.26
   0   5   1   31.32    1.21
   0   5   1   30.39    1.21
   0   5   1   30.59    1.19
   0   5   1   29.44    1.26
  -1  -5  -1   -0.10    0.10
  -1  -5  -1    0.15    0.17
  -1  -5  -1    0.10    0.14
  -1  -5  -1    0.04    0.16
  -1  -5  -1    0.04    0.14
   1   5   1    0.10    0.10
   1   5   1    0.13    0.15
   1   5   1    0.18    0.14
   1   5   1    0.22    0.17
   1   5   1    0.09    0.16
   1   5   1    0.09    0.15
  -2  -5  -1   30.27    1.21
  -2  -5  -1   28.99    1.28
  -2  -5  -1   27.15    1.16
  -2  -5  -1   28.31    1.22
   2   5   1   29.12    1.21
   2   5   1   27.52    1.24
   2   5   1   29.51    1.00
   2   5   1   27.81    1.21
   2   5   1   27.52    1.16
  -3  -5  -1    4.16    0.43
  -3  -5  -1    4.38    0.49
  -3  -5  -1    3.68    0.38
  -3  -5  -1    4.42    0.33
   3   5   1    4.35    0.25
   3   5   1    4.49    0.45
   3   5   1    4.30    0.40
   3   5   1    4.84    0.50
   3   5   1    4.18    0.44
  -4  -5  -1    6.74    0.56
  -4  -5  -1    7.74    0.60
  -4  -5  -1    7.04    0.43
   4   5   1    6.78    0.55
   4   5   1    6.65    0.52
   4   5   1    6.69    0.56
   4   5   1    6.48    0.54
   4   5   1    7.46    0.48
  -5  -5  -1   -0.14    0.24
  -5  -5  -1    0.62    0.20
   5   5   1    0.45    0.25
   5   5   1    0.84    0.28
   5   5   1    0.07    0.20
   5   5   1    0.42    0.25
  -6  -5  -1    1.91    0.38
   6   5   1    1.23    0.33
   6   5   1    1.06    0.34
   6   5   1    2.04    0.40
  -6   6   1    1.39    0.31
  -6   6   1    1.50    0.43
   5  -6  -1    5.92    0.39
   5  -6  -1    4.85    0.54
  -5   6   1    5.52    0.59
  -5   6   1    5.35    0.44
  -5   6   1    4.95    0.45
   4  -6  -1    0.34    0.22
   4  -6  -1    0.17    0.16
  -4   6   1    0.10    0.17
  -4   6   1    0.28    0.21
  -4   6   1   -0.01    0.17
  -4   6   1    0.21    0.19
   3  -6  -1   51.83    1.86
   3  -6  -1   48.33    1.66
   3  -6  -1   45.72    1.90
  -3   6   1   45.26    1.59
  -3   6   1   44.87    1.91
  -3   6   1   48.35    1.85
  -3   6   1   49.73    1.78
  -3   6   1   47.29    1.82
  -3   6   1   48.39    1.81
   2  -6  -1   18.73    0.86
   2  -6  -1   18.77    0.70
   2  -6  -1   16.77    0.72
   2  -6  -1   17.87    0.82
   2  -6  -1   16.91    0.83
  -2   6   1   16.76    0.69
  -2   6   1   17.66    0.80
  -2   6   1   16.76    0.75
  -2   6   1   18.34    0.84
  -2   6   1   15.24    0.81
  -2   6   1   16.33    0.83
  -2   6   1   15.86    0.79
   1  -6  -1    3.91    0.38
   1  -6  -1    3.71    0.40
   1  -6  -1    3.95    0.29
   1  -6  -1    3.68    0.28
  -1   6   1    3.99    0.40
  -1   6   1    4.15    0.33
  -1   6   1    3.79    0.35
  -1   6   1    4.25    0.44
  -1   6   1    3.64    0.37
  -1   6   1    4.76    0.40
   0  -6  -1    3.82    0.38
   0  -6  -1    3.39    0.30
   0  -6  -1    3.47    0.39
   0   6   1    3.46    0.37
   0   6   1    2.76    0.34
   0   6   1    2.47    0.31
   0   6   1    3.51    0.32
   0   6   1    3.56    0.41
   0   6   1    3.59    0.33
  -1  -6  -1   47.43    1.56
  -1  -6  -1   44.27    1.80
  -1  -6  -1   43.91    1.84
   1   6   1   42.03    1.73
   1   6   1   42.16    1.67
   1   6   1   39.43    1.72
   1   6   1   43.16    1.47
   1   6   1   43.12    1.65
   1   6   1   41.57    1.66
  -2  -6  -1    0.53    0.25
  -2  -6  -1    1.37    0.22
  -2  -6  -1    1.14    0.31
   2   6   1    0.91    0.17
   2   6   1    0.82    0.28
   2   6   1    1.01    0.25
   2   6   1    1.02    0.25
   2   6   1    0.47    0.27
  -3  -6  -1    1.44    0.32
  -3  -6  -1    0.61    0.26
   3   6   1    1.72    0.36
   3   6   1    1.08    0.32
   3   6   1    1.17    0.16
   3   6   1    0.67    0.25
   3   6   1    1.39    0.28
  -4  -6  -1    0.17    0.27
  -4  -6  -1    0.40    0.24
   4   6   1    0.02    0.20
   4   6   1    0.57    0.25
   4   6   1    0.37    0.26
  -5  -6  -1    1.05    0.33
   5   6   1    0.88    0.31
   5   6   1    0.69    0.30
   5   6   1    0.67    0.28
   5  -7  -1    0.24    0.21
   5  -7  -1    0.05    0.16
  -5   7   1   -0.11    0.18
  -5   7   1    0.25    0.31
  -5   7   1    0.05    0.18
   4  -7  -1    0.09    0.17
   4  -7  -1   -0.08    0.16
   4  -7  -1    0.03    0.20
  -4   7   1   -0.19    0.16
  -4   7   1    0.26    0.22
  -4   7   1   -0.34    0.15
  -4   7   1    0.13    0.19
   3  -7  -1    5.55    0.47
   3  -7  -1    5.27    0.43
   3  -7  -1    5.24    0.37
  -3   7   1    5.98    0.49
  -3   7   1    5.00    0.44
  -3   7   1    5.85    0.47
  -3   7   1    5.01    0.38
  -3   7   1    5.35    0.46
  -3   7   1    5.02    0.44
   2  -7  -1    5.74    0.48
   2  -7  -1    6.21    0.39
   2  -7  -1    5.47    0.47
   2  -7  -1    5.96    0.42
  -2   7   1    5.87    0.48
  -2   7   1    5.48    0.46
  -2   7   1    6.56    0.54
  -2   7   1    5.45    0.44
  -2   7   1    5.68    0.41
  -2   7   1    6.47    0.49
   1  -7  -1   19.85    0.99
   1  -7  -1   19.44    0.96
   1  -7  -1   21.22    0.84
   1  -7  -1   20.38    0.85
  -1   7   1   20.86    1.00
  -1   7   1   20.01    0.94
  -1   7   1   18.60    0.97
  -1   7   1   20.43    0.98
  -1   7   1   18.51    0.90
   0  -7  -1    2.16    0.35
   0  -7  -1    1.89    0.33
   0  -7  -1    2.10    0.27
   0   7   1    1.53    0.33
   0   7   1    1.73    0.29
   0   7   1    2.00    0.31
   0   7   1    1.92    0.32
   0   7   1    1.57    0.31
   0   7   1    1.80    0.26
  -1  -7  -1    0.00    0.13
  -1  -7  -1    0.24    0.24
  -1  -7  -1   -0.06    0.22
   1   7   1   -0.20    0.19
   1   7   1   -0.25    0.21
   1   7   1    0.06    0.18
   1   7   1   -0.38    0.12
   1   7   1   -0.03    0.24
   1   7   1    0.16    0.18
  -2  -7  -1   36.15    1.35
  -2  -7  -1   34.85    1.55
  -2  -7  -1   38.11    1.64
   2   7   1   34.82    1.57
   2   7   1   37.52    1.54
   2   7   1   37.10    1.57
   2   7   1   37.00    1.31
   2   7   1   37.28    1.66
  -3  -7  -1   14.50    0.87
  -3  -7  -1   16.87    0.95
   3   7   1   15.09    0.88
   3   7   1   16.68    0.85
   3   7   1   13.51    0.90
  -4  -7  -1    2.03    0.41
  -4  -7  -1    2.39    0.41
   4   7   1    2.78    0.46
   4   7   1    3.45    0.46
   4   7   1    2.04    0.39
   5  -8  -1   -0.02    0.22
   5  -8  -1    0.06    0.18
  -5   8   1    0.57    0.32
   4  -8  -1    2.14    0.36
   4  -8  -1    2.93    0.37
  -4   8   1    1.37    0.31
  -4   8   1    1.80    0.35
  -4   8   1    2.58    0.31
  -4   8   1    1.78    0.33
   3  -8  -1   21.14    0.90
   3  -8  -1   20.84    1.00
   3  -8  -1   19.18    0.98
  -3   8   1   21.24    0.98
  -3   8   1   18.64    0.98
  -3   8   1   19.73    0.92
  -3   8   1   20.66    1.02
  -3   8   1   18.38    1.00
   2  -8  -1    0.37    0.24
   2  -8  -1    0.14    0.16
   2  -8  -1    0.37    0.18
   2  -8  -1    0.32    0.23
  -2   8   1    0.32    0.21
  -2   8   1    0.28    0.25
  -2   8   1    0.21    0.19
  -2   8   1    0.20    0.18
  -2   8   1    0.35    0.26
  -2   8   1    0.21    0.23
   1  -8  -1   12.39    0.80
   1  -8  -1   13.56    0.80
   1  -8  -1   14.91    0.68
  -1   8   1   12.09    0.76
  -1   8   1   12.74    0.76
  -1   8   1   14.40    0.84
  -1   8   1   13.29    0.77
  -1   8   1   11.86    0.70
   0  -8  -1    3.67    0.36
   0  -8  -1    3.50    0.46
   0  -8  -1    3.81    0.46
   0   8   1    3.63    0.47
   0   8   1    4.08    0.47
   0   8   1    4.34    0.47
   0   8   1    4.15    0.44
   0   8   1    5.00    0.56
   0   8   1    4.13    0.39
  -1  -8  -1   15.14    0.89
  -1  -8  -1   13.25    0.82
   1   8   1   13.00    0.78
   1   8   1   15.44    0.67
   1   8   1   12.72    0.81
   1   8   1   13.60    0.87
   1   8   1   14.64    0.83
  -2  -8  -1    0.01    0.24
  -2  -8  -1    0.05    0.24
   2   8   1    0.09    0.20
   2   8   1   -0.12    0.23
   2   8   1    0.30    0.15
   2   8   1   -0.14    0.22
  -3  -8  -1    0.28    0.26
  -3  -8  -1    0.26    0.28
   3   8   1    0.44    0.27
   3   8   1    0.68    0.31
   3   8   1    0.21    0.22
  -4  -8  -1    9.35    0.75
  -4  -8  -1    7.42    0.68
   4   8   1    7.70    0.66
   4   8   1    8.88    0.84
   4   8   1    8.18    0.68
   4  -9  -1    1.70    0.35
   4  -9  -1    1.95    0.35
   3  -9  -1   16.89    0.92
  -3   9   1   14.94    0.79
   2  -9  -1   12.25    0.78
   2  -9  -1   12.86    0.78
  -2   9   1   13.28    0.85
  -2   9   1   12.05    0.78
  -2   9   1   11.99    0.71
   1  -9  -1    0.47    0.25
   1  -9  -1    0.36    0.24
  -1   9   1    0.48    0.29
  -1   9   1    0.14    0.18
  -1   9   1    0.09    0.21
  -1   9   1    0.42    0.20
   0  -9  -1    1.45    0.36
   0  -9  -1    0.82    0.30
   0   9   1    1.24    0.30
   0   9   1    0.91    0.24
   0   9   1    1.77    0.40
   0   9   1    1.02    0.28
  -1  -9  -1   20.24    1.11
  -1  -9  -1   22.33    1.19
   1   9   1   18.52    1.03
   1   9   1   20.59    0.88
   1   9   1   20.07    1.14
  -2  -9  -1    1.65    0.39
  -2  -9  -1    1.97    0.42
   2   9   1    1.32    0.33
   2   9   1    1.43    0.40
  -3  -9  -1    0.64    0.33
   3   9   1    0.03    0.23
   3   9   1    0.84    0.37
   2 -10  -1   16.06    0.96
  -2  10   1   14.19    0.82
   1 -10  -1    1.23    0.33
   1 -10  -1    1.23    0.36
  -1  10   1    1.04    0.39
  -1  10   1    0.79    0.26
  -1  10   1    0.68    0.24
   0 -10  -1    3.44    0.51
   0 -10  -1    2.12    0.41
   0  10   1    3.24    0.44
   0  10   1    3.06    0.52
   0  10   1    2.69    0.36
  -1 -10  -1    2.07    0.43
  -1 -10  -1    2.30    0.42
   1  10   1    1.74    0.44
   1  10   1    2.15    0.39
   1  11  -2    0.15    0.31
   1  11  -2    0.77    0.27
   1  11  -2    0.50    0.25
  -1 -11   2    0.28    0.29
  -1 -11   2    0.43    0.29
   0  11  -2    0.18    0.21
   0  11  -2   -0.04    0.20
   0  11  -2    0.20    0.35
   0 -11   2   -0.23    0.25
   0 -11   2    0.03    0.25
  -1  11  -2    3.42    0.59
  -1  11  -2    2.97    0.43
   1 -11   2    2.86    0.45
   1 -11   2    4.28    0.55
  -2  11  -2    3.90    0.61
  -2  11  -2    2.75    0.41
  -2  11  -2    3.47    0.52
   2 -11   2    3.35    0.45
   2 -11   2    3.28    0.48
   3  10  -2    0.46    0.27
   3  10  -2    0.58    0.27
   3  10  -2    0.54    0.36
  -3 -10   2    0.70    0.33
  -3 -10   2    0.34    0.30
   2  10  -2    2.19    0.36
   2  10  -2    2.14    0.38
   2  10  -2    3.08    0.52
  -2 -10   2    2.71    0.45
  -2 -10   2    2.88    0.47
   1  10  -2    0.68    0.24
   1  10  -2    1.26    0.39
   1  10  -2    0.67    0.24
   1  10  -2    0.73    0.25
  -1 -10   2    0.72    0.30
  -1 -10   2    0.58    0.28
   0  10  -2    3.63    0.39
   0  10  -2    4.72    0.62
   0  10  -2    3.05    0.42
   0  10  -2    2.70    0.42
   0 -10   2    4.61    0.53
   0 -10   2    4.63    0.56
  -1  10  -2   -0.05    0.17
  -1  10  -2    0.17    0.32
  -1  10  -2   -0.08    0.17
   1 -10   2   -0.01    0.23
   1 -10   2   -0.15    0.22
  -2  10  -2    3.27    0.43
  -2  10  -2    3.43    0.55
  -2  10  -2    3.24    0.47
   2 -10   2    2.76    0.39
   2 -10   2    3.69    0.49
  -3  10  -2    0.51    0.33
   3 -10   2    0.68    0.22
   3 -10   2    0.78    0.28
   3 -10   2    0.85    0.29
   4   9  -2    1.73    0.37
   4   9  -2    1.06    0.39
  -4  -9   2    1.38    0.40
  -4  -9   2    1.60    0.39
   3   9  -2    7.06    0.55
   3   9  -2    6.84    0.71
   3   9  -2    5.60    0.58
  -3  -9   2    7.31    0.65
  -3  -9   2    7.51    0.63
   2   9  -2    3.82    0.54
   2   9  -2    4.36    0.47
   2   9  -2    3.25    0.42
   2   9  -2    3.85    0.42
  -2  -9   2    5.09    0.55
  -2  -9   2    3.00    0.44
   1   9  -2    5.07    0.51
   1   9  -2    4.67    0.44
   1   9  -2    4.44    0.56
   1   9  -2    4.90    0.51
  -1  -9   2    4.88    0.55
  -1  -9   2    5.65    0.55
   0   9  -2   -0.07    0.26
   0   9  -2    0.31    0.20
   0   9  -2   -0.18    0.18
   0   9  -2    0.15    0.19
   0   9  -2   -0.01    0.24
   0   9  -2    0.33    0.20
   0  -9   2    0.45    0.24
   0  -9   2    0.39    0.25
  -1   9  -2   29.84    1.36
  -1   9  -2   31.56    1.46
  -1   9  -2   29.90    1.39
  -1   9  -2   33.87    1.53
  -1   9  -2   33.52    1.40
  -1   9  -2   33.36    1.21
   1  -9   2   32.85    1.43
   1  -9   2   33.80    1.37
   1  -9   2   33.28    1.49
  -2   9  -2   19.66    1.04
  -2   9  -2   22.64    0.85
  -2   9  -2   21.60    1.00
  -2   9  -2   18.95    1.06
  -2   9  -2   21.94    1.17
  -2   9  -2   21.13    1.05
   2  -9   2   21.11    1.03
   2  -9   2   20.94    1.01
   2  -9   2   22.43    1.10
  -3   9  -2    8.11    0.68
  -3   9  -2    8.00    0.63
  -3   9  -2    5.68    0.54
   3  -9   2    7.07    0.58
   3  -9   2    7.78    0.58
   3  -9   2    6.79    0.49
  -4   9  -2    1.79    0.44
   4  -9   2    2.39    0.43
   4  -9   2    2.13    0.36
   5   8  -2    0.80    0.33
   5   8  -2    0.65    0.33
   5   8  -2    0.49    0.27
  -5  -8   2    0.48    0.35
   4   8  -2   15.76    0.86
   4   8  -2   17.15    0.99
   4   8  -2   15.24    0.93
   4   8  -2   16.36    0.99
  -4  -8   2   18.58    1.01
  -4  -8   2   15.81    0.99
   3   8  -2   22.50    1.03
   3   8  -2   23.31    1.19
   3   8  -2   21.24    1.09
  -3  -8   2   27.25    1.06
  -3  -8   2   26.85    1.28
  -3  -8   2   23.98    1.24
   2   8  -2   44.77    1.79
   2   8  -2   35.27    1.65
   2   8  -2   37.02    1.49
   2   8  -2   42.79    1.68
   2   8  -2   37.75    1.64
  -2  -8   2   40.80    1.78
  -2  -8   2   44.11    1.50
  -2  -8   2   39.16    1.73
   1   8  -2   35.58    1.40
   1   8  -2   40.25    1.61
   1   8  -2   36.86    1.57
   1   8  -2   36.70    1.55
   1   8  -2   38.26    1.63
   1   8  -2   41.34    1.71
  -1  -8   2   39.97    1.43
  -1  -8   2   39.89    1.66
  -1  -8   2   39.90    1.70
   0   8  -2    0.39    0.21
   0   8  -2    0.28    0.18
   0   8  -2    0.10    0.17
   0   8  -2    0.45    0.29
   0   8  -2    0.31    0.26
   0   8  -2    0.33    0.19
   0  -8   2    0.35    0.22
   0  -8   2    0.52    0.18
   0  -8   2    0.18    0.22
  -1   8  -2    0.37    0.17
  -1   8  -2    0.23    0.19
  -1   8  -2    0.34    0.24
  -1   8  -2    0.13    0.27
  -1   8  -2    0.59    0.21
   1  -8   2    0.58    0.24
   1  -8   2    1.00    0.21
   1  -8   2    0.43    0.22
  -2   8  -2   10.23    0.58
  -2   8  -2    9.23    0.67
  -2   8  -2    9.03    0.47
  -2   8  -2    8.73    0.60
  -2   8  -2    8.18    0.58
  -2   8  -2    9.67    0.66
   2  -8   2    9.92    0.58
   2  -8   2    9.27    0.53
   2  -8   2    9.75    0.64
  -3   8  -2    0.65    0.32
  -3   8  -2    0.30    0.19
  -3   8  -2    0.32    0.21
  -3   8  -2    0.16    0.21
  -3   8  -2   -0.26    0.24
   3  -8   2   -0.28    0.15
   3  -8   2   -0.18    0.18
   3  -8   2    0.38    0.17
   3  -8   2    0.06    0.16
  -4   8  -2   -0.11    0.19
  -4   8  -2    0.05    0.28
  -4   8  -2   -0.07    0.17
   4  -8   2   -0.06    0.22
   4  -8   2   -0.23    0.15
  -5   8  -2    0.35    0.36
   5  -8   2    0.37    0.29
   5  -8   2    0.42    0.22
   5   7  -2    2.07    0.39
   5   7  -2    3.32    0.50
   5   7  -2    2.23    0.39
  -5  -7   2    2.45    0.46
   4   7  -2    0.26    0.26
   4   7  -2    0.33    0.23
   4   7  -2    0.72    0.30
   4   7  -2    0.16    0.22
  -4  -7   2    0.20    0.16
  -4  -7   2    0.34    0.27
  -4  -7   2    0.38    0.25
   3   7  -2    7.49    0.55
   3   7  -2    7.61    0.61
   3   7  -2    7.92    0.61
   3   7  -2    6.70    0.50
  -3  -7   2    8.75    0.47
  -3  -7   2    7.86    0.61
  -3  -7   2    7.99    0.61
   2   7  -2   14.93    0.77
   2   7  -2   16.00    0.83
   2   7  -2   14.49    0.72
   2   7  -2   12.98    0.75
   2   7  -2   15.14    0.86
  -2  -7   2   16.22    0.88
  -2  -7   2   16.12    0.88
  -2  -7   2   16.62    0.71
   1   7  -2   12.64    0.74
   1   7  -2   10.33    0.61
   1   7  -2    9.76    0.58
   1   7  -2   11.15    0.66
   1   7  -2    9.84    0.55
   1   7  -2   10.54    0.60
  -1  -7   2   12.05    0.56
  -1  -7   2   10.03    0.65
  -1  -7   2   12.22    0.70
   0   7  -2   10.81    0.59
   0   7  -2   10.44    0.60
   0   7  -2   10.58    0.53
   0   7  -2   10.88    0.68
   0   7  -2   11.79    0.63
   0   7  -2   10.44    0.60
   0  -7   2   11.56    0.56
   0  -7   2   12.26    0.67
   0  -7   2   11.20    0.64
   0  -7   2   13.14    0.70
  -1   7  -2    5.94    0.43
  -1   7  -2    6.40    0.44
  -1   7  -2    6.34    0.53
  -1   7  -2    5.42    0.43
  -1   7  -2    6.32    0.37
   1  -7   2    6.62    0.43
   1  -7   2    6.86    0.41
   1  -7   2    5.79    0.45
   1  -7   2    6.81    0.48
  -2   7  -2    3.24    0.36
  -2   7  -2    3.41    0.39
  -2   7  -2    3.80    0.42
  -2   7  -2    3.71    0.27
  -2   7  -2    3.56    0.45
  -2   7  -2    3.80    0.35
   2  -7   2    3.52    0.39
   2  -7   2    3.90    0.35
   2  -7   2    3.89    0.35
   2  -7   2    3.85    0.26
  -3   7  -2    1.56    0.29
  -3   7  -2    1.81    0.35
  -3   7  -2    1.63    0.25
  -3   7  -2    1.40    0.27
  -3   7  -2    1.73    0.38
   3  -7   2    1.66    0.27
   3  -7   2    1.95    0.31
  -4   7  -2    3.19    0.47
  -4   7  -2    3.56    0.42
  -4   7  -2    3.64    0.45
   4  -7   2    4.09    0.40
   4  -7   2    3.15    0.43
  -5   7  -2    0.36    0.23
  -5   7  -2    0.83    0.39
  -5   7  -2    0.16    0.21
   5  -7   2    0.41    0.25
   5  -7   2    0.03    0.17
  -6   7  -2    6.62    0.73
   6  -7   2    6.29    0.48
   6   6  -2    2.06    0.46
   6   6  -2    1.76    0.38
   6   6  -2    2.10    0.38
  -6  -6   2    2.10    0.41
   5   6  -2   12.90    0.76
   5   6  -2   11.67    0.76
   5   6  -2   12.25    0.85
  -5  -6   2   13.50    0.86
  -5  -6   2   14.05    0.66
   4   6  -2   38.25    1.76
   4   6  -2   38.74    1.65
   4   6  -2   38.37    1.64
   4   6  -2   40.40    1.65
   4   6  -2   39.39    1.52
  -4  -6   2   40.01    1.75
  -4  -6   2   42.65    1.46
  -4  -6   2   41.01    1.72
   3   6  -2   32.40    1.35
   3   6  -2   30.88    1.23
   3   6  -2   31.79    1.36
   3   6  -2   28.62    1.29
  -3  -6   2   32.85    1.43
  -3  -6   2   33.86    1.33
  -3  -6   2   32.34    1.44
  -3  -6   2   34.37    1.23
  -3  -6   2   33.67    1.20
   2   6  -2    2.23    0.28
   2   6  -2    2.64    0.30
   2   6  -2    2.82    0.36
   2   6  -2    2.03    0.32
   2   6  -2    1.78    0.26
  -2  -6   2    2.54    0.35
  -2  -6   2    2.51    0.25
  -2  -6   2    3.25    0.33
  -2  -6   2    2.59    0.34
  -2  -6   2    2.65    0.32
  -2  -6   2    2.61    0.34
   1   6  -2   41.45    1.67
   1   6  -2   42.52    1.47
   1   6  -2   41.51    1.59
   1   6  -2   42.37    1.71
   1   6  -2   42.62    1.62
   1   6  -2   41.85    1.61
  -1  -6   2   43.27    1.68
  -1  -6   2   45.24    1.77
  -1  -6   2   46.12    1.78
  -1  -6   2   43.89    1.49
  -1  -6   2   44.82    1.74
  -1  -6   2   43.34    1.69
  -1  -6   2   46.33    1.69
   0   6  -2    2.56    0.34
   0   6  -2    3.32    0.25
   0   6  -2    3.30    0.34
   0   6  -2    2.72    0.29
   0   6  -2    2.95    0.31
   0   6  -2    3.20    0.27
   0  -6   2    3.61    0.35
   0  -6   2    3.43    0.32
   0  -6   2    3.37    0.33
   0  -6   2    3.02    0.34
   0  -6   2    3.09    0.34
   0  -6   2    3.88    0.36
   0  -6   2    3.37    0.26
  -1   6  -2    5.14    0.37
  -1   6  -2    5.53    0.35
  -1   6  -2    5.64    0.38
  -1   6  -2    5.77    0.41
  -1   6  -2    5.87    0.32
  -1   6  -2    5.97    0.48
  -1   6  -2    5.16    0.33
   1  -6   2    5.92    0.39
   1  -6   2    5.90    0.35
   1  -6   2    4.99    0.40
   1  -6   2    5.82    0.42
   1  -6   2    6.11    0.37
  -2   6  -2   29.17    1.23
  -2   6  -2   28.06    1.07
  -2   6  -2   25.02    1.19
  -2   6  -2   26.84    1.15
  -2   6  -2   27.98    1.00
  -2   6  -2   29.96    1.17
  -2   6  -2   26.63    1.01
   2  -6   2   27.52    1.16
   2  -6   2   28.64    1.07
   2  -6   2   29.33    1.13
   2  -6   2   28.39    1.02
   2  -6   2   29.55    1.02
   2  -6   2   28.89    1.21
  -3   6  -2   10.00    0.62
  -3   6  -2   10.88    0.69
  -3   6  -2   10.45    0.44
  -3   6  -2   10.63    0.49
  -3   6  -2    9.22    0.58
  -3   6  -2   10.63    0.65
   3  -6   2   10.78    0.59
   3  -6   2   10.38    0.59
   3  -6   2   11.31    0.45
  -4   6  -2    4.37    0.47
  -4   6  -2    3.88    0.49
  -4   6  -2    4.03    0.43
  -4   6  -2    3.00    0.37
   4  -6   2    3.38    0.37
   4  -6   2    3.38    0.33
   4  -6   2    3.55    0.44
  -5   6  -2   14.03    0.85
  -5   6  -2   15.73    0.90
  -5   6  -2   14.53    0.80
   5  -6   2   16.36    0.80
  -6   6  -2    0.75    0.27
  -6   6  -2    1.31    0.42
   6  -6   2    1.52    0.27
   6  -6   2    0.50    0.24
   6   5  -2    2.55    0.38
   6   5  -2    3.25    0.43
   6   5  -2    3.43    0.51
  -6  -5   2    3.01    0.47
   5   5  -2   -0.01    0.19
   5   5  -2    0.21    0.21
   5   5  -2    0.06    0.21
   5   5  -2   -0.12    0.23
  -5  -5   2   -0.01    0.24
   4   5  -2    1.55    0.29
   4   5  -2    2.16    0.32
   4   5  -2    2.13    0.37
   4   5  -2    2.01    0.33
   4   5  -2    1.83    0.32
  -4  -5   2    1.82    0.28
  -4  -5   2    2.29    0.27
  -4  -5   2    1.61    0.34
  -4  -5   2    2.38    0.33
   3   5  -2    3.01    0.36
   3   5  -2    2.65    0.32
   3   5  -2    2.30    0.32
   3   5  -2    3.33    0.24
   3   5  -2    3.20    0.35
  -3  -5   2    2.81    0.37
  -3  -5   2    3.20    0.38
  -3  -5   2    3.63    0.31
  -3  -5   2    2.79    0.31
  -3  -5   2    3.30    0.26
  -3  -5   2    3.63    0.31
  -3  -5   2    3.47    0.37
  -3  -5   2    3.41    0.26
   2   5  -2    0.06    0.17
   2   5  -2    0.17    0.17
   2   5  -2    0.09    0.12
   2   5  -2    0.07    0.12
   2   5  -2    0.08    0.13
   2   5  -2    0.06    0.09
   2   5  -2    0.25    0.09
  -2  -5   2    0.27    0.18
  -2  -5   2   -0.04    0.13
  -2  -5   2    0.09    0.12
  -2  -5   2    0.20    0.13
  -2  -5   2    0.12    0.18
  -2  -5   2   -0.04    0.14
  -2  -5   2    0.34    0.12
   1   5  -2   80.48    2.96
   1   5  -2   80.23    2.82
   1   5  -2   80.76    2.57
   1   5  -2   80.92    2.84
   1   5  -2   79.93    2.92
   1   5  -2   79.75    2.79
  -1  -5   2   85.66    3.04
  -1  -5   2   86.05    2.86
  -1  -5   2   82.90    2.96
  -1  -5   2   81.36    2.56
  -1  -5   2   84.11    2.97
  -1  -5   2   74.66    2.82
  -1  -5   2   81.24    2.87
   0   5  -2   16.38    0.72
   0   5  -2   16.62    0.69
   0   5  -2   17.45    0.73
   0   5  -2   15.93    0.63
   0   5  -2   16.04    0.74
   0   5  -2   15.96    0.63
   0  -5   2   16.63    0.73
   0  -5   2   16.63    0.76
   0  -5   2   17.44    0.75
   0  -5   2   16.98    0.78
   0  -5   2   17.18    0.66
   0  -5   2   16.88    0.79
  -1   5  -2    5.39    0.33
  -1   5  -2    6.45    0.47
  -1   5  -2    5.86    0.39
  -1   5  -2    5.22    0.35
  -1   5  -2    5.63    0.37
  -1   5  -2    4.83    0.30
   1  -5   2    5.56    0.39
   1  -5   2    6.15    0.43
   1  -5   2    5.54    0.31
   1  -5   2    5.84    0.33
   1  -5   2    5.34    0.33
   1  -5   2    4.97    0.34
   1  -5   2    5.03    0.37
  -2   5  -2   18.68    0.74
  -2   5  -2   18.35    0.84
  -2   5  -2   19.13    0.75
  -2   5  -2   20.23    0.87
  -2   5  -2   19.59    0.90
  -2   5  -2   19.35    0.89
  -2   5  -2   19.53    0.72
   2  -5   2   21.01    0.74
   2  -5   2   20.52    0.87
   2  -5   2   20.21    0.80
   2  -5   2   19.44    0.84
   2  -5   2   19.39    0.78
  -3   5  -2    0.45    0.17
  -3   5  -2    0.86    0.14
  -3   5  -2    0.95    0.13
  -3   5  -2    0.62    0.16
  -3   5  -2    0.79    0.27
  -3   5  -2    1.00    0.25
  -3   5  -2    0.74    0.22
   3  -5   2    0.70    0.18
   3  -5   2    0.90    0.12
   3  -5   2    0.77    0.18
  -4   5  -2   16.74    0.59
  -4   5  -2   15.79    0.79
  -4   5  -2   16.72    0.84
  -4   5  -2   17.19    0.89
  -4   5  -2   15.51    0.85
   4  -5   2   16.06    0.73
   4  -5   2   16.21    0.72
   4  -5   2   17.43    0.78
  -5   5  -2    0.22    0.31
  -5   5  -2    0.34    0.22
   5  -5   2    0.70    0.21
   5  -5   2    0.81    0.29
   5  -5   2    0.46    0.21
  -6   5  -2    4.69    0.60
  -6   5  -2    5.22    0.55
  -6   5  -2    4.80    0.49
   6  -5   2    4.84    0.47
   6  -5   2    4.75    0.40
   6  -5   2    4.25    0.55
   6   4  -2    0.73    0.25
   6   4  -2    0.60    0.28
   6   4  -2    0.19    0.21
   6   4  -2    0.64    0.23
  -6  -4   2    0.17    0.27
   5   4  -2   55.27    2.29
   5   4  -2   52.13    2.01
   5   4  -2   53.00    2.04
   5   4  -2   49.10    2.04
  -5  -4   2   52.78    2.11
   4   4  -2   -0.07    0.14
   4   4  -2   -0.01    0.20
   4   4  -2    0.12    0.19
   4   4  -2    0.08    0.15
   4   4  -2    0.09    0.17
  -4  -4   2    0.08    0.15
  -4  -4   2   -0.24    0.14
  -4  -4   2    0.02    0.09
  -4  -4   2    0.09    0.14
  -4  -4   2    0.03    0.22
  -4  -4   2    0.08    0.12
  -4  -4   2   -0.08    0.13
  -4  -4   2    0.09    0.25
   3   4  -2   35.68    1.39
   3   4  -2   33.67    1.39
   3   4  -2   36.30    1.50
   3   4  -2   36.19    1.38
   3   4  -2   34.26    1.19
   3   4  -2   34.98    1.28
  -3  -4   2   37.70    1.39
  -3  -4   2   36.15    1.47
  -3  -4   2   39.08    1.41
  -3  -4   2   36.47    1.52
  -3  -4   2   36.83    1.47
  -3  -4   2   38.02    1.38
  -3  -4   2   39.93    1.48
   2   4  -2   53.35    1.92
   2   4  -2   53.00    1.97
   2   4  -2   51.71    1.75
   2   4  -2   51.65    1.91
   2   4  -2   53.61    1.64
   2   4  -2   53.41    1.96
   2   4  -2   50.97    1.71
  -2  -4   2   54.01    2.01
  -2  -4   2   55.55    2.08
  -2  -4   2   58.57    2.08
  -2  -4   2   56.85    1.76
  -2  -4   2   55.68    2.05
  -2  -4   2   54.66    1.95
  -2  -4   2   54.44    1.96
   1   4  -2   86.64    2.87
   1   4  -2   90.12    2.72
   1   4  -2   87.34    2.98
   1   4  -2   86.27    2.72
   1   4  -2   85.47    3.07
   1   4  -2   84.81    2.99
   1   4  -2   86.58    3.14
   1   4  -2   83.93    2.94
  -1  -4   2   89.85    3.02
  -1  -4   2   88.96    3.12
  -1  -4   2   83.88    3.03
  -1  -4   2   86.86    3.13
  -1  -4   2   92.12    3.22
  -1  -4   2   90.77    2.71
  -1  -4   2   86.78    2.99
   0   4  -2    7.68    0.43
   0   4  -2    7.86    0.36
   0   4  -2    8.04    0.35
   0   4  -2    7.18    0.50
   0   4  -2    7.89    0.41
   0   4  -2    7.75    0.42
   0   4  -2    7.84    0.42
   0  -4   2    7.58    0.45
   0  -4   2    7.94    0.45
   0  -4   2    8.14    0.44
   0  -4   2    7.77    0.46
   0  -4   2    8.06    0.37
   0  -4   2    7.79    0.43
   0  -4   2    7.80    0.39
  -1   4  -2   27.42    1.07
  -1   4  -2   25.67    1.08
  -1   4  -2   28.51    0.96
  -1   4  -2   29.62    1.04
  -1   4  -2   28.15    0.97
  -1   4  -2   29.40    1.17
  -1   4  -2   28.66    1.00
  -1   4  -2   26.67    1.14
   1  -4   2   27.91    0.98
   1  -4   2   29.34    1.13
   1  -4   2   27.30    1.07
   1  -4   2   29.08    1.00
   1  -4   2   27.64    1.03
   1  -4   2   29.02    1.17
   1  -4   2   28.00    1.01
   1  -4   2   28.36    1.07
  -2   4  -2   74.10    2.34
  -2   4  -2   70.12    2.49
  -2   4  -2   69.23    2.26
  -2   4  -2   69.45    2.60
  -2   4  -2   73.18    2.41
  -2   4  -2   76.62    2.49
  -2   4  -2   69.83    2.70
   2  -4   2   71.74    2.60
   2  -4   2   74.15    2.37
   2  -4   2   72.86    2.49
   2  -4   2   73.27    2.51
  -3   4  -2   10.35    0.37
  -3   4  -2    9.66    0.40
  -3   4  -2   10.15    0.59
  -3   4  -2   10.38    0.42
  -3   4  -2   10.18    0.48
  -3   4  -2    9.94    0.57
  -3   4  -2    9.98    0.57
   3  -4   2    9.91    0.51
   3  -4   2   10.05    0.48
   3  -4   2    9.37    0.46
  -4   4  -2    4.15    0.32
  -4   4  -2    3.57    0.40
  -4   4  -2    4.11    0.23
  -4   4  -2    4.39    0.41
  -4   4  -2    5.10    0.51
   4  -4   2    3.87    0.27
   4  -4   2    4.16    0.36
   4  -4   2    3.70    0.32
  -5   4  -2    8.89    0.62
  -5   4  -2   10.41    0.73
   5  -4   2    8.18    0.63
   5  -4   2    9.67    0.59
   5  -4   2   10.32    0.55
  -6   4  -2    0.01    0.21
  -6   4  -2   -0.16    0.30
   6  -4   2    0.18    0.22
   6  -4   2    0.14    0.16
   6  -4   2   -0.08    0.21
  -7   4  -2    2.55    0.51
   7  -4   2    2.29    0.39
   7   3  -2    4.09    0.60
   7   3  -2    3.57    0.45
  -7  -3   2    3.31    0.47
   6   3  -2   12.49    0.84
   6   3  -2   11.87    0.69
   6   3  -2   11.47    0.69
   6   3  -2   11.72    0.62
  -6  -3   2   10.71    0.72
   5   3  -2    0.46    0.23
   5   3  -2    0.45    0.21
   5   3  -2    0.76    0.22
   5   3  -2    0.82    0.28
  -5  -3   2    0.88    0.20
  -5  -3   2    0.95    0.29
  -5  -3   2    0.68    0.17
   4   3  -2   64.81    2.33
   4   3  -2   64.78    2.34
   4   3  -2   60.93    2.12
   4   3  -2   65.45    2.31
   4   3  -2   61.54    2.31
   4   3  -2   63.23    2.14
   4   3  -2   65.53    2.58
  -4  -3   2   67.78    2.31
  -4  -3   2   70.90    2.33
  -4  -3   2   69.93    2.48
  -4  -3   2   63.97    2.44
  -4  -3   2   68.83    2.24
  -4  -3   2   68.64    2.52
  -4  -3   2   66.91    2.44
  -4  -3   2   66.45    2.53
   3   3  -2    0.45    0.11
   3   3  -2    0.29    0.18
   3   3  -2    0.36    0.17
   3   3  -2    0.68    0.16
   3   3  -2    0.52    0.16
   3   3  -2    0.31    0.15
   3   3  -2    0.21    0.13
  -3  -3   2    0.56    0.19
  -3  -3   2    0.52    0.14
  -3  -3   2    0.56    0.12
  -3  -3   2    0.32    0.19
  -3  -3   2    0.52    0.15
  -3  -3   2    0.48    0.14
  -3  -3   2    0.42    0.08
  -3  -3   2    0.46    0.12
   2   3  -2   62.42    2.09
   2   3  -2   62.65    2.31
   2   3  -2   64.22    2.21
   2   3  -2   67.09    2.00
   2   3  -2   66.09    2.33
   2   3  -2   65.30    2.08
   2   3  -2   65.56    2.29
   2   3  -2   66.97    2.29
  -2  -3   2   67.96    2.44
  -2  -3   2   70.65    2.34
  -2  -3   2   63.90    2.40
  -2  -3   2   68.54    2.11
  -2  -3   2   71.86    2.50
  -2  -3   2   70.37    2.50
   1   3  -2  130.36    4.28
   1   3  -2  131.39    4.40
   1   3  -2  138.40    4.10
   1   3  -2  132.33    3.96
   1   3  -2  133.84    4.42
   1   3  -2  130.06    4.05
   1   3  -2  131.11    4.55
   1   3  -2  132.61    4.70
  -1  -3   2  134.98    4.02
  -1  -3   2  131.28    4.60
  -1  -3   2  136.38    4.47
  -1  -3   2  135.01    4.59
  -1  -3   2  135.76    4.34
  -1  -3   2  131.62    4.49
  -1  -3   2  134.90    4.63
  -1  -3   2  136.98    4.77
   0   3  -2    0.31    0.10
   0   3  -2    0.28    0.07
   0   3  -2    0.26    0.10
   0   3  -2    0.36    0.10
   0   3  -2    0.25    0.13
   0   3  -2    0.18    0.09
   0   3  -2    0.20    0.10
   0  -3   2    0.24    0.10
   0  -3   2    0.23    0.09
   0  -3   2    0.25    0.08
   0  -3   2    0.21    0.08
   0  -3   2    0.37    0.11
   0  -3   2    0.21    0.11
   0  -3   2    0.29    0.10
  -1   3  -2    3.41    0.28
  -1   3  -2    2.83    0.25
  -1   3  -2    3.11    0.20
  -1   3  -2    3.15    0.20
  -1   3  -2    2.75    0.20
  -1   3  -2    3.20    0.22
  -1   3  -2    2.89    0.24
   1  -3   2    2.84    0.20
   1  -3   2    3.28    0.19
   1  -3   2    3.34    0.20
   1  -3   2    3.06    0.24
   1  -3   2    3.41    0.21
  -2   3  -2   62.43    2.29
  -2   3  -2   60.71    2.00
  -2   3  -2   62.95    2.19
  -2   3  -2   65.84    2.15
  -2   3  -2   62.24    2.39
  -2   3  -2   61.96    2.07
  -2   3  -2   64.84    2.06
   2  -3   2   61.18    2.25
   2  -3   2   62.26    2.13
   2  -3   2   65.56    2.06
  -3   3  -2   32.20    1.10
  -3   3  -2   31.82    1.13
  -3   3  -2   31.34    1.27
  -3   3  -2   33.21    1.29
   3  -3   2   32.36    1.22
   3  -3   2   31.44    1.13
   3  -3   2   31.45    1.19
  -4   3  -2   17.26    0.82
  -4   3  -2   17.94    0.88
  -4   3  -2   15.72    0.72
  -4   3  -2   16.89    0.63
  -4   3  -2   17.15    0.65
   4  -3   2   15.91    0.61
   4  -3   2   16.10    0.73
   4  -3   2   15.79    0.75
  -5   3  -2   26.94    0.97
  -5   3  -2   25.41    1.22
   5  -3   2   24.13    1.09
   5  -3   2   22.77    1.15
   5  -3   2   26.00    1.05
  -6   3  -2    0.78    0.35
  -6   3  -2    0.22    0.21
   6  -3   2    0.01    0.22
   6  -3   2    0.23    0.16
   6  -3   2   -0.04    0.22
  -7   3  -2    1.82    0.43
   7  -3   2    1.42    0.35
   7  -3   2    2.01    0.29
  -7  -2   2    9.77    0.71
   6   2  -2    1.65    0.37
   6   2  -2    1.19    0.21
   6   2  -2    1.40    0.27
   6   2  -2    1.46    0.27
  -6  -2   2    1.12    0.30
   5   2  -2    2.34    0.30
   5   2  -2    1.34    0.28
   5   2  -2    2.03    0.23
   5   2  -2    1.84    0.36
  -5  -2   2    2.24    0.26
  -5  -2   2    1.66    0.32
  -5  -2   2    2.32    0.34
   4   2  -2   48.47    1.98
   4   2  -2   48.41    1.77
   4   2  -2   45.63    1.72
   4   2  -2   46.81    1.63
   4   2  -2   47.11    1.71
   4   2  -2   48.42    1.77
  -4  -2   2   50.65    1.55
  -4  -2   2   50.06    1.69
  -4  -2   2   50.39    1.55
  -4  -2   2   48.09    1.82
  -4  -2   2   49.46    1.77
  -4  -2   2   49.15    1.68
  -4  -2   2   48.02    1.68
  -4  -2   2   48.15    1.90
   3   2  -2    4.44    0.41
   3   2  -2    3.83    0.27
   3   2  -2    4.53    0.31
   3   2  -2    4.44    0.34
   3   2  -2    4.12    0.29
   3   2  -2    4.39    0.31
  -3  -2   2    4.23    0.25
  -3  -2   2    3.83    0.33
  -3  -2   2    4.58    0.34
  -3  -2   2    4.39    0.18
  -3  -2   2    4.34    0.28
  -3  -2   2    4.67    0.27
  -3  -2   2    4.63    0.36
  -3  -2   2    4.73    0.23
   2   2  -2   26.24    0.90
   2   2  -2   25.63    1.08
   2   2  -2   25.81    0.96
   2   2  -2   25.21    0.98
   2   2  -2   26.63    1.00
   2   2  -2   25.77    0.97
   2   2  -2   25.37    0.95
  -2  -2   2   25.61    1.04
  -2  -2   2   27.97    1.02
  -2  -2   2   28.66    1.00
  -2  -2   2   27.10    0.87
  -2  -2   2   27.45    0.99
  -2  -2   2   28.33    1.03
  -2  -2   2   27.34    0.95
  -2  -2   2   26.94    0.88
  -2  -2   2   27.23    0.93
  -2  -2   2   26.87    1.01
   1   2  -2  604.97   21.12
   1   2  -2  598.39   20.23
   1   2  -2  607.41   18.06
   1   2  -2  607.85   17.78
   1   2  -2  619.72   19.23
   1   2  -2  603.03   19.77
   1   2  -2  582.44   20.31
   1   2  -2  615.30   18.52
   1   2  -2  591.49   19.63
  -1  -2   2  618.57   20.98
  -1  -2   2  595.34   20.44
  -1  -2   2  608.72   19.14
  -1  -2   2  638.19   19.85
  -1  -2   2  645.35   21.88
  -1  -2   2  615.62   20.99
  -1  -2   2  640.23   18.39
   0   2  -2  221.83    6.83
   0   2  -2  217.30    7.58
   0   2  -2  214.57    6.37
   0   2  -2  210.40    6.85
   0   2  -2  223.84    6.64
   0   2  -2  216.17    7.21
   0   2  -2  220.04    7.04
   0   2  -2  221.80    7.26
   0   2  -2  211.28    7.24
   0   2  -2  201.79    7.26
   0  -2   2  213.27    7.15
   0  -2   2  210.05    7.13
   0  -2   2  217.37    6.93
   0  -2   2  221.13    6.72
   0  -2   2  213.65    6.55
   0  -2   2  195.05    7.15
   0  -2   2  201.20    6.74
   0  -2   2  220.75    6.28
   0  -2   2  220.76    7.09
  -1   2  -2    3.39    0.26
  -1   2  -2    3.89    0.23
  -1   2  -2    3.39    0.20
  -1   2  -2    3.70    0.17
  -1   2  -2    3.64    0.17
  -1   2  -2    3.48    0.27
  -1   2  -2    3.32    0.20
   1  -2   2    3.54    0.17
   1  -2   2    3.13    0.23
   1  -2   2    3.11    0.27
   1  -2   2    3.43    0.23
   1  -2   2    3.59    0.17
   1  -2   2    3.61    0.25
   1  -2   2    3.86    0.20
  -2   2  -2   21.61    0.88
  -2   2  -2   19.92    0.74
  -2   2  -2   20.76    0.87
   2  -2   2   19.13    0.77
   2  -2   2   18.25    0.80
  -3   2  -2    8.55    0.40
  -3   2  -2    9.42    0.56
  -3   2  -2    8.56    0.51
   3  -2   2    8.00    0.50
   3  -2   2    9.05    0.46
   3  -2   2    8.54    0.47
  -4   2  -2    3.08    0.38
  -4   2  -2    2.83    0.32
  -4   2  -2    2.84    0.25
   4  -2   2    2.42    0.27
   4  -2   2    2.92    0.15
   4  -2   2    2.06    0.28
  -5   2  -2    2.61    0.42
  -5   2  -2    2.83    0.27
   5  -2   2    1.95    0.31
   5  -2   2    2.91    0.31
   5  -2   2    2.36    0.37
  -6   2  -2    8.05    0.65
   6  -2   2    7.10    0.47
   6  -2   2    6.93    0.53
   6  -2   2    6.53    0.58
  -7   2  -2    3.08    0.48
   7  -2   2    2.87    0.46
   7  -2   2    3.73    0.38
   7  -2   2    2.96    0.47
   7   1  -2    4.97    0.60
  -7  -1   2    4.95    0.51
   6   1  -2   15.89    0.85
   6   1  -2   14.61    0.90
   6   1  -2   16.94    0.81
   6   1  -2   17.38    0.80
  -6  -1   2   17.30    0.91
  -6  -1   2   18.11    0.82
   5   1  -2   84.71    2.98
   5   1  -2   86.43    3.38
   5   1  -2   85.50    2.90
   5   1  -2   85.91    3.01
   5   1  -2   84.53    3.09
   5   1  -2   81.08    2.90
  -5  -1   2   81.47    2.98
  -5  -1   2   86.86    2.89
  -5  -1   2   86.53    2.71
  -5  -1   2   84.96    3.10
   4   1  -2   77.82    2.71
   4   1  -2   78.77    2.53
   4   1  -2   79.29    2.76
   4   1  -2   79.08    2.77
   4   1  -2   77.82    3.08
   4   1  -2   79.22    2.85
   4   1  -2   80.86    2.70
  -4  -1   2   84.07    2.71
  -4  -1   2   77.30    2.81
  -4  -1   2   78.93    2.75
  -4  -1   2   81.27    2.55
  -4  -1   2   82.19    2.91
   3   1  -2    4.32    0.23
   3   1  -2    4.92    0.29
   3   1  -2    3.67    0.31
   3   1  -2    4.31    0.28
   3   1  -2    4.08    0.25
   3   1  -2    4.71    0.42
  -3  -1   2    4.15    0.26
  -3  -1   2    4.29    0.23
  -3  -1   2    4.87    0.30
  -3  -1   2    4.66    0.37
  -3  -1   2    4.36    0.23
  -3  -1   2    4.57    0.31
  -3  -1   2    4.23    0.34
  -3  -1   2    4.24    0.36
   2   1  -2  136.60    4.58
   2   1  -2  133.10    4.14
   2   1  -2  133.26    4.96
   2   1  -2  133.83    4.36
   2   1  -2  137.04    4.65
   2   1  -2  141.41    4.53
   2   1  -2  139.13    4.56
  -2  -1   2  130.89    4.55
  -2  -1   2  124.22    4.91
  -2  -1   2  136.28    4.65
  -2  -1   2  139.92    4.53
  -2  -1   2  138.16    4.61
  -2  -1   2  132.23    4.32
  -2  -1   2  141.54    4.34
  -2  -1   2  136.68    4.18
  -2  -1   2  134.31    4.55
  -2  -1   2  134.05    4.51
  -2  -1   2  139.69    4.11
  -2  -1   2  139.94    4.61
   1   1  -2   11.18    0.39
   1   1  -2   11.00    0.39
   1   1  -2   11.06    0.42
   1   1  -2   10.81    0.44
   1   1  -2   10.64    0.44
   1   1  -2   10.85    0.46
   1   1  -2   11.00    0.49
   1   1  -2   10.92    0.46
   1   1  -2   10.39    0.43
   1   1  -2   10.63    0.34
  -1  -1   2   11.16    0.41
  -1  -1   2    9.96    0.44
  -1  -1   2   11.06    0.34
  -1  -1   2    9.96    0.36
  -1  -1   2   10.89    0.45
  -1  -1   2   11.05    0.45
  -1  -1   2   10.65    0.38
  -1  -1   2   10.57    0.42
   0   1  -2  334.38   10.78
   0   1  -2  333.36   11.38
   0   1  -2  338.73   10.49
   0   1  -2  339.68   10.72
   0   1  -2  344.38   11.05
   0  -1   2  336.37   10.08
   0  -1   2  319.83   10.36
   0  -1   2  313.15   11.02
   0  -1   2  333.88   10.76
   0  -1   2  306.58   10.91
   0  -1   2  349.99   10.32
  -1   1  -2   13.39    0.54
  -1   1  -2   13.17    0.53
  -1   1  -2   12.24    0.56
  -1   1  -2   12.51    0.48
   1  -1   2   12.85    0.53
   1  -1   2   12.48    0.52
   1  -1   2   12.82    0.53
   1  -1   2   13.52    0.49
   1  -1   2   11.40    0.55
   1  -1   2   13.15    0.46
   1  -1   2   12.78    0.48
  -2   1  -2   46.67    1.89
  -2   1  -2   51.36    1.77
  -2   1  -2   52.04    1.70
  -2   1  -2   52.00    1.71
  -2   1  -2   50.70    1.85
   2  -1   2   51.27    1.82
   2  -1   2   50.49    1.66
   2  -1   2   47.82    1.84
   2  -1   2   52.07    1.71
   2  -1   2   49.68    1.81
   2  -1   2   50.66    1.66
  -3   1  -2    0.90    0.11
  -3   1  -2    1.05    0.21
  -3   1  -2    1.24    0.25
   3  -1   2    0.92    0.19
   3  -1   2    0.95    0.11
   3  -1   2    1.12    0.20
   3  -1   2    1.08    0.11
  -4   1  -2    2.34    0.20
  -4   1  -2    2.33    0.30
  -4   1  -2    2.25    0.33
   4  -1   2    1.82    0.15
   4  -1   2    2.18    0.26
   4  -1   2    2.13    0.29
  -5   1  -2   24.57    0.92
  -5   1  -2   23.79    1.08
  -5   1  -2   24.11    1.10
   5  -1   2   22.14    1.07
   5  -1   2   24.34    1.03
   5  -1   2   23.14    1.11
   5  -1   2   24.27    0.86
  -6   1  -2    4.26    0.48
   6  -1   2    4.21    0.46
   6  -1   2    4.02    0.47
  -7   1  -2    1.83    0.39
   7  -1   2    1.65    0.34
   7  -1   2    2.22    0.31
   7  -1   2    1.75    0.38
   7   0  -2    0.06    0.26
   7   0  -2    0.10    0.20
   6   0  -2    5.01    0.53
   6   0  -2    3.85    0.44
   6   0  -2    3.90    0.34
  -6   0   2    4.55    0.45
  -6   0   2    4.25    0.37
  -6   0   2    5.04    0.43
   5   0  -2    0.22    0.23
   5   0  -2    0.32    0.15
   5   0  -2    0.39    0.20
   5   0  -2    0.50    0.18
  -5   0   2    0.58    0.21
  -5   0   2   -0.01    0.20
  -5   0   2    0.52    0.24
   4   0  -2    7.80    0.55
   4   0  -2    8.26    0.45
   4   0  -2    9.04    0.53
   4   0  -2    7.94    0.41
   4   0  -2    8.69    0.50
  -4   0   2    8.43    0.35
  -4   0   2    8.35    0.47
  -4   0   2    8.62    0.39
  -4   0   2    7.80    0.48
  -4   0   2    8.57    0.46
  -4   0   2    8.78    0.41
   3   0  -2   69.87    2.48
   3   0  -2   69.88    2.36
   3   0  -2   68.88    2.38
   3   0  -2   67.71    2.26
   3   0  -2   69.41    2.45
   3   0  -2   68.10    2.66
   3   0  -2   68.84    2.16
  -3   0   2   74.77    2.58
  -3   0   2   72.58    2.22
  -3   0   2   70.55    2.57
  -3   0   2   71.55    2.51
  -3   0   2   70.66    2.35
  -3   0   2   72.86    2.33
  -3   0   2   70.40    2.36
  -3   0   2   69.85    2.38
  -3   0   2   69.58    2.47
  -3   0   2   74.15    2.44
  -3   0   2   70.04    2.56
   2   0  -2    2.28    0.15
   2   0  -2    2.48    0.20
   2   0  -2    2.62    0.18
   2   0  -2    1.82    0.23
   2   0  -2    2.23    0.20
   2   0  -2    2.20    0.13
   2   0  -2    2.79    0.24
  -2   0   2    2.30    0.22
  -2   0   2    2.73    0.21
  -2   0   2    2.24    0.12
  -2   0   2    1.98    0.16
  -2   0   2    2.47    0.16
  -2   0   2    2.24    0.11
  -2   0   2    2.14    0.13
  -2   0   2    2.24    0.21
  -2   0   2    1.95    0.21
   1   0  -2   75.66    2.79
   1   0  -2   78.16    2.69
   1   0  -2   73.99    2.60
   1   0  -2   77.72    2.41
   1   0  -2   78.52    2.46
   1   0  -2   79.08    2.54
   1   0  -2   76.48    2.54
   1   0  -2   77.01    2.25
   1   0  -2   72.66    2.59
  -1   0   2   73.25    2.70
  -1   0   2   72.30    2.50
  -1   0   2   77.17    2.46
  -1   0   2   77.81    2.37
  -1   0   2   73.40    2.48
  -1   0   2   70.76    2.51
  -1   0   2   72.53    2.32
   0   0  -2  264.78    9.28
   0   0  -2  289.51    8.84
   0   0  -2  285.22    8.53
   0   0  -2  267.34    8.89
   0   0  -2  274.43    9.31
   0   0  -2  287.25    9.22
   0   0   2  266.72    9.23
   0   0   2  296.35    8.76
   0   0   2  273.61    8.79
   0   0   2  260.57    9.78
   0   0   2  284.19    9.23
   0   0   2  271.88    9.29
   0   0   2  278.03    8.47
  -1   0  -2  139.31    4.57
  -1   0  -2  132.84    4.80
  -1   0  -2  132.74    4.37
  -1   0  -2  141.10    4.58
  -1   0  -2  138.94    4.21
  -1   0  -2  129.00    4.63
   1   0   2  135.22    4.33
   1   0   2  140.36    4.50
   1   0   2  126.24    4.29
   1   0   2  133.86    4.53
   1   0   2  136.79    4.14
   1   0   2  137.14    4.50
   1   0   2  122.88    4.54
  -2   0  -2   21.01    0.84
  -2   0  -2   19.75    0.84
  -2   0  -2   21.57    0.78
  -2   0  -2   21.09    0.89
   2   0   2   20.21    0.86
   2   0   2   21.28    0.75
   2   0   2   20.67    0.75
   2   0   2   20.79    0.78
   2   0   2   20.70    0.85
   2   0   2   20.44    0.76
  -3   0  -2    5.28    0.40
  -3   0  -2    4.40    0.37
  -3   0  -2    5.09    0.28
  -3   0  -2    4.00    0.32
   3   0   2    4.76    0.25
   3   0   2    5.48    0.30
   3   0   2    5.36    0.32
   3   0   2    4.68    0.37
   3   0   2    4.96    0.36
   3   0   2    5.24    0.29
  -4   0  -2    0.15    0.14
  -4   0  -2    0.03    0.16
  -4   0  -2    0.33    0.21
   4   0   2    0.02    0.14
   4   0   2    0.25    0.07
   4   0   2    0.15    0.12
   4   0   2    0.31    0.17
   4   0   2    0.21    0.17
  -5   0  -2   88.14    3.11
  -5   0  -2   89.18    3.12
  -5   0  -2   89.89    3.26
   5   0   2   89.71    2.97
   5   0   2   87.22    3.15
   5   0   2   85.91    3.20
   5   0   2   86.07    3.22
  -6   0  -2    3.90    0.46
   6   0   2    3.29    0.42
   6   0   2    4.01    0.42
   6   0   2    3.57    0.43
  -7   0  -2    0.40    0.29
   7   0   2    0.27    0.23
   7   0   2    0.50    0.21
   7   0   2   -0.03    0.23
   7  -1  -2    4.29    0.51
   7  -1  -2    4.87    0.55
  -7   1   2    5.73    0.57
   6  -1  -2   19.12    1.02
   6  -1  -2   21.38    1.05
  -6   1   2   22.33    1.01
  -6   1   2   22.45    1.04
  -6   1   2   23.16    1.06
   5  -1  -2   36.96    1.54
  -5   1   2   40.14    1.54
  -5   1   2   39.65    1.58
  -5   1   2   40.35    1.33
  -5   1   2   40.09    1.34
  -5   1   2   41.01    1.59
  -5   1   2   38.61    1.51
  -5   1   2   40.50    1.42
   4  -1  -2   59.60    2.16
   4  -1  -2   58.45    2.22
  -4   1   2   60.09    2.35
  -4   1   2   66.32    2.00
  -4   1   2   66.86    2.08
  -4   1   2   62.78    2.16
  -4   1   2   62.54    2.25
  -4   1   2   60.63    1.98
  -4   1   2   66.52    2.22
  -4   1   2   65.33    2.24
  -4   1   2   63.09    2.13
   3  -1  -2  118.98    4.06
   3  -1  -2  119.45    4.12
   3  -1  -2  119.88    4.18
   3  -1  -2  122.00    3.64
   3  -1  -2  120.81    3.83
  -3   1   2  120.91    3.69
  -3   1   2  128.19    4.33
  -3   1   2  121.37    4.40
  -3   1   2  128.16    3.93
  -3   1   2  129.47    4.15
  -3   1   2  117.79    4.14
  -3   1   2  122.04    4.05
  -3   1   2  122.85    4.08
   2  -1  -2    0.08    0.07
   2  -1  -2    0.07    0.08
   2  -1  -2    0.18    0.06
   2  -1  -2   -0.08    0.07
   2  -1  -2   -0.01    0.10
   2  -1  -2   -0.08    0.09
   2  -1  -2   -0.08    0.11
   2  -1  -2    0.01    0.06
   2  -1  -2   -0.16    0.11
  -2   1   2    0.04    0.11
  -2   1   2    0.08    0.06
  -2   1   2    0.00    0.09
  -2   1   2    0.05    0.08
  -2   1   2    0.03    0.06
  -2   1   2    0.18    0.07
  -2   1   2    0.17    0.09
  -2   1   2    0.02    0.05
  -2   1   2    0.08    0.14
  -2   1   2    0.00    0.07
   1  -1  -2    0.11    0.07
   1  -1  -2    0.25    0.09
   1  -1  -2    0.25    0.08
   1  -1  -2    0.16    0.08
   1  -1  -2    0.34    0.08
   1  -1  -2    0.19    0.05
   1  -1  -2    0.15    0.07
  -1   1   2    0.33    0.09
  -1   1   2    0.34    0.08
  -1   1   2    0.27    0.10
  -1   1   2    0.09    0.08
  -1   1   2    0.11    0.09
  -1   1   2    0.21    0.06
   0  -1  -2    0.61    0.11
   0  -1  -2    0.87    0.11
   0  -1  -2    0.91    0.15
   0  -1  -2    0.81    0.11
   0  -1  -2    0.95    0.11
   0  -1  -2    0.64    0.11
   0   1   2    0.75    0.10
   0   1   2    1.11    0.14
   0   1   2    1.07    0.13
   0   1   2    0.87    0.13
   0   1   2    0.80    0.11
  -1  -1  -2    0.45    0.11
  -1  -1  -2    0.53    0.13
  -1  -1  -2    0.45    0.14
  -1  -1  -2    0.44    0.10
  -1  -1  -2    0.46    0.11
   1   1   2    0.65    0.10
   1   1   2    0.51    0.11
   1   1   2    0.52    0.13
   1   1   2    0.39    0.12
  -2  -1  -2   24.57    0.95
  -2  -1  -2   25.11    1.04
  -2  -1  -2   25.72    0.96
  -2  -1  -2   24.23    0.91
   2   1   2   25.62    0.89
   2   1   2   26.08    1.05
   2   1   2   24.90    1.02
   2   1   2   26.02    0.95
   2   1   2   26.26    0.97
   2   1   2   26.34    1.04
  -3  -1  -2   16.64    0.72
  -3  -1  -2   16.22    0.68
  -3  -1  -2   15.26    0.76
   3   1   2   15.38    0.74
   3   1   2   15.55    0.61
   3   1   2   15.60    0.61
   3   1   2   15.69    0.73
   3   1   2   15.88    0.66
   3   1   2   15.45    0.73
  -4  -1  -2    1.90    0.24
  -4  -1  -2    1.86    0.30
  -4  -1  -2    2.30    0.31
   4   1   2    1.82    0.26
   4   1   2    2.25    0.32
   4   1   2    1.87    0.17
   4   1   2    2.17    0.30
   4   1   2    2.24    0.25
  -5  -1  -2   13.13    0.73
  -5  -1  -2   13.50    0.76
  -5  -1  -2   14.33    0.67
   5   1   2   14.08    0.73
   5   1   2   13.77    0.64
   5   1   2   13.26    0.78
   5   1   2   14.92    0.78
  -6  -1  -2    0.30    0.24
   6   1   2   -0.06    0.18
   6   1   2    0.18    0.20
   6   1   2   -0.14    0.17
  -7  -1  -2    4.39    0.50
   7   1   2    4.48    0.47
   7   1   2    3.60    0.50
   7  -2  -2    2.05    0.38
  -7   2   2    1.96    0.42
   6  -2  -2    9.43    0.64
   6  -2  -2   10.40    0.69
  -6   2   2   11.53    0.72
  -6   2   2   10.84    0.64
  -6   2   2   10.41    0.61
   5  -2  -2    0.10    0.21
   5  -2  -2    0.42    0.24
  -5   2   2    0.38    0.17
  -5   2   2    0.68    0.23
  -5   2   2    0.42    0.18
  -5   2   2    0.21    0.12
  -5   2   2    0.45    0.13
  -5   2   2    0.40    0.14
  -5   2   2    0.41    0.27
   4  -2  -2    3.17    0.28
   4  -2  -2    2.90    0.35
   4  -2  -2    3.47    0.34
  -4   2   2    3.44    0.25
  -4   2   2    3.58    0.36
  -4   2   2    3.12    0.26
  -4   2   2    3.10    0.21
  -4   2   2    3.22    0.23
  -4   2   2    3.66    0.16
  -4   2   2    2.71    0.28
  -4   2   2    3.20    0.23
   3  -2  -2    4.03    0.18
   3  -2  -2    4.18    0.19
   3  -2  -2    3.95    0.19
   3  -2  -2    4.27    0.33
   3  -2  -2    3.95    0.26
   3  -2  -2    4.48    0.36
   3  -2  -2    4.01    0.28
  -3   2   2    4.15    0.22
  -3   2   2    4.21    0.28
  -3   2   2    3.61    0.21
  -3   2   2    3.83    0.25
  -3   2   2    3.85    0.27
  -3   2   2    4.18    0.23
  -3   2   2    4.42    0.31
   2  -2  -2   55.08    1.89
   2  -2  -2   54.46    1.74
   2  -2  -2   54.35    1.67
   2  -2  -2   51.48    1.95
   2  -2  -2   55.33    2.00
   2  -2  -2   53.60    1.88
   2  -2  -2   55.80    1.87
   2  -2  -2   52.67    1.87
  -2   2   2   53.25    1.96
  -2   2   2   52.97    1.86
  -2   2   2   53.55    1.85
  -2   2   2   54.05    1.84
  -2   2   2   55.16    1.95
  -2   2   2   51.05    1.63
   1  -2  -2  461.99   15.72
   1  -2  -2  481.86   13.80
   1  -2  -2  478.41   15.27
   1  -2  -2  440.56   15.60
   1  -2  -2  489.12   16.44
   1  -2  -2  456.23   15.02
  -1   2   2  456.87   14.19
  -1   2   2  483.04   15.38
  -1   2   2  464.30   14.84
  -1   2   2  456.46   16.16
  -1   2   2  462.15   15.32
  -1   2   2  449.70   15.41
   0  -2  -2  242.18    8.14
   0  -2  -2  239.78    8.14
   0  -2  -2  232.31    7.80
   0  -2  -2  243.64    8.03
   0  -2  -2  246.23    8.49
   0   2   2  242.85    7.44
   0   2   2  247.63    8.13
   0   2   2  232.81    8.49
   0   2   2  242.26    8.04
   0   2   2  238.60    7.81
  -1  -2  -2    0.12    0.16
  -1  -2  -2    0.18    0.13
  -1  -2  -2   -0.12    0.17
  -1  -2  -2    0.16    0.14
  -1  -2  -2   -0.12    0.12
   1   2   2    0.03    0.16
   1   2   2   -0.13    0.13
   1   2   2   -0.14    0.10
   1   2   2    0.17    0.14
   1   2   2    0.02    0.15
  -2  -2  -2   16.13    0.72
  -2  -2  -2   16.83    0.79
  -2  -2  -2   15.45    0.67
  -2  -2  -2   16.90    0.68
   2   2   2   16.90    0.62
   2   2   2   17.63    0.78
   2   2   2   16.37    0.72
   2   2   2   16.77    0.71
   2   2   2   16.35    0.69
  -3  -2  -2    1.06    0.21
  -3  -2  -2    1.13    0.26
  -3  -2  -2    0.95    0.20
  -3  -2  -2    1.11    0.16
   3   2   2    0.85    0.15
   3   2   2    0.99    0.21
   3   2   2    0.84    0.15
   3   2   2    1.12    0.23
   3   2   2    1.20    0.20
   3   2   2    0.95    0.20
   3   2   2    0.88    0.15
  -4  -2  -2    6.86    0.47
  -4  -2  -2    6.55    0.50
  -4  -2  -2    7.04    0.46
   4   2   2    6.26    0.40
   4   2   2    6.21    0.42
   4   2   2    7.55    0.51
   4   2   2    6.26    0.35
   4   2   2    6.88    0.37
   4   2   2    6.83    0.48
   4   2   2    5.83    0.47
  -5  -2  -2    8.81    0.57
  -5  -2  -2    9.27    0.56
  -5  -2  -2    8.84    0.61
   5   2   2    8.95    0.59
   5   2   2    8.07    0.59
   5   2   2    8.59    0.53
   5   2   2    9.47    0.62
   5   2   2    8.74    0.52
  -6  -2  -2    0.30    0.23
   6   2   2    0.61    0.25
   6   2   2   -0.04    0.19
   7  -3  -2    4.88    0.55
  -7   3   2    4.97    0.59
   6  -3  -2    2.12    0.38
   6  -3  -2    2.41    0.37
  -6   3   2    2.49    0.32
  -6   3   2    2.03    0.32
  -6   3   2    2.42    0.41
   5  -3  -2    2.30    0.32
   5  -3  -2    1.96    0.34
  -5   3   2    2.09    0.28
  -5   3   2    2.16    0.23
  -5   3   2    2.45    0.25
  -5   3   2    2.44    0.30
  -5   3   2    2.32    0.39
  -5   3   2    2.39    0.25
   4  -3  -2    6.73    0.49
   4  -3  -2    5.84    0.42
   4  -3  -2    6.54    0.38
   4  -3  -2    6.28    0.27
   4  -3  -2    6.34    0.37
   4  -3  -2    6.10    0.27
  -4   3   2    6.10    0.31
  -4   3   2    6.23    0.34
  -4   3   2    6.33    0.38
  -4   3   2    6.36    0.37
  -4   3   2    6.26    0.42
  -4   3   2    5.90    0.39
   3  -3  -2   31.47    1.20
   3  -3  -2   27.53    1.10
   3  -3  -2   28.25    1.06
   3  -3  -2   28.24    1.09
   3  -3  -2   28.62    1.20
   3  -3  -2   30.19    0.99
  -3   3   2   27.89    1.15
  -3   3   2   28.33    1.08
  -3   3   2   28.26    0.95
  -3   3   2   29.59    1.04
  -3   3   2   28.77    1.09
  -3   3   2   27.93    1.06
   2  -3  -2    1.08    0.12
   2  -3  -2    0.98    0.16
   2  -3  -2    0.83    0.16
   2  -3  -2    1.11    0.14
   2  -3  -2    1.36    0.19
   2  -3  -2    1.16    0.19
   2  -3  -2    0.78    0.17
   2  -3  -2    1.11    0.20
  -2   3   2    0.71    0.12
  -2   3   2    1.20    0.18
  -2   3   2    0.90    0.18
  -2   3   2    1.12    0.14
  -2   3   2    0.95    0.20
  -2   3   2    0.92    0.17
  -2   3   2    0.90    0.17
   1  -3  -2   53.11    1.83
   1  -3  -2   50.31    1.87
   1  -3  -2   51.06    1.59
   1  -3  -2   53.72    1.94
   1  -3  -2   49.61    1.60
   1  -3  -2   48.95    1.81
  -1   3   2   48.38    1.68
  -1   3   2   50.15    1.79
  -1   3   2   51.41    1.80
  -1   3   2   50.91    1.76
  -1   3   2   49.86    1.82
  -1   3   2   48.54    1.88
   0  -3  -2    0.20    0.14
   0  -3  -2    0.17    0.14
   0  -3  -2    0.23    0.13
   0  -3  -2    0.16    0.16
   0  -3  -2    0.00    0.16
   0  -3  -2   -0.02    0.14
   0   3   2    0.16    0.15
   0   3   2    0.13    0.11
   0   3   2    0.07    0.12
   0   3   2    0.26    0.16
   0   3   2    0.34    0.17
   0   3   2    0.13    0.14
  -1  -3  -2   83.50    2.90
  -1  -3  -2   80.84    2.70
  -1  -3  -2   80.43    2.94
  -1  -3  -2   84.12    3.01
  -1  -3  -2   77.58    2.78
   1   3   2   79.65    2.82
   1   3   2   77.47    2.86
   1   3   2   79.40    2.76
   1   3   2   80.36    2.55
   1   3   2   81.07    2.74
  -2  -3  -2   11.97    0.57
  -2  -3  -2   11.86    0.58
  -2  -3  -2   13.00    0.63
  -2  -3  -2   13.56    0.66
  -2  -3  -2   13.20    0.70
   2   3   2   11.98    0.60
   2   3   2   12.93    0.66
   2   3   2   12.44    0.65
   2   3   2   12.72    0.51
   2   3   2   13.12    0.60
  -3  -3  -2   18.97    0.82
  -3  -3  -2   19.67    0.89
  -3  -3  -2   19.99    0.96
  -3  -3  -2   20.98    0.83
   3   3   2   17.99    0.91
   3   3   2   19.26    0.81
   3   3   2   20.04    0.94
   3   3   2   20.70    0.90
   3   3   2   19.52    0.86
   3   3   2   19.31    0.75
   3   3   2   19.49    0.71
  -4  -3  -2    0.45    0.23
  -4  -3  -2    0.19    0.18
  -4  -3  -2    0.37    0.23
  -4  -3  -2    0.07    0.12
   4   3   2    0.25    0.14
   4   3   2    0.54    0.20
   4   3   2    0.27    0.21
   4   3   2    0.44    0.14
   4   3   2    0.37    0.16
   4   3   2   -0.13    0.17
   4   3   2    0.12    0.21
  -5  -3  -2   19.31    0.93
  -5  -3  -2   19.72    1.02
  -5  -3  -2   19.89    0.90
   5   3   2   18.71    0.90
   5   3   2   19.40    0.98
   5   3   2   17.09    0.98
   5   3   2   19.47    1.00
  -6  -3  -2    1.42    0.29
   6   3   2    1.33    0.32
   6   3   2    0.94    0.30
   6   3   2    0.76    0.29
   7  -4  -2    4.71    0.52
  -7   4   2    3.94    0.58
   6  -4  -2   14.40    0.89
   6  -4  -2   16.14    0.84
  -6   4   2   14.91    0.88
  -6   4   2   14.79    0.79
   5  -4  -2   12.19    0.59
   5  -4  -2   10.96    0.72
  -5   4   2   12.68    0.67
  -5   4   2   11.29    0.62
  -5   4   2   11.81    0.53
  -5   4   2   12.49    0.62
  -5   4   2   12.76    0.77
  -5   4   2   12.96    0.62
   4  -4  -2   46.96    1.69
   4  -4  -2   44.43    1.68
   4  -4  -2   45.87    1.85
   4  -4  -2   46.75    1.64
  -4   4   2   45.48    1.80
  -4   4   2   44.19    1.48
  -4   4   2   43.70    1.67
  -4   4   2   47.16    1.67
  -4   4   2   45.85    1.70
   3  -4  -2   14.69    0.71
   3  -4  -2   16.16    0.69
   3  -4  -2   16.84    0.69
   3  -4  -2   16.50    0.77
   3  -4  -2   15.62    0.62
   3  -4  -2   15.25    0.77
  -3   4   2   15.19    0.69
  -3   4   2   14.37    0.72
  -3   4   2   15.80    0.60
  -3   4   2   15.22    0.68
  -3   4   2   16.18    0.72
   2  -4  -2    4.19    0.31
   2  -4  -2    4.37    0.34
   2  -4  -2    3.57    0.30
   2  -4  -2    4.24    0.33
   2  -4  -2    3.71    0.32
   2  -4  -2    3.96    0.22
   2  -4  -2    3.51    0.29
   2  -4  -2    3.88    0.25
  -2   4   2    3.43    0.33
  -2   4   2    3.86    0.30
  -2   4   2    3.92    0.25
  -2   4   2    3.75    0.30
  -2   4   2    3.88    0.31
  -2   4   2    3.90    0.24
   1  -4  -2    0.44    0.15
   1  -4  -2    0.34    0.10
   1  -4  -2    0.46    0.18
   1  -4  -2    0.52    0.17
   1  -4  -2    0.33    0.14
   1  -4  -2    0.21    0.15
   1  -4  -2    0.11    0.10
  -1   4   2    0.36    0.16
  -1   4   2    0.38    0.16
  -1   4   2    0.72    0.15
  -1   4   2    0.43    0.13
  -1   4   2    0.39    0.15
  -1   4   2    0.29    0.16
   0  -4  -2   38.69    1.57
   0  -4  -2   39.55    1.54
   0  -4  -2   41.89    1.51
   0  -4  -2   40.64    1.58
   0  -4  -2   38.35    1.32
   0   4   2   36.02    1.40
   0   4   2   37.84    1.30
   0   4   2   35.06    1.45
   0   4   2   37.77    1.31
   0   4   2   37.50    1.40
   0   4   2   34.97    1.47
   0   4   2   37.73    1.40
  -1  -4  -2    0.22    0.15
  -1  -4  -2    0.28    0.14
  -1  -4  -2    0.25    0.15
  -1  -4  -2    0.13    0.16
  -1  -4  -2    0.12    0.16
   1   4   2    0.30    0.17
   1   4   2    0.21    0.12
   1   4   2    0.23    0.17
   1   4   2    0.44    0.18
   1   4   2    0.21    0.14
  -2  -4  -2    1.66    0.28
  -2  -4  -2    1.47    0.23
  -2  -4  -2    1.54    0.22
  -2  -4  -2    1.96    0.32
   2   4   2    1.87    0.26
   2   4   2    1.57    0.26
   2   4   2    2.33    0.31
   2   4   2    2.20    0.33
   2   4   2    1.98    0.19
  -3  -4  -2    2.85    0.30
  -3  -4  -2    3.14    0.37
  -3  -4  -2    3.22    0.32
  -3  -4  -2    3.19    0.41
   3   4   2    3.15    0.40
   3   4   2    2.99    0.39
   3   4   2    3.34    0.33
   3   4   2    3.52    0.35
   3   4   2    3.54    0.38
   3   4   2    3.23    0.25
  -4  -4  -2    1.66    0.35
  -4  -4  -2    1.57    0.31
  -4  -4  -2    1.58    0.26
   4   4   2    1.78    0.34
   4   4   2    1.83    0.33
   4   4   2    1.81    0.31
   4   4   2    1.79    0.34
   4   4   2    1.51    0.24
  -5  -4  -2    0.86    0.24
  -5  -4  -2    0.55    0.26
  -5  -4  -2    1.11    0.31
   5   4   2    0.59    0.26
   5   4   2    0.90    0.27
   5   4   2    0.15    0.23
   5   4   2    0.63    0.27
  -6  -4  -2    4.11    0.43
   6   4   2    4.59    0.56
   6   4   2    4.26    0.53
   6  -5  -2    1.06    0.33
  -6   5   2    2.22    0.44
   5  -5  -2    1.37    0.17
   5  -5  -2    1.26    0.30
  -5   5   2    1.47    0.27
  -5   5   2    1.18    0.25
  -5   5   2    1.35    0.25
  -5   5   2    1.62    0.38
   4  -5  -2    2.79    0.26
   4  -5  -2    2.88    0.28
   4  -5  -2    2.68    0.38
  -4   5   2    2.83    0.26
  -4   5   2    2.04    0.28
  -4   5   2    2.04    0.30
  -4   5   2    2.50    0.31
   3  -5  -2  116.66    4.36
   3  -5  -2  128.91    4.27
   3  -5  -2  127.72    4.30
   3  -5  -2  121.08    3.81
  -3   5   2  114.34    4.03
  -3   5   2  115.14    4.00
  -3   5   2  122.00    4.00
  -3   5   2  114.94    4.30
  -3   5   2  116.82    4.09
  -3   5   2  116.96    3.60
   2  -5  -2    0.09    0.13
   2  -5  -2    0.16    0.16
   2  -5  -2   -0.02    0.16
   2  -5  -2    0.14    0.16
   2  -5  -2    0.01    0.10
  -2   5   2   -0.01    0.12
  -2   5   2    0.02    0.13
  -2   5   2    0.17    0.16
  -2   5   2    0.10    0.13
  -2   5   2   -0.32    0.13
   1  -5  -2   19.10    0.92
   1  -5  -2   20.33    0.94
   1  -5  -2   20.07    0.92
   1  -5  -2   21.37    0.79
   1  -5  -2   21.81    0.74
   1  -5  -2   21.95    0.93
  -1   5   2   20.19    0.89
  -1   5   2   19.24    0.92
  -1   5   2   20.40    0.86
  -1   5   2   20.52    0.93
  -1   5   2   20.84    0.91
   0  -5  -2   32.77    1.16
   0  -5  -2   35.32    1.34
   0  -5  -2   32.05    1.39
   0  -5  -2   32.83    1.36
   0   5   2   30.51    1.32
   0   5   2   31.11    1.33
   0   5   2   31.16    1.27
   0   5   2   32.31    1.16
   0   5   2   32.42    1.26
   0   5   2   30.82    1.27
  -1  -5  -2    3.86    0.39
  -1  -5  -2    4.68    0.47
   1   5   2    3.87    0.38
   1   5   2    4.50    0.30
   1   5   2    4.85    0.39
   1   5   2    3.57    0.38
   1   5   2    4.03    0.43
  -2  -5  -2    1.85    0.36
  -2  -5  -2    2.27    0.34
   2   5   2    2.15    0.22
   2   5   2    1.51    0.26
   2   5   2    2.00    0.33
   2   5   2    1.90    0.34
   2   5   2    1.76    0.30
  -3  -5  -2    7.59    0.56
  -3  -5  -2    6.36    0.56
  -3  -5  -2    7.24    0.46
   3   5   2    6.70    0.48
   3   5   2    6.82    0.36
   3   5   2    7.31    0.54
   3   5   2    5.54    0.57
   3   5   2    6.63    0.54
  -4  -5  -2    0.55    0.28
  -4  -5  -2    0.74    0.29
  -4  -5  -2    0.75    0.21
   4   5   2    0.48    0.24
   4   5   2    0.21    0.26
   4   5   2    0.59    0.25
   4   5   2    0.53    0.27
   4   5   2    0.59    0.22
  -5  -5  -2   19.53    0.88
  -5  -5  -2   19.13    1.09
  -5  -5  -2   18.37    0.99
   5   5   2   16.89    1.02
   5   5   2   18.97    1.05
   5   5   2   19.41    1.03
  -6   6   2   40.08    1.79
   5  -6  -2    2.32    0.39
   5  -6  -2    3.16    0.28
  -5   6   2    2.85    0.38
  -5   6   2    2.69    0.46
  -5   6   2    3.00    0.36
   4  -6  -2    4.28    0.33
   4  -6  -2    4.66    0.36
   4  -6  -2    4.11    0.31
   4  -6  -2    3.51    0.43
  -4   6   2    3.87    0.42
  -4   6   2    3.55    0.40
  -4   6   2    4.74    0.40
   3  -6  -2    2.32    0.30
   3  -6  -2    1.65    0.28
   3  -6  -2    2.39    0.26
  -3   6   2    2.13    0.25
  -3   6   2    2.53    0.35
  -3   6   2    2.29    0.33
  -3   6   2    2.70    0.26
  -3   6   2    2.29    0.31
  -3   6   2    2.31    0.32
  -3   6   2    2.03    0.31
   2  -6  -2    6.97    0.46
   2  -6  -2    7.28    0.40
   2  -6  -2    7.24    0.51
   2  -6  -2    7.40    0.41
  -2   6   2    8.40    0.55
  -2   6   2    6.93    0.43
  -2   6   2    6.80    0.48
  -2   6   2    6.92    0.52
  -2   6   2    8.27    0.53
   1  -6  -2    3.51    0.30
   1  -6  -2    2.69    0.36
   1  -6  -2    3.54    0.41
  -1   6   2    3.14    0.38
  -1   6   2    2.85    0.31
  -1   6   2    3.42    0.35
  -1   6   2    3.76    0.42
  -1   6   2    2.92    0.36
  -1   6   2    2.69    0.33
   0  -6  -2    0.82    0.25
   0  -6  -2    0.45    0.22
   0  -6  -2    0.48    0.15
   0   6   2    0.33    0.17
   0   6   2    0.36    0.17
   0   6   2    0.09    0.16
   0   6   2    0.28    0.21
   0   6   2    0.33    0.21
   0   6   2    0.57    0.23
  -1  -6  -2   52.11    1.71
  -1  -6  -2   49.94    2.04
  -1  -6  -2   46.86    1.95
   1   6   2   47.87    1.67
   1   6   2   46.16    1.88
   1   6   2   47.02    1.86
   1   6   2   47.17    1.87
   1   6   2   50.74    1.97
  -2  -6  -2   31.65    1.44
  -2  -6  -2   35.64    1.55
   2   6   2   32.73    1.19
   2   6   2   34.45    1.41
   2   6   2   31.63    1.43
   2   6   2   33.25    1.49
   2   6   2   33.28    1.42
  -3  -6  -2   43.59    1.85
  -3  -6  -2   40.00    1.74
   3   6   2   34.52    1.62
   3   6   2   38.47    1.31
   3   6   2   37.51    1.59
   3   6   2   39.82    1.55
   3   6   2   36.46    1.66
  -4  -6  -2    0.34    0.25
  -4  -6  -2    0.56    0.30
   4   6   2    0.64    0.30
   4   6   2    0.81    0.27
   4   6   2    0.83    0.25
   4   6   2    0.63    0.28
  -5  -6  -2    0.66    0.31
   5   6   2    0.67    0.28
   5   6   2    1.30    0.36
   5  -7  -2    0.37    0.17
   5  -7  -2    0.39    0.23
  -5   7   2    0.40    0.29
  -5   7   2    0.10    0.19
   4  -7  -2    3.43    0.43
   4  -7  -2    4.02    0.39
   4  -7  -2    3.77    0.36
  -4   7   2    4.07    0.44
  -4   7   2    4.23    0.42
  -4   7   2    2.84    0.38
  -4   7   2    3.18    0.40
   3  -7  -2    5.22    0.44
   3  -7  -2    6.45    0.40
   3  -7  -2    5.37    0.44
  -3   7   2    5.53    0.40
  -3   7   2    5.47    0.47
  -3   7   2    4.81    0.50
  -3   7   2    4.48    0.46
   2  -7  -2   17.70    0.91
   2  -7  -2   18.00    0.83
   2  -7  -2   17.71    0.77
  -2   7   2   17.19    0.89
  -2   7   2   15.89    0.87
  -2   7   2   15.17    0.78
  -2   7   2   18.10    0.87
  -2   7   2   18.03    0.90
   1  -7  -2   -0.28    0.16
   1  -7  -2    0.03    0.21
   1  -7  -2    0.15    0.15
  -1   7   2    0.04    0.17
  -1   7   2   -0.24    0.19
  -1   7   2    0.18    0.19
  -1   7   2   -0.27    0.20
  -1   7   2    0.27    0.21
  -1   7   2   -0.02    0.16
   0  -7  -2    3.16    0.33
   0  -7  -2    3.58    0.46
   0  -7  -2    3.17    0.42
   0   7   2    3.23    0.41
   0   7   2    2.34    0.36
   0   7   2    4.20    0.51
   0   7   2    2.82    0.36
   0   7   2    2.80    0.32
   0   7   2    2.69    0.37
  -1  -7  -2    9.30    0.67
  -1  -7  -2    8.78    0.51
  -1  -7  -2    8.06    0.60
   1   7   2    9.18    0.62
   1   7   2    7.82    0.57
   1   7   2    7.61    0.58
   1   7   2    9.16    0.66
   1   7   2    8.37    0.48
  -2  -7  -2    2.93    0.45
  -2  -7  -2    3.10    0.42
   2   7   2    2.75    0.28
   2   7   2    2.87    0.41
   2   7   2    2.58    0.38
   2   7   2    2.26    0.41
  -3  -7  -2    7.17    0.61
  -3  -7  -2    8.02    0.66
   3   7   2    8.59    0.61
   3   7   2    6.32    0.67
   3   7   2    6.60    0.58
  -4  -7  -2    4.04    0.53
  -4  -7  -2    4.49    0.60
   4   7   2    3.94    0.56
   4   7   2    3.18    0.50
   4  -8  -2   12.97    0.73
   4  -8  -2   12.62    0.78
  -4   8   2   11.68    0.74
   3  -8  -2    6.68    0.52
   3  -8  -2    7.03    0.54
   3  -8  -2    8.00    0.49
  -3   8   2    6.55    0.54
  -3   8   2    7.40    0.57
  -3   8   2    7.84    0.61
  -3   8   2    6.38    0.46
   2  -8  -2    1.07    0.30
   2  -8  -2    1.44    0.25
  -2   8   2    1.75    0.36
  -2   8   2    1.79    0.28
  -2   8   2    1.35    0.34
  -2   8   2    1.59    0.30
  -2   8   2    1.57    0.32
  -2   8   2    1.99    0.35
   1  -8  -2    0.07    0.21
   1  -8  -2    0.12    0.17
   1  -8  -2    0.30    0.24
  -1   8   2    0.07    0.17
  -1   8   2   -0.12    0.16
  -1   8   2    0.30    0.25
  -1   8   2    0.16    0.26
  -1   8   2    0.13    0.19
   0  -8  -2   23.06    1.20
   0  -8  -2   23.79    1.16
   0   8   2   23.33    1.09
   0   8   2   24.95    1.22
   0   8   2   20.14    1.12
   0   8   2   21.18    0.95
  -1  -8  -2    0.72    0.27
  -1  -8  -2    0.37    0.27
   1   8   2    0.17    0.17
   1   8   2    0.19    0.20
   1   8   2    0.38    0.30
  -2  -8  -2    0.03    0.25
  -2  -8  -2   -0.07    0.21
   2   8   2   -0.07    0.18
   2   8   2    0.11    0.15
   2   8   2    0.06    0.28
  -3  -8  -2    0.23    0.28
  -3  -8  -2   -0.33    0.24
   3   8   2    0.06    0.22
   3   8   2    0.18    0.31
   3  -9  -2   12.24    0.78
  -3   9   2    9.86    0.66
   2  -9  -2    0.23    0.24
  -2   9   2    0.37    0.21
  -2   9   2    0.28    0.22
   1  -9  -2    2.57    0.41
   1  -9  -2    2.87    0.44
  -1   9   2    2.59    0.38
  -1   9   2    3.39    0.49
  -1   9   2    2.73    0.38
   0  -9  -2    0.26    0.27
   0  -9  -2    0.71    0.29
   0   9   2    0.66    0.25
   0   9   2    0.47    0.20
   0   9   2    0.79    0.34
  -1  -9  -2    0.20    0.24
  -1  -9  -2   -0.05    0.24
   1   9   2    0.32    0.23
   1   9   2   -0.23    0.27
   1   9   2    0.23    0.17
  -2  -9  -2    1.73    0.41
  -2  -9  -2    2.21    0.42
   2   9   2    2.56    0.49
   2   9   2    1.89    0.38
   1  11  -3    1.13    0.41
   1  11  -3    0.64    0.26
   1  11  -3    0.87    0.28
  -1 -11   3    0.79    0.31
  -1 -11   3    1.12    0.35
   0  11  -3    3.93    0.43
   0  11  -3    5.39    0.68
   0  11  -3    3.71    0.47
   0 -11   3    4.86    0.59
   0 -11   3    5.16    0.57
  -1  11  -3    5.24    0.56
  -1  11  -3    3.90    0.48
  -1  11  -3    4.88    0.65
   1 -11   3    4.08    0.54
   1 -11   3    4.62    0.52
  -2  11  -3    1.30    0.39
  -2  11  -3    1.32    0.44
   2 -11   3    1.74    0.40
   2 -11   3    0.92    0.30
   3  10  -3   25.01    1.34
   3  10  -3   23.34    1.13
   3  10  -3   22.27    1.21
  -3 -10   3   24.46    1.28
  -3 -10   3   23.28    1.25
   2  10  -3    0.05    0.29
   2  10  -3    0.13    0.20
   2  10  -3   -0.27    0.18
   2  10  -3    0.57    0.25
  -2 -10   3   -0.11    0.26
  -2 -10   3    0.25    0.24
   1  10  -3    0.46    0.23
   1  10  -3    0.78    0.37
   1  10  -3    0.24    0.20
   1  10  -3    0.14    0.20
  -1 -10   3    0.21    0.25
  -1 -10   3    0.69    0.27
   0  10  -3    5.07    0.51
   0  10  -3    4.94    0.53
   0  10  -3    4.77    0.60
   0  10  -3    4.94    0.45
   0 -10   3    5.96    0.58
   0 -10   3    5.13    0.58
  -1  10  -3   14.43    0.83
  -1  10  -3   15.21    0.84
  -1  10  -3   13.57    0.81
  -1  10  -3   13.71    0.85
  -1  10  -3   15.44    0.72
  -1  10  -3   15.36    0.98
   1 -10   3   16.39    0.94
   1 -10   3   14.76    0.85
  -2  10  -3   14.60    0.97
  -2  10  -3   13.59    0.83
   2 -10   3   14.68    0.88
   2 -10   3   14.24    0.79
  -3  10  -3    0.65    0.33
   3 -10   3   -0.17    0.19
   3 -10   3   -0.08    0.22
   4   9  -3    1.83    0.41
   4   9  -3    1.60    0.37
   4   9  -3    1.24    0.33
  -4  -9   3    1.47    0.39
  -4  -9   3    1.69    0.38
   3   9  -3    1.89    0.36
   3   9  -3    2.31    0.39
   3   9  -3    2.09    0.43
  -3  -9   3    2.40    0.45
  -3  -9   3    2.43    0.41
   2   9  -3   10.10    0.61
   2   9  -3    8.91    0.73
   2   9  -3    9.03    0.63
   2   9  -3    8.79    0.62
  -2  -9   3    7.88    0.64
  -2  -9   3    9.14    0.68
   1   9  -3    3.04    0.35
   1   9  -3    2.43    0.36
   1   9  -3    2.83    0.49
   1   9  -3    2.54    0.37
   1   9  -3    2.87    0.39
   1   9  -3    3.26    0.44
  -1  -9   3    2.73    0.43
  -1  -9   3    3.47    0.37
  -1  -9   3    4.05    0.49
   0   9  -3   10.68    0.68
   0   9  -3   10.25    0.66
   0   9  -3   10.04    0.74
   0   9  -3   11.22    0.59
   0   9  -3    9.72    0.63
   0   9  -3    9.72    0.65
   0  -9   3   10.92    0.58
   0  -9   3    9.73    0.65
   0  -9   3   10.78    0.70
  -1   9  -3    8.58    0.72
  -1   9  -3    9.00    0.62
  -1   9  -3   11.06    0.65
  -1   9  -3    8.90    0.64
  -1   9  -3   10.31    0.66
  -1   9  -3   10.23    0.54
   1  -9   3   10.68    0.67
   1  -9   3   11.78    0.63
   1  -9   3   11.21    0.72
  -2   9  -3    0.24    0.20
  -2   9  -3    0.80    0.20
  -2   9  -3    0.65    0.25
  -2   9  -3    0.39    0.33
  -2   9  -3    0.66    0.25
  -2   9  -3    0.42    0.30
   2  -9   3    0.97    0.29
   2  -9   3    0.61    0.23
  -3   9  -3    0.05    0.20
  -3   9  -3    0.21    0.32
  -3   9  -3   -0.10    0.28
   3  -9   3    0.31    0.21
   3  -9   3    0.29    0.17
  -4   9  -3   -0.24    0.27
   4  -9   3    0.24    0.21
   4  -9   3    0.03    0.25
   5   8  -3    0.01    0.22
   5   8  -3    0.03    0.24
   5   8  -3    0.03    0.27
   5   8  -3   -0.08    0.20
  -5  -8   3   -0.50    0.27
   4   8  -3   35.39    1.60
   4   8  -3   39.21    1.74
   4   8  -3   33.89    1.46
   4   8  -3   35.67    1.66
  -4  -8   3   35.76    1.73
  -4  -8   3   42.65    1.76
   3   8  -3    1.93    0.33
   3   8  -3    2.79    0.46
   3   8  -3    2.30    0.36
  -3  -8   3    2.49    0.31
  -3  -8   3    2.50    0.40
  -3  -8   3    2.81    0.44
   2   8  -3    1.16    0.27
   2   8  -3    1.17    0.27
   2   8  -3    0.85    0.32
   2   8  -3    1.05    0.31
   2   8  -3    1.14    0.25
  -2  -8   3    0.88    0.21
  -2  -8   3    0.82    0.32
  -2  -8   3    1.47    0.32
   1   8  -3    0.95    0.31
   1   8  -3    0.97    0.24
   1   8  -3    0.67    0.22
   1   8  -3    1.39    0.35
   1   8  -3    1.18    0.25
   1   8  -3    0.86    0.23
  -1  -8   3    1.36    0.33
  -1  -8   3    1.23    0.24
  -1  -8   3    0.76    0.26
   0   8  -3    3.42    0.46
   0   8  -3    3.29    0.38
   0   8  -3    3.53    0.35
   0   8  -3    3.11    0.37
   0   8  -3    4.16    0.44
   0  -8   3    4.05    0.36
   0  -8   3    3.77    0.43
   0  -8   3    4.27    0.45
  -1   8  -3    0.97    0.20
  -1   8  -3    0.75    0.23
  -1   8  -3    0.60    0.22
  -1   8  -3    0.90    0.29
  -1   8  -3    0.90    0.25
  -1   8  -3    0.83    0.32
   1  -8   3    0.92    0.26
   1  -8   3    0.86    0.24
   1  -8   3    1.37    0.24
   1  -8   3    1.27    0.25
  -2   8  -3    0.09    0.14
  -2   8  -3   -0.07    0.18
  -2   8  -3   -0.10    0.18
  -2   8  -3    0.17    0.20
  -2   8  -3   -0.26    0.23
  -2   8  -3    0.40    0.30
   2  -8   3    0.08    0.16
   2  -8   3   -0.11    0.16
   2  -8   3    0.06    0.19
  -3   8  -3    0.41    0.30
  -3   8  -3    1.11    0.29
  -3   8  -3    0.61    0.30
  -3   8  -3    0.29    0.22
   3  -8   3    0.94    0.26
   3  -8   3    1.03    0.20
  -4   8  -3    0.43    0.33
  -4   8  -3    0.90    0.26
  -4   8  -3    0.77    0.27
   4  -8   3    0.86    0.31
   4  -8   3    0.67    0.25
  -5   8  -3    1.01    0.41
   5  -8   3    0.74    0.26
   5   7  -3   -0.22    0.23
   5   7  -3   -0.25    0.17
   5   7  -3    0.30    0.26
   5   7  -3   -0.01    0.22
  -5  -7   3   -0.13    0.26
  -5  -7   3    0.01    0.16
   4   7  -3    8.81    0.59
   4   7  -3    8.35    0.67
   4   7  -3    7.92    0.59
   4   7  -3    9.17    0.67
  -4  -7   3    8.52    0.63
  -4  -7   3   10.28    0.53
  -4  -7   3    9.33    0.69
   3   7  -3   12.89    0.78
   3   7  -3   13.29    0.78
   3   7  -3   11.77    0.70
   3   7  -3   12.14    0.67
  -3  -7   3   14.65    0.64
  -3  -7   3   11.96    0.78
  -3  -7   3   13.42    0.76
   2   7  -3   39.52    1.56
   2   7  -3   39.69    1.64
   2   7  -3   42.27    1.73
   2   7  -3   39.34    1.62
   2   7  -3   39.43    1.48
   2   7  -3   41.14    1.65
  -2  -7   3   42.26    1.76
  -2  -7   3   43.13    1.77
  -2  -7   3   43.90    1.49
   1   7  -3   -0.31    0.20
   1   7  -3    0.06    0.15
   1   7  -3   -0.06    0.21
   1   7  -3   -0.10    0.14
   1   7  -3    0.35    0.17
   1   7  -3    0.04    0.14
  -1  -7   3    0.00    0.17
  -1  -7   3    0.12    0.14
  -1  -7   3    0.05    0.20
   0   7  -3    6.01    0.37
   0   7  -3    5.57    0.41
   0   7  -3    5.86    0.41
   0   7  -3    5.90    0.51
   0   7  -3    5.05    0.36
   0   7  -3    5.44    0.41
   0   7  -3    6.87    0.45
   0  -7   3    6.23    0.47
   0  -7   3    5.33    0.43
   0  -7   3    6.71    0.49
   0  -7   3    5.87    0.38
  -1   7  -3    5.53    0.55
  -1   7  -3    5.16    0.43
  -1   7  -3    5.92    0.36
  -1   7  -3    5.58    0.39
  -1   7  -3    5.99    0.41
  -1   7  -3    4.70    0.39
  -1   7  -3    5.28    0.43
   1  -7   3    6.63    0.48
   1  -7   3    6.11    0.36
   1  -7   3    5.97    0.38
   1  -7   3    5.67    0.42
   1  -7   3    5.26    0.39
  -2   7  -3   10.81    0.64
  -2   7  -3   11.51    0.68
  -2   7  -3   12.54    0.74
  -2   7  -3   10.82    0.66
  -2   7  -3   12.58    0.59
  -2   7  -3   11.47    0.55
   2  -7   3   11.67    0.60
   2  -7   3   12.46    0.68
   2  -7   3   11.72    0.59
  -3   7  -3    1.06    0.19
  -3   7  -3    1.17    0.20
  -3   7  -3    0.60    0.23
  -3   7  -3    0.93    0.32
  -3   7  -3    0.85    0.32
  -3   7  -3    0.94    0.26
   3  -7   3    0.90    0.17
   3  -7   3    0.46    0.21
  -4   7  -3   25.83    1.21
  -4   7  -3   23.99    1.13
  -4   7  -3   22.06    1.16
   4  -7   3   24.85    1.13
  -5   7  -3    4.24    0.57
  -5   7  -3    4.57    0.53
   5  -7   3    4.35    0.54
   5  -7   3    5.56    0.46
  -6   7  -3    3.85    0.61
   6  -7   3    4.12    0.45
   6   6  -3    2.46    0.47
   6   6  -3    1.68    0.35
   6   6  -3    2.00    0.37
  -6  -6   3    1.34    0.38
   5   6  -3    5.01    0.51
   5   6  -3    3.59    0.52
   5   6  -3    5.41    0.53
   5   6  -3    4.93    0.50
  -5  -6   3    6.39    0.41
  -5  -6   3    5.31    0.58
   4   6  -3    0.58    0.22
   4   6  -3    0.98    0.29
   4   6  -3    0.38    0.25
   4   6  -3    0.70    0.24
   4   6  -3    1.12    0.30
  -4  -6   3    0.41    0.16
  -4  -6   3    0.79    0.25
  -4  -6   3    0.16    0.26
   3   6  -3    0.68    0.25
   3   6  -3    0.74    0.21
   3   6  -3    0.79    0.27
   3   6  -3    1.20    0.23
  -3  -6   3    0.66    0.16
  -3  -6   3    0.52    0.28
  -3  -6   3    0.67    0.20
  -3  -6   3    0.88    0.17
  -3  -6   3    1.05    0.24
  -3  -6   3    1.00    0.21
   2   6  -3    5.44    0.44
   2   6  -3    5.66    0.38
   2   6  -3    5.07    0.45
   2   6  -3    5.16    0.39
   2   6  -3    5.09    0.36
   2   6  -3    4.22    0.39
   2   6  -3    5.75    0.27
  -2  -6   3    4.82    0.42
  -2  -6   3    6.01    0.40
  -2  -6   3    6.14    0.48
  -2  -6   3    6.06    0.44
  -2  -6   3    6.06    0.40
  -2  -6   3    5.45    0.33
  -2  -6   3    4.64    0.45
   1   6  -3   12.56    0.61
   1   6  -3   11.64    0.55
   1   6  -3   12.51    0.64
   1   6  -3   11.85    0.60
   1   6  -3   11.44    0.51
   1   6  -3   11.49    0.60
   1   6  -3   11.13    0.58
  -1  -6   3   12.03    0.67
  -1  -6   3   11.88    0.63
  -1  -6   3   12.13    0.65
  -1  -6   3   13.01    0.64
  -1  -6   3   12.07    0.53
  -1  -6   3   11.45    0.63
   0   6  -3    1.29    0.17
   0  -6   3    1.19    0.21
  -1   6  -3   30.33    1.15
  -1   6  -3   28.90    1.00
  -1   6  -3   27.99    1.02
  -1   6  -3   27.78    1.06
  -1   6  -3   28.40    1.17
  -1   6  -3   28.40    1.11
  -1   6  -3   27.95    1.25
  -1   6  -3   26.82    1.20
   1  -6   3   27.99    1.18
   1  -6   3   30.17    1.09
   1  -6   3   30.54    1.23
   1  -6   3   29.18    1.15
   1  -6   3   28.33    1.06
   1  -6   3   28.33    1.12
  -2   6  -3    6.55    0.49
  -2   6  -3    5.64    0.43
  -2   6  -3    6.36    0.36
  -2   6  -3    6.06    0.44
  -2   6  -3    6.58    0.37
  -2   6  -3    5.03    0.46
  -2   6  -3    6.09    0.37
   2  -6   3    5.83    0.43
   2  -6   3    6.43    0.41
   2  -6   3    6.01    0.37
   2  -6   3    6.73    0.35
   2  -6   3    6.48    0.43
  -3   6  -3    1.34    0.32
  -3   6  -3    1.27    0.17
  -3   6  -3    1.14    0.26
  -3   6  -3    1.32    0.18
  -3   6  -3    1.78    0.37
  -3   6  -3    0.94    0.25
   3  -6   3    1.02    0.23
   3  -6   3    0.98    0.24
   3  -6   3    1.53    0.17
  -4   6  -3   11.73    0.74
  -4   6  -3   12.36    0.70
  -4   6  -3   12.28    0.78
  -4   6  -3   13.82    0.79
   4  -6   3   14.07    0.73
   4  -6   3   13.15    0.67
  -5   6  -3   -0.07    0.30
  -5   6  -3    0.00    0.20
  -5   6  -3    0.26    0.23
   5  -6   3    0.00    0.18
   5  -6   3    0.18    0.19
   5  -6   3    0.25    0.24
  -6   6  -3    0.57    0.39
   6  -6   3    1.00    0.26
   6  -6   3    1.44    0.29
   6   5  -3    0.91    0.27
   6   5  -3    0.49    0.23
   6   5  -3    0.33    0.30
  -6  -5   3    0.38    0.31
   5   5  -3    1.99    0.39
   5   5  -3    1.40    0.30
   5   5  -3    1.47    0.30
   5   5  -3    1.39    0.29
   5   5  -3    1.82    0.36
  -5  -5   3    0.77    0.34
  -5  -5   3    1.47    0.21
   4   5  -3   76.56    2.64
   4   5  -3   79.08    3.14
   4   5  -3   79.78    2.91
   4   5  -3   78.44    2.88
   4   5  -3   77.91    2.88
  -4  -5   3   86.36    2.92
  -4  -5   3   79.68    3.16
  -4  -5   3   89.25    3.13
  -4  -5   3   84.92    3.07
  -4  -5   3   85.64    3.01
  -4  -5   3   84.33    2.66
  -4  -5   3   79.61    2.92
   3   5  -3    2.15    0.27
   3   5  -3    2.40    0.32
   3   5  -3    2.52    0.34
   3   5  -3    2.43    0.29
  -3  -5   3    2.83    0.35
  -3  -5   3    2.79    0.27
  -3  -5   3    2.12    0.36
  -3  -5   3    2.65    0.23
  -3  -5   3    2.70    0.26
  -3  -5   3    2.49    0.30
  -3  -5   3    2.32    0.30
  -3  -5   3    2.47    0.25
   2   5  -3   49.28    1.81
   2   5  -3   48.18    1.85
   2   5  -3   48.72    1.89
   2   5  -3   51.60    1.88
   2   5  -3   50.99    1.80
   2   5  -3   48.77    1.63
   2   5  -3   50.54    1.93
   2   5  -3   50.16    1.71
   2   5  -3   52.46    1.60
  -2  -5   3   53.30    2.03
  -2  -5   3   53.19    1.89
  -2  -5   3   53.23    1.70
  -2  -5   3   49.92    1.90
  -2  -5   3   54.72    2.00
  -2  -5   3   52.13    1.98
   1   5  -3   73.79    2.59
   1   5  -3   74.60    2.63
   1   5  -3   75.83    2.40
   1   5  -3   75.18    2.74
   1   5  -3   73.71    2.54
   1   5  -3   73.47    2.75
   1   5  -3   76.71    2.33
   1   5  -3   73.09    2.45
  -1  -5   3   77.76    2.39
  -1  -5   3   77.08    2.76
  -1  -5   3   74.91    2.66
  -1  -5   3   80.10    2.84
  -1  -5   3   72.94    2.68
   0   5  -3   14.50    0.57
   0   5  -3   14.93    0.64
   0   5  -3   13.74    0.65
   0   5  -3   14.10    0.67
   0   5  -3   13.96    0.75
   0   5  -3   14.36    0.65
   0   5  -3   14.15    0.62
   0  -5   3   15.85    0.61
   0  -5   3   15.88    0.74
   0  -5   3   14.41    0.65
   0  -5   3   15.54    0.71
   0  -5   3   16.30    0.72
   0  -5   3   15.00    0.69
   0  -5   3   15.31    0.73
  -1   5  -3   13.93    0.66
  -1   5  -3   12.83    0.66
  -1   5  -3   13.75    0.59
  -1   5  -3   14.07    0.50
  -1   5  -3   12.94    0.55
  -1   5  -3   13.24    0.72
  -1   5  -3   13.11    0.65
  -1   5  -3   13.81    0.58
   1  -5   3   13.63    0.65
   1  -5   3   13.95    0.56
   1  -5   3   13.80    0.67
   1  -5   3   14.37    0.71
   1  -5   3   13.91    0.62
   1  -5   3   14.85    0.60
   1  -5   3   13.58    0.60
   1  -5   3   13.89    0.58
  -2   5  -3    0.26    0.12
  -2   5  -3    0.22    0.11
  -2   5  -3    0.35    0.22
  -2   5  -3    0.43    0.21
  -2   5  -3    0.39    0.17
  -2   5  -3    0.39    0.12
   2  -5   3    0.34    0.14
   2  -5   3    0.46    0.11
   2  -5   3    0.33    0.11
   2  -5   3    0.34    0.16
   2  -5   3    0.51    0.12
  -3   5  -3   10.86    0.67
  -3   5  -3   11.40    0.49
  -3   5  -3   11.70    0.45
  -3   5  -3   10.90    0.66
  -3   5  -3   10.44    0.53
  -3   5  -3   11.58    0.43
  -3   5  -3   10.87    0.66
   3  -5   3   12.53    0.51
   3  -5   3   10.72    0.56
   3  -5   3   11.23    0.51
   3  -5   3   12.49    0.64
  -4   5  -3    0.23    0.20
  -4   5  -3    0.00    0.22
  -4   5  -3    0.43    0.30
  -4   5  -3    0.21    0.12
   4  -5   3    0.40    0.17
   4  -5   3   -0.08    0.13
   4  -5   3   -0.04    0.17
  -5   5  -3    9.45    0.73
  -5   5  -3    8.06    0.63
   5  -5   3    8.46    0.53
   5  -5   3    6.97    0.62
   5  -5   3    9.28    0.55
  -6   5  -3   -0.09    0.21
  -6   5  -3    0.37    0.34
   6  -5   3    0.19    0.18
   6  -5   3   -0.16    0.18
   6  -5   3   -0.01    0.24
   6   4  -3    0.42    0.21
   6   4  -3    0.19    0.19
   6   4  -3    0.29    0.28
   6   4  -3    0.35    0.23
  -6  -4   3    0.07    0.28
   5   4  -3    6.84    0.49
   5   4  -3    6.40    0.47
   5   4  -3    7.28    0.55
   5   4  -3    7.10    0.61
   5   4  -3    7.18    0.50
  -5  -4   3    6.56    0.55
   4   4  -3    7.34    0.47
   4   4  -3    7.39    0.46
   4   4  -3    6.83    0.56
   4   4  -3    7.21    0.51
   4   4  -3    7.85    0.50
  -4  -4   3    7.82    0.47
  -4  -4   3    8.21    0.40
  -4  -4   3    8.19    0.39
  -4  -4   3    7.62    0.57
  -4  -4   3    8.29    0.44
  -4  -4   3    7.46    0.47
   3   4  -3   17.64    0.79
   3   4  -3   15.71    0.71
   3   4  -3   17.36    0.80
   3   4  -3   16.66    0.75
   3   4  -3   17.56    0.88
  -3  -4   3   19.30    0.74
  -3  -4   3   18.69    0.82
  -3  -4   3   18.79    0.80
  -3  -4   3   18.81    0.78
  -3  -4   3   18.74    0.89
  -3  -4   3   17.32    0.84
  -3  -4   3   17.88    0.67
  -3  -4   3   20.01    0.80
   2   4  -3  322.93    9.87
   2   4  -3  321.59   10.90
   2   4  -3  323.01   11.02
   2   4  -3  330.31   10.40
   2   4  -3  340.12    9.99
   2   4  -3  321.43   10.74
   2   4  -3  324.26   10.69
   2   4  -3  325.55   11.44
  -2  -4   3  342.41   10.93
  -2  -4   3  334.29   11.32
  -2  -4   3  331.85   11.23
  -2  -4   3  317.72   10.96
  -2  -4   3  337.54   11.70
  -2  -4   3  336.18    9.85
   1   4  -3    4.18    0.26
   1   4  -3    4.51    0.29
   1   4  -3    3.70    0.23
   1   4  -3    4.05    0.29
   1   4  -3    4.01    0.28
   1   4  -3    4.36    0.36
   1   4  -3    3.46    0.31
   1   4  -3    4.38    0.38
  -1  -4   3    4.29    0.37
  -1  -4   3    4.47    0.34
  -1  -4   3    4.53    0.31
  -1  -4   3    4.41    0.26
  -1  -4   3    4.08    0.38
  -1  -4   3    4.46    0.34
   0   4  -3   20.22    0.78
   0   4  -3   19.57    0.84
   0   4  -3   20.19    0.71
   0   4  -3   19.46    0.81
   0   4  -3   19.86    0.78
   0   4  -3   19.90    0.81
   0  -4   3   19.77    0.83
   0  -4   3   20.78    0.90
   0  -4   3   21.35    0.87
   0  -4   3   20.31    0.75
   0  -4   3   21.44    0.89
   0  -4   3   21.53    0.83
   0  -4   3   21.82    0.81
  -1   4  -3    2.98    0.31
  -1   4  -3    1.88    0.25
  -1   4  -3    2.21    0.21
  -1   4  -3    2.40    0.22
  -1   4  -3    2.30    0.22
  -1   4  -3    1.79    0.30
   1  -4   3    2.56    0.23
   1  -4   3    2.02    0.25
   1  -4   3    2.84    0.23
   1  -4   3    2.45    0.22
   1  -4   3    2.24    0.23
  -2   4  -3    1.13    0.16
  -2   4  -3    0.51    0.24
  -2   4  -3    0.79    0.20
  -2   4  -3    0.78    0.16
  -2   4  -3    1.11    0.13
  -2   4  -3    1.27    0.13
  -2   4  -3    1.11    0.25
   2  -4   3    1.00    0.12
   2  -4   3    1.05    0.12
   2  -4   3    0.86    0.14
   2  -4   3    1.12    0.21
   2  -4   3    1.01    0.13
  -3   4  -3    9.19    0.58
  -3   4  -3    8.38    0.46
  -3   4  -3    9.53    0.61
  -3   4  -3    9.12    0.41
   3  -4   3    7.38    0.40
   3  -4   3    7.65    0.46
   3  -4   3    8.09    0.42
  -4   4  -3   13.65    0.55
  -4   4  -3   12.79    0.77
  -4   4  -3   13.68    0.74
  -4   4  -3   11.89    0.75
   4  -4   3   14.43    0.71
   4  -4   3   13.19    0.67
   4  -4   3   13.72    0.60
  -5   4  -3    6.99    0.57
  -5   4  -3    7.50    0.62
   5  -4   3    7.35    0.51
   5  -4   3    7.54    0.53
  -6   4  -3   21.33    1.16
  -6   4  -3   20.99    1.12
   6  -4   3   21.93    1.03
   6  -4   3   22.58    1.00
   6  -4   3   17.85    1.09
   7   3  -3    3.23    0.54
  -7  -3   3    3.05    0.47
   6   3  -3    2.88    0.39
   6   3  -3    2.40    0.29
   6   3  -3    2.45    0.34
   6   3  -3    2.55    0.46
  -6  -3   3    2.96    0.43
   5   3  -3   86.53    3.05
   5   3  -3   80.93    2.79
   5   3  -3   85.53    2.99
   5   3  -3   84.15    3.39
   5   3  -3   83.69    3.04
  -5  -3   3   86.16    3.22
   4   3  -3    8.02    0.46
   4   3  -3    7.70    0.46
   4   3  -3    8.35    0.48
   4   3  -3    8.29    0.53
   4   3  -3    8.81    0.47
   4   3  -3    8.48    0.62
  -4  -3   3    9.56    0.39
  -4  -3   3    8.73    0.46
  -4  -3   3    9.15    0.36
  -4  -3   3    8.95    0.43
  -4  -3   3    9.69    0.60
  -4  -3   3    8.28    0.55
   3   3  -3   12.08    0.58
   3   3  -3   11.18    0.60
   3   3  -3   11.84    0.56
   3   3  -3   11.71    0.58
   3   3  -3   12.06    0.55
   3   3  -3   12.19    0.67
  -3  -3   3   11.29    0.43
  -3  -3   3   12.37    0.46
  -3  -3   3   10.38    0.62
  -3  -3   3   11.43    0.53
  -3  -3   3   10.17    0.58
  -3  -3   3   10.86    0.39
  -3  -3   3   11.95    0.49
   2   3  -3   49.99    1.85
   2   3  -3   49.90    1.79
   2   3  -3   49.56    1.83
   2   3  -3   50.71    1.84
   2   3  -3   49.02    1.83
   2   3  -3   51.15    1.60
   2   3  -3   52.69    1.73
   2   3  -3   51.07    1.76
   2   3  -3   50.12    1.66
  -2  -3   3   52.85    1.91
  -2  -3   3   51.38    1.90
  -2  -3   3   53.23    1.63
  -2  -3   3   53.47    1.91
  -2  -3   3   52.98    1.68
   1   3  -3   63.38    2.21
   1   3  -3   63.01    2.13
   1   3  -3   64.32    2.02
   1   3  -3   61.26    1.93
   1   3  -3   60.87    2.04
   1   3  -3   64.08    2.29
   1   3  -3   66.10    2.17
   1   3  -3   62.68    2.26
   1   3  -3   65.88    2.29
  -1  -3   3   66.29    2.36
  -1  -3   3   65.02    2.29
  -1  -3   3   65.54    2.07
  -1  -3   3   62.49    2.32
  -1  -3   3   66.32    1.99
  -1  -3   3   65.11    2.26
  -1  -3   3   64.61    2.30
   0   3  -3    6.59    0.36
   0   3  -3    7.08    0.43
   0   3  -3    7.39    0.37
   0   3  -3    7.01    0.37
   0   3  -3    7.17    0.31
   0   3  -3    7.10    0.36
   0  -3   3    6.64    0.35
   0  -3   3    6.91    0.31
   0  -3   3    5.98    0.33
   0  -3   3    6.75    0.37
   0  -3   3    6.55    0.35
   0  -3   3    6.30    0.36
   0  -3   3    7.40    0.34
   0  -3   3    6.78    0.33
  -1   3  -3  100.31    3.35
  -1   3  -3   99.72    3.21
  -1   3  -3   95.02    3.03
  -1   3  -3   99.27    3.62
  -1   3  -3  101.18    3.29
  -1   3  -3   99.47    3.29
  -1   3  -3  103.98    3.38
  -1   3  -3   94.21    3.49
   1  -3   3   99.32    3.32
   1  -3   3   98.49    3.25
   1  -3   3  100.34    3.21
   1  -3   3  101.61    3.41
   1  -3   3   98.21    3.48
   1  -3   3  103.71    3.25
  -2   3  -3    9.95    0.44
  -2   3  -3    9.42    0.56
  -2   3  -3    9.83    0.46
  -2   3  -3    9.51    0.56
   2  -3   3    9.38    0.51
   2  -3   3    9.83    0.45
   2  -3   3    9.47    0.35
  -3   3  -3    3.54    0.39
  -3   3  -3    4.14    0.27
  -3   3  -3    4.75    0.40
   3  -3   3    3.32    0.32
  -4   3  -3    8.09    0.59
  -4   3  -3    8.76    0.44
  -4   3  -3    9.09    0.58
   4  -3   3    7.84    0.49
   4  -3   3    8.23    0.39
  -5   3  -3    1.51    0.22
  -5   3  -3    1.31    0.35
   5  -3   3    1.19    0.26
  -6   3  -3    1.52    0.39
   6  -3   3    0.96    0.24
   6  -3   3    0.64    0.29
   6  -3   3    0.61    0.28
   7   2  -3    9.02    0.75
   7   2  -3   11.55    0.85
  -7  -2   3   12.39    0.79
   6   2  -3    1.92    0.28
   6   2  -3    2.62    0.35
   6   2  -3    2.21    0.42
   6   2  -3    1.54    0.37
  -6  -2   3    2.36    0.39
   5   2  -3   44.97    1.78
   5   2  -3   45.08    2.02
   5   2  -3   46.27    1.74
   5   2  -3   47.24    1.66
   5   2  -3   46.54    1.63
  -5  -2   3   46.26    1.58
  -5  -2   3   43.83    1.76
  -5  -2   3   45.76    1.83
   4   2  -3    0.01    0.04
   4   2  -3    0.02    0.18
   4   2  -3    0.11    0.13
   4   2  -3    0.11    0.16
   4   2  -3    0.15    0.13
   4   2  -3   -0.17    0.12
  -4  -2   3   -0.18    0.18
  -4  -2   3    0.24    0.10
  -4  -2   3    0.18    0.07
  -4  -2   3    0.15    0.13
  -4  -2   3    0.06    0.09
  -4  -2   3   -0.15    0.15
   3   2  -3   38.52    1.42
   3   2  -3   40.55    1.66
   3   2  -3   40.46    1.44
   3   2  -3   39.25    1.50
   3   2  -3   38.41    1.35
   3   2  -3   40.84    1.45
   3   2  -3   40.54    1.44
  -3  -2   3   41.36    1.32
  -3  -2   3   40.84    1.60
  -3  -2   3   42.62    1.57
  -3  -2   3   40.06    1.46
  -3  -2   3   39.88    1.54
  -3  -2   3   41.98    1.48
  -3  -2   3   40.68    1.36
   2   2  -3   22.55    0.76
   2   2  -3   21.89    0.93
   2   2  -3   22.23    0.86
   2   2  -3   22.73    0.89
   2   2  -3   22.60    0.98
   2   2  -3   22.52    0.83
   2   2  -3   22.50    0.80
   2   2  -3   23.01    0.85
   2   2  -3   20.75    0.90
   2   2  -3   22.61    0.77
  -2  -2   3   22.01    0.72
  -2  -2   3   22.42    0.93
  -2  -2   3   23.15    0.77
  -2  -2   3   22.75    0.95
  -2  -2   3   24.16    0.83
  -2  -2   3   21.62    0.92
  -2  -2   3   22.24    0.86
  -2  -2   3   23.45    0.87
   1   2  -3  267.83    9.02
   1   2  -3  271.19    9.00
   1   2  -3  247.01    8.99
   1   2  -3  275.45    8.79
   1   2  -3  270.16    8.71
   1   2  -3  268.13    8.50
   1   2  -3  258.67    8.47
   1   2  -3  277.66    9.38
   1   2  -3  269.76    7.88
   1   2  -3  278.37    8.25
  -1  -2   3  268.27    9.03
  -1  -2   3  271.83    9.10
  -1  -2   3  264.36    8.82
  -1  -2   3  257.81    8.51
  -1  -2   3  278.65    8.53
  -1  -2   3  271.14    8.28
  -1  -2   3  275.50    9.03
  -1  -2   3  268.58    7.97
   0   2  -3   39.81    1.52
   0   2  -3   41.59    1.39
   0   2  -3   41.50    1.29
   0   2  -3   40.36    1.38
   0   2  -3   41.06    1.43
   0   2  -3   42.05    1.46
   0  -2   3   39.56    1.41
   0  -2   3   43.20    1.41
   0  -2   3   40.43    1.45
   0  -2   3   42.18    1.51
   0  -2   3   41.82    1.49
   0  -2   3   41.77    1.37
   0  -2   3   42.28    1.37
  -1   2  -3    1.88    0.22
  -1   2  -3    1.99    0.25
  -1   2  -3    1.89    0.18
  -1   2  -3    1.97    0.21
   1  -2   3    1.96    0.18
   1  -2   3    1.78    0.15
   1  -2   3    1.85    0.14
   1  -2   3    1.81    0.20
   1  -2   3    2.13    0.22
  -2   2  -3    0.14    0.18
  -2   2  -3    0.53    0.22
  -2   2  -3    0.42    0.14
   2  -2   3    0.55    0.17
   2  -2   3    0.33    0.08
   2  -2   3    0.39    0.18
   2  -2   3    0.66    0.17
  -3   2  -3    0.39    0.23
  -3   2  -3    0.60    0.15
  -3   2  -3    0.63    0.22
   3  -2   3    0.40    0.16
   3  -2   3    0.75    0.19
  -4   2  -3   51.37    1.96
  -4   2  -3   48.63    1.88
  -4   2  -3   49.41    1.74
   4  -2   3   50.34    1.86
   4  -2   3   47.05    1.88
  -5   2  -3   -0.11    0.20
  -5   2  -3    0.16    0.17
  -5   2  -3   -0.14    0.26
   5  -2   3   -0.06    0.19
   5  -2   3   -0.03    0.18
   5  -2   3    0.09    0.18
  -6   2  -3    9.94    0.71
   6  -2   3    8.20    0.66
   6  -2   3    8.91    0.63
   6  -2   3    9.83    0.59
  -7   2  -3   -0.16    0.30
   7   1  -3    0.69    0.31
  -7  -1   3    0.54    0.29
   6   1  -3   14.72    0.86
   6   1  -3   14.70    0.76
   6   1  -3   14.66    0.70
  -6  -1   3   14.82    0.82
  -6  -1   3   14.23    0.70
   5   1  -3   47.98    1.74
   5   1  -3   45.93    1.62
   5   1  -3   48.17    1.80
   5   1  -3   46.53    1.87
   5   1  -3   48.09    2.07
  -5  -1   3   48.36    1.91
  -5  -1   3   47.99    1.84
  -5  -1   3   49.20    1.73
  -5  -1   3   47.65    1.61
  -5  -1   3   49.07    1.65
   4   1  -3    4.87    0.44
   4   1  -3    4.88    0.31
   4   1  -3    5.04    0.30
   4   1  -3    5.29    0.38
   4   1  -3    5.15    0.42
  -4  -1   3    5.39    0.29
  -4  -1   3    5.21    0.34
  -4  -1   3    5.31    0.40
  -4  -1   3    5.85    0.44
  -4  -1   3    6.09    0.31
   3   1  -3    0.04    0.14
   3   1  -3   -0.03    0.07
   3   1  -3    0.12    0.16
   3   1  -3    0.01    0.16
   3   1  -3   -0.12    0.17
   3   1  -3   -0.05    0.08
   3   1  -3    0.04    0.12
   3   1  -3    0.15    0.12
   3   1  -3    0.02    0.10
  -3  -1   3    0.06    0.06
  -3  -1   3   -0.01    0.14
  -3  -1   3   -0.05    0.11
  -3  -1   3   -0.05    0.15
  -3  -1   3    0.07    0.12
  -3  -1   3   -0.04    0.15
  -3  -1   3   -0.01    0.06
  -3  -1   3    0.00    0.08
   2   1  -3  110.62    3.83
   2   1  -3  114.37    3.85
   2   1  -3  112.26    3.82
   2   1  -3  115.89    3.78
   2   1  -3  114.73    3.66
   2   1  -3  113.99    3.79
   2   1  -3  113.09    3.91
   2   1  -3  113.27    3.47
   2   1  -3  112.44    4.17
  -2  -1   3  117.41    3.66
  -2  -1   3  120.92    3.78
  -2  -1   3  112.81    3.95
  -2  -1   3  122.00    4.03
  -2  -1   3  113.78    3.95
   1   1  -3   37.62    1.28
   1   1  -3   38.21    1.44
   1   1  -3   36.32    1.34
   1   1  -3   39.01    1.13
   1   1  -3   38.01    1.30
   1   1  -3   37.40    1.37
   1   1  -3   38.18    1.37
   1   1  -3   37.82    1.35
   1   1  -3   37.13    1.24
  -1  -1   3   37.90    1.25
  -1  -1   3   39.76    1.33
  -1  -1   3   36.70    1.35
  -1  -1   3   39.95    1.30
  -1  -1   3   38.59    1.37
  -1  -1   3   36.81    1.26
   0   1  -3  133.92    4.75
   0   1  -3  141.36    4.49
   0   1  -3  136.33    4.78
   0   1  -3  148.03    4.70
   0  -1   3  140.07    4.81
   0  -1   3  139.23    4.67
   0  -1   3  144.89    4.41
   0  -1   3  148.94    4.53
   0  -1   3  135.76    4.55
  -1   1  -3  177.40    6.06
  -1   1  -3  178.53    5.66
  -1   1  -3  173.28    5.71
  -1   1  -3  180.48    5.98
   1  -1   3  173.34    5.38
   1  -1   3  173.81    5.83
   1  -1   3  171.24    5.87
  -2   1  -3   37.20    1.33
  -2   1  -3   35.74    1.26
  -2   1  -3   33.24    1.35
  -2   1  -3   36.01    1.41
   2  -1   3   33.52    1.22
   2  -1   3   35.20    1.36
   2  -1   3   36.78    1.24
   2  -1   3   35.93    1.21
   2  -1   3   34.48    1.35
  -3   1  -3   29.79    1.17
  -3   1  -3   27.15    1.08
  -3   1  -3   27.84    1.18
  -3   1  -3   29.89    1.02
  -3   1  -3   30.29    1.23
   3  -1   3   29.04    1.18
   3  -1   3   29.00    1.03
   3  -1   3   29.22    1.04
   3  -1   3   29.43    1.07
   3  -1   3   28.69    1.01
   3  -1   3   28.83    1.19
  -4   1  -3    3.95    0.22
  -4   1  -3    3.14    0.39
  -4   1  -3    3.58    0.40
   4  -1   3    3.49    0.36
   4  -1   3    3.60    0.22
   4  -1   3    4.03    0.22
   4  -1   3    3.26    0.36
  -5   1  -3   44.45    1.67
  -5   1  -3   45.51    1.79
  -5   1  -3   46.45    1.86
   5  -1   3   40.82    1.75
   5  -1   3   46.73    1.73
   5  -1   3   41.05    1.75
  -6   1  -3    7.49    0.50
  -6   1  -3    6.92    0.64
   6  -1   3    7.52    0.58
   6  -1   3    6.99    0.57
   6  -1   3    8.27    0.56
   7   0  -3    2.58    0.44
  -7   0   3    2.07    0.35
   6   0  -3   23.34    1.13
  -6   0   3   28.35    1.06
  -6   0   3   28.36    1.27
  -6   0   3   28.52    1.19
   5   0  -3   23.80    1.11
   5   0  -3   25.45    0.96
  -5   0   3   24.81    0.95
  -5   0   3   26.83    1.06
  -5   0   3   25.83    0.93
  -5   0   3   25.07    1.09
  -5   0   3   26.05    1.03
  -5   0   3   25.53    0.87
  -5   0   3   25.78    1.14
   4   0  -3    7.12    0.48
   4   0  -3    7.57    0.34
   4   0  -3    6.49    0.46
   4   0  -3    7.11    0.53
   4   0  -3    7.37    0.36
  -4   0   3    7.42    0.46
  -4   0   3    7.61    0.37
  -4   0   3    7.40    0.44
  -4   0   3    7.01    0.35
  -4   0   3    7.05    0.48
  -4   0   3    7.28    0.30
  -4   0   3    7.87    0.37
  -4   0   3    7.92    0.34
  -4   0   3    7.41    0.38
   3   0  -3    5.05    0.26
   3   0  -3    4.96    0.22
   3   0  -3    5.41    0.44
   3   0  -3    5.11    0.36
   3   0  -3    5.42    0.30
   3   0  -3    4.10    0.37
  -3   0   3    4.98    0.38
  -3   0   3    4.59    0.23
  -3   0   3    4.62    0.18
  -3   0   3    5.43    0.29
  -3   0   3    4.83    0.29
  -3   0   3    4.58    0.35
  -3   0   3    5.22    0.28
   2   0  -3    0.79    0.10
   2   0  -3    0.88    0.13
   2   0  -3    0.64    0.14
   2   0  -3    0.75    0.17
   2   0  -3    0.74    0.21
   2   0  -3    0.72    0.09
   2   0  -3    0.86    0.17
  -2   0   3    1.03    0.19
  -2   0   3    0.95    0.14
  -2   0   3    0.66    0.18
  -2   0   3    0.82    0.08
  -2   0   3    0.52    0.14
  -2   0   3    0.68    0.11
   1   0  -3   11.81    0.52
   1   0  -3   11.64    0.49
   1   0  -3   12.11    0.47
   1   0  -3   12.08    0.47
   1   0  -3   11.54    0.53
   1   0  -3   11.71    0.44
  -1   0   3   11.43    0.45
  -1   0   3   11.51    0.48
  -1   0   3   12.00    0.46
  -1   0   3   11.25    0.51
  -1   0   3   11.24    0.45
  -1   0   3   11.68    0.51
   0   0  -3    6.04    0.35
   0   0  -3    6.49    0.33
   0   0  -3    6.66    0.38
   0   0  -3    7.14    0.33
   0   0  -3    6.90    0.32
   0   0   3    7.30    0.34
   0   0   3    6.98    0.35
   0   0   3    6.52    0.34
   0   0   3    6.79    0.33
   0   0   3    7.11    0.37
   0   0   3    6.83    0.29
  -1   0  -3  130.32    4.65
  -1   0  -3  139.59    4.58
  -1   0  -3  133.56    4.34
   1   0   3  130.74    4.36
   1   0   3  133.90    4.16
   1   0   3  133.61    4.53
   1   0   3  129.24    4.56
   1   0   3  136.97    4.52
  -2   0  -3    0.47    0.13
  -2   0  -3    0.57    0.21
  -2   0  -3    0.50    0.11
  -2   0  -3    0.55    0.20
   2   0   3    0.30    0.12
   2   0   3    0.44    0.17
   2   0   3    0.25    0.17
   2   0   3    0.33    0.16
   2   0   3    0.30    0.13
   2   0   3    0.43    0.14
  -3   0  -3    4.80    0.32
  -3   0  -3    5.25    0.42
  -3   0  -3    4.99    0.38
  -3   0  -3    4.92    0.30
   3   0   3    5.22    0.29
   3   0   3    4.80    0.39
   3   0   3    5.45    0.34
   3   0   3    5.04    0.39
   3   0   3    4.99    0.30
  -4   0  -3    0.77    0.26
  -4   0  -3    0.52    0.15
  -4   0  -3    0.67    0.24
   4   0   3    0.58    0.12
   4   0   3    0.95    0.23
   4   0   3    0.52    0.16
   4   0   3    0.47    0.20
  -5   0  -3    1.96    0.36
  -5   0  -3    2.03    0.35
   5   0   3    2.43    0.35
   5   0   3    2.00    0.33
   5   0   3    2.03    0.34
  -6   0  -3    0.08    0.25
   6   0   3    0.27    0.23
   6   0   3   -0.03    0.20
   6   0   3    0.07    0.19
   7  -1  -3    1.73    0.37
  -7   1   3    2.41    0.37
   6  -1  -3    4.32    0.47
   6  -1  -3    4.44    0.48
  -6   1   3    4.88    0.37
  -6   1   3    4.65    0.47
  -6   1   3    5.40    0.50
   5  -1  -3   40.62    1.69
   5  -1  -3   41.59    1.65
  -5   1   3   43.35    1.69
  -5   1   3   43.91    1.41
  -5   1   3   46.53    1.68
  -5   1   3   41.91    1.56
  -5   1   3   45.14    1.50
  -5   1   3   41.60    1.67
  -5   1   3   46.16    1.55
  -5   1   3   44.71    1.76
   4  -1  -3    8.02    0.48
   4  -1  -3    9.19    0.54
   4  -1  -3    8.32    0.52
  -4   1   3    9.50    0.47
  -4   1   3    8.71    0.50
  -4   1   3    9.12    0.44
  -4   1   3    9.03    0.43
  -4   1   3    9.30    0.37
  -4   1   3    9.58    0.39
  -4   1   3    8.40    0.35
   3  -1  -3   28.45    0.93
   3  -1  -3   28.77    1.13
   3  -1  -3   28.92    1.00
   3  -1  -3   29.49    1.13
  -3   1   3   27.34    1.14
  -3   1   3   29.28    1.06
  -3   1   3   30.52    1.00
  -3   1   3   28.93    1.10
  -3   1   3   29.02    0.91
  -3   1   3   29.96    1.09
   2  -1  -3    0.66    0.08
   2  -1  -3    0.75    0.14
   2  -1  -3    0.68    0.13
   2  -1  -3    0.47    0.12
   2  -1  -3    0.49    0.10
   2  -1  -3    0.63    0.13
  -2   1   3    0.64    0.12
  -2   1   3    0.80    0.13
  -2   1   3    0.84    0.20
  -2   1   3    0.59    0.19
  -2   1   3    0.48    0.15
  -2   1   3    0.64    0.12
  -2   1   3    0.64    0.16
   1  -1  -3  302.44   10.10
   1  -1  -3  300.69    9.50
   1  -1  -3  305.52   10.54
   1  -1  -3  287.15   10.07
   1  -1  -3  308.90    9.96
  -1   1   3  301.62    9.65
  -1   1   3  284.87   10.62
  -1   1   3  297.82    9.99
  -1   1   3  299.51    9.21
  -1   1   3  308.24    9.88
   0  -1  -3   55.80    2.03
   0  -1  -3   55.48    1.84
   0  -1  -3   56.42    1.92
   0  -1  -3   53.27    1.84
   0  -1  -3   52.57    1.99
   0   1   3   53.83    1.76
   0   1   3   55.24    1.88
   0   1   3   51.96    1.93
   0   1   3   54.45    1.89
  -1  -1  -3   -0.06    0.18
  -1  -1  -3   -0.23    0.13
  -1  -1  -3    0.03    0.16
   1   1   3    0.18    0.15
   1   1   3   -0.02    0.13
   1   1   3    0.22    0.07
   1   1   3    0.06    0.13
   1   1   3    0.18    0.16
  -2  -1  -3    0.79    0.23
  -2  -1  -3    0.38    0.14
  -2  -1  -3    0.47    0.17
   2   1   3    0.37    0.18
   2   1   3    0.46    0.16
   2   1   3    0.48    0.14
   2   1   3    0.48    0.18
   2   1   3    0.40    0.11
   2   1   3    0.41    0.14
  -3  -1  -3    4.25    0.37
  -3  -1  -3    3.97    0.30
  -3  -1  -3    4.05    0.42
   3   1   3    3.55    0.37
   3   1   3    3.73    0.29
   3   1   3    3.79    0.27
   3   1   3    4.43    0.38
   3   1   3    4.21    0.31
   3   1   3    3.65    0.30
  -4  -1  -3    2.13    0.35
  -4  -1  -3    1.63    0.23
  -4  -1  -3    1.86    0.31
   4   1   3    1.94    0.33
   4   1   3    1.81    0.25
   4   1   3    1.85    0.25
   4   1   3    2.25    0.33
   4   1   3    1.92    0.20
  -5  -1  -3   -0.09    0.22
  -5  -1  -3   -0.01    0.21
  -5  -1  -3    0.09    0.17
   5   1   3    0.07    0.19
   5   1   3    0.13    0.19
   5   1   3    0.24    0.20
  -6  -1  -3    6.39    0.53
   6   1   3    4.93    0.50
   6   1   3    6.34    0.55
   6   1   3    6.04    0.51
   7  -2  -3   -0.16    0.21
  -7   2   3   -0.33    0.27
   6  -2  -3   22.65    1.13
   6  -2  -3   21.25    1.05
  -6   2   3   23.86    1.15
  -6   2   3   26.87    1.18
  -6   2   3   25.35    1.05
   5  -2  -3   21.59    0.98
   5  -2  -3   19.70    1.01
   5  -2  -3   21.51    0.95
  -5   2   3   22.94    0.97
  -5   2   3   21.50    0.99
  -5   2   3   22.19    0.79
  -5   2   3   23.59    0.90
  -5   2   3   22.25    0.86
  -5   2   3   24.24    1.04
   4  -2  -3    3.30    0.35
   4  -2  -3    3.22    0.31
   4  -2  -3    2.88    0.35
  -4   2   3    3.61    0.34
  -4   2   3    3.00    0.19
  -4   2   3    3.26    0.19
  -4   2   3    3.52    0.26
  -4   2   3    3.08    0.23
  -4   2   3    3.10    0.20
  -4   2   3    2.76    0.27
   3  -2  -3    0.27    0.08
   3  -2  -3    0.33    0.09
   3  -2  -3    0.32    0.13
   3  -2  -3    0.28    0.11
   3  -2  -3    0.11    0.12
   3  -2  -3    0.31    0.15
   3  -2  -3    0.31    0.08
  -3   2   3    0.10    0.14
  -3   2   3    0.29    0.06
  -3   2   3    0.20    0.10
  -3   2   3    0.38    0.15
  -3   2   3    0.30    0.09
  -3   2   3    0.41    0.14
  -3   2   3    0.35    0.08
  -3   2   3    0.31    0.06
   2  -2  -3    6.98    0.39
   2  -2  -3    7.28    0.32
   2  -2  -3    7.16    0.37
   2  -2  -3    6.93    0.37
   2  -2  -3    5.83    0.34
   2  -2  -3    6.71    0.36
   2  -2  -3    7.22    0.29
  -2   2   3    7.35    0.44
  -2   2   3    6.99    0.39
  -2   2   3    7.28    0.41
  -2   2   3    7.09    0.29
  -2   2   3    6.91    0.36
  -2   2   3    6.25    0.36
   1  -2  -3    5.23    0.35
   1  -2  -3    6.03    0.35
   1  -2  -3    5.51    0.33
   1  -2  -3    5.25    0.34
   1  -2  -3    5.28    0.38
   1  -2  -3    5.97    0.29
   1  -2  -3    5.91    0.34
   1  -2  -3    5.43    0.26
  -1   2   3    5.72    0.31
  -1   2   3    6.57    0.37
  -1   2   3    5.96    0.39
  -1   2   3    5.44    0.34
  -1   2   3    4.96    0.35
  -1   2   3    5.91    0.35
   0  -2  -3   22.31    0.92
   0  -2  -3   21.73    0.95
   0  -2  -3   21.97    0.86
   0  -2  -3   21.17    0.83
   0   2   3   22.29    0.89
   0   2   3   21.75    0.83
   0   2   3   22.48    0.90
  -1  -2  -3   29.45    1.21
  -1  -2  -3   28.83    1.19
  -1  -2  -3   28.25    1.13
  -1  -2  -3   28.68    1.06
  -1  -2  -3   27.47    1.09
   1   2   3   28.90    1.07
   1   2   3   26.92    1.09
   1   2   3   25.82    0.96
  -2  -2  -3   60.37    2.30
  -2  -2  -3   62.46    2.10
  -2  -2  -3   61.30    2.20
  -2  -2  -3   58.57    2.12
   2   2   3   62.17    2.18
   2   2   3   59.48    2.27
   2   2   3   60.07    2.27
   2   2   3   63.46    2.16
   2   2   3   62.85    2.02
  -3  -2  -3   29.80    1.17
  -3  -2  -3   29.44    1.15
  -3  -2  -3   28.72    1.29
   3   2   3   29.38    1.25
   3   2   3   27.73    1.03
   3   2   3   29.42    1.19
   3   2   3   28.43    1.14
   3   2   3   28.67    1.24
   3   2   3   29.09    1.11
  -4  -2  -3    0.37    0.21
  -4  -2  -3    0.56    0.24
  -4  -2  -3    0.25    0.24
   4   2   3    0.80    0.20
   4   2   3    0.84    0.21
   4   2   3    0.36    0.21
   4   2   3    0.64    0.18
   4   2   3    0.28    0.23
   4   2   3    0.58    0.16
   4   2   3    0.32    0.21
  -5  -2  -3    3.84    0.38
  -5  -2  -3    3.41    0.41
  -5  -2  -3    3.49    0.47
   5   2   3    3.75    0.37
   5   2   3    4.49    0.48
   5   2   3    2.86    0.42
   5   2   3    3.71    0.38
  -6  -2  -3    0.26    0.22
   6   2   3    0.01    0.20
   6   2   3   -0.09    0.21
   7  -3  -3    1.75    0.37
  -7   3   3    3.29    0.50
  -7   3   3    2.54    0.36
   6  -3  -3   23.34    1.18
   6  -3  -3   23.35    1.11
  -6   3   3   26.27    1.23
   5  -3  -3   25.71    1.07
   5  -3  -3   23.72    1.16
  -5   3   3   27.80    1.07
  -5   3   3   26.98    1.04
  -5   3   3   26.56    1.14
  -5   3   3   26.98    1.18
  -5   3   3   26.02    1.13
   4  -3  -3   43.20    1.65
   4  -3  -3   43.80    1.51
   4  -3  -3   44.87    1.77
  -4   3   3   46.30    1.63
  -4   3   3   42.18    1.66
  -4   3   3   43.02    1.69
  -4   3   3   43.16    1.58
  -4   3   3   43.63    1.40
   3  -3  -3   57.79    2.11
   3  -3  -3   60.95    1.95
   3  -3  -3   60.76    2.12
   3  -3  -3   61.87    2.12
   3  -3  -3   56.87    2.12
   3  -3  -3   61.11    1.89
   3  -3  -3   64.03    2.28
   3  -3  -3   57.69    2.24
  -3   3   3   60.02    2.05
  -3   3   3   60.48    2.12
  -3   3   3   58.77    1.85
  -3   3   3   57.73    2.09
  -3   3   3   56.35    2.22
  -3   3   3   62.87    2.03
   2  -3  -3    2.09    0.25
   2  -3  -3    2.35    0.23
   2  -3  -3    2.36    0.13
   2  -3  -3    2.61    0.26
   2  -3  -3    2.71    0.18
   2  -3  -3    2.95    0.27
   2  -3  -3    2.42    0.25
   2  -3  -3    2.26    0.19
  -2   3   3    2.64    0.29
  -2   3   3    2.71    0.25
  -2   3   3    1.93    0.24
  -2   3   3    2.41    0.18
  -2   3   3    2.53    0.28
  -2   3   3    2.14    0.23
   1  -3  -3   56.67    2.14
   1  -3  -3   59.23    2.21
   1  -3  -3   64.74    2.28
   1  -3  -3   59.25    1.89
   1  -3  -3   62.21    2.15
  -1   3   3   57.33    2.13
  -1   3   3   60.53    2.06
  -1   3   3   55.72    2.20
  -1   3   3   62.13    2.10
  -1   3   3   57.15    2.09
  -1   3   3   57.78    1.97
   0  -3  -3   15.38    0.73
   0  -3  -3   13.87    0.67
   0  -3  -3   13.52    0.66
   0  -3  -3   14.97    0.69
   0   3   3   13.93    0.64
   0   3   3   14.09    0.60
   0   3   3   14.17    0.58
   0   3   3   13.94    0.67
   0   3   3   13.82    0.68
  -1  -3  -3    0.12    0.15
  -1  -3  -3    0.27    0.19
  -1  -3  -3    0.56    0.15
  -1  -3  -3    0.48    0.15
  -1  -3  -3    0.48    0.16
   1   3   3    0.46    0.13
   1   3   3    0.31    0.17
   1   3   3    0.54    0.20
   1   3   3    0.39    0.15
   1   3   3    0.14    0.14
  -2  -3  -3    0.24    0.20
  -2  -3  -3    0.18    0.13
  -2  -3  -3    0.16    0.17
  -2  -3  -3    0.36    0.15
   2   3   3    0.43    0.13
   2   3   3    0.45    0.17
   2   3   3    0.24    0.16
   2   3   3    0.30    0.17
   2   3   3    0.27    0.19
  -3  -3  -3    0.78    0.21
  -3  -3  -3    1.04    0.28
  -3  -3  -3    0.83    0.23
  -3  -3  -3    0.89    0.19
   3   3   3    1.08    0.25
   3   3   3    0.61    0.19
   3   3   3    1.06    0.26
   3   3   3    1.10    0.26
   3   3   3    1.13    0.20
   3   3   3    0.87    0.17
  -4  -3  -3    0.25    0.19
  -4  -3  -3    0.37    0.25
  -4  -3  -3    0.20    0.22
   4   3   3    0.16    0.22
   4   3   3    0.64    0.20
   4   3   3    0.32    0.17
   4   3   3    0.06    0.21
   4   3   3    0.44    0.16
   4   3   3    0.32    0.16
   4   3   3    0.54    0.23
  -5  -3  -3   43.37    1.76
  -5  -3  -3   44.15    1.70
  -5  -3  -3   45.62    1.94
   5   3   3   36.34    1.77
   5   3   3   44.57    1.83
   5   3   3   43.42    1.80
   5   3   3   42.94    1.67
  -6  -3  -3    2.47    0.37
   6   3   3    1.60    0.38
   6   3   3    2.48    0.42
   6  -4  -3   21.65    1.15
  -6   4   3   24.97    1.23
   5  -4  -3    0.27    0.17
   5  -4  -3   -0.11    0.20
  -5   4   3    0.09    0.17
  -5   4   3    0.38    0.17
   4  -4  -3   80.04    2.83
   4  -4  -3   79.93    2.97
   4  -4  -3   76.12    2.78
   4  -4  -3   81.36    2.75
  -4   4   3   77.38    3.01
  -4   4   3   78.74    2.87
  -4   4   3   78.40    2.50
  -4   4   3   81.37    2.83
  -4   4   3   85.00    2.75
   3  -4  -3   22.92    1.05
   3  -4  -3   24.60    1.06
   3  -4  -3   24.74    1.00
   3  -4  -3   24.20    0.86
   3  -4  -3   24.33    0.82
   3  -4  -3   23.73    0.97
   3  -4  -3   22.85    1.00
   3  -4  -3   23.38    0.96
  -3   4   3   22.67    0.83
  -3   4   3   22.64    1.01
  -3   4   3   23.23    1.00
  -3   4   3   24.42    0.89
  -3   4   3   24.03    0.96
   2  -4  -3    2.20    0.27
   2  -4  -3    2.05    0.19
   2  -4  -3    2.66    0.20
   2  -4  -3    2.46    0.28
   2  -4  -3    1.70    0.24
   2  -4  -3    2.22    0.13
   2  -4  -3    2.27    0.28
  -2   4   3    2.50    0.22
  -2   4   3    1.80    0.26
  -2   4   3    1.98    0.25
  -2   4   3    2.42    0.27
  -2   4   3    2.07    0.27
  -2   4   3    2.03    0.26
   1  -4  -3    0.94    0.19
   1  -4  -3    0.97    0.14
   1  -4  -3    1.31    0.21
   1  -4  -3    0.74    0.19
   1  -4  -3    0.83    0.21
   1  -4  -3    0.80    0.14
  -1   4   3    0.64    0.15
  -1   4   3    0.65    0.18
  -1   4   3    0.43    0.17
  -1   4   3    0.98    0.17
  -1   4   3    0.80    0.18
  -1   4   3    0.74    0.20
   0  -4  -3    2.10    0.28
   0  -4  -3    1.22    0.22
   0  -4  -3    2.01    0.27
   0  -4  -3    1.57    0.27
   0  -4  -3    1.18    0.17
   0   4   3    1.79    0.18
   0   4   3    2.04    0.25
   0   4   3    1.90    0.27
   0   4   3    1.45    0.21
   0   4   3    1.75    0.26
   0   4   3    1.51    0.26
  -1  -4  -3   -0.19    0.16
  -1  -4  -3   -0.02    0.13
  -1  -4  -3    0.07    0.19
   1   4   3    0.23    0.18
   1   4   3    0.18    0.15
   1   4   3   -0.09    0.13
   1   4   3   -0.04    0.11
   1   4   3    0.07    0.16
   1   4   3    0.00    0.07
  -2  -4  -3    8.53    0.54
  -2  -4  -3    8.51    0.61
  -2  -4  -3    8.52    0.52
  -2  -4  -3    8.68    0.49
   2   4   3    8.35    0.57
   2   4   3    8.85    0.54
   2   4   3    8.49    0.43
   2   4   3    8.38    0.59
   2   4   3    8.86    0.53
  -3  -4  -3    4.92    0.39
  -3  -4  -3    4.28    0.51
  -3  -4  -3    4.45    0.45
   3   4   3    4.52    0.50
   3   4   3    4.48    0.32
   3   4   3    4.62    0.46
   3   4   3    3.97    0.45
   3   4   3    4.42    0.40
   3   4   3    4.85    0.39
  -4  -4  -3    8.54    0.59
  -4  -4  -3    8.25    0.53
  -4  -4  -3    9.23    0.69
   4   4   3    8.22    0.57
   4   4   3    8.53    0.63
   4   4   3    8.41    0.56
   4   4   3    7.75    0.51
   4   4   3    9.24    0.66
  -5  -4  -3    8.46    0.59
  -5  -4  -3    8.00    0.54
  -5  -4  -3    7.64    0.66
   5   4   3    7.66    0.57
   5   4   3    7.45    0.61
   5   4   3    7.43    0.64
  -6   5   3    5.44    0.62
   5  -5  -3    0.22    0.23
  -5   5   3    0.64    0.22
  -5   5   3    0.29    0.21
   4  -5  -3   43.84    1.48
   4  -5  -3   44.60    1.61
   4  -5  -3   41.58    1.77
   4  -5  -3   42.04    1.63
  -4   5   3   40.66    1.72
  -4   5   3   45.07    1.68
  -4   5   3   41.99    1.43
   3  -5  -3    1.54    0.15
   3  -5  -3    1.53    0.21
   3  -5  -3    1.55    0.28
   3  -5  -3    1.40    0.24
  -3   5   3    1.47    0.25
  -3   5   3    1.35    0.19
  -3   5   3    2.15    0.31
  -3   5   3    1.26    0.27
  -3   5   3    1.68    0.26
   2  -5  -3    5.71    0.42
   2  -5  -3    5.48    0.23
   2  -5  -3    4.68    0.31
   2  -5  -3    4.76    0.31
  -2   5   3    4.87    0.41
  -2   5   3    4.84    0.33
  -2   5   3    5.47    0.43
  -2   5   3    4.45    0.36
  -2   5   3    5.45    0.41
   1  -5  -3   14.71    0.62
   1  -5  -3   15.03    0.78
  -1   5   3   16.36    0.79
  -1   5   3   15.39    0.68
  -1   5   3   14.56    0.75
  -1   5   3   14.23    0.75
  -1   5   3   14.30    0.75
  -1   5   3   13.67    0.68
  -1   5   3   15.22    0.70
   0  -5  -3    5.01    0.44
   0  -5  -3    4.56    0.44
   0  -5  -3    5.17    0.32
   0   5   3    4.40    0.36
   0   5   3    4.33    0.42
   0   5   3    4.36    0.38
   0   5   3    5.81    0.46
   0   5   3    4.44    0.38
   0   5   3    4.89    0.42
  -1  -5  -3   13.49    0.76
  -1  -5  -3   14.27    0.81
   1   5   3   14.23    0.75
   1   5   3   14.67    0.75
   1   5   3   13.98    0.79
   1   5   3   13.70    0.63
   1   5   3   12.85    0.72
  -2  -5  -3   67.02    2.53
  -2  -5  -3   65.89    2.61
   2   5   3   64.69    2.43
   2   5   3   68.17    2.48
   2   5   3   67.08    2.20
   2   5   3   64.59    2.59
   2   5   3   65.62    2.54
  -3  -5  -3    9.75    0.71
  -3  -5  -3    9.01    0.60
  -3  -5  -3    8.29    0.52
   3   5   3    9.40    0.56
   3   5   3    9.21    0.69
   3   5   3    8.42    0.62
   3   5   3    8.76    0.63
   3   5   3    8.73    0.57
   3   5   3    8.97    0.46
  -4  -5  -3   24.22    1.17
  -4  -5  -3   25.08    1.07
  -4  -5  -3   24.97    1.29
   4   5   3   23.15    1.19
   4   5   3   20.22    1.14
   4   5   3   22.62    1.03
   4   5   3   23.69    1.10
  -5  -5  -3    1.29    0.34
  -5  -5  -3    1.16    0.37
  -5  -5  -3    1.44    0.29
   5   5   3    1.44    0.38
   5   5   3    1.13    0.34
  -6   6   3    1.85    0.46
   5  -6  -3    0.08    0.21
   5  -6  -3   -0.07    0.12
  -5   6   3    0.23    0.19
   4  -6  -3    4.24    0.46
   4  -6  -3    4.36    0.36
   4  -6  -3    4.84    0.35
  -4   6   3    4.90    0.48
  -4   6   3    4.23    0.39
   3  -6  -3    0.59    0.17
   3  -6  -3    0.97    0.24
  -3   6   3    0.81    0.22
  -3   6   3    0.59    0.25
  -3   6   3    0.71    0.23
  -3   6   3    0.82    0.17
   2  -6  -3   -0.13    0.18
   2  -6  -3    0.05    0.13
  -2   6   3    0.12    0.17
  -2   6   3    0.03    0.19
  -2   6   3    0.21    0.22
  -2   6   3    0.20    0.18
  -2   6   3   -0.08    0.20
  -2   6   3   -0.22    0.13
   1  -6  -3    2.75    0.27
   1  -6  -3    2.55    0.38
   1  -6  -3    2.47    0.35
  -1   6   3    2.51    0.31
  -1   6   3    3.12    0.37
  -1   6   3    2.78    0.36
  -1   6   3    2.67    0.38
  -1   6   3    3.53    0.43
  -1   6   3    2.63    0.32
   0  -6  -3    2.07    0.26
   0  -6  -3    1.98    0.35
   0  -6  -3    1.69    0.31
   0   6   3    1.68    0.27
   0   6   3    1.47    0.32
   0   6   3    1.48    0.28
   0   6   3    2.20    0.34
   0   6   3    1.53    0.30
   0   6   3    2.49    0.34
  -1  -6  -3    2.08    0.34
  -1  -6  -3    2.43    0.29
  -1  -6  -3    1.71    0.36
   1   6   3    2.10    0.34
   1   6   3    2.00    0.27
   1   6   3    2.25    0.38
   1   6   3    2.16    0.34
   1   6   3    2.18    0.36
  -2  -6  -3    0.99    0.32
  -2  -6  -3    0.79    0.27
   2   6   3    1.44    0.22
   2   6   3    0.88    0.27
   2   6   3    1.46    0.33
   2   6   3    1.32    0.35
   2   6   3    0.90    0.27
  -3  -6  -3    2.54    0.45
  -3  -6  -3    2.70    0.41
   3   6   3    2.61    0.37
   3   6   3    2.17    0.42
   3   6   3    1.94    0.38
  -4  -6  -3   -0.12    0.22
  -4  -6  -3    0.17    0.26
   4   6   3    0.25    0.25
   4   6   3   -0.09    0.18
   5  -7  -3    3.81    0.33
   5  -7  -3    3.21    0.46
  -5   7   3    2.77    0.42
  -5   7   3    3.76    0.43
   4  -7  -3   17.35    0.94
   4  -7  -3   17.13    0.79
   4  -7  -3   17.83    0.85
  -4   7   3   16.19    0.90
  -4   7   3   17.04    0.92
  -4   7   3   15.66    0.88
  -4   7   3   19.07    0.93
   3  -7  -3    3.06    0.32
   3  -7  -3    3.43    0.41
  -3   7   3    2.49    0.31
  -3   7   3    3.13    0.41
  -3   7   3    2.94    0.37
  -3   7   3    2.50    0.36
  -3   7   3    2.58    0.40
   2  -7  -3    2.53    0.38
   2  -7  -3    2.04    0.27
  -2   7   3    2.06    0.36
  -2   7   3    2.13    0.33
  -2   7   3    1.73    0.33
  -2   7   3    1.97    0.29
  -2   7   3    2.62    0.39
  -2   7   3    1.78    0.30
   1  -7  -3    2.76    0.40
   1  -7  -3    1.91    0.26
   1  -7  -3    2.60    0.38
  -1   7   3    1.68    0.31
  -1   7   3    1.83    0.34
  -1   7   3    2.97    0.44
  -1   7   3    2.45    0.38
  -1   7   3    1.85    0.29
  -1   7   3    1.66    0.28
   0  -7  -3    0.63    0.19
   0  -7  -3    0.24    0.24
   0  -7  -3    0.54    0.26
   0   7   3    0.70    0.22
   0   7   3    0.54    0.22
   0   7   3    0.63    0.25
   0   7   3    0.38    0.23
   0   7   3    0.17    0.23
  -1  -7  -3    0.28    0.23
  -1  -7  -3    0.45    0.26
   1   7   3   -0.17    0.18
   1   7   3    0.33    0.18
   1   7   3    0.18    0.23
   1   7   3    0.45    0.27
  -2  -7  -3    1.68    0.36
  -2  -7  -3    2.52    0.44
   2   7   3    1.90    0.36
   2   7   3    1.96    0.40
   2   7   3    2.72    0.41
   2   7   3    2.65    0.29
  -3  -7  -3    1.53    0.40
  -3  -7  -3    0.63    0.29
   3   7   3    1.31    0.34
   3   7   3    1.78    0.42
   4  -8  -3    2.05    0.34
  -4   8   3    1.54    0.33
   3  -8  -3   11.53    0.73
  -3   8   3    7.88    0.61
  -3   8   3    9.92    0.63
   2  -8  -3    6.20    0.55
  -2   8   3    5.40    0.44
  -2   8   3    5.61    0.50
  -2   8   3    4.49    0.48
   1  -8  -3    5.48    0.55
   1  -8  -3    6.20    0.61
  -1   8   3    6.05    0.49
  -1   8   3    5.93    0.47
  -1   8   3    7.22    0.68
  -1   8   3    5.16    0.55
   0  -8  -3    3.51    0.46
   0  -8  -3    2.51    0.43
   0   8   3    2.76    0.36
   0   8   3    3.33    0.50
   0   8   3    2.33    0.38
  -1  -8  -3    0.48    0.30
  -1  -8  -3    0.20    0.24
   1   8   3    0.20    0.16
   1   8   3    0.09    0.29
   1   8   3    0.01    0.20
  -2  -8  -3    3.04    0.52
  -2  -8  -3    2.97    0.45
   2   8   3    2.89    0.45
   2   8   3    2.57    0.49
   2  -9  -3    1.58    0.36
  -2   9   3    1.32    0.30
  -2   9   3    1.95    0.34
   1  -9  -3   -0.16    0.23
  -1   9   3    0.41    0.23
  -1   9   3    0.26    0.31
  -1   9   3    0.04    0.17
   0  -9  -3    0.84    0.29
   0   9   3    0.57    0.34
   0   9   3    0.74    0.29
   0   9   3    0.82    0.25
  -1  -9  -3    0.81    0.32
  -1  -9  -3    1.03    0.36
   1   9   3    0.84    0.30
   1   9   3    0.42    0.20
   1   9   3    1.01    0.37
   1  11  -4   -0.22    0.28
   1  11  -4    0.02    0.20
   1  11  -4    0.06    0.20
  -1 -11   4   -0.08    0.26
  -1 -11   4    0.66    0.30
   0  11  -4    5.87    0.73
   0  11  -4    5.70    0.57
   0  11  -4    6.51    0.50
   0  11  -4    7.12    0.57
   0 -11   4    5.84    0.59
   0 -11   4    6.10    0.66
  -1  11  -4    5.58    0.71
  -1  11  -4    5.23    0.48
  -1  11  -4    7.41    0.66
  -1  11  -4    5.27    0.55
   1 -11   4    5.43    0.62
   1 -11   4    5.77    0.58
  -2  11  -4    0.17    0.32
  -2  11  -4    0.64    0.35
   2 -11   4    0.20    0.23
   2 -11   4    0.31    0.25
   3  10  -4    0.95    0.28
   3  10  -4    0.18    0.32
   3  10  -4    0.26    0.24
   3  10  -4    0.60    0.27
  -3 -10   4    0.20    0.31
  -3 -10   4    0.53    0.29
   2  10  -4    1.71    0.33
   2  10  -4    1.53    0.33
   2  10  -4    0.98    0.36
   2  10  -4    1.26    0.30
  -2 -10   4    1.12    0.35
  -2 -10   4    1.96    0.38
   1  10  -4    2.11    0.47
   1  10  -4    2.32    0.34
   1  10  -4    1.97    0.34
   1  10  -4    1.86    0.34
  -1 -10   4    2.35    0.40
  -1 -10   4    2.04    0.41
   0  10  -4    8.33    0.63
   0  10  -4    9.42    0.61
   0  10  -4    8.72    0.75
   0  10  -4    8.56    0.62
   0  10  -4    9.33    0.57
   0 -10   4    9.48    0.69
   0 -10   4    8.21    0.63
  -1  10  -4    3.63    0.44
  -1  10  -4    3.61    0.44
  -1  10  -4    3.36    0.37
  -1  10  -4    4.12    0.58
  -1  10  -4    3.33    0.46
   1 -10   4    3.30    0.47
   1 -10   4    3.79    0.45
  -2  10  -4    1.19    0.25
  -2  10  -4    1.10    0.39
  -2  10  -4    1.60    0.40
   2 -10   4    1.43    0.29
   2 -10   4    0.79    0.28
  -3  10  -4    0.58    0.38
  -3  10  -4    0.51    0.35
   3 -10   4    1.98    0.38
   4   9  -4   -0.06    0.25
   4   9  -4    0.13    0.23
   4   9  -4    0.24    0.31
   4   9  -4    0.13    0.22
  -4  -9   4   -0.19    0.26
   3   9  -4    0.16    0.19
   3   9  -4   -0.09    0.17
   3   9  -4   -0.11    0.25
   3   9  -4   -0.02    0.21
  -3  -9   4    0.06    0.27
  -3  -9   4    0.01    0.21
   2   9  -4    5.36    0.47
   2   9  -4    5.74    0.52
   2   9  -4    6.86    0.50
   2   9  -4    7.13    0.71
   2   9  -4    6.14    0.52
  -2  -9   4    6.62    0.63
  -2  -9   4    6.39    0.62
  -2  -9   4    6.70    0.45
   1   9  -4    2.71    0.41
   1   9  -4    2.12    0.32
   1   9  -4    1.91    0.32
   1   9  -4    2.97    0.48
   1   9  -4    3.32    0.35
   1   9  -4    2.44    0.35
   1   9  -4    1.94    0.33
  -1  -9   4    3.10    0.34
  -1  -9   4    3.07    0.43
  -1  -9   4    1.94    0.37
   0   9  -4    2.02    0.33
   0   9  -4    2.77    0.48
   0   9  -4    2.56    0.35
   0   9  -4    1.66    0.28
   0   9  -4    2.07    0.34
   0   9  -4    2.19    0.36
   0  -9   4    1.89    0.34
   0  -9   4    1.77    0.35
   0  -9   4    2.81    0.33
  -1   9  -4    1.71    0.30
  -1   9  -4    1.79    0.32
  -1   9  -4    2.02    0.37
  -1   9  -4    1.75    0.43
  -1   9  -4    1.53    0.26
  -1   9  -4    1.69    0.30
  -1   9  -4    2.37    0.35
   1  -9   4    1.56    0.33
   1  -9   4    2.30    0.34
  -2   9  -4    5.89    0.59
  -2   9  -4    5.38    0.42
  -2   9  -4    5.61    0.64
  -2   9  -4    3.46    0.45
  -2   9  -4    4.69    0.37
  -2   9  -4    4.85    0.40
  -2   9  -4    4.07    0.48
   2  -9   4    5.93    0.58
   2  -9   4    5.48    0.45
  -3   9  -4   30.53    1.38
  -3   9  -4   29.20    1.44
  -3   9  -4   29.69    1.08
  -3   9  -4   24.54    1.34
   3  -9   4   30.10    1.39
  -4   9  -4    0.73    0.36
   4  -9   4    0.59    0.26
   5   8  -4    0.23    0.23
   5   8  -4   -0.05    0.25
   5   8  -4   -0.26    0.23
   5   8  -4   -0.06    0.21
  -5  -8   4   -0.21    0.29
   4   8  -4    0.21    0.25
   4   8  -4    0.14    0.21
   4   8  -4    0.09    0.27
   4   8  -4    0.20    0.20
  -4  -8   4   -0.08    0.29
  -4  -8   4    0.07    0.21
  -4  -8   4    0.13    0.16
   3   8  -4    0.54    0.31
   3   8  -4    0.18    0.19
   3   8  -4    0.83    0.22
   3   8  -4    0.51    0.23
  -3  -8   4    0.27    0.24
  -3  -8   4    0.45    0.18
  -3  -8   4    0.98    0.33
   2   8  -4    6.48    0.65
   2   8  -4    5.82    0.44
   2   8  -4    5.99    0.46
   2   8  -4    5.29    0.44
   2   8  -4    6.24    0.48
   2   8  -4    6.55    0.56
  -2  -8   4    6.47    0.43
  -2  -8   4    6.71    0.55
  -2  -8   4    6.73    0.56
   1   8  -4   17.03    0.76
   1   8  -4   17.37    0.87
   1   8  -4   17.16    0.79
   1   8  -4   18.47    0.91
   1   8  -4   16.33    0.84
   1   8  -4   15.83    0.84
   1   8  -4   17.09    0.85
   1   8  -4   18.58    1.02
  -1  -8   4   18.06    0.96
  -1  -8   4   17.54    0.92
  -1  -8   4   18.72    0.78
   0   8  -4    0.53    0.24
   0   8  -4    0.64    0.31
   0   8  -4    0.38    0.23
   0   8  -4    0.38    0.20
   0   8  -4    0.55    0.20
   0   8  -4    0.58    0.22
   0   8  -4    0.74    0.22
   0  -8   4    0.72    0.20
   0  -8   4    0.35    0.22
   0  -8   4    0.50    0.23
  -1   8  -4    2.49    0.35
  -1   8  -4    2.43    0.29
  -1   8  -4    2.58    0.44
  -1   8  -4    1.82    0.31
  -1   8  -4    2.52    0.32
  -1   8  -4    2.78    0.38
  -1   8  -4    2.81    0.34
   1  -8   4    2.67    0.32
   1  -8   4    2.97    0.39
   1  -8   4    2.82    0.34
   1  -8   4    2.70    0.31
  -2   8  -4    6.60    0.65
  -2   8  -4    6.34    0.43
  -2   8  -4    6.32    0.43
  -2   8  -4    5.63    0.49
  -2   8  -4    6.32    0.58
  -2   8  -4    5.80    0.49
   2  -8   4    6.64    0.46
   2  -8   4    6.79    0.45
   2  -8   4    5.96    0.51
  -3   8  -4    5.99    0.52
  -3   8  -4    6.70    0.67
  -3   8  -4    6.81    0.63
  -3   8  -4    5.55    0.49
   3  -8   4    6.53    0.52
  -4   8  -4   29.04    1.36
  -4   8  -4   25.53    1.33
   4  -8   4   31.28    1.41
  -5   8  -4   12.98    0.93
   5  -8   4   11.18    0.73
   5   7  -4   -0.21    0.23
   5   7  -4   -0.23    0.17
   5   7  -4    0.15    0.26
   5   7  -4    0.13    0.22
  -5  -7   4    0.18    0.28
   4   7  -4   -0.12    0.15
   4   7  -4   -0.14    0.19
   4   7  -4    0.11    0.26
   4   7  -4    0.19    0.20
  -4  -7   4   -0.14    0.18
  -4  -7   4   -0.11    0.14
  -4  -7   4   -0.28    0.26
   3   7  -4    0.87    0.25
   3   7  -4    0.46    0.28
   3   7  -4    1.03    0.22
   3   7  -4    1.05    0.28
   3   7  -4    0.83    0.24
  -3  -7   4    0.58    0.17
  -3  -7   4    0.83    0.30
  -3  -7   4    0.71    0.24
   2   7  -4    0.39    0.21
   2   7  -4    0.44    0.18
   2   7  -4    0.51    0.26
   2   7  -4    0.42    0.20
   2   7  -4    0.71    0.27
   2   7  -4    0.23    0.18
   2   7  -4    0.36    0.16
   2   7  -4    0.37    0.15
  -2  -7   4    0.82    0.24
  -2  -7   4    0.77    0.18
  -2  -7   4    0.29    0.26
   1   7  -4    0.97    0.25
   1   7  -4    1.03    0.22
   1   7  -4    1.19    0.22
   1   7  -4    0.99    0.27
   1   7  -4    0.64    0.19
   1   7  -4    0.96    0.20
   1   7  -4    1.03    0.18
   1   7  -4    0.72    0.28
  -1  -7   4    0.68    0.24
  -1  -7   4    1.23    0.21
  -1  -7   4    0.75    0.26
   0   7  -4   33.92    1.42
   0   7  -4   30.85    1.18
   0   7  -4   29.66    1.12
   0   7  -4   30.08    1.10
   0   7  -4   28.88    1.24
   0   7  -4   30.85    1.24
   0   7  -4   28.83    1.19
   0   7  -4   28.21    1.28
   0  -7   4   32.41    1.15
   0  -7   4   33.36    1.37
   0  -7   4   29.56    1.25
   0  -7   4   30.07    1.30
  -1   7  -4    2.72    0.42
  -1   7  -4    2.07    0.30
  -1   7  -4    2.49    0.34
  -1   7  -4    2.57    0.31
  -1   7  -4    2.49    0.33
  -1   7  -4    2.61    0.30
   1  -7   4    2.14    0.32
   1  -7   4    2.78    0.30
   1  -7   4    2.06    0.29
   1  -7   4    2.77    0.24
   1  -7   4    2.98    0.31
  -2   7  -4   57.58    2.32
  -2   7  -4   58.22    2.16
  -2   7  -4   54.98    2.31
  -2   7  -4   61.40    2.06
  -2   7  -4   59.79    2.02
  -2   7  -4   53.90    2.18
   2  -7   4   58.52    2.24
   2  -7   4   59.44    2.10
   2  -7   4   55.97    2.04
  -3   7  -4   11.71    0.78
  -3   7  -4   10.48    0.69
  -3   7  -4    9.89    0.65
  -3   7  -4   12.02    0.76
  -3   7  -4   11.06    0.53
   3  -7   4   11.42    0.68
  -4   7  -4    0.68    0.26
  -4   7  -4    1.33    0.38
  -4   7  -4    1.08    0.36
  -4   7  -4    0.80    0.25
   4  -7   4    1.04    0.28
  -5   7  -4    1.86    0.47
   5  -7   4    1.24    0.29
   6   6  -4    1.13    0.31
   6   6  -4    0.89    0.28
   6   6  -4    1.06    0.29
   6   6  -4    0.84    0.38
  -6  -6   4    0.49    0.32
   5   6  -4    3.08    0.40
   5   6  -4    2.90    0.39
   5   6  -4    2.34    0.43
   5   6  -4    3.10    0.42
  -5  -6   4    3.10    0.49
   4   6  -4    1.78    0.30
   4   6  -4    1.99    0.36
   4   6  -4    1.73    0.29
   4   6  -4    2.13    0.36
   4   6  -4    1.84    0.37
  -4  -6   4    1.87    0.30
  -4  -6   4    1.66    0.22
  -4  -6   4    1.21    0.34
   3   6  -4    6.32    0.46
   3   6  -4    7.29    0.45
   3   6  -4    7.81    0.56
   3   6  -4    7.29    0.48
   3   6  -4    6.85    0.56
  -3  -6   4    7.56    0.40
  -3  -6   4    7.40    0.46
  -3  -6   4    7.36    0.52
  -3  -6   4    8.05    0.62
   2   6  -4   65.14    2.30
   2   6  -4   63.37    2.17
   2   6  -4   62.60    2.35
   2   6  -4   66.32    2.39
   2   6  -4   64.24    2.08
   2   6  -4   65.04    2.10
   2   6  -4   62.34    2.45
   2   6  -4   66.58    2.43
   2   6  -4   62.95    2.29
  -2  -6   4   69.89    2.68
  -2  -6   4   69.85    2.25
  -2  -6   4   73.24    2.67
  -2  -6   4   70.75    2.64
   1   6  -4   19.44    0.86
   1   6  -4   17.75    0.81
   1   6  -4   18.54    0.71
   1   6  -4   17.37    0.91
   1   6  -4   17.57    0.82
   1   6  -4   18.77    0.73
   1   6  -4   17.82    0.75
   1   6  -4   18.16    0.80
  -1  -6   4   18.50    0.88
  -1  -6   4   19.49    0.89
  -1  -6   4   20.51    0.92
  -1  -6   4   19.42    0.92
  -1  -6   4   19.64    0.75
   0   6  -4    0.09    0.15
   0   6  -4    0.38    0.16
   0   6  -4    0.06    0.17
   0   6  -4    0.82    0.27
   0   6  -4    0.31    0.13
   0   6  -4    0.48    0.17
   0   6  -4    0.72    0.18
   0  -6   4    0.48    0.15
   0  -6   4    0.35    0.17
   0  -6   4    0.61    0.20
   0  -6   4    0.29    0.18
   0  -6   4    0.44    0.20
  -1   6  -4    7.25    0.47
  -1   6  -4    7.56    0.42
  -1   6  -4    7.02    0.39
  -1   6  -4    7.21    0.49
  -1   6  -4    7.23    0.42
  -1   6  -4    6.78    0.47
  -1   6  -4    7.83    0.57
   1  -6   4    6.88    0.41
   1  -6   4    6.71    0.47
   1  -6   4    7.00    0.41
   1  -6   4    7.45    0.36
   1  -6   4    7.79    0.45
   1  -6   4    7.18    0.49
  -2   6  -4   15.11    0.66
  -2   6  -4   15.95    0.66
  -2   6  -4   14.65    0.80
  -2   6  -4   15.57    0.86
  -2   6  -4   17.10    0.82
   2  -6   4   16.26    0.65
   2  -6   4   14.62    0.74
   2  -6   4   14.71    0.63
   2  -6   4   15.45    0.77
  -3   6  -4    0.11    0.14
  -3   6  -4    0.45    0.29
  -3   6  -4    0.08    0.20
  -3   6  -4    0.15    0.10
  -3   6  -4    0.31    0.25
   3  -6   4    0.38    0.20
   3  -6   4   -0.13    0.16
  -4   6  -4   61.70    2.00
  -4   6  -4   61.15    2.36
  -4   6  -4   56.54    2.26
  -4   6  -4   53.09    2.38
   4  -6   4   60.05    2.06
   4  -6   4   55.62    2.12
   4  -6   4   60.17    2.27
  -5   6  -4    2.24    0.40
  -5   6  -4    2.80    0.48
   5  -6   4    2.94    0.39
  -6   6  -4    2.62    0.52
   6  -6   4    2.08    0.36
   6   5  -4    0.50    0.32
   6   5  -4    0.37    0.23
   6   5  -4    0.65    0.26
   6   5  -4    0.66    0.24
  -6  -5   4    0.49    0.31
   5   5  -4    0.32    0.21
   5   5  -4    0.43    0.26
   5   5  -4   -0.02    0.20
   5   5  -4    0.16    0.18
   5   5  -4    0.40    0.28
  -5  -5   4   -0.02    0.27
  -5  -5   4    0.05    0.12
   4   5  -4    0.08    0.19
   4   5  -4   -0.01    0.22
   4   5  -4    0.19    0.17
   4   5  -4   -0.17    0.20
   4   5  -4   -0.05    0.21
  -4  -5   4    0.22    0.14
  -4  -5   4    0.07    0.15
  -4  -5   4   -0.13    0.18
  -4  -5   4    0.25    0.13
  -4  -5   4   -0.46    0.23
   3   5  -4   20.20    0.94
   3   5  -4   20.50    0.92
   3   5  -4   22.11    1.00
   3   5  -4   22.48    0.72
   3   5  -4   20.25    0.88
   3   5  -4   22.30    1.00
   3   5  -4   22.02    1.06
  -3  -5   4   21.80    1.10
  -3  -5   4   24.07    0.84
  -3  -5   4   22.77    1.01
  -3  -5   4   24.66    0.97
   2   5  -4    0.93    0.22
   2   5  -4    1.44    0.28
   2   5  -4    1.27    0.21
   2   5  -4    1.59    0.19
   2   5  -4    0.89    0.18
   2   5  -4    1.30    0.25
   2   5  -4    1.08    0.18
  -2  -5   4    0.99    0.15
  -2  -5   4    1.15    0.25
  -2  -5   4    1.34    0.23
  -2  -5   4    1.03    0.25
  -2  -5   4    1.58    0.20
   1   5  -4   32.06    1.25
   1   5  -4   32.49    1.33
   1   5  -4   30.38    1.24
   1   5  -4   31.81    1.06
   1   5  -4   30.73    1.20
   1   5  -4   31.04    1.10
   1   5  -4   31.80    1.13
   1   5  -4   31.55    1.20
  -1  -5   4   33.92    1.34
  -1  -5   4   33.59    1.13
  -1  -5   4   33.66    1.35
  -1  -5   4   34.66    1.35
  -1  -5   4   31.45    1.30
   0   5  -4    1.58    0.22
   0   5  -4    1.16    0.27
   0   5  -4    1.65    0.22
   0   5  -4    1.38    0.22
   0   5  -4    1.30    0.17
   0   5  -4    1.13    0.19
   0   5  -4    0.99    0.20
   0  -5   4    1.29    0.18
   0  -5   4    1.30    0.18
   0  -5   4    1.30    0.22
   0  -5   4    1.04    0.21
   0  -5   4    1.32    0.22
  -1   5  -4   30.27    1.11
  -1   5  -4   33.13    1.20
  -1   5  -4   32.13    1.18
  -1   5  -4   33.59    1.25
  -1   5  -4   34.00    1.38
  -1   5  -4   29.56    1.32
   1  -5   4   32.08    1.20
   1  -5   4   32.13    1.32
   1  -5   4   33.54    1.23
  -2   5  -4    0.32    0.11
  -2   5  -4    0.29    0.22
  -2   5  -4    0.12    0.12
  -2   5  -4    0.22    0.13
  -2   5  -4    0.26    0.17
  -2   5  -4    0.39    0.12
  -2   5  -4    0.12    0.20
   2  -5   4    0.12    0.10
   2  -5   4    0.41    0.16
   2  -5   4    0.19    0.11
  -3   5  -4    7.09    0.52
  -3   5  -4    6.90    0.55
  -3   5  -4    8.16    0.58
  -3   5  -4    7.84    0.41
   3  -5   4    6.92    0.45
   3  -5   4    7.44    0.38
   3  -5   4    7.53    0.50
  -4   5  -4   16.08    0.90
  -4   5  -4   17.52    0.93
  -4   5  -4   16.67    0.68
  -4   5  -4   15.64    0.90
   4  -5   4   16.83    0.73
   4  -5   4   17.68    0.85
   4  -5   4   15.00    0.73
  -5   5  -4    0.27    0.25
  -5   5  -4    0.01    0.30
   5  -5   4    0.21    0.19
   5  -5   4    0.34    0.20
  -6   5  -4    0.37    0.35
   6  -5   4    0.13    0.21
   6  -5   4    0.11    0.21
   6   4  -4    0.36    0.19
   6   4  -4    0.62    0.30
   6   4  -4    0.53    0.23
   6   4  -4    0.40    0.21
  -6  -4   4    0.37    0.30
   5   4  -4    1.08    0.26
   5   4  -4    1.11    0.25
   5   4  -4    1.33    0.26
   5   4  -4    1.46    0.30
   5   4  -4    1.36    0.36
  -5  -4   4    0.99    0.33
  -5  -4   4    1.23    0.17
   4   4  -4    0.14    0.22
   4   4  -4    0.52    0.25
   4   4  -4    0.41    0.19
   4   4  -4    0.65    0.18
   4   4  -4    0.50    0.22
  -4  -4   4    0.38    0.12
  -4  -4   4    0.55    0.12
  -4  -4   4    0.19    0.25
  -4  -4   4    0.32    0.15
   3   4  -4    1.43    0.22
   3   4  -4    1.26    0.20
   3   4  -4    1.52    0.28
   3   4  -4    1.23    0.26
   3   4  -4    1.58    0.25
   3   4  -4    1.50    0.12
   3   4  -4    1.32    0.25
  -3  -4   4    1.63    0.17
  -3  -4   4    1.82    0.15
  -3  -4   4    1.53    0.28
  -3  -4   4    1.46    0.30
  -3  -4   4    1.63    0.23
  -3  -4   4    1.40    0.15
   2   4  -4   99.25    3.49
   2   4  -4   99.47    3.28
   2   4  -4  101.39    3.40
   2   4  -4   94.99    3.08
   2   4  -4   96.94    3.47
   2   4  -4   92.52    3.36
  -2  -4   4  105.80    3.67
  -2  -4   4  101.72    3.65
  -2  -4   4   98.27    3.54
  -2  -4   4  103.52    3.10
  -2  -4   4  104.35    3.22
  -2  -4   4   99.49    3.58
   1   4  -4   47.27    1.67
   1   4  -4   46.61    1.57
   1   4  -4   47.16    1.77
   1   4  -4   50.15    1.83
   1   4  -4   47.34    1.49
   1   4  -4   46.13    1.68
   1   4  -4   47.87    1.77
   1   4  -4   46.20    1.73
  -1  -4   4   47.52    1.62
  -1  -4   4   49.48    1.55
  -1  -4   4   50.85    1.84
  -1  -4   4   48.41    1.81
  -1  -4   4   51.71    1.85
  -1  -4   4   45.00    1.77
   0   4  -4   12.71    0.59
   0   4  -4   12.78    0.63
   0   4  -4   14.01    0.62
   0   4  -4   13.80    0.62
   0   4  -4   13.54    0.54
   0   4  -4   14.39    0.60
   0   4  -4   14.01    0.72
   0  -4   4   13.69    0.55
   0  -4   4   14.30    0.65
   0  -4   4   13.57    0.61
   0  -4   4   13.38    0.62
   0  -4   4   13.52    0.66
   0  -4   4   14.45    0.60
  -1   4  -4   -0.01    0.11
  -1   4  -4    0.32    0.22
  -1   4  -4   -0.14    0.10
  -1   4  -4    0.29    0.20
  -1   4  -4    0.09    0.13
  -1   4  -4    0.14    0.13
  -1   4  -4    0.07    0.15
   1  -4   4    0.05    0.12
   1  -4   4    0.08    0.13
   1  -4   4   -0.15    0.15
   1  -4   4   -0.17    0.13
  -2   4  -4   53.28    2.10
  -2   4  -4   53.73    1.85
  -2   4  -4   51.41    2.13
  -2   4  -4   55.13    1.88
  -2   4  -4   55.58    1.98
  -2   4  -4   54.45    1.79
  -2   4  -4   56.07    1.83
   2  -4   4   54.72    1.84
   2  -4   4   55.83    1.88
   2  -4   4   53.72    1.85
   2  -4   4   55.60    2.06
  -3   4  -4    8.90    0.44
  -3   4  -4    7.98    0.57
  -3   4  -4    9.06    0.36
  -3   4  -4    9.63    0.62
  -3   4  -4    8.35    0.47
   3  -4   4    8.55    0.44
   3  -4   4    8.83    0.53
  -4   4  -4    4.54    0.33
  -4   4  -4    4.27    0.49
  -4   4  -4    4.24    0.49
   4  -4   4    4.42    0.43
   4  -4   4    4.00    0.37
   4  -4   4    3.77    0.30
  -5   4  -4   -0.02    0.15
  -5   4  -4    0.19    0.31
   5  -4   4    0.06    0.19
   5  -4   4    0.13    0.19
  -6   4  -4    2.02    0.43
   6  -4   4    1.70    0.38
   6  -4   4    1.10    0.31
   6  -4   4    1.91    0.33
   7   3  -4    8.46    0.72
   7   3  -4    8.19    0.76
  -7  -3   4    9.29    0.73
   6   3  -4    0.06    0.27
   6   3  -4    0.42    0.19
   6   3  -4    0.22    0.16
   6   3  -4    0.31    0.23
   6   3  -4    0.35    0.20
   6   3  -4    0.51    0.31
  -6  -3   4    0.63    0.30
   5   3  -4   11.30    0.77
   5   3  -4   11.65    0.60
   5   3  -4   11.51    0.57
   5   3  -4   10.24    0.59
   5   3  -4   11.61    0.67
   5   3  -4   11.02    0.71
  -5  -3   4   12.13    0.47
  -5  -3   4   10.92    0.74
   4   3  -4   20.58    1.06
   4   3  -4   18.91    0.82
   4   3  -4   19.70    0.87
   4   3  -4   19.99    0.94
   4   3  -4   20.53    0.84
   4   3  -4   19.32    0.83
   4   3  -4   20.78    0.86
  -4  -3   4   21.28    0.71
  -4  -3   4   19.51    0.95
  -4  -3   4   20.50    0.70
  -4  -3   4   20.88    0.79
  -4  -3   4   20.72    0.83
  -4  -3   4   20.09    0.99
   3   3  -4    9.66    0.48
   3   3  -4   10.10    0.60
   3   3  -4   10.03    0.39
   3   3  -4    9.44    0.51
   3   3  -4    9.25    0.54
   3   3  -4    9.81    0.46
   3   3  -4    9.35    0.50
   3   3  -4    9.01    0.47
  -3  -3   4    9.65    0.39
  -3  -3   4    9.97    0.48
  -3  -3   4    9.64    0.59
  -3  -3   4   10.55    0.55
  -3  -3   4   10.30    0.41
  -3  -3   4    9.42    0.55
  -3  -3   4   10.32    0.37
   2   3  -4   55.30    1.87
   2   3  -4   58.92    2.11
   2   3  -4   56.99    1.99
   2   3  -4   56.86    2.24
   2   3  -4   58.91    2.06
   2   3  -4   59.36    1.96
   2   3  -4   58.85    2.09
   2   3  -4   59.29    2.02
   2   3  -4   56.67    2.02
   2   3  -4   58.43    2.13
   2   3  -4   54.35    2.06
  -2  -3   4   58.27    1.86
  -2  -3   4   56.45    2.07
  -2  -3   4   55.60    2.08
  -2  -3   4   59.46    1.77
  -2  -3   4   59.90    2.16
   1   3  -4   21.81    0.71
   1   3  -4   20.18    0.74
   1   3  -4   21.62    0.89
   1   3  -4   21.69    0.90
   1   3  -4   21.63    0.85
   1   3  -4   22.12    0.84
   1   3  -4   19.62    0.92
   1   3  -4   21.63    0.78
  -1  -3   4   20.67    0.87
  -1  -3   4   21.44    0.72
  -1  -3   4   21.23    0.78
  -1  -3   4   21.38    0.88
  -1  -3   4   22.18    0.87
  -1  -3   4   22.03    0.90
  -1  -3   4   19.80    0.76
   0   3  -4    3.24    0.37
   0   3  -4    2.86    0.26
   0   3  -4    2.50    0.25
   0   3  -4    2.89    0.26
   0   3  -4    2.84    0.27
   0   3  -4    2.61    0.26
   0   3  -4    3.00    0.22
   0  -3   4    2.95    0.27
   0  -3   4    2.84    0.25
   0  -3   4    2.50    0.25
   0  -3   4    3.45    0.31
   0  -3   4    2.79    0.26
   0  -3   4    2.68    0.26
  -1   3  -4   26.98    0.94
  -1   3  -4   25.92    1.04
  -1   3  -4   26.64    0.99
  -1   3  -4   26.63    1.15
  -1   3  -4   26.33    0.97
  -1   3  -4   26.42    0.98
   1  -3   4   26.25    0.98
   1  -3   4   26.15    1.00
   1  -3   4   26.31    1.07
   1  -3   4   24.85    0.96
   1  -3   4   27.22    0.98
  -2   3  -4   10.42    0.59
  -2   3  -4   10.92    0.63
  -2   3  -4   10.50    0.49
   2  -3   4   11.18    0.57
   2  -3   4   10.80    0.53
   2  -3   4    9.88    0.41
  -3   3  -4   19.61    0.79
  -3   3  -4   20.71    0.97
  -3   3  -4   19.66    0.92
   3  -3   4   20.85    0.93
  -4   3  -4  162.60    5.30
  -4   3  -4  163.93    5.77
   4  -3   4  161.74    5.65
  -5   3  -4    1.89    0.26
  -5   3  -4    1.94    0.40
   5  -3   4    1.75    0.32
  -6   3  -4    1.93    0.40
   6  -3   4    1.49    0.34
   6  -3   4    1.41    0.30
   7   2  -4   -0.16    0.24
   7   2  -4    0.02    0.27
  -7  -2   4   -0.13    0.24
   6   2  -4    3.21    0.47
   6   2  -4    4.06    0.54
   6   2  -4    3.58    0.42
  -6  -2   4    3.66    0.46
   5   2  -4   15.70    0.72
   5   2  -4   16.28    0.72
   5   2  -4   17.39    0.65
   5   2  -4   14.36    0.86
   5   2  -4   16.82    0.84
   5   2  -4   16.33    0.97
  -5  -2   4   16.90    0.63
  -5  -2   4   16.65    0.68
  -5  -2   4   16.47    0.89
   4   2  -4    2.19    0.22
   4   2  -4    2.14    0.25
   4   2  -4    2.61    0.34
   4   2  -4    2.51    0.28
   4   2  -4    2.51    0.36
   4   2  -4    2.35    0.23
   4   2  -4    2.23    0.20
   4   2  -4    2.19    0.30
  -4  -2   4    2.23    0.18
  -4  -2   4    2.47    0.19
  -4  -2   4    2.46    0.21
  -4  -2   4    2.30    0.14
  -4  -2   4    2.49    0.33
  -4  -2   4    2.34    0.32
   3   2  -4    0.09    0.09
   3   2  -4    0.25    0.12
   3   2  -4    0.11    0.16
   3   2  -4    0.14    0.13
   3   2  -4    0.13    0.09
   3   2  -4   -0.04    0.17
   3   2  -4   -0.10    0.15
   3   2  -4    0.14    0.17
   3   2  -4    0.00    0.13
  -3  -2   4    0.22    0.16
  -3  -2   4    0.14    0.05
  -3  -2   4    0.15    0.09
  -3  -2   4    0.04    0.14
  -3  -2   4    0.13    0.09
  -3  -2   4    0.20    0.06
  -3  -2   4    0.15    0.09
   2   2  -4    7.08    0.47
   2   2  -4    6.50    0.38
   2   2  -4    6.65    0.43
   2   2  -4    7.22    0.42
   2   2  -4    6.56    0.36
   2   2  -4    6.26    0.37
  -2  -2   4    6.32    0.32
  -2  -2   4    6.68    0.44
  -2  -2   4    6.42    0.35
  -2  -2   4    6.16    0.46
  -2  -2   4    6.39    0.27
   1   2  -4   14.69    0.65
   1   2  -4   14.16    0.66
   1   2  -4   13.77    0.60
   1   2  -4   14.07    0.63
   1   2  -4   13.62    0.61
   1   2  -4   14.61    0.58
   1   2  -4   13.96    0.53
   1   2  -4   13.87    0.63
   1   2  -4   14.02    0.48
  -1  -2   4   14.08    0.62
  -1  -2   4   13.91    0.57
  -1  -2   4   13.49    0.67
  -1  -2   4   13.67    0.64
  -1  -2   4   13.86    0.56
  -1  -2   4   16.18    0.61
   0   2  -4    6.89    0.37
   0   2  -4    6.37    0.36
   0   2  -4    6.78    0.38
   0   2  -4    7.07    0.48
   0   2  -4    6.33    0.37
   0  -2   4    5.75    0.33
   0  -2   4    6.72    0.36
   0  -2   4    5.90    0.36
   0  -2   4    5.99    0.39
  -1   2  -4  411.15   14.15
  -1   2  -4  424.32   13.38
  -1   2  -4  425.38   13.27
   1  -2   4  422.90   14.46
   1  -2   4  447.69   13.61
   1  -2   4  426.74   14.07
   1  -2   4  426.88   13.27
  -2   2  -4    5.42    0.35
  -2   2  -4    5.57    0.44
  -2   2  -4    5.16    0.43
   2  -2   4    6.08    0.39
   2  -2   4    4.92    0.38
   2  -2   4    5.21    0.27
   2  -2   4    6.06    0.26
   2  -2   4    4.83    0.36
  -3   2  -4   17.79    0.84
  -3   2  -4   19.61    0.91
  -3   2  -4   17.17    0.75
   3  -2   4   16.32    0.74
   3  -2   4   17.64    0.82
   3  -2   4   17.15    0.61
   3  -2   4   17.37    0.61
   3  -2   4   17.56    0.83
  -4   2  -4   33.15    1.43
  -4   2  -4   32.46    1.35
  -4   2  -4   31.52    1.23
   4  -2   4   28.90    1.30
   4  -2   4   31.66    1.31
   4  -2   4   31.47    1.12
  -5   2  -4    8.38    0.62
  -5   2  -4    8.11    0.50
  -5   2  -4    9.27    0.67
   5  -2   4    8.25    0.57
   5  -2   4    8.44    0.59
  -6   2  -4    0.82    0.34
  -6   2  -4    1.18    0.25
   6  -2   4    0.87    0.29
   6  -2   4    1.26    0.30
   6  -2   4    1.01    0.28
   7   1  -4    0.19    0.26
  -7  -1   4    0.56    0.26
   6   1  -4    0.23    0.26
   6   1  -4    0.09    0.20
  -6  -1   4    0.03    0.21
   5   1  -4    6.84    0.41
   5   1  -4    6.98    0.60
   5   1  -4    6.64    0.36
   5   1  -4    5.81    0.50
   5   1  -4    7.55    0.51
  -5  -1   4    6.88    0.44
  -5  -1   4    6.70    0.37
  -5  -1   4    6.39    0.37
  -5  -1   4    6.70    0.54
   4   1  -4    0.59    0.20
   4   1  -4    0.53    0.21
   4   1  -4    0.66    0.24
   4   1  -4    0.54    0.11
   4   1  -4    0.24    0.14
   4   1  -4    0.51    0.16
   4   1  -4    0.65    0.21
  -4  -1   4    0.67    0.22
  -4  -1   4    0.64    0.14
  -4  -1   4    0.61    0.22
  -4  -1   4    0.45    0.16
  -4  -1   4    0.58    0.07
   3   1  -4    0.35    0.11
   3   1  -4    0.32    0.12
   3   1  -4    0.30    0.16
   3   1  -4    0.53    0.20
   3   1  -4    0.38    0.08
   3   1  -4    0.27    0.16
   3   1  -4    0.47    0.14
   3   1  -4    0.70    0.18
   3   1  -4    0.33    0.08
  -3  -1   4    0.46    0.18
  -3  -1   4    0.42    0.09
  -3  -1   4    0.45    0.12
  -3  -1   4    0.46    0.18
   2   1  -4   90.86    3.13
   2   1  -4   95.16    3.05
   2   1  -4   93.12    3.20
   2   1  -4   94.42    3.21
   2   1  -4   90.15    3.17
   2   1  -4   94.05    3.26
   2   1  -4   92.15    3.46
  -2  -1   4   90.73    3.22
  -2  -1   4   92.37    3.03
  -2  -1   4   95.69    2.99
  -2  -1   4   92.83    3.21
  -2  -1   4   97.99    3.07
   1   1  -4   68.11    2.47
   1   1  -4   70.07    2.32
   1   1  -4   70.52    2.52
   1   1  -4   70.71    2.63
   1   1  -4   71.57    2.35
   1   1  -4   73.90    2.42
  -1  -1   4   65.36    2.30
  -1  -1   4   75.05    2.33
  -1  -1   4   68.58    2.45
  -1  -1   4   70.69    2.26
  -1  -1   4   71.12    2.44
   0   1  -4  133.32    4.30
   0   1  -4  126.30    4.40
   0   1  -4  124.49    4.10
   0   1  -4  122.38    4.52
   0  -1   4  125.97    4.26
   0  -1   4  127.41    3.96
   0  -1   4  120.71    4.19
   0  -1   4  130.87    4.07
   0  -1   4  124.08    4.33
  -1   1  -4   52.44    1.82
  -1   1  -4   52.13    2.02
  -1   1  -4   55.35    1.86
   1  -1   4   52.27    1.89
   1  -1   4   50.80    1.74
   1  -1   4   53.79    1.93
  -2   1  -4    0.42    0.15
  -2   1  -4    0.45    0.22
  -2   1  -4    0.32    0.19
  -2   1  -4    0.48    0.11
   2  -1   4    0.92    0.21
   2  -1   4    0.66    0.13
   2  -1   4    0.43    0.17
   2  -1   4    0.53    0.18
  -3   1  -4   80.87    2.82
  -3   1  -4   78.96    2.99
  -3   1  -4   84.96    3.02
  -3   1  -4   79.87    2.75
   3  -1   4   80.73    2.81
   3  -1   4   85.12    3.04
   3  -1   4   87.38    2.87
   3  -1   4   82.61    2.75
   3  -1   4   84.70    2.80
   3  -1   4   80.35    3.01
  -4   1  -4   18.45    0.94
  -4   1  -4   17.80    0.81
  -4   1  -4   17.69    0.88
   4  -1   4   17.78    0.91
   4  -1   4   18.41    0.73
   4  -1   4   18.41    0.82
   4  -1   4   18.93    0.91
   4  -1   4   18.08    0.69
  -5   1  -4    3.44    0.45
  -5   1  -4    3.31    0.37
  -5   1  -4    3.79    0.48
   5  -1   4    4.08    0.44
   5  -1   4    3.49    0.43
  -6   1  -4    0.06    0.25
  -6   1  -4    0.12    0.20
   6  -1   4   -0.13    0.19
   6  -1   4    0.10    0.24
   6  -1   4   -0.16    0.20
   7   0  -4    1.34    0.34
  -7   0   4    1.31    0.32
   6   0  -4    5.13    0.52
  -6   0   4    7.35    0.43
  -6   0   4    7.72    0.58
  -6   0   4    6.75    0.51
   5   0  -4   12.26    0.54
   5   0  -4   12.15    0.71
  -5   0   4   11.79    0.72
  -5   0   4   13.07    0.58
  -5   0   4   13.28    0.66
  -5   0   4   13.27    0.59
   4   0  -4   10.66    0.60
   4   0  -4    9.65    0.59
   4   0  -4   10.32    0.45
   4   0  -4   10.70    0.49
  -4   0   4   10.44    0.50
  -4   0   4   10.72    0.51
  -4   0   4   11.08    0.43
  -4   0   4   11.35    0.50
  -4   0   4    9.88    0.59
   3   0  -4   29.86    1.05
   3   0  -4   29.13    1.17
   3   0  -4   28.65    1.29
   3   0  -4   29.24    0.98
   3   0  -4   30.30    1.04
   3   0  -4   28.43    1.14
   3   0  -4   28.42    1.02
  -3   0   4   27.85    1.02
  -3   0   4   29.37    1.05
  -3   0   4   30.86    1.05
  -3   0   4   28.43    1.17
  -3   0   4   29.50    1.11
   2   0  -4   63.01    2.15
   2   0  -4   67.96    2.30
   2   0  -4   64.04    2.32
   2   0  -4   65.29    2.28
   2   0  -4   66.50    2.48
   2   0  -4   61.21    2.24
  -2   0   4   64.95    2.11
  -2   0   4   59.83    2.27
  -2   0   4   61.05    2.23
  -2   0   4   67.52    2.33
  -2   0   4   67.82    2.14
  -2   0   4   65.11    2.24
   1   0  -4   15.10    0.66
   1   0  -4   16.06    0.60
   1   0  -4   15.64    0.64
   1   0  -4   14.71    0.70
   1   0  -4   15.57    0.63
  -1   0   4   14.95    0.62
  -1   0   4   16.36    0.64
  -1   0   4   14.69    0.67
  -1   0   4   15.66    0.69
  -1   0   4   14.98    0.66
  -1   0   4   15.44    0.59
   0   0  -4   84.10    2.85
   0   0  -4   89.39    2.98
   0   0  -4   83.96    2.85
   0   0  -4   88.64    3.09
   0   0   4   87.30    2.93
   0   0   4   84.89    3.03
   0   0   4   89.16    2.97
   0   0   4   83.14    2.76
  -1   0  -4  101.15    3.26
  -1   0  -4   94.61    3.50
  -1   0  -4   98.60    3.25
   1   0   4   96.71    3.11
   1   0   4   97.59    3.44
   1   0   4   96.76    3.39
   1   0   4   98.87    3.28
  -2   0  -4    0.26    0.17
  -2   0  -4    0.33    0.15
  -2   0  -4    0.48    0.20
   2   0   4    0.39    0.16
   2   0   4    0.49    0.14
   2   0   4    0.50    0.18
   2   0   4    0.56    0.18
  -3   0  -4    0.07    0.20
  -3   0  -4    0.31    0.20
  -3   0  -4    0.33    0.12
   3   0   4   -0.08    0.14
   3   0   4    0.11    0.17
   3   0   4    0.16    0.14
   3   0   4    0.12    0.16
   3   0   4    0.14    0.11
  -4   0  -4   23.20    1.11
  -4   0  -4   20.90    1.01
  -4   0  -4   22.34    0.88
   4   0   4   22.20    0.86
   4   0   4   21.82    0.90
   4   0   4   19.99    1.02
   4   0   4   22.54    0.87
   4   0   4   21.72    1.03
  -5   0  -4   13.88    0.84
  -5   0  -4   14.03    0.78
   5   0   4   12.99    0.78
   5   0   4   12.70    0.78
  -6   0  -4    0.64    0.29
  -6   0  -4    0.38    0.23
   6   0   4    0.35    0.25
   6   0   4    0.32    0.23
   7  -1  -4    2.87    0.44
  -7   1   4    3.45    0.44
   6  -1  -4    9.06    0.62
  -6   1   4   11.11    0.58
  -6   1   4   10.79    0.70
  -6   1   4   11.20    0.69
   5  -1  -4    2.44    0.34
   5  -1  -4    2.47    0.35
  -5   1   4    2.71    0.30
  -5   1   4    2.43    0.33
  -5   1   4    2.59    0.21
  -5   1   4    2.57    0.27
   4  -1  -4    2.63    0.31
   4  -1  -4    2.25    0.30
   4  -1  -4    2.40    0.19
   4  -1  -4    2.25    0.21
  -4   1   4    2.49    0.31
  -4   1   4    2.50    0.21
  -4   1   4    2.42    0.19
  -4   1   4    2.32    0.26
  -4   1   4    2.41    0.13
  -4   1   4    2.40    0.26
   3  -1  -4    8.63    0.39
   3  -1  -4    8.10    0.38
   3  -1  -4    7.94    0.36
   3  -1  -4    7.66    0.32
   3  -1  -4    7.88    0.45
   3  -1  -4    8.41    0.36
   3  -1  -4    7.66    0.34
  -3   1   4    9.12    0.39
  -3   1   4    7.86    0.35
  -3   1   4    8.37    0.49
  -3   1   4    7.68    0.44
  -3   1   4    7.46    0.42
  -3   1   4    7.47    0.36
   2  -1  -4   12.52    0.52
   2  -1  -4   11.58    0.54
   2  -1  -4   12.84    0.43
   2  -1  -4   12.78    0.53
   2  -1  -4   13.02    0.55
   2  -1  -4   12.96    0.57
  -2   1   4   12.50    0.59
  -2   1   4   11.92    0.61
  -2   1   4   12.73    0.55
  -2   1   4   12.93    0.62
  -2   1   4   11.67    0.53
  -2   1   4   12.81    0.53
   1  -1  -4    0.61    0.16
   1  -1  -4    0.61    0.19
   1  -1  -4    0.57    0.12
   1  -1  -4    0.52    0.14
   1  -1  -4    0.33    0.14
  -1   1   4    0.35    0.14
  -1   1   4    0.52    0.17
  -1   1   4    0.59    0.14
  -1   1   4    0.57    0.12
  -1   1   4    0.54    0.16
   0  -1  -4   51.58    1.92
   0  -1  -4   49.10    1.75
   0  -1  -4   51.68    1.82
   0  -1  -4   49.93    1.75
   0  -1  -4   51.37    1.93
   0   1   4   48.96    1.80
   0   1   4   46.87    1.74
   0   1   4   46.28    1.76
   0   1   4   48.86    1.62
   0   1   4   50.23    1.74
  -1  -1  -4   61.49    2.16
  -1  -1  -4   62.78    2.36
  -1  -1  -4   63.83    2.15
   1   1   4   61.00    2.15
   1   1   4   60.23    2.25
   1   1   4   60.78    2.21
   1   1   4   61.99    2.02
  -2  -1  -4  102.18    3.34
  -2  -1  -4   98.63    3.46
  -2  -1  -4   97.01    3.60
   2   1   4   95.93    3.16
   2   1   4   97.53    3.52
   2   1   4  101.59    3.34
   2   1   4   98.61    3.49
   2   1   4   97.50    3.34
  -3  -1  -4    4.05    0.33
  -3  -1  -4    3.31    0.36
  -3  -1  -4    4.03    0.45
   3   1   4    3.65    0.32
   3   1   4    4.64    0.45
   3   1   4    4.41    0.32
   3   1   4    4.00    0.41
   3   1   4    3.95    0.33
  -4  -1  -4    4.37    0.45
  -4  -1  -4    4.15    0.49
  -4  -1  -4    3.43    0.33
   4   1   4    3.17    0.40
   4   1   4    3.66    0.35
   4   1   4    3.53    0.29
   4   1   4    3.52    0.43
   4   1   4    3.87    0.34
  -5  -1  -4    0.43    0.25
  -5  -1  -4    0.90    0.32
   5   1   4    0.62    0.23
   5   1   4    0.42    0.23
  -6  -1  -4    0.54    0.29
   6   1   4    0.72    0.29
   6   1   4    0.30    0.23
   7  -2  -4    0.77    0.29
  -7   2   4    0.78    0.27
  -7   2   4    0.25    0.31
   6  -2  -4    0.76    0.28
  -6   2   4    1.05    0.33
  -6   2   4    0.76    0.27
  -6   2   4    0.68    0.22
   5  -2  -4   13.14    0.70
   5  -2  -4   12.14    0.70
  -5   2   4   12.84    0.60
  -5   2   4   12.94    0.66
  -5   2   4   13.51    0.64
   4  -2  -4    1.60    0.25
   4  -2  -4    1.42    0.16
  -4   2   4    1.27    0.23
  -4   2   4    1.26    0.18
  -4   2   4    1.41    0.13
  -4   2   4    1.49    0.24
  -4   2   4    1.62    0.28
   3  -2  -4    0.44    0.09
   3  -2  -4    0.21    0.11
   3  -2  -4    0.28    0.13
   3  -2  -4    0.28    0.10
   3  -2  -4    0.27    0.11
   3  -2  -4   -0.01    0.14
   3  -2  -4    0.39    0.07
  -3   2   4    0.36    0.16
  -3   2   4    0.30    0.16
  -3   2   4    0.49    0.11
  -3   2   4    0.28    0.11
  -3   2   4    0.27    0.14
   2  -2  -4   57.60    2.17
   2  -2  -4   61.88    2.21
   2  -2  -4   60.11    2.04
   2  -2  -4   60.44    1.88
   2  -2  -4   63.74    2.15
   2  -2  -4   64.05    2.27
  -2   2   4   64.40    2.24
  -2   2   4   61.31    2.17
  -2   2   4   61.11    2.06
  -2   2   4   58.73    2.24
  -2   2   4   59.30    2.05
  -2   2   4   59.82    2.16
   1  -2  -4   63.61    2.14
   1  -2  -4   59.87    2.07
   1  -2  -4   58.51    2.18
   1  -2  -4   64.48    2.30
   1  -2  -4   60.69    2.26
  -1   2   4   65.64    2.23
  -1   2   4   58.45    2.24
  -1   2   4   61.55    2.08
  -1   2   4   62.01    2.17
  -1   2   4   62.78    2.21
   0  -2  -4   27.68    1.04
   0  -2  -4   28.04    1.05
   0  -2  -4   27.24    1.18
   0  -2  -4   28.36    1.14
   0  -2  -4   26.01    1.09
   0   2   4   27.12    1.08
   0   2   4   28.37    1.12
   0   2   4   27.47    1.02
   0   2   4   27.83    1.14
  -1  -2  -4   49.24    1.87
  -1  -2  -4   45.33    1.73
  -1  -2  -4   46.95    1.87
  -1  -2  -4   47.89    1.68
  -1  -2  -4   46.99    1.77
   1   2   4   43.80    1.77
   1   2   4   47.12    1.74
   1   2   4   48.39    1.71
   1   2   4   44.69    1.57
  -2  -2  -4    6.73    0.41
  -2  -2  -4    6.05    0.41
  -2  -2  -4    6.06    0.49
   2   2   4    5.05    0.43
   2   2   4    6.15    0.41
   2   2   4    6.35    0.45
   2   2   4    6.47    0.37
   2   2   4    6.16    0.32
   2   2   4    6.37    0.42
  -3  -2  -4   16.29    0.92
  -3  -2  -4   16.84    0.78
  -3  -2  -4   17.49    0.80
   3   2   4   16.85    0.72
   3   2   4   15.89    0.73
   3   2   4   14.98    0.74
   3   2   4   14.69    0.83
   3   2   4   16.58    0.69
  -4  -2  -4    3.03    0.45
  -4  -2  -4    2.77    0.32
  -4  -2  -4    2.73    0.37
   4   2   4    3.19    0.43
   4   2   4    3.21    0.42
   4   2   4    3.17    0.31
   4   2   4    3.08    0.35
   4   2   4    2.90    0.31
  -5  -2  -4   11.76    0.70
  -5  -2  -4   12.08    0.81
   5   2   4   10.77    0.74
   5   2   4   11.77    0.77
  -6  -2  -4    0.01    0.23
   6   2   4    0.14    0.23
   6   2   4    0.25    0.25
  -6   3   4    0.21    0.27
  -6   3   4   -0.02    0.17
   5  -3  -4    5.03    0.43
  -5   3   4    6.62    0.47
  -5   3   4    6.26    0.43
   4  -3  -4   66.40    2.18
   4  -3  -4   67.27    2.31
   4  -3  -4   64.84    2.46
   4  -3  -4   71.05    2.56
  -4   3   4   66.75    2.39
  -4   3   4   65.26    2.48
  -4   3   4   67.38    2.31
   3  -3  -4   38.84    1.32
   3  -3  -4   39.48    1.53
   3  -3  -4   38.68    1.44
   3  -3  -4   38.61    1.26
   3  -3  -4   40.65    1.45
   3  -3  -4   36.25    1.42
  -3   3   4   40.46    1.50
  -3   3   4   38.53    1.42
  -3   3   4   35.48    1.40
  -3   3   4   39.19    1.32
  -3   3   4   36.13    1.48
   2  -3  -4    0.23    0.13
   2  -3  -4    0.11    0.11
   2  -3  -4    0.16    0.09
   2  -3  -4    0.09    0.13
   2  -3  -4    0.13    0.13
   2  -3  -4    0.11    0.14
   2  -3  -4    0.27    0.16
  -2   3   4    0.14    0.16
  -2   3   4    0.15    0.14
  -2   3   4    0.37    0.15
  -2   3   4    0.25    0.10
  -2   3   4    0.30    0.14
   1  -3  -4   19.68    0.93
   1  -3  -4   22.88    0.98
   1  -3  -4   21.52    0.78
   1  -3  -4   23.06    0.93
   1  -3  -4   22.63    0.96
   1  -3  -4   21.95    0.86
  -1   3   4   23.05    0.92
  -1   3   4   20.93    0.87
  -1   3   4   22.31    0.89
  -1   3   4   21.60    0.95
   0  -3  -4    4.76    0.37
   0  -3  -4    5.50    0.44
   0  -3  -4    5.06    0.38
   0   3   4    5.72    0.42
   0   3   4    4.45    0.34
   0   3   4    5.26    0.39
   0   3   4    5.59    0.32
   0   3   4    4.99    0.36
  -1  -3  -4   11.35    0.62
  -1  -3  -4   12.04    0.58
  -1  -3  -4   12.14    0.63
  -1  -3  -4   12.37    0.71
   1   3   4   12.20    0.64
   1   3   4   13.34    0.56
   1   3   4   10.80    0.61
   1   3   4   12.35    0.69
   1   3   4   11.24    0.63
  -2  -3  -4   -0.06    0.18
  -2  -3  -4    0.05    0.17
  -2  -3  -4    0.20    0.21
  -2  -3  -4   -0.07    0.12
   2   3   4   -0.18    0.09
   2   3   4   -0.18    0.16
   2   3   4   -0.11    0.16
   2   3   4   -0.02    0.13
   2   3   4   -0.06    0.14
   2   3   4   -0.27    0.17
  -3  -3  -4   -0.17    0.17
  -3  -3  -4   -0.06    0.22
  -3  -3  -4   -0.10    0.19
   3   3   4    0.27    0.21
   3   3   4    0.00    0.13
   3   3   4   -0.03    0.21
   3   3   4    0.19    0.17
   3   3   4    0.15    0.15
   3   3   4    0.07    0.21
  -4  -3  -4   25.38    1.12
  -4  -3  -4   25.23    1.28
  -4  -3  -4   24.48    1.07
   4   3   4   24.64    1.09
   4   3   4   24.50    1.04
   4   3   4   23.67    0.95
   4   3   4   22.61    1.19
   4   3   4   25.78    1.23
  -5  -3  -4    6.61    0.68
  -5  -3  -4    6.83    0.52
  -5  -3  -4    6.31    0.51
   5   3   4    5.34    0.58
   5   3   4    6.25    0.63
  -6   4   4    1.86    0.41
  -6   4   4    1.95    0.33
   5  -4  -4    1.41    0.26
  -5   4   4    1.77    0.29
  -5   4   4    0.95    0.26
   4  -4  -4    0.22    0.13
   4  -4  -4    0.31    0.16
  -4   4   4    0.07    0.17
  -4   4   4    0.11    0.18
  -4   4   4   -0.16    0.13
   3  -4  -4    7.01    0.44
   3  -4  -4    7.56    0.47
   3  -4  -4    6.99    0.36
   3  -4  -4    6.99    0.34
  -3   4   4    6.64    0.44
  -3   4   4    6.57    0.46
  -3   4   4    7.26    0.36
  -3   4   4    8.00    0.52
   2  -4  -4   23.31    1.00
   2  -4  -4   23.70    1.04
   2  -4  -4   23.22    0.79
   2  -4  -4   23.50    0.89
   2  -4  -4   23.65    0.85
  -2   4   4   23.78    0.92
  -2   4   4   23.08    1.04
  -2   4   4   24.17    1.01
  -2   4   4   21.19    1.01
   1  -4  -4    3.98    0.38
   1  -4  -4    3.59    0.39
   1  -4  -4    3.43    0.26
   1  -4  -4    4.02    0.31
  -1   4   4    3.97    0.39
  -1   4   4    3.51    0.31
  -1   4   4    3.75    0.34
  -1   4   4    3.06    0.35
  -1   4   4    4.01    0.32
  -1   4   4    3.55    0.34
   0  -4  -4   22.92    1.09
   0   4   4   24.87    0.96
   0   4   4   23.57    1.04
   0   4   4   25.64    1.12
   0   4   4   22.78    1.06
   0   4   4   23.87    0.96
  -1  -4  -4   31.95    1.44
  -1  -4  -4   32.74    1.35
   1   4   4   32.91    1.21
   1   4   4   31.72    1.37
   1   4   4   33.55    1.18
   1   4   4   32.06    1.41
   1   4   4   32.67    1.34
   1   4   4   31.81    1.34
  -2  -4  -4   72.70    2.73
  -2  -4  -4   73.15    2.56
  -2  -4  -4   73.25    2.85
   2   4   4   72.63    2.59
   2   4   4   69.47    2.60
   2   4   4   73.19    2.76
   2   4   4   72.41    2.38
   2   4   4   68.07    2.68
  -3  -4  -4    0.98    0.25
  -3  -4  -4    1.65    0.38
  -3  -4  -4    1.18    0.29
   3   4   4    1.50    0.28
   3   4   4    1.36    0.30
   3   4   4    1.18    0.22
   3   4   4    1.14    0.30
   3   4   4    1.43    0.23
   3   4   4    1.44    0.35
  -4  -4  -4    2.22    0.33
  -4  -4  -4    1.60    0.41
  -4  -4  -4    2.35    0.37
   4   4   4    1.99    0.37
   4   4   4    1.53    0.28
   4   4   4    1.88    0.35
   4   4   4    1.56    0.36
  -5  -4  -4    1.58    0.34
  -5  -4  -4    1.56    0.38
  -5  -4  -4    1.88    0.34
   5   4   4    1.30    0.36
   5   4   4    1.72    0.39
  -6   5   4    2.52    0.46
  -6   5   4    1.52    0.31
  -5   5   4    0.61    0.24
  -5   5   4    0.07    0.21
   4  -5  -4   -0.13    0.12
   4  -5  -4    0.17    0.17
   4  -5  -4    0.07    0.14
  -4   5   4    0.21    0.20
  -4   5   4    0.16    0.18
  -4   5   4    0.14    0.16
   3  -5  -4    4.70    0.30
   3  -5  -4    4.57    0.28
   3  -5  -4    4.31    0.38
  -3   5   4    4.56    0.47
  -3   5   4    4.94    0.32
  -3   5   4    5.25    0.40
  -3   5   4    4.42    0.43
   2  -5  -4    7.79    0.52
   2  -5  -4    6.84    0.41
   2  -5  -4    7.32    0.39
  -2   5   4    7.32    0.52
  -2   5   4    6.75    0.47
  -2   5   4    7.12    0.53
  -2   5   4    7.79    0.50
  -2   5   4    7.02    0.43
   1  -5  -4    1.29    0.30
   1  -5  -4    1.70    0.22
  -1   5   4    1.36    0.24
  -1   5   4    1.18    0.26
  -1   5   4    1.42    0.24
  -1   5   4    1.06    0.28
  -1   5   4    1.79    0.25
  -1   5   4    1.23    0.28
   0  -5  -4    8.17    0.44
   0  -5  -4    8.55    0.60
   0  -5  -4    8.05    0.58
   0   5   4    8.10    0.49
   0   5   4    7.98    0.56
   0   5   4    7.67    0.52
   0   5   4    8.21    0.56
   0   5   4    9.38    0.61
   0   5   4    7.88    0.43
  -1  -5  -4    0.94    0.30
  -1  -5  -4    1.37    0.29
   1   5   4    1.05    0.26
   1   5   4    1.32    0.29
   1   5   4    0.84    0.20
   1   5   4    1.31    0.31
   1   5   4    0.80    0.25
  -2  -5  -4   38.73    1.71
  -2  -5  -4   37.23    1.60
   2   5   4   39.59    1.59
   2   5   4   38.93    1.60
   2   5   4   37.35    1.68
   2   5   4   38.57    1.39
   2   5   4   36.84    1.63
  -3  -5  -4    0.44    0.21
  -3  -5  -4    0.34    0.25
  -3  -5  -4    0.12    0.24
   3   5   4    0.23    0.22
   3   5   4    0.45    0.16
   3   5   4    0.39    0.26
   3   5   4    0.26    0.21
   3   5   4   -0.06    0.22
  -4  -5  -4    1.26    0.28
  -4  -5  -4    1.06    0.32
  -4  -5  -4    1.06    0.35
   4   5   4    1.01    0.32
   4   5   4    0.52    0.29
  -5   6   4    4.28    0.48
   4  -6  -4   15.21    0.74
  -4   6   4   11.82    0.72
  -4   6   4   13.91    0.78
  -4   6   4   13.54    0.75
   3  -6  -4    1.67    0.23
   3  -6  -4    1.80    0.30
  -3   6   4    1.19    0.27
  -3   6   4    1.78    0.34
  -3   6   4    1.37    0.27
   2  -6  -4    1.74    0.24
   2  -6  -4    2.34    0.35
   2  -6  -4    2.03    0.26
  -2   6   4    1.56    0.29
  -2   6   4    1.75    0.26
  -2   6   4    1.61    0.29
  -2   6   4    2.20    0.36
  -2   6   4    1.68    0.32
   1  -6  -4    8.72    0.64
   1  -6  -4    9.60    0.50
  -1   6   4    8.83    0.55
  -1   6   4    8.61    0.62
  -1   6   4    9.04    0.62
  -1   6   4    7.65    0.52
  -1   6   4    9.17    0.59
  -1   6   4    8.53    0.61
   0  -6  -4    0.18    0.23
   0  -6  -4    0.63    0.18
   0  -6  -4    0.51    0.27
   0   6   4    0.34    0.22
   0   6   4    0.30    0.17
   0   6   4    0.21    0.19
   0   6   4    0.62    0.27
   0   6   4    0.77    0.29
  -1  -6  -4    0.94    0.21
  -1  -6  -4    0.72    0.26
  -1  -6  -4    0.86    0.32
   1   6   4    1.11    0.28
   1   6   4    1.20    0.28
   1   6   4    1.08    0.23
   1   6   4    1.47    0.37
  -2  -6  -4   31.00    1.48
  -2  -6  -4   27.24    1.32
   2   6   4   28.24    1.38
   2   6   4   30.36    1.47
   2   6   4   30.03    1.15
   2   6   4   29.82    1.34
  -3  -6  -4    0.06    0.24
  -3  -6  -4    0.21    0.26
   3   6   4    0.03    0.20
   3   6   4    0.00    0.19
   3   6   4    0.16    0.26
  -4  -6  -4   -0.09    0.24
  -4  -6  -4    0.21    0.28
   4   6   4   -0.15    0.20
   4   6   4    0.00    0.26
   4  -7  -4   20.90    0.98
  -4   7   4   18.96    1.00
  -4   7   4   19.30    0.99
   3  -7  -4    0.24    0.16
   3  -7  -4    0.11    0.19
  -3   7   4    0.26    0.21
  -3   7   4    0.03    0.18
   2  -7  -4    1.91    0.36
   2  -7  -4    2.44    0.29
  -2   7   4    2.58    0.38
  -2   7   4    1.55    0.30
  -2   7   4    2.38    0.32
   1  -7  -4   10.71    0.57
   1  -7  -4   11.66    0.77
  -1   7   4   12.16    0.78
  -1   7   4   10.63    0.71
  -1   7   4   10.71    0.67
  -1   7   4   10.49    0.63
   0  -7  -4    5.24    0.53
   0  -7  -4    5.25    0.58
   0   7   4    5.26    0.52
   0   7   4    5.83    0.61
   0   7   4    5.60    0.45
  -1  -7  -4    1.90    0.36
  -1  -7  -4    0.98    0.33
   1   7   4    1.55    0.27
   1   7   4    1.72    0.35
   1   7   4    1.45    0.36
  -2  -7  -4    5.58    0.67
  -2  -7  -4    5.83    0.60
   2   7   4    6.23    0.68
   2   7   4    5.17    0.58
   2   7   4    5.69    0.42
  -3  -7  -4    0.39    0.30
  -3  -7  -4   -0.23    0.28
   3   7   4    0.21    0.29
   3   7   4    0.19    0.24
   3  -8  -4    0.21    0.24
  -3   8   4    0.53    0.23
   2  -8  -4    2.42    0.42
  -2   8   4    2.25    0.35
   1  -8  -4    2.71    0.44
  -1   8   4    2.48    0.38
  -1   8   4    3.03    0.39
  -1   8   4    4.00    0.54
   0  -8  -4    1.79    0.36
   0  -8  -4    1.26    0.36
   0   8   4    1.12    0.27
   0   8   4    0.87    0.28
   0   8   4    1.30    0.39
  -1  -8  -4   15.05    0.95
  -1  -8  -4   11.42    0.82
   1   8   4   12.58    0.69
   1   8   4   13.75    0.92
   1   8   4   12.48    0.84
   1  11  -5    0.67    0.27
   1  11  -5    1.35    0.44
   1  11  -5    0.68    0.26
  -1 -11   5    0.91    0.32
  -1 -11   5    0.62    0.31
   0  11  -5    6.15    0.74
   0  11  -5    6.20    0.54
   0  11  -5    6.60    0.51
   0 -11   5    6.75    0.64
   0 -11   5    7.28    0.63
  -1  11  -5    2.93    0.49
  -1  11  -5    3.21    0.57
  -1  11  -5    3.32    0.39
   1 -11   5    2.45    0.40
   1 -11   5    3.25    0.48
  -2  11  -5   -0.43    0.27
  -2  11  -5   -0.20    0.32
   2 -11   5    0.08    0.22
   3  10  -5    0.01    0.29
   3  10  -5   -0.01    0.20
   3  10  -5   -0.23    0.20
  -3 -10   5    0.06    0.27
  -3 -10   5   -0.27    0.19
   2  10  -5    0.60    0.27
   2  10  -5    1.15    0.29
   2  10  -5    1.26    0.28
   2  10  -5    1.51    0.43
   2  10  -5    0.88    0.27
  -2 -10   5    1.59    0.38
  -2 -10   5    0.82    0.34
   1  10  -5    0.74    0.37
   1  10  -5    1.13    0.27
   1  10  -5    0.73    0.25
   1  10  -5    1.18    0.27
  -1 -10   5    0.94    0.33
  -1 -10   5    1.46    0.34
   0  10  -5    3.34    0.43
   0  10  -5    2.72    0.36
   0  10  -5    3.66    0.58
   0  10  -5    2.49    0.37
   0 -10   5    2.52    0.43
   0 -10   5    3.56    0.45
  -1  10  -5    1.36    0.31
  -1  10  -5    1.13    0.27
  -1  10  -5    1.44    0.43
  -1  10  -5    1.15    0.25
  -1  10  -5    0.94    0.33
  -1  10  -5    0.55    0.25
   1 -10   5    0.50    0.27
   1 -10   5    1.03    0.32
  -2  10  -5   24.97    1.21
  -2  10  -5   24.02    1.01
  -2  10  -5   24.34    1.35
   2 -10   5   24.75    1.25
  -3  10  -5    0.16    0.34
  -3  10  -5    0.88    0.40
   3 -10   5    0.97    0.30
   4   9  -5   -0.02    0.24
   4   9  -5    0.27    0.25
   4   9  -5    0.12    0.20
   4   9  -5    0.34    0.32
  -4  -9   5    0.33    0.31
   3   9  -5    2.17    0.32
   3   9  -5    2.04    0.34
   3   9  -5    1.72    0.40
   3   9  -5    2.11    0.36
  -3  -9   5    2.33    0.45
  -3  -9   5    1.63    0.35
   2   9  -5    1.39    0.28
   2   9  -5    1.85    0.43
   2   9  -5    1.81    0.32
   2   9  -5    1.77    0.31
   2   9  -5    2.14    0.31
  -2  -9   5    1.93    0.39
  -2  -9   5    1.96    0.38
  -2  -9   5    2.60    0.32
   1   9  -5    1.13    0.31
   1   9  -5    0.50    0.22
   1   9  -5    0.20    0.22
   1   9  -5    0.35    0.20
   1   9  -5    0.69    0.25
   1   9  -5    0.14    0.30
   1   9  -5    1.09    0.25
   1   9  -5    0.70    0.26
  -1  -9   5    0.53    0.26
  -1  -9   5    0.17    0.27
  -1  -9   5    1.18    0.24
   0   9  -5    0.08    0.18
   0   9  -5    0.08    0.18
   0   9  -5    0.20    0.21
   0   9  -5   -0.49    0.24
   0   9  -5   -0.01    0.18
   0   9  -5   -0.21    0.21
   0   9  -5    0.16    0.24
   0  -9   5    0.01    0.19
   0  -9   5    0.13    0.18
   0  -9   5    0.05    0.23
  -1   9  -5    0.62    0.23
  -1   9  -5    0.77    0.31
  -1   9  -5    0.59    0.24
  -1   9  -5    0.41    0.23
  -1   9  -5    0.87    0.35
  -1   9  -5    0.63    0.21
  -1   9  -5    0.81    0.25
   1  -9   5    0.63    0.25
   1  -9   5    0.57    0.25
  -2   9  -5    6.09    0.45
  -2   9  -5    5.26    0.49
  -2   9  -5    6.13    0.70
  -2   9  -5    6.54    0.61
   2  -9   5    6.77    0.57
   2  -9   5    6.29    0.46
  -3   9  -5    9.72    0.73
  -3   9  -5   10.77    0.82
   3  -9   5    9.99    0.68
  -4   9  -5    2.72    0.50
   4  -9   5    1.83    0.36
   5   8  -5    2.85    0.44
   5   8  -5    3.71    0.56
   5   8  -5    3.17    0.49
   5   8  -5    3.67    0.47
  -5  -8   5    3.24    0.52
   4   8  -5    2.42    0.44
   4   8  -5    2.77    0.46
   4   8  -5    2.10    0.35
   4   8  -5    1.72    0.33
  -4  -8   5    2.01    0.41
  -4  -8   5    2.49    0.29
   3   8  -5    4.94    0.57
   3   8  -5    5.28    0.45
   3   8  -5    5.57    0.50
   3   8  -5    5.00    0.41
  -3  -8   5    6.57    0.42
  -3  -8   5    6.46    0.52
  -3  -8   5    3.99    0.54
   2   8  -5    7.86    0.54
   2   8  -5    7.72    0.59
   2   8  -5    7.32    0.53
   2   8  -5    7.67    0.56
   2   8  -5    7.95    0.67
   2   8  -5    8.15    0.52
   2   8  -5    8.65    0.53
  -2  -8   5    9.84    0.52
  -2  -8   5    8.47    0.65
  -2  -8   5   10.49    0.69
   1   8  -5    8.57    0.54
   1   8  -5    9.51    0.61
   1   8  -5    8.63    0.67
   1   8  -5    7.86    0.52
   1   8  -5    8.27    0.52
   1   8  -5    8.08    0.49
   1   8  -5    7.82    0.56
  -1  -8   5    8.48    0.61
  -1  -8   5    9.49    0.51
  -1  -8   5    7.66    0.61
   0   8  -5    3.51    0.36
   0   8  -5    3.45    0.38
   0   8  -5    3.95    0.42
   0   8  -5    4.90    0.58
   0   8  -5    4.10    0.42
   0   8  -5    3.78    0.39
   0   8  -5    3.40    0.39
   0  -8   5    4.13    0.37
   0  -8   5    3.63    0.42
   0  -8   5    4.14    0.48
  -1   8  -5   37.96    1.42
  -1   8  -5   33.54    1.53
  -1   8  -5   32.83    1.46
  -1   8  -5   35.60    1.62
  -1   8  -5   34.28    1.42
  -1   8  -5   36.49    1.38
   1  -8   5   34.71    1.43
   1  -8   5   36.51    1.57
   1  -8   5   38.06    1.38
   1  -8   5   37.55    1.48
  -2   8  -5    1.33    0.30
  -2   8  -5    2.07    0.42
  -2   8  -5    1.52    0.27
  -2   8  -5    2.13    0.28
  -2   8  -5    2.16    0.40
  -2   8  -5    1.35    0.29
   2  -8   5    1.06    0.23
   2  -8   5    1.37    0.31
  -3   8  -5    1.80    0.35
  -3   8  -5    2.89    0.30
  -3   8  -5    3.03    0.49
  -3   8  -5    3.01    0.50
  -3   8  -5    2.46    0.40
   3  -8   5    2.66    0.40
  -4   8  -5    6.59    0.70
   4  -8   5    6.67    0.54
  -5   8  -5    0.89    0.39
   5  -8   5    0.38    0.25
   5   7  -5    0.62    0.25
   5   7  -5    0.50    0.24
   5   7  -5    0.60    0.29
   5   7  -5    0.49    0.28
  -5  -7   5    0.51    0.33
   4   7  -5   -0.16    0.16
   4   7  -5    0.19    0.24
   4   7  -5    0.12    0.18
   4   7  -5    0.31    0.28
  -4  -7   5    0.07    0.28
  -4  -7   5    0.15    0.14
   3   7  -5    2.07    0.37
   3   7  -5    1.77    0.26
   3   7  -5    2.41    0.33
   3   7  -5    1.57    0.28
   3   7  -5    1.88    0.32
   3   7  -5    2.66    0.43
  -3  -7   5    2.47    0.43
  -3  -7   5    2.60    0.28
  -3  -7   5    2.12    0.34
   2   7  -5    6.29    0.42
   2   7  -5    7.31    0.55
   2   7  -5    6.00    0.49
   2   7  -5    5.68    0.42
   2   7  -5    7.10    0.61
   2   7  -5    6.03    0.43
   2   7  -5    5.89    0.43
  -2  -7   5    7.28    0.41
  -2  -7   5    6.71    0.53
  -2  -7   5    6.84    0.56
   1   7  -5    3.94    0.38
   1   7  -5    4.03    0.30
   1   7  -5    4.88    0.46
   1   7  -5    3.94    0.40
   1   7  -5    3.75    0.36
   1   7  -5    4.00    0.34
   1   7  -5    3.83    0.33
   1   7  -5    5.00    0.54
  -1  -7   5    4.85    0.33
  -1  -7   5    4.44    0.46
  -1  -7   5    4.04    0.43
   0   7  -5    2.92    0.34
   0   7  -5    2.54    0.32
   0   7  -5    2.70    0.32
   0   7  -5    3.03    0.34
   0   7  -5    3.00    0.44
   0   7  -5    2.84    0.32
   0  -7   5    3.09    0.30
   0  -7   5    2.26    0.32
   0  -7   5    2.90    0.36
   0  -7   5    3.14    0.38
  -1   7  -5    0.03    0.24
  -1   7  -5    0.29    0.18
  -1   7  -5   -0.01    0.23
  -1   7  -5    0.11    0.17
  -1   7  -5    0.21    0.18
  -1   7  -5   -0.17    0.16
   1  -7   5   -0.26    0.16
   1  -7   5   -0.02    0.17
   1  -7   5    0.19    0.17
   1  -7   5   -0.14    0.17
  -2   7  -5    2.63    0.35
  -2   7  -5    3.09    0.38
  -2   7  -5    3.86    0.46
  -2   7  -5    2.95    0.32
  -2   7  -5    4.17    0.32
  -2   7  -5    3.52    0.49
   2  -7   5    3.82    0.30
   2  -7   5    3.13    0.39
   2  -7   5    3.28    0.30
  -3   7  -5   12.96    0.79
  -3   7  -5   12.55    0.83
  -3   7  -5   12.90    0.61
  -3   7  -5   11.10    0.74
   3  -7   5   12.96    0.75
  -4   7  -5    2.17    0.44
  -4   7  -5    2.27    0.45
  -4   7  -5    2.34    0.39
   4  -7   5    3.29    0.42
  -5   7  -5   21.78    1.21
   5  -7   5   22.08    1.11
   6   6  -5    1.35    0.32
   6   6  -5    1.93    0.36
   6   6  -5    1.83    0.44
  -6  -6   5    2.07    0.44
   5   6  -5    0.38    0.21
   5   6  -5    0.29    0.24
   5   6  -5    0.23    0.22
   5   6  -5    0.70    0.31
  -5  -6   5    0.04    0.27
   4   6  -5    0.23    0.26
   4   6  -5    0.03    0.25
   4   6  -5    0.16    0.19
   4   6  -5    0.23    0.24
   4   6  -5    0.15    0.18
  -4  -6   5    0.35    0.27
  -4  -6   5    0.41    0.15
   3   6  -5    1.90    0.23
   3   6  -5    1.79    0.35
   3   6  -5    1.19    0.26
   3   6  -5    2.13    0.35
   3   6  -5    2.06    0.29
   3   6  -5    2.27    0.25
   3   6  -5    1.83    0.31
  -3  -6   5    2.32    0.27
  -3  -6   5    1.92    0.31
  -3  -6   5    2.08    0.23
  -3  -6   5    1.79    0.36
   2   6  -5    4.99    0.51
   2   6  -5    5.19    0.38
   2   6  -5    5.47    0.36
   2   6  -5    4.37    0.42
   2   6  -5    5.45    0.47
   2   6  -5    5.15    0.38
   2   6  -5    5.38    0.36
  -2  -6   5    5.52    0.33
  -2  -6   5    4.57    0.48
  -2  -6   5    5.79    0.46
  -2  -6   5    5.87    0.41
   1   6  -5    3.40    0.25
   1   6  -5    3.47    0.29
   1   6  -5    3.88    0.37
   1   6  -5    3.87    0.29
   1   6  -5    3.88    0.45
   1   6  -5    4.42    0.37
   1   6  -5    4.05    0.32
   1   6  -5    3.82    0.32
  -1  -6   5    3.73    0.36
  -1  -6   5    4.11    0.40
  -1  -6   5    3.71    0.28
  -1  -6   5    2.78    0.37
  -1  -6   5    3.68    0.39
   0   6  -5    0.39    0.17
   0   6  -5    0.53    0.19
   0   6  -5    0.41    0.20
   0   6  -5    0.32    0.19
   0   6  -5    0.77    0.16
   0   6  -5    0.72    0.19
   0   6  -5    0.58    0.29
   0  -6   5    0.30    0.18
   0  -6   5    0.55    0.16
   0  -6   5    0.52    0.22
   0  -6   5    0.65    0.21
  -1   6  -5    1.91    0.30
  -1   6  -5    2.14    0.37
  -1   6  -5    2.02    0.26
  -1   6  -5    1.75    0.22
  -1   6  -5    2.09    0.29
  -1   6  -5    2.07    0.25
   1  -6   5    1.69    0.28
   1  -6   5    1.68    0.24
   1  -6   5    2.00    0.25
  -2   6  -5    0.39    0.29
  -2   6  -5    0.14    0.16
  -2   6  -5    0.36    0.21
  -2   6  -5    0.48    0.15
  -2   6  -5    0.37    0.28
   2  -6   5    0.07    0.19
   2  -6   5    0.39    0.15
   2  -6   5    0.40    0.16
  -3   6  -5    6.89    0.42
  -3   6  -5    6.06    0.59
  -3   6  -5    6.30    0.52
  -3   6  -5    7.18    0.63
   3  -6   5    7.98    0.57
  -4   6  -5    1.34    0.40
  -4   6  -5    1.97    0.36
  -4   6  -5    1.85    0.40
  -4   6  -5    1.15    0.22
   4  -6   5    1.37    0.30
  -5   6  -5   18.37    1.05
   5  -6   5   16.95    0.92
   6   5  -5   14.19    0.74
   6   5  -5   11.46    0.83
   6   5  -5   12.13    0.74
   6   5  -5   13.81    0.95
  -6  -5   5   12.23    0.83
   5   5  -5    1.60    0.30
   5   5  -5    0.51    0.29
   5   5  -5    1.30    0.28
   5   5  -5    1.49    0.27
  -5  -5   5    0.97    0.32
   4   5  -5    5.83    0.42
   4   5  -5    5.81    0.49
   4   5  -5    5.07    0.48
   4   5  -5    5.39    0.58
   4   5  -5    5.51    0.41
   4   5  -5    6.06    0.51
  -4  -5   5    6.44    0.33
  -4  -5   5    7.23    0.58
   3   5  -5   44.17    1.72
   3   5  -5   40.52    1.61
   3   5  -5   45.59    1.72
   3   5  -5   42.46    1.52
   3   5  -5   42.28    1.62
   3   5  -5   39.89    1.51
   3   5  -5   42.46    1.82
  -3  -5   5   44.17    1.42
  -3  -5   5   43.52    1.70
  -3  -5   5   41.66    1.79
  -3  -5   5   45.66    1.66
   2   5  -5   76.12    2.69
   2   5  -5   72.87    2.66
   2   5  -5   70.27    2.55
   2   5  -5   72.16    2.54
   2   5  -5   72.53    2.41
   2   5  -5   77.01    2.76
  -2  -5   5   76.03    2.47
  -2  -5   5   77.06    2.38
  -2  -5   5   71.62    2.74
  -2  -5   5   76.86    2.78
  -2  -5   5   81.21    2.82
  -2  -5   5   75.56    2.84
   1   5  -5   21.33    0.80
   1   5  -5   21.39    1.02
   1   5  -5   22.67    0.91
   1   5  -5   21.33    0.91
   1   5  -5   21.22    0.95
   1   5  -5   22.58    0.78
   1   5  -5   21.77    0.79
  -1  -5   5   20.97    0.97
  -1  -5   5   21.89    0.85
  -1  -5   5   22.82    0.81
  -1  -5   5   22.36    0.97
  -1  -5   5   21.32    0.94
   0   5  -5    0.37    0.12
   0   5  -5    0.37    0.16
   0   5  -5    0.31    0.16
   0   5  -5    0.32    0.16
   0   5  -5    0.04    0.16
   0   5  -5    0.28    0.22
   0   5  -5    0.47    0.15
   0  -5   5    0.38    0.16
   0  -5   5    0.24    0.15
   0  -5   5    0.26    0.15
   0  -5   5    0.28    0.17
  -1   5  -5   74.82    2.58
  -1   5  -5   71.72    2.78
  -1   5  -5   73.68    2.34
  -1   5  -5   68.58    2.78
  -1   5  -5   75.78    2.54
  -1   5  -5   73.06    2.50
  -1   5  -5   76.24    2.56
   1  -5   5   70.83    2.48
   1  -5   5   71.08    2.54
   1  -5   5   74.07    2.66
  -2   5  -5    8.98    0.40
  -2   5  -5    8.21    0.46
  -2   5  -5    8.16    0.39
  -2   5  -5    8.08    0.46
  -2   5  -5    8.02    0.54
  -2   5  -5    7.94    0.57
  -2   5  -5    9.32    0.63
   2  -5   5    8.53    0.41
   2  -5   5    8.91    0.40
   2  -5   5    8.53    0.55
  -3   5  -5    0.13    0.19
  -3   5  -5    0.23    0.09
  -3   5  -5    0.05    0.15
  -3   5  -5   -0.01    0.24
  -3   5  -5    0.02    0.28
   3  -5   5    0.08    0.11
   3  -5   5   -0.04    0.18
  -4   5  -5   85.85    3.06
  -4   5  -5   85.33    3.19
  -4   5  -5   83.49    2.80
  -4   5  -5   77.50    3.28
   4  -5   5   83.90    2.92
   4  -5   5   86.11    3.17
  -5   5  -5    2.90    0.46
  -5   5  -5    3.24    0.49
   5  -5   5    4.32    0.48
  -6   5  -5    4.96    0.62
   6  -5   5    4.77    0.51
   6   4  -5    1.44    0.38
   6   4  -5    1.24    0.35
   6   4  -5    1.06    0.24
   6   4  -5    1.73    0.31
  -6  -4   5    1.03    0.36
   5   4  -5   16.45    0.88
   5   4  -5   17.70    0.80
   5   4  -5   15.42    0.77
   5   4  -5   16.00    0.78
   5   4  -5   15.87    0.89
   5   4  -5   16.17    1.00
  -5  -4   5   16.55    0.96
   4   4  -5    3.35    0.38
   4   4  -5    3.22    0.40
   4   4  -5    3.98    0.44
   4   4  -5    3.72    0.31
   4   4  -5    3.80    0.46
   4   4  -5    3.19    0.34
   4   4  -5    3.63    0.38
  -4  -4   5    3.62    0.45
  -4  -4   5    4.29    0.25
  -4  -4   5    4.01    0.23
   3   4  -5    0.38    0.18
   3   4  -5    0.30    0.20
   3   4  -5    0.24    0.10
   3   4  -5    0.36    0.20
   3   4  -5    0.34    0.20
   3   4  -5    0.27    0.18
   3   4  -5    0.21    0.16
   3   4  -5    0.18    0.13
  -3  -4   5    0.28    0.13
  -3  -4   5    0.35    0.21
  -3  -4   5    0.50    0.15
  -3  -4   5    0.20    0.09
  -3  -4   5    0.17    0.19
   2   4  -5   -0.04    0.14
   2   4  -5    0.00    0.09
   2   4  -5   -0.19    0.12
   2   4  -5   -0.09    0.15
   2   4  -5   -0.07    0.12
   2   4  -5    0.12    0.19
   2   4  -5    0.01    0.08
   2   4  -5    0.10    0.16
   2   4  -5    0.04    0.07
  -2  -4   5   -0.01    0.12
  -2  -4   5    0.00    0.08
  -2  -4   5   -0.21    0.13
  -2  -4   5    0.07    0.16
  -2  -4   5   -0.22    0.10
   1   4  -5    3.99    0.36
   1   4  -5    3.87    0.23
   1   4  -5    3.53    0.32
   1   4  -5    3.56    0.34
   1   4  -5    3.85    0.26
   1   4  -5    3.70    0.39
   1   4  -5    3.85    0.23
   1   4  -5    3.57    0.22
  -1  -4   5    4.07    0.34
  -1  -4   5    3.23    0.26
  -1  -4   5    3.81    0.35
  -1  -4   5    4.25    0.31
  -1  -4   5    4.05    0.24
  -1  -4   5    3.52    0.34
   0   4  -5    3.32    0.30
   0   4  -5    3.58    0.29
   0   4  -5    3.22    0.27
   0   4  -5    2.62    0.27
   0   4  -5    2.73    0.23
   0   4  -5    2.45    0.35
   0   4  -5    3.06    0.27
   0  -4   5    2.98    0.29
   0  -4   5    3.40    0.30
   0  -4   5    2.93    0.31
   0  -4   5    2.74    0.28
  -1   4  -5    0.44    0.18
  -1   4  -5    0.50    0.21
  -1   4  -5    0.52    0.25
  -1   4  -5    0.61    0.16
  -1   4  -5    0.37    0.13
  -1   4  -5    0.48    0.14
  -1   4  -5    0.42    0.13
   1  -4   5    0.24    0.17
   1  -4   5    0.52    0.14
   1  -4   5    0.29    0.18
   1  -4   5    0.54    0.15
  -2   4  -5    0.60    0.13
  -2   4  -5    0.33    0.14
  -2   4  -5    0.58    0.24
  -2   4  -5    0.52    0.16
  -2   4  -5    0.62    0.25
   2  -4   5    0.44    0.20
   2  -4   5    0.42    0.18
   2  -4   5    0.50    0.11
   2  -4   5    0.33    0.12
  -3   4  -5  170.91    5.75
  -3   4  -5  182.36    6.28
  -3   4  -5  180.45    5.94
   3  -4   5  177.75    6.20
  -4   4  -5    9.89    0.69
  -4   4  -5   10.10    0.72
  -4   4  -5    9.63    0.53
   4  -4   5    9.36    0.61
  -5   4  -5   23.29    1.19
  -5   4  -5   24.39    0.99
   5  -4   5   24.23    1.16
  -6   4  -5    6.51    0.69
   6  -4   5    6.84    0.55
   6  -4   5    6.45    0.54
   7   3  -5   12.84    0.86
   7   3  -5   14.61    1.05
  -7  -3   5   14.11    0.92
   6   3  -5   11.31    0.64
   6   3  -5   11.00    0.74
   6   3  -5   13.10    0.90
  -6  -3   5   12.27    0.79
   5   3  -5    6.51    0.58
   5   3  -5    5.16    0.51
   5   3  -5    5.34    0.42
   5   3  -5    5.69    0.38
   5   3  -5    5.03    0.51
   5   3  -5    5.71    0.39
  -5  -3   5    6.32    0.54
   4   3  -5    2.19    0.34
   4   3  -5    2.24    0.24
   4   3  -5    2.58    0.36
   4   3  -5    1.82    0.26
   4   3  -5    1.87    0.26
   4   3  -5    2.23    0.39
   4   3  -5    2.44    0.31
  -4  -3   5    2.24    0.14
  -4  -3   5    1.99    0.35
  -4  -3   5    2.32    0.20
   3   3  -5    5.59    0.40
   3   3  -5    5.20    0.36
   3   3  -5    5.30    0.43
   3   3  -5    5.52    0.35
   3   3  -5    5.21    0.37
   3   3  -5    5.02    0.44
   3   3  -5    6.03    0.44
   3   3  -5    5.75    0.24
   3   3  -5    5.30    0.31
   3   3  -5    5.59    0.40
  -3  -3   5    6.02    0.23
  -3  -3   5    5.46    0.30
  -3  -3   5    5.93    0.45
  -3  -3   5    4.94    0.43
  -3  -3   5    5.36    0.34
   2   3  -5    0.23    0.16
   2   3  -5    0.39    0.14
   2   3  -5    0.35    0.15
   2   3  -5    0.26    0.19
   2   3  -5    0.25    0.17
   2   3  -5    0.32    0.07
   2   3  -5    0.40    0.17
   2   3  -5    0.19    0.07
  -2  -3   5    0.33    0.13
  -2  -3   5    0.32    0.12
  -2  -3   5    0.47    0.19
  -2  -3   5    0.21    0.09
  -2  -3   5    0.44    0.18
   1   3  -5    9.33    0.50
   1   3  -5    9.75    0.38
   1   3  -5    9.38    0.41
   1   3  -5   10.03    0.46
   1   3  -5    9.77    0.52
   1   3  -5    9.99    0.59
   1   3  -5    9.53    0.51
  -1  -3   5    9.52    0.51
  -1  -3   5    9.42    0.44
  -1  -3   5    9.67    0.46
  -1  -3   5    9.29    0.52
  -1  -3   5    9.74    0.54
   0   3  -5  167.68    5.44
   0   3  -5  172.10    5.73
   0   3  -5  168.45    5.61
   0   3  -5  164.54    5.05
   0   3  -5  171.99    5.86
   0   3  -5  166.33    5.44
   0  -3   5  166.84    5.72
   0  -3   5  166.70    5.26
   0  -3   5  170.66    5.43
   0  -3   5  166.14    5.56
   0  -3   5  165.09    5.74
  -1   3  -5   19.80    0.83
  -1   3  -5   19.89    0.80
  -1   3  -5   19.50    0.96
   1  -3   5   19.82    0.82
   1  -3   5   19.49    0.78
   1  -3   5   19.18    0.87
   1  -3   5   19.66    0.78
  -2   3  -5    9.86    0.50
  -2   3  -5    9.57    0.56
  -2   3  -5   10.26    0.63
   2  -3   5   10.22    0.45
   2  -3   5   10.98    0.43
   2  -3   5   10.10    0.59
   2  -3   5   11.14    0.44
   2  -3   5   10.07    0.54
  -3   3  -5   18.61    0.98
  -3   3  -5   20.31    0.92
  -3   3  -5   18.72    0.80
   3  -3   5   19.07    0.90
   3  -3   5   18.83    0.65
   3  -3   5   18.34    0.84
  -4   3  -5   59.44    2.37
  -4   3  -5   59.09    2.09
  -4   3  -5   58.55    2.24
   4  -3   5   63.29    2.43
  -5   3  -5    0.35    0.20
  -5   3  -5    0.32    0.29
  -5   3  -5    0.71    0.31
   5  -3   5    0.02    0.20
  -6   3  -5    3.17    0.51
   6  -3   5    2.79    0.42
   7   2  -5    0.57    0.30
  -7  -2   5    1.15    0.35
   6   2  -5    0.30    0.19
   6   2  -5    0.37    0.28
   6   2  -5    0.30    0.22
   6   2  -5   -0.17    0.22
  -6  -2   5    0.58    0.28
   5   2  -5    3.21    0.35
   5   2  -5    3.59    0.48
   5   2  -5    3.60    0.34
   5   2  -5    3.23    0.41
   5   2  -5    3.44    0.41
  -5  -2   5    3.62    0.26
  -5  -2   5    3.46    0.44
   4   2  -5    1.78    0.18
   4   2  -5    1.42    0.21
   4   2  -5    1.13    0.26
   4   2  -5    1.37    0.31
   4   2  -5    1.54    0.17
   4   2  -5    1.58    0.20
   4   2  -5    1.45    0.27
   4   2  -5    1.43    0.24
   4   2  -5    1.00    0.26
  -4  -2   5    1.27    0.29
  -4  -2   5    1.57    0.18
  -4  -2   5    1.75    0.19
   3   2  -5   47.33    1.87
   3   2  -5   44.26    1.55
   3   2  -5   44.46    1.64
   3   2  -5   43.34    1.73
   3   2  -5   43.11    1.69
   3   2  -5   44.70    1.49
   3   2  -5   44.08    1.59
   3   2  -5   43.64    1.60
   3   2  -5   44.89    1.64
  -3  -2   5   42.62    1.58
  -3  -2   5   42.98    1.45
  -3  -2   5   46.46    1.48
  -3  -2   5   42.87    1.68
  -3  -2   5   44.01    1.73
   2   2  -5   77.22    2.65
   2   2  -5   72.93    2.84
   2   2  -5   74.25    2.69
   2   2  -5   74.87    2.21
   2   2  -5   73.45    2.62
   2   2  -5   76.29    2.55
   2   2  -5   74.75    2.67
   2   2  -5   73.21    2.52
  -2  -2   5   70.33    2.41
  -2  -2   5   75.84    2.71
  -2  -2   5   76.91    2.40
  -2  -2   5   73.51    2.63
  -2  -2   5   74.01    2.60
   1   2  -5   21.17    0.90
   1   2  -5   21.21    0.91
   1   2  -5   20.51    0.93
   1   2  -5   22.08    0.90
   1   2  -5   21.15    0.84
   1   2  -5   20.03    0.77
   1   2  -5   23.47    0.84
   1   2  -5   21.61    0.71
  -1  -2   5   21.03    0.86
  -1  -2   5   19.98    0.87
  -1  -2   5   21.34    0.80
   0   2  -5    1.03    0.20
   0   2  -5    1.24    0.27
   0   2  -5    1.34    0.20
   0  -2   5    1.51    0.21
   0  -2   5    1.02    0.19
   0  -2   5    1.04    0.22
  -1   2  -5   21.95    0.88
  -1   2  -5   22.42    0.91
  -1   2  -5   23.22    1.03
   1  -2   5   24.22    1.02
   1  -2   5   23.26    0.93
   1  -2   5   24.52    0.93
  -2   2  -5   16.12    0.74
  -2   2  -5   15.27    0.82
  -2   2  -5   14.53    0.68
   2  -2   5   15.63    0.69
   2  -2   5   15.86    0.76
   2  -2   5   15.83    0.61
   2  -2   5   15.23    0.62
   2  -2   5   14.49    0.72
  -3   2  -5   59.28    2.09
  -3   2  -5   61.23    2.35
  -3   2  -5   61.58    2.19
  -3   2  -5   56.56    2.24
   3  -2   5   57.65    2.27
   3  -2   5   58.30    2.09
   3  -2   5   61.00    2.04
   3  -2   5   60.97    2.31
   3  -2   5   62.88    2.07
   3  -2   5   60.97    2.05
  -4   2  -5   50.23    1.84
  -4   2  -5   50.27    2.09
  -4   2  -5   51.47    1.97
   4  -2   5   46.18    1.98
   4  -2   5   48.75    1.82
   4  -2   5   52.62    2.02
   4  -2   5   52.90    1.80
  -5   2  -5    1.13    0.34
  -5   2  -5    1.49    0.36
  -5   2  -5    1.60    0.28
   5  -2   5    1.34    0.30
   5  -2   5    1.23    0.29
  -6   2  -5    4.07    0.42
  -6   2  -5    4.37    0.55
   6  -2   5    4.03    0.52
   6  -2   5    5.13    0.54
   6  -2   5    4.26    0.54
   7   1  -5    3.98    0.51
  -7  -1   5    3.30    0.47
   6   1  -5    4.19    0.49
   6   1  -5    3.87    0.36
  -6  -1   5    3.86    0.46
   5   1  -5    8.16    0.48
   5   1  -5    6.68    0.53
   5   1  -5    7.78    0.66
   5   1  -5    8.68    0.45
  -5  -1   5    8.52    0.61
  -5  -1   5    8.28    0.49
  -5  -1   5    8.21    0.46
  -5  -1   5    7.93    0.43
   4   1  -5    5.18    0.33
   4   1  -5    4.62    0.41
   4   1  -5    5.50    0.27
   4   1  -5    5.80    0.26
   4   1  -5    5.50    0.50
   4   1  -5    5.03    0.48
   4   1  -5    5.89    0.38
  -4  -1   5    5.71    0.34
  -4  -1   5    5.34    0.46
   3   1  -5   10.23    0.46
   3   1  -5   10.95    0.52
   3   1  -5   11.26    0.59
   3   1  -5   10.21    0.63
   3   1  -5   11.55    0.47
   3   1  -5   11.30    0.51
   3   1  -5   10.12    0.55
  -3  -1   5   10.87    0.48
  -3  -1   5   10.74    0.59
  -3  -1   5   11.18    0.50
   2   1  -5    0.25    0.13
   2   1  -5    0.03    0.12
   2   1  -5    0.00    0.14
   2   1  -5   -0.01    0.05
   2   1  -5   -0.01    0.14
   2   1  -5   -0.07    0.09
   2   1  -5   -0.05    0.07
  -2  -1   5   -0.12    0.13
  -2  -1   5    0.17    0.12
  -2  -1   5    0.04    0.11
   1   1  -5   17.11    0.66
   1   1  -5   15.36    0.63
   1   1  -5   15.62    0.72
   1   1  -5   16.56    0.68
   1   1  -5   16.10    0.77
  -1  -1   5   16.68    0.75
  -1  -1   5   16.71    0.73
  -1  -1   5   16.51    0.67
   0   1  -5  165.98    5.65
   0   1  -5  158.09    5.79
   0   1  -5  160.64    5.24
   0   1  -5  165.33    5.26
   0  -1   5  155.25    5.35
   0  -1   5  161.69    5.05
   0  -1   5  161.77    5.52
   0  -1   5  163.14    5.43
  -1   1  -5   25.06    1.13
  -1   1  -5   24.95    0.99
  -1   1  -5   26.53    1.01
   1  -1   5   25.33    1.06
   1  -1   5   25.18    1.02
   1  -1   5   23.93    0.93
  -2   1  -5    1.11    0.27
  -2   1  -5    0.90    0.20
  -2   1  -5    1.13    0.24
   2  -1   5    0.80    0.21
   2  -1   5    0.75    0.20
   2  -1   5    1.10    0.22
  -3   1  -5    3.26    0.42
  -3   1  -5    2.51    0.34
  -3   1  -5    2.64    0.31
  -3   1  -5    2.60    0.22
   3  -1   5    2.22    0.25
   3  -1   5    2.86    0.36
   3  -1   5    2.95    0.33
   3  -1   5    2.02    0.30
   3  -1   5    2.90    0.24
  -4   1  -5    0.61    0.28
  -4   1  -5    0.85    0.25
  -4   1  -5    0.74    0.29
   4  -1   5    0.94    0.18
   4  -1   5    1.21    0.27
   4  -1   5    0.81    0.17
   4  -1   5    0.60    0.23
   4  -1   5    0.92    0.27
  -5   1  -5    2.92    0.43
  -5   1  -5    3.96    0.51
  -5   1  -5    3.49    0.40
   5  -1   5    4.06    0.47
   5  -1   5    3.01    0.42
  -6   1  -5   16.86    0.87
  -6   1  -5   18.26    1.00
   6  -1   5   17.53    0.97
   6  -1   5   16.37    0.95
   6  -1   5   14.34    0.91
   7   0  -5    7.77    0.62
  -7   0   5   10.14    0.72
   6   0  -5    0.02    0.22
  -6   0   5   -0.39    0.19
  -6   0   5    0.07    0.14
   5   0  -5    2.75    0.38
   5   0  -5    2.56    0.27
   5   0  -5    2.34    0.25
   5   0  -5    2.65    0.37
  -5   0   5    2.54    0.38
  -5   0   5    3.02    0.30
  -5   0   5    2.77    0.29
  -5   0   5    2.43    0.32
   4   0  -5    0.24    0.20
   4   0  -5   -0.03    0.13
   4   0  -5    0.25    0.12
   4   0  -5    0.08    0.17
  -4   0   5    0.56    0.17
  -4   0   5    0.40    0.16
   3   0  -5    1.52    0.18
   3   0  -5    1.53    0.24
   3   0  -5    1.69    0.20
   3   0  -5    1.73    0.18
   3   0  -5    1.76    0.14
  -3   0   5    1.81    0.23
  -3   0   5    1.93    0.27
  -3   0   5    1.66    0.17
  -3   0   5    1.64    0.23
   2   0  -5   11.17    0.51
   2   0  -5   10.61    0.51
   2   0  -5   11.65    0.48
   2   0  -5   11.75    0.42
   2   0  -5   11.50    0.56
   2   0  -5   11.25    0.37
  -2   0   5   10.91    0.51
  -2   0   5   11.27    0.52
  -2   0   5   11.31    0.59
  -2   0   5   11.39    0.57
   1   0  -5    9.67    0.47
   1   0  -5   10.01    0.47
   1   0  -5   10.26    0.44
   1   0  -5    8.97    0.45
   1   0  -5   10.08    0.56
  -1   0   5    9.40    0.42
  -1   0   5    9.34    0.49
  -1   0   5    9.05    0.52
  -1   0   5   10.48    0.48
  -1   0   5    8.73    0.46
  -1   0   5    9.45    0.51
   0   0  -5    9.63    0.48
   0   0  -5   10.35    0.59
   0   0  -5   10.34    0.50
   0   0   5    9.88    0.48
   0   0   5    9.83    0.52
   0   0   5    9.30    0.53
   0   0   5    9.94    0.48
  -1   0  -5    0.60    0.18
  -1   0  -5    0.24    0.19
  -1   0  -5    0.62    0.17
   1   0   5    0.22    0.14
   1   0   5    0.87    0.18
   1   0   5    0.49    0.18
   1   0   5    0.53    0.16
  -2   0  -5    3.83    0.36
  -2   0  -5    4.97    0.40
  -2   0  -5    3.73    0.43
   2   0   5    4.65    0.41
   2   0   5    4.44    0.38
   2   0   5    4.32    0.33
   2   0   5    4.02    0.32
  -3   0  -5   17.95    0.85
  -3   0  -5   16.38    0.80
  -3   0  -5   16.89    0.93
   3   0   5   15.26    0.82
   3   0   5   16.30    0.74
   3   0   5   15.73    0.85
   3   0   5   16.62    0.74
   3   0   5   17.09    0.71
  -4   0  -5   27.63    1.18
  -4   0  -5   23.87    1.11
  -4   0  -5   27.97    1.31
   4   0   5   27.52    1.06
   4   0   5   27.90    1.07
   4   0   5   26.44    1.10
   4   0   5   27.13    1.26
   4   0   5   25.04    1.23
  -5   0  -5    0.58    0.22
  -5   0  -5    0.16    0.26
  -5   0  -5    0.01    0.25
   5   0   5    0.54    0.26
   5   0   5    0.39    0.22
  -6   0  -5    0.34    0.29
  -6   0  -5    0.25    0.23
   6   0   5   -0.03    0.23
   7  -1  -5    0.12    0.26
  -7   1   5    0.33    0.23
   6  -1  -5    5.98    0.51
  -6   1   5    6.52    0.57
  -6   1   5    6.75    0.45
  -6   1   5    7.47    0.56
   5  -1  -5   22.73    1.06
   5  -1  -5   23.11    0.89
   5  -1  -5   22.89    1.08
  -5   1   5   23.82    0.99
  -5   1   5   22.49    0.96
   4  -1  -5    4.72    0.39
   4  -1  -5    4.67    0.31
   4  -1  -5    4.38    0.25
  -4   1   5    4.92    0.26
  -4   1   5    4.56    0.37
  -4   1   5    5.46    0.39
   3  -1  -5   29.25    1.06
   3  -1  -5   29.97    1.11
   3  -1  -5   27.52    1.05
   3  -1  -5   27.69    1.18
   3  -1  -5   29.87    1.11
  -3   1   5   27.82    1.19
  -3   1   5   27.58    1.15
  -3   1   5   29.69    1.08
  -3   1   5   28.62    1.09
   2  -1  -5   44.72    1.67
   2  -1  -5   45.15    1.40
   2  -1  -5   45.70    1.58
   2  -1  -5   45.48    1.70
   2  -1  -5   46.67    1.70
  -2   1   5   47.73    1.72
  -2   1   5   44.46    1.73
  -2   1   5   45.50    1.60
  -2   1   5   45.93    1.69
   1  -1  -5   69.01    2.40
   1  -1  -5   67.54    2.54
   1  -1  -5   68.72    2.34
   1  -1  -5   72.27    2.56
  -1   1   5   65.70    2.31
  -1   1   5   63.68    2.33
  -1   1   5   61.57    2.40
  -1   1   5   66.37    2.24
   0  -1  -5   49.93    1.73
   0  -1  -5   48.93    1.89
   0  -1  -5   49.26    1.92
   0  -1  -5   48.09    1.73
   0   1   5   47.07    1.63
   0   1   5   47.41    1.74
   0   1   5   48.08    1.81
   0   1   5   46.54    1.74
   0   1   5   48.91    1.77
  -1  -1  -5   45.97    1.70
  -1  -1  -5   49.02    1.70
  -1  -1  -5   46.11    1.88
   1   1   5   46.85    1.66
   1   1   5   48.08    1.82
   1   1   5   48.86    1.79
   1   1   5   48.97    1.87
  -2  -1  -5    1.03    0.23
  -2  -1  -5    1.27    0.29
  -2  -1  -5    0.93    0.23
   2   1   5    0.90    0.22
   2   1   5    1.53    0.27
   2   1   5    1.25    0.21
   2   1   5    1.39    0.23
   2   1   5    0.84    0.23
  -3  -1  -5   61.09    2.45
  -3  -1  -5   61.48    2.22
   3   1   5   62.13    2.19
   3   1   5   61.52    2.08
   3   1   5   61.21    2.37
   3   1   5   56.19    2.32
   3   1   5   62.01    2.19
  -4  -1  -5   46.83    1.84
  -4  -1  -5   48.96    1.80
  -4  -1  -5   47.26    2.04
   4   1   5   43.30    1.62
   4   1   5   45.99    1.67
   4   1   5   41.46    1.85
   4   1   5   48.14    1.70
   4   1   5   44.75    1.89
  -5  -1  -5   17.48    0.89
  -5  -1  -5   15.51    0.99
   5   1   5   18.10    0.82
   5   1   5   15.64    0.95
   6  -2  -5   -0.18    0.21
  -6   2   5    0.03    0.24
  -6   2   5    0.23    0.18
   5  -2  -5   12.37    0.70
  -5   2   5   11.96    0.64
  -5   2   5   12.10    0.65
   4  -2  -5   25.01    0.87
   4  -2  -5   21.93    1.04
   4  -2  -5   24.22    0.89
  -4   2   5   23.29    0.98
  -4   2   5   23.48    1.02
  -4   2   5   23.23    0.95
   3  -2  -5    0.72    0.17
   3  -2  -5    0.71    0.16
   3  -2  -5    0.73    0.16
   3  -2  -5    0.65    0.15
   3  -2  -5    0.74    0.15
   3  -2  -5    0.80    0.11
  -3   2   5    0.67    0.20
  -3   2   5    0.99    0.16
  -3   2   5    0.62    0.15
  -3   2   5    0.70    0.20
   2  -2  -5    1.76    0.21
   2  -2  -5    2.32    0.25
   2  -2  -5    1.65    0.22
   2  -2  -5    1.59    0.25
   2  -2  -5    2.40    0.24
   2  -2  -5    1.68    0.15
  -2   2   5    1.99    0.25
  -2   2   5    1.99    0.26
  -2   2   5    1.53    0.25
  -2   2   5    2.04    0.16
   1  -2  -5   11.86    0.57
   1  -2  -5   11.59    0.65
   1  -2  -5   12.33    0.54
   1  -2  -5   12.80    0.60
  -1   2   5   11.50    0.62
  -1   2   5   11.55    0.53
  -1   2   5   12.16    0.57
   0  -2  -5  186.79    6.38
   0  -2  -5  185.27    6.57
   0  -2  -5  175.76    5.93
   0  -2  -5  183.69    5.96
   0   2   5  166.50    6.21
   0   2   5  174.38    5.92
   0   2   5  173.11    5.50
   0   2   5  174.13    5.80
   0   2   5  180.06    6.02
  -1  -2  -5    1.86    0.28
  -1  -2  -5    1.83    0.27
  -1  -2  -5    2.19    0.35
   1   2   5    1.67    0.26
   1   2   5    1.91    0.31
   1   2   5    2.03    0.29
   1   2   5    1.72    0.23
  -2  -2  -5    5.49    0.57
  -2  -2  -5    5.68    0.44
   2   2   5    5.66    0.49
   2   2   5    5.07    0.37
   2   2   5    5.37    0.41
   2   2   5    4.91    0.44
   2   2   5    6.60    0.45
  -3  -2  -5    7.61    0.52
  -3  -2  -5    8.98    0.66
  -3  -2  -5    8.69    0.54
   3   2   5    7.92    0.47
   3   2   5    8.16    0.51
   3   2   5    6.74    0.55
   3   2   5    7.80    0.50
  -4  -2  -5   11.58    0.66
  -4  -2  -5   10.87    0.63
  -4  -2  -5   11.43    0.79
   4   2   5   10.15    0.57
   4   2   5   10.00    0.60
   4   2   5    9.49    0.67
   4   2   5   10.57    0.71
   4   2   5    9.66    0.55
  -5  -2  -5    1.67    0.34
  -5  -2  -5    1.92    0.43
   5   2   5    1.60    0.38
   5   2   5    1.69    0.37
   6  -3  -5    2.47    0.38
  -6   3   5    1.85    0.31
  -6   3   5    2.71    0.43
   5  -3  -5   -0.20    0.16
  -5   3   5   -0.01    0.16
  -5   3   5   -0.05    0.17
   4  -3  -5    0.60    0.14
   4  -3  -5    0.18    0.18
  -4   3   5    0.55    0.17
  -4   3   5    0.58    0.20
  -4   3   5    0.08    0.18
   3  -3  -5    2.92    0.30
   3  -3  -5    2.49    0.23
   3  -3  -5    2.08    0.19
   3  -3  -5    2.43    0.29
   3  -3  -5    2.79    0.29
  -3   3   5    1.98    0.29
  -3   3   5    2.46    0.32
  -3   3   5    2.62    0.28
   2  -3  -5    4.76    0.26
   2  -3  -5    3.99    0.40
   2  -3  -5    4.68    0.35
   2  -3  -5    4.15    0.31
   2  -3  -5    4.81    0.38
  -2   3   5    4.64    0.38
  -2   3   5    4.12    0.38
  -2   3   5    4.76    0.29
  -2   3   5    4.04    0.41
   1  -3  -5   11.50    0.61
   1  -3  -5   11.57    0.49
   1  -3  -5   12.84    0.63
   1  -3  -5   10.69    0.55
   1  -3  -5   11.47    0.67
  -1   3   5   11.14    0.60
  -1   3   5   12.60    0.61
  -1   3   5   11.59    0.56
  -1   3   5   11.92    0.66
  -1   3   5   11.37    0.64
   0  -3  -5    0.18    0.17
   0  -3  -5    0.63    0.24
   0   3   5    0.24    0.15
   0   3   5    0.58    0.18
   0   3   5    0.16    0.19
   0   3   5    0.59    0.20
  -1  -3  -5   77.37    2.95
  -1  -3  -5   76.25    2.66
   1   3   5   72.77    2.77
   1   3   5   77.74    2.87
   1   3   5   74.55    2.73
   1   3   5   75.27    2.53
   1   3   5   78.06    2.74
  -2  -3  -5   40.73    1.81
  -2  -3  -5   41.50    1.66
  -2  -3  -5   42.19    1.58
   2   3   5   40.63    1.70
   2   3   5   40.72    1.56
   2   3   5   40.98    1.49
   2   3   5   43.24    1.65
   2   3   5   42.95    1.64
   2   3   5   40.09    1.75
  -3  -3  -5   35.14    1.67
  -3  -3  -5   36.75    1.51
  -3  -3  -5   37.54    1.47
   3   3   5   34.30    1.31
   3   3   5   37.13    1.46
   3   3   5   33.79    1.55
   3   3   5   36.22    1.47
   3   3   5   36.94    1.63
  -4  -3  -5    1.62    0.39
  -4  -3  -5    1.35    0.29
  -4  -3  -5    1.63    0.30
   4   3   5    1.70    0.27
   4   3   5    1.85    0.38
   4   3   5    1.59    0.33
   4   3   5    0.95    0.29
  -5  -3  -5    9.49    0.64
  -5  -3  -5    9.62    0.78
   5   3   5    8.32    0.68
   5   3   5    9.07    0.72
  -6   4   5    3.62    0.43
  -6   4   5    4.55    0.53
   5  -4  -5    2.47    0.34
  -5   4   5    1.95    0.33
  -5   4   5    2.00    0.32
   4  -4  -5    9.98    0.61
   4  -4  -5   11.70    0.55
  -4   4   5    9.99    0.64
  -4   4   5   10.77    0.63
  -4   4   5   10.10    0.57
   3  -4  -5    0.02    0.10
   3  -4  -5    0.20    0.18
   3  -4  -5    0.09    0.12
  -3   4   5    0.09    0.19
  -3   4   5    0.25    0.17
  -3   4   5    0.03    0.16
   2  -4  -5    9.68    0.50
   2  -4  -5    9.89    0.45
   2  -4  -5   10.24    0.61
  -2   4   5   10.17    0.59
  -2   4   5    9.15    0.56
  -2   4   5   10.44    0.63
  -2   4   5    8.56    0.54
  -2   4   5    9.80    0.50
   1  -4  -5   38.62    1.57
   1  -4  -5   34.84    1.37
   1  -4  -5   36.69    1.26
  -1   4   5   37.26    1.45
  -1   4   5   38.15    1.56
  -1   4   5   36.32    1.53
  -1   4   5   37.16    1.42
   0  -4  -5    2.70    0.39
   0   4   5    3.03    0.29
   0   4   5    2.98    0.35
   0   4   5    3.22    0.39
   0   4   5    2.77    0.32
   0   4   5    3.73    0.43
  -1  -4  -5    8.77    0.65
   1   4   5    7.72    0.55
   1   4   5    7.92    0.59
   1   4   5    8.82    0.58
   1   4   5    8.63    0.50
   1   4   5    8.62    0.56
  -2  -4  -5   40.25    1.83
  -2  -4  -5   43.56    1.62
  -2  -4  -5   41.07    1.70
   2   4   5   39.82    1.49
   2   4   5   40.91    1.66
   2   4   5   41.56    1.67
   2   4   5   41.61    1.78
   2   4   5   40.16    1.71
  -3  -4  -5    4.39    0.55
  -3  -4  -5    4.09    0.45
  -3  -4  -5    4.00    0.42
   3   4   5    4.55    0.46
   3   4   5    3.53    0.51
   3   4   5    4.53    0.48
   3   4   5    3.43    0.45
   3   4   5    3.75    0.36
  -4  -4  -5    2.45    0.37
  -4  -4  -5    2.47    0.49
  -4  -4  -5    2.29    0.36
   4   4   5    2.83    0.47
   4   4   5    1.54    0.35
  -5   5   5    8.06    0.58
  -5   5   5    7.46    0.56
   4  -5  -5    2.11    0.27
  -4   5   5    1.46    0.30
  -4   5   5    1.84    0.29
  -4   5   5    2.05    0.34
   3  -5  -5    4.17    0.30
   3  -5  -5    4.40    0.42
  -3   5   5    3.69    0.40
  -3   5   5    3.02    0.38
  -3   5   5    4.07    0.46
   2  -5  -5    1.36    0.20
   2  -5  -5    1.25    0.29
   2  -5  -5    0.61    0.19
  -2   5   5    1.02    0.28
  -2   5   5    0.96    0.24
  -2   5   5    0.99    0.20
  -2   5   5    1.58    0.30
  -2   5   5    1.00    0.25
   1  -5  -5    2.36    0.37
   1  -5  -5    2.88    0.32
   1  -5  -5    2.32    0.26
  -1   5   5    2.32    0.37
  -1   5   5    2.39    0.37
  -1   5   5    1.71    0.29
  -1   5   5    2.38    0.31
   0  -5  -5    1.68    0.34
   0  -5  -5    1.88    0.25
   0   5   5    1.97    0.35
   0   5   5    1.22    0.27
   0   5   5    2.38    0.37
   0   5   5    1.07    0.27
   0   5   5    1.53    0.26
  -1  -5  -5   53.33    2.13
  -1  -5  -5   53.27    2.23
   1   5   5   54.13    2.17
   1   5   5   55.63    2.14
   1   5   5   57.24    2.16
   1   5   5   54.66    2.25
   1   5   5   51.86    1.93
  -2  -5  -5    4.98    0.50
  -2  -5  -5    4.29    0.56
   2   5   5    4.91    0.39
   2   5   5    5.06    0.58
   2   5   5    4.49    0.50
   2   5   5    4.80    0.51
  -3  -5  -5   10.69    0.64
  -3  -5  -5   10.02    0.68
  -3  -5  -5    9.42    0.76
   3   5   5   10.08    0.66
   3   5   5   10.75    0.56
   3   5   5    9.93    0.75
   3   5   5    8.04    0.66
  -4  -5  -5    8.10    0.58
  -4  -5  -5    7.18    0.77
  -4  -5  -5    8.07    0.62
   4   5   5    8.14    0.80
   4   5   5    7.67    0.76
  -5   6   5    5.58    0.55
   4  -6  -5    5.95    0.45
  -4   6   5    4.30    0.47
   3  -6  -5    5.18    0.46
  -3   6   5    4.65    0.43
  -3   6   5    4.99    0.50
   2  -6  -5   11.34    0.71
   2  -6  -5   10.36    0.56
   2  -6  -5   11.05    0.55
  -2   6   5    9.47    0.63
  -2   6   5   10.03    0.66
  -2   6   5   11.35    0.73
   1  -6  -5   -0.09    0.21
   1  -6  -5    0.06    0.19
   1  -6  -5    0.56    0.17
  -1   6   5    0.53    0.22
  -1   6   5    0.10    0.17
  -1   6   5   -0.22    0.18
  -1   6   5    0.34    0.25
   0  -6  -5   -0.22    0.19
   0  -6  -5    0.04    0.14
   0   6   5   -0.23    0.20
   0   6   5   -0.12    0.17
   0   6   5   -0.23    0.16
  -1  -6  -5    1.54    0.38
  -1  -6  -5    1.09    0.31
   1   6   5    1.76    0.34
   1   6   5    1.63    0.37
   1   6   5    1.20    0.26
  -2  -6  -5    9.34    0.68
  -2  -6  -5    8.59    0.72
   2   6   5    7.51    0.63
   2   6   5    9.12    0.72
   2   6   5    8.94    0.55
  -3  -6  -5    1.76    0.38
  -3  -6  -5    1.02    0.37
   3   6   5    2.03    0.43
   3   6   5    1.56    0.36
  -4   7   5    5.87    0.58
   3  -7  -5    0.51    0.24
  -3   7   5    0.35    0.22
  -3   7   5    0.17    0.19
   2  -7  -5    7.38    0.60
  -2   7   5    7.94    0.58
  -2   7   5    7.63    0.58
   1  -7  -5    2.01    0.40
   1  -7  -5    2.34    0.33
  -1   7   5    1.91    0.32
  -1   7   5    2.73    0.38
  -1   7   5    2.03    0.41
   0  -7  -5    0.85    0.30
   0   7   5    0.64    0.25
   0   7   5    0.78    0.30
   0   7   5    0.92    0.25
  -1  -7  -5    3.01    0.52
   1   7   5    2.66    0.43
   1   7   5    3.75    0.56
   1   7   5    3.98    0.42
  -2  -7  -5   18.97    1.06
  -2  -7  -5   18.54    1.18
   2   7   5   18.13    0.87
   2   7   5   18.87    1.08
   2   7   5   20.91    1.19
   1  -8  -5    0.15    0.25
  -1   8   5    0.42    0.24
   1  11  -6    0.75    0.28
   1  11  -6    1.20    0.43
   1  11  -6    0.58    0.27
  -1 -11   6    0.83    0.32
  -1 -11   6    0.81    0.34
   0  11  -6    0.66    0.27
   0  11  -6    0.69    0.39
   0 -11   6    0.69    0.31
   0 -11   6    0.82    0.31
  -1  11  -6    2.37    0.56
  -1  11  -6    2.24    0.36
  -1  11  -6    2.10    0.34
  -1  11  -6    2.02    0.41
   1 -11   6    2.58    0.46
   1 -11   6    1.93    0.38
   3  10  -6    2.55    0.41
   3  10  -6    2.51    0.49
   3  10  -6    3.13    0.43
  -3 -10   6    2.57    0.45
  -3 -10   6    2.87    0.50
   2  10  -6    4.31    0.64
   2  10  -6    5.48    0.48
   2  10  -6    4.52    0.50
   2  10  -6    5.66    0.48
   2  10  -6    5.12    0.53
  -2 -10   6    6.26    0.65
  -2 -10   6    4.91    0.59
   1  10  -6    0.36    0.21
   1  10  -6    0.39    0.21
   1  10  -6    0.64    0.26
   1  10  -6    0.37    0.33
   1  10  -6    0.44    0.24
  -1 -10   6    0.51    0.26
  -1 -10   6    0.20    0.28
   0  10  -6    0.45    0.22
   0  10  -6    0.61    0.24
   0  10  -6    0.82    0.38
   0  10  -6    0.53    0.24
   0 -10   6    0.83    0.30
   0 -10   6    0.34    0.27
  -1  10  -6    0.66    0.26
  -1  10  -6    0.18    0.32
  -1  10  -6    0.57    0.23
  -1  10  -6    0.59    0.31
  -1  10  -6    0.32    0.23
   1 -10   6    0.76    0.27
   1 -10   6    0.23    0.23
  -2  10  -6   -0.08    0.18
  -2  10  -6   -0.13    0.19
  -2  10  -6   -0.43    0.27
  -2  10  -6   -0.22    0.28
   2 -10   6   -0.08    0.20
  -3  10  -6    7.50    0.82
  -3  10  -6    8.71    0.80
   3 -10   6    7.36    0.63
   4   9  -6    2.04    0.37
   4   9  -6    2.31    0.47
   4   9  -6    2.26    0.44
   4   9  -6    1.94    0.36
  -4  -9   6    2.05    0.46
   3   9  -6   14.56    0.83
   3   9  -6   15.32    0.98
   3   9  -6   14.27    0.81
  -3  -9   6   16.08    0.93
  -3  -9   6   15.81    0.73
  -3  -9   6   13.79    0.93
   2   9  -6    0.34    0.20
   2   9  -6    0.46    0.24
   2   9  -6    0.22    0.19
   2   9  -6   -0.22    0.15
   2   9  -6    0.09    0.19
   2   9  -6   -0.16    0.27
  -2  -9   6    0.12    0.17
  -2  -9   6   -0.08    0.26
  -2  -9   6    0.27    0.22
   1   9  -6    3.71    0.45
   1   9  -6    3.72    0.46
   1   9  -6    3.39    0.53
   1   9  -6    3.37    0.39
   1   9  -6    3.52    0.39
   1   9  -6    2.80    0.37
  -1  -9   6    3.40    0.46
  -1  -9   6    4.23    0.40
  -1  -9   6    3.02    0.45
   0   9  -6    3.32    0.40
   0   9  -6    3.80    0.41
   0   9  -6    3.96    0.55
   0   9  -6    3.82    0.39
   0   9  -6    4.02    0.43
   0   9  -6    4.95    0.49
   0   9  -6    2.95    0.39
   0  -9   6    3.57    0.45
   0  -9   6    3.93    0.48
   0  -9   6    4.90    0.43
  -1   9  -6   22.36    0.98
  -1   9  -6   21.64    1.20
  -1   9  -6   19.60    1.02
  -1   9  -6   17.97    1.02
  -1   9  -6   18.30    0.93
  -1   9  -6   21.78    1.01
   1  -9   6   20.41    1.08
   1  -9   6   20.84    0.98
  -2   9  -6    0.17    0.20
  -2   9  -6    0.11    0.20
  -2   9  -6    0.12    0.31
  -2   9  -6    0.50    0.33
   2  -9   6    0.00    0.20
  -3   9  -6   -0.25    0.30
  -3   9  -6   -0.25    0.31
   3  -9   6    0.21    0.23
  -4   9  -6    1.21    0.42
   4  -9   6    0.31    0.25
   5   8  -6   -0.06    0.26
   5   8  -6   -0.06    0.21
   5   8  -6    0.25    0.30
   5   8  -6    0.29    0.25
  -5  -8   6    0.13    0.32
   4   8  -6    1.74    0.33
   4   8  -6    1.97    0.42
   4   8  -6    1.32    0.39
   4   8  -6    2.09    0.35
  -4  -8   6    1.49    0.39
   3   8  -6    1.31    0.25
   3   8  -6    0.79    0.29
   3   8  -6    1.10    0.26
   3   8  -6    1.02    0.36
   3   8  -6    1.10    0.27
  -3  -8   6    1.05    0.29
  -3  -8   6    1.40    0.24
  -3  -8   6    1.12    0.34
   2   8  -6   12.77    0.68
   2   8  -6   13.49    0.80
   2   8  -6   12.07    0.74
   2   8  -6   11.89    0.84
   2   8  -6   12.22    0.70
   2   8  -6   12.01    0.66
  -2  -8   6   12.46    0.82
  -2  -8   6   14.70    0.66
  -2  -8   6   13.61    0.81
   1   8  -6    2.56    0.38
   1   8  -6    2.06    0.30
   1   8  -6    2.38    0.31
   1   8  -6    2.11    0.35
   1   8  -6    2.34    0.28
   1   8  -6    2.38    0.32
   1   8  -6    1.83    0.41
  -1  -8   6    2.68    0.31
  -1  -8   6    2.05    0.35
  -1  -8   6    2.04    0.37
   0   8  -6    3.45    0.51
   0   8  -6    4.13    0.44
   0   8  -6    3.69    0.42
   0   8  -6    4.22    0.42
   0   8  -6    3.45    0.35
   0   8  -6    4.03    0.40
   0   8  -6    3.89    0.41
   0  -8   6    4.28    0.47
   0  -8   6    3.34    0.41
   0  -8   6    4.59    0.40
  -1   8  -6    0.67    0.22
  -1   8  -6    0.67    0.36
  -1   8  -6    0.37    0.20
  -1   8  -6    0.17    0.26
  -1   8  -6    0.33    0.21
  -1   8  -6    0.16    0.20
   1  -8   6    0.16    0.22
   1  -8   6    0.28    0.20
   1  -8   6    0.69    0.27
  -2   8  -6    0.50    0.22
  -2   8  -6    0.44    0.29
  -2   8  -6    0.67    0.34
  -2   8  -6    0.43    0.21
  -2   8  -6    0.35    0.22
   2  -8   6    0.65    0.19
   2  -8   6    0.55    0.24
  -3   8  -6    7.35    0.62
  -3   8  -6    7.49    0.48
  -3   8  -6    7.85    0.77
  -3   8  -6    6.76    0.59
   3  -8   6    6.88    0.56
  -4   8  -6   20.15    1.21
  -4   8  -6   21.97    1.17
   4  -8   6   18.78    1.02
   5   7  -6    0.18    0.27
   5   7  -6   -0.04    0.20
   5   7  -6    0.01    0.25
   5   7  -6   -0.02    0.19
  -5  -7   6    0.35    0.29
   4   7  -6    0.15    0.19
   4   7  -6   -0.11    0.23
   4   7  -6   -0.20    0.24
   4   7  -6    0.03    0.20
  -4  -7   6    0.22    0.29
   3   7  -6    5.17    0.37
   3   7  -6    4.06    0.42
   3   7  -6    4.48    0.52
   3   7  -6    5.08    0.49
   3   7  -6    4.81    0.53
   3   7  -6    4.66    0.44
   3   7  -6    5.25    0.37
  -3  -7   6    5.48    0.46
  -3  -7   6    4.96    0.54
  -3  -7   6    5.45    0.35
   2   7  -6    1.66    0.26
   2   7  -6    1.91    0.28
   2   7  -6    1.67    0.32
   2   7  -6    2.12    0.40
   2   7  -6    1.89    0.28
   2   7  -6    1.87    0.34
   2   7  -6    1.62    0.24
  -2  -7   6    2.03    0.30
  -2  -7   6    2.28    0.26
  -2  -7   6    1.79    0.32
  -2  -7   6    1.26    0.34
   1   7  -6   33.33    1.27
   1   7  -6   34.32    1.20
   1   7  -6   34.37    1.23
   1   7  -6   32.39    1.52
   1   7  -6   35.18    1.38
   1   7  -6   34.16    1.40
   1   7  -6   31.86    1.36
   1   7  -6   35.03    1.43
  -1  -7   6   36.66    1.54
  -1  -7   6   34.82    1.53
  -1  -7   6   38.09    1.31
   0   7  -6    4.05    0.41
   0   7  -6    4.13    0.39
   0   7  -6    3.98    0.37
   0   7  -6    3.66    0.39
   0   7  -6    3.97    0.41
   0   7  -6    4.36    0.53
   0  -7   6    4.74    0.47
   0  -7   6    4.44    0.44
   0  -7   6    4.39    0.41
   0  -7   6    3.97    0.36
  -1   7  -6    0.35    0.30
  -1   7  -6    0.26    0.20
  -1   7  -6    0.52    0.22
  -1   7  -6    0.44    0.19
  -1   7  -6    0.35    0.20
  -1   7  -6    0.42    0.26
   1  -7   6    0.44    0.21
   1  -7   6    0.22    0.18
   1  -7   6    0.47    0.21
  -2   7  -6   16.94    0.90
  -2   7  -6   14.79    0.88
  -2   7  -6   16.64    0.77
  -2   7  -6   17.96    0.74
  -2   7  -6   17.26    1.01
   2  -7   6   17.06    0.73
   2  -7   6   15.81    0.88
  -3   7  -6    8.60    0.67
  -3   7  -6    8.21    0.50
  -3   7  -6    6.28    0.55
  -3   7  -6    8.61    0.72
   3  -7   6    7.40    0.58
  -4   7  -6    1.88    0.42
  -4   7  -6    1.91    0.44
   4  -7   6    1.80    0.34
  -5   7  -6    1.87    0.47
   5  -7   6    1.13    0.32
   6   6  -6    0.37    0.24
   6   6  -6   -0.40    0.26
   6   6  -6    0.18    0.25
   6   6  -6    0.25    0.29
  -6  -6   6    0.43    0.34
   5   6  -6   -0.13    0.24
   5   6  -6    0.80    0.28
   5   6  -6    0.27    0.22
   5   6  -6    0.30    0.21
   5   6  -6    0.67    0.32
  -5  -6   6   -0.11    0.29
   4   6  -6   15.31    0.82
   4   6  -6   16.52    0.97
   4   6  -6   13.37    0.74
   4   6  -6   14.05    0.74
   4   6  -6   15.03    0.84
   4   6  -6   14.84    0.80
  -4  -6   6   14.76    0.91
   3   6  -6   29.07    1.17
   3   6  -6   25.80    1.20
   3   6  -6   26.09    1.12
   3   6  -6   28.39    1.30
   3   6  -6   29.14    1.13
   3   6  -6   30.41    1.37
   3   6  -6   27.56    1.09
   3   6  -6   26.83    1.16
   3   6  -6   29.99    1.30
  -3  -6   6   28.06    1.35
  -3  -6   6   28.50    1.25
  -3  -6   6   30.42    1.03
   2   6  -6   31.42    1.33
   2   6  -6   34.53    1.41
   2   6  -6   34.59    1.29
   2   6  -6   29.55    1.23
   2   6  -6   35.58    1.49
   2   6  -6   33.73    1.24
   2   6  -6   33.44    1.32
   2   6  -6   32.89    1.13
  -2  -6   6   35.36    1.19
  -2  -6   6   32.86    1.42
  -2  -6   6   34.59    1.49
   1   6  -6   13.40    0.69
   1   6  -6   12.89    0.54
   1   6  -6   12.14    0.64
   1   6  -6   12.38    0.66
   1   6  -6   13.13    0.56
   1   6  -6   12.61    0.49
   1   6  -6   12.40    0.64
   1   6  -6   13.17    0.80
  -1  -6   6   13.09    0.72
  -1  -6   6   14.03    0.59
  -1  -6   6   12.51    0.72
  -1  -6   6   12.08    0.69
   0   6  -6    1.66    0.37
   0   6  -6    1.80    0.28
   0   6  -6    1.79    0.22
   0   6  -6    1.80    0.27
   0   6  -6    1.92    0.28
   0   6  -6    2.24    0.28
   0  -6   6    1.30    0.27
   0  -6   6    1.51    0.27
   0  -6   6    1.34    0.25
  -1   6  -6    0.65    0.21
  -1   6  -6    0.81    0.26
  -1   6  -6    0.67    0.20
  -1   6  -6    0.93    0.32
  -1   6  -6    0.72    0.20
  -1   6  -6    0.68    0.21
   1  -6   6    0.72    0.21
   1  -6   6    0.53    0.22
   1  -6   6    1.14    0.22
  -2   6  -6    0.07    0.17
  -2   6  -6   -0.02    0.14
  -2   6  -6   -0.10    0.19
  -2   6  -6    0.02    0.14
  -2   6  -6   -0.18    0.24
  -2   6  -6    0.09    0.27
   2  -6   6    0.02    0.18
   2  -6   6   -0.03    0.15
   2  -6   6   -0.10    0.14
  -3   6  -6   31.18    1.54
  -3   6  -6   35.37    1.61
  -3   6  -6   36.05    1.48
  -3   6  -6   33.94    1.30
   3  -6   6   35.04    1.52
  -4   6  -6    8.17    0.67
  -4   6  -6    8.61    0.51
  -4   6  -6    9.99    0.72
  -4   6  -6    9.69    0.74
   4  -6   6    9.29    0.65
  -5   6  -6    9.49    0.76
   5  -6   6   10.10    0.69
   6   5  -6    1.70    0.31
   6   5  -6    2.07    0.35
   6   5  -6    1.80    0.38
   6   5  -6    1.47    0.42
  -6  -5   6    1.87    0.44
   5   5  -6    4.78    0.46
   5   5  -6    4.87    0.52
   5   5  -6    5.27    0.46
   5   5  -6    7.09    0.70
   5   5  -6    5.00    0.41
  -5  -5   6    5.23    0.59
   4   5  -6    0.08    0.19
   4   5  -6    0.31    0.17
   4   5  -6    0.29    0.25
   4   5  -6    0.73    0.26
   4   5  -6    0.07    0.24
   4   5  -6    0.44    0.25
   4   5  -6    0.43    0.23
  -4  -5   6    0.41    0.28
   3   5  -6    1.90    0.18
   3   5  -6    1.91    0.33
   3   5  -6    1.55    0.29
   3   5  -6    1.73    0.24
   3   5  -6    1.56    0.19
   3   5  -6    1.99    0.37
   3   5  -6    2.61    0.37
   3   5  -6    1.52    0.26
   3   5  -6    1.41    0.25
  -3  -5   6    1.61    0.33
  -3  -5   6    2.04    0.28
  -3  -5   6    1.94    0.23
  -3  -5   6    1.69    0.18
   2   5  -6   -0.13    0.16
   2   5  -6   -0.01    0.09
   2   5  -6   -0.14    0.10
   2   5  -6   -0.23    0.19
   2   5  -6   -0.03    0.12
   2   5  -6   -0.12    0.13
   2   5  -6   -0.24    0.17
   2   5  -6   -0.10    0.18
   2   5  -6    0.01    0.15
  -2  -5   6   -0.07    0.14
  -2  -5   6   -0.07    0.15
  -2  -5   6    0.16    0.11
  -2  -5   6   -0.32    0.16
   1   5  -6    0.87    0.15
   1   5  -6    0.94    0.21
   1   5  -6    0.91    0.22
   1   5  -6    1.00    0.27
   1   5  -6    1.04    0.17
   1   5  -6    1.24    0.25
   1   5  -6    1.04    0.19
  -1  -5   6    1.18    0.25
  -1  -5   6    0.92    0.21
  -1  -5   6    0.59    0.19
  -1  -5   6    1.16    0.24
   0   5  -6    4.87    0.37
   0   5  -6    3.75    0.32
   0   5  -6    3.86    0.33
   0   5  -6    4.26    0.29
   0   5  -6    4.01    0.35
   0   5  -6    4.42    0.35
   0   5  -6    4.29    0.47
   0  -5   6    3.95    0.34
   0  -5   6    4.05    0.36
   0  -5   6    4.05    0.40
   0  -5   6    3.80    0.36
  -1   5  -6   18.14    0.92
  -1   5  -6   19.87    0.87
  -1   5  -6   18.45    0.82
  -1   5  -6   18.56    0.77
  -1   5  -6   19.19    0.82
  -1   5  -6   20.17    0.82
  -1   5  -6   20.78    1.04
   1  -5   6   17.93    0.84
   1  -5   6   19.86    0.83
   1  -5   6   19.87    0.82
   1  -5   6   19.59    0.95
  -2   5  -6    5.54    0.58
  -2   5  -6    6.91    0.39
  -2   5  -6    6.32    0.52
  -2   5  -6    6.99    0.55
  -2   5  -6    6.77    0.43
   2  -5   6    6.44    0.35
   2  -5   6    6.62    0.49
   2  -5   6    6.47    0.37
  -3   5  -6   27.80    1.24
  -3   5  -6   25.19    1.29
  -3   5  -6   26.94    1.10
  -3   5  -6   27.38    1.35
  -3   5  -6   29.14    1.04
   3  -5   6   27.57    1.27
  -4   5  -6   20.24    0.88
  -4   5  -6   20.40    1.06
  -4   5  -6   19.71    1.11
   4  -5   6   19.08    0.99
  -5   5  -6    0.43    0.32
   5  -5   6    0.00    0.21
   6   4  -6   -0.07    0.26
   6   4  -6    0.19    0.27
   6   4  -6   -0.02    0.19
  -6  -4   6    0.26    0.29
   5   4  -6   -0.12    0.19
   5   4  -6    0.02    0.24
   5   4  -6    0.57    0.27
   5   4  -6    0.12    0.20
   5   4  -6    0.19    0.20
  -5  -4   6   -0.06    0.23
   4   4  -6    0.71    0.28
   4   4  -6    0.64    0.24
   4   4  -6    0.57    0.23
   4   4  -6    0.44    0.16
   4   4  -6    0.34    0.18
   4   4  -6    0.37    0.22
   4   4  -6    0.74    0.28
  -4  -4   6    0.49    0.26
  -4  -4   6    0.42    0.14
   3   4  -6    2.04    0.35
   3   4  -6    2.26    0.19
   3   4  -6    1.99    0.23
   3   4  -6    2.25    0.33
   3   4  -6    2.03    0.27
   3   4  -6    1.86    0.33
   3   4  -6    1.68    0.31
   3   4  -6    2.41    0.29
   3   4  -6    1.96    0.29
  -3  -4   6    1.92    0.26
  -3  -4   6    2.11    0.17
  -3  -4   6    2.24    0.23
  -3  -4   6    2.45    0.37
   2   4  -6    4.53    0.42
   2   4  -6    4.81    0.40
   2   4  -6    4.28    0.23
   2   4  -6    4.94    0.31
   2   4  -6    4.52    0.31
   2   4  -6    5.22    0.42
   2   4  -6    4.11    0.44
   2   4  -6    4.39    0.35
   2   4  -6    4.55    0.26
  -2  -4   6    3.85    0.24
  -2  -4   6    4.55    0.34
  -2  -4   6    4.27    0.41
  -2  -4   6    4.54    0.44
  -2  -4   6    4.27    0.36
   1   4  -6    8.80    0.51
   1   4  -6    9.77    0.42
   1   4  -6    9.47    0.47
   1   4  -6    8.18    0.53
   1   4  -6    9.90    0.62
   1   4  -6    9.65    0.40
   1   4  -6    9.27    0.53
  -1  -4   6    9.07    0.54
  -1  -4   6    9.29    0.47
  -1  -4   6   10.28    0.55
  -1  -4   6    8.38    0.51
   0   4  -6   38.94    1.56
   0   4  -6   38.02    1.41
   0   4  -6   42.08    1.66
   0   4  -6   39.11    1.50
   0   4  -6   39.22    1.31
   0   4  -6   37.20    1.43
   0   4  -6   39.67    1.47
   0  -4   6   39.22    1.50
   0  -4   6   40.60    1.57
   0  -4   6   39.22    1.41
   0  -4   6   37.18    1.46
  -1   4  -6    0.58    0.16
  -1   4  -6    0.66    0.18
  -1   4  -6    0.47    0.14
  -1   4  -6    0.72    0.22
  -1   4  -6    0.81    0.26
   1  -4   6    0.95    0.23
   1  -4   6    0.88    0.17
   1  -4   6    0.85    0.22
   1  -4   6    0.72    0.08
   1  -4   6    0.97    0.17
  -2   4  -6    1.80    0.36
  -2   4  -6    1.65    0.32
  -2   4  -6    1.90    0.26
   2  -4   6    2.22    0.22
   2  -4   6    2.23    0.33
   2  -4   6    2.45    0.33
   2  -4   6    2.21    0.20
  -3   4  -6   70.11    2.46
  -3   4  -6   71.57    2.59
  -3   4  -6   71.28    2.79
   3  -4   6   70.56    2.51
   3  -4   6   73.05    2.73
  -4   4  -6    2.98    0.44
  -4   4  -6    3.66    0.37
  -4   4  -6    3.21    0.50
   4  -4   6    3.43    0.44
  -5   4  -6    0.35    0.20
  -5   4  -6    0.32    0.31
   5  -4   6    0.60    0.27
   6   3  -6    1.74    0.29
   6   3  -6    1.42    0.35
   6   3  -6    0.94    0.37
  -6  -3   6    1.77    0.38
   5   3  -6    6.21    0.65
   5   3  -6    7.09    0.49
   5   3  -6    6.21    0.51
   5   3  -6    6.43    0.40
   5   3  -6    6.04    0.44
   5   3  -6    6.99    0.54
  -5  -3   6    5.45    0.57
   4   3  -6    7.95    0.59
   4   3  -6    8.11    0.47
   4   3  -6    8.64    0.56
   4   3  -6    9.29    0.61
   4   3  -6    8.43    0.67
   4   3  -6    8.10    0.42
   4   3  -6    9.91    0.53
   4   3  -6    7.51    0.51
  -4  -3   6    8.49    0.61
  -4  -3   6    8.80    0.43
   3   3  -6    5.43    0.49
   3   3  -6    4.21    0.34
   3   3  -6    4.72    0.40
   3   3  -6    5.12    0.48
   3   3  -6    4.41    0.27
   3   3  -6    4.06    0.33
   3   3  -6    4.00    0.42
   3   3  -6    4.46    0.36
   3   3  -6    4.48    0.33
   3   3  -6    4.67    0.23
  -3  -3   6    5.11    0.32
  -3  -3   6    4.30    0.46
  -3  -3   6    4.38    0.34
  -3  -3   6    4.76    0.25
   2   3  -6   38.03    1.56
   2   3  -6   36.71    1.39
   2   3  -6   37.53    1.36
   2   3  -6   38.10    1.50
   2   3  -6   36.27    1.48
   2   3  -6   36.43    1.15
  -2  -3   6   38.80    1.30
  -2  -3   6   35.99    1.46
  -2  -3   6   34.89    1.27
  -2  -3   6   36.83    1.42
  -2  -3   6   37.86    1.51
   1   3  -6    0.55    0.17
   1   3  -6    0.33    0.15
   1   3  -6    0.51    0.14
   1   3  -6    0.36    0.12
   1   3  -6    0.20    0.15
   1   3  -6    0.40    0.17
   1   3  -6    0.47    0.20
   1   3  -6    0.29    0.09
  -1  -3   6    0.36    0.18
  -1  -3   6    0.37    0.17
  -1  -3   6    0.20    0.14
  -1  -3   6    0.50    0.16
   0   3  -6   26.27    1.03
   0   3  -6   24.58    0.88
   0   3  -6   24.29    1.13
   0   3  -6   25.68    1.00
   0   3  -6   24.24    0.96
   0  -3   6   24.11    0.94
   0  -3   6   22.74    0.98
   0  -3   6   24.70    1.04
   0  -3   6   24.44    1.00
  -1   3  -6   39.37    1.50
  -1   3  -6   42.58    1.73
  -1   3  -6   43.09    1.55
   1  -3   6   39.32    1.48
   1  -3   6   39.72    1.50
   1  -3   6   41.75    1.62
   1  -3   6   41.00    1.46
  -2   3  -6    0.19    0.23
  -2   3  -6    0.38    0.24
  -2   3  -6    0.26    0.17
   2  -3   6    0.45    0.12
   2  -3   6    0.55    0.14
   2  -3   6    0.36    0.19
   2  -3   6    0.43    0.21
  -3   3  -6    8.82    0.67
  -3   3  -6    8.66    0.60
  -3   3  -6    8.70    0.51
   3  -3   6    8.24    0.38
   3  -3   6    8.72    0.60
   3  -3   6    8.39    0.57
  -4   3  -6   14.49    0.91
  -4   3  -6   13.69    0.81
  -4   3  -6   14.24    0.70
   4  -3   6   13.81    0.80
  -5   3  -6    0.37    0.30
  -5   3  -6    0.50    0.32
  -5   3  -6    1.02    0.25
   5  -3   6    0.67    0.27
   6   2  -6    1.69    0.35
   6   2  -6    2.72    0.49
   6   2  -6    2.94    0.33
  -6  -2   6    2.83    0.44
   5   2  -6    5.33    0.37
   5   2  -6    4.81    0.40
   5   2  -6    4.55    0.46
   5   2  -6    4.28    0.54
   5   2  -6    4.34    0.49
  -5  -2   6    4.69    0.32
  -5  -2   6    4.88    0.52
   4   2  -6   10.97    0.44
   4   2  -6   11.06    0.61
   4   2  -6   10.78    0.66
   4   2  -6   10.17    0.58
   4   2  -6   11.28    0.73
   4   2  -6   11.20    0.54
   4   2  -6   10.20    0.66
   4   2  -6   10.70    0.54
  -4  -2   6   11.36    0.51
  -4  -2   6   10.38    0.68
   3   2  -6    3.73    0.40
   3   2  -6    3.91    0.30
   3   2  -6    4.10    0.34
   3   2  -6    4.55    0.35
   3   2  -6    4.07    0.30
   3   2  -6    4.49    0.36
   3   2  -6    4.31    0.23
   3   2  -6    4.10    0.41
   3   2  -6    4.28    0.44
  -3  -2   6    4.37    0.31
  -3  -2   6    4.36    0.32
  -3  -2   6    4.84    0.43
   2   2  -6    0.44    0.16
   2   2  -6    0.56    0.12
   2   2  -6    0.21    0.18
   2   2  -6    0.47    0.09
   2   2  -6    0.40    0.19
   2   2  -6    0.51    0.06
   2   2  -6    0.55    0.18
  -2  -2   6    0.41    0.15
  -2  -2   6    0.62    0.19
  -2  -2   6    0.49    0.15
   1   2  -6   24.30    1.02
   1   2  -6   23.88    1.07
   1   2  -6   23.91    0.81
   1   2  -6   24.27    0.96
   1   2  -6   24.66    0.90
   1   2  -6   24.79    1.03
  -1  -2   6   22.32    0.99
  -1  -2   6   25.08    1.01
  -1  -2   6   24.23    0.92
   0   2  -6   75.34    2.73
   0   2  -6   72.85    2.67
   0   2  -6   72.31    2.47
   0   2  -6   71.32    2.48
   0  -2   6   70.59    2.33
   0  -2   6   68.61    2.47
   0  -2   6   70.86    2.56
  -1   2  -6   37.67    1.45
  -1   2  -6   39.53    1.47
  -1   2  -6   42.35    1.68
   1  -2   6   38.42    1.42
   1  -2   6   37.74    1.53
   1  -2   6   37.82    1.38
  -2   2  -6    6.95    0.44
  -2   2  -6    7.10    0.51
  -2   2  -6    7.54    0.35
  -2   2  -6    7.61    0.60
   2  -2   6    7.32    0.46
   2  -2   6    7.44    0.41
   2  -2   6    7.57    0.52
   2  -2   6    6.86    0.47
  -3   2  -6   -0.15    0.23
  -3   2  -6   -0.43    0.23
  -3   2  -6    0.01    0.18
   3  -2   6    0.11    0.12
   3  -2   6    0.04    0.18
   3  -2   6   -0.03    0.13
   3  -2   6   -0.19    0.15
   3  -2   6    0.26    0.21
  -4   2  -6    3.22    0.48
  -4   2  -6    2.73    0.34
  -4   2  -6    2.80    0.42
   4  -2   6    3.25    0.31
   4  -2   6    2.49    0.38
   4  -2   6    2.99    0.39
   4  -2   6    2.97    0.40
  -5   2  -6    3.81    0.41
  -5   2  -6    3.01    0.45
  -5   2  -6    3.05    0.49
   5  -2   6    3.53    0.46
   5  -2   6    3.33    0.46
   6   1  -6    3.82    0.47
  -6  -1   6    4.10    0.51
   5   1  -6    2.29    0.39
   5   1  -6    2.33    0.44
   5   1  -6    2.62    0.28
   5   1  -6    2.42    0.31
   5   1  -6    2.25    0.36
  -5  -1   6    2.14    0.37
  -5  -1   6    2.69    0.31
  -5  -1   6    2.51    0.28
   4   1  -6   15.50    0.89
   4   1  -6   14.15    0.78
   4   1  -6   15.12    0.62
   4   1  -6   14.40    0.73
   4   1  -6   14.07    0.68
   4   1  -6   14.48    0.62
  -4  -1   6   13.92    0.83
  -4  -1   6   15.49    0.68
  -4  -1   6   15.91    0.74
   3   1  -6    0.91    0.19
   3   1  -6    0.86    0.20
   3   1  -6    0.75    0.15
   3   1  -6    0.53    0.21
   3   1  -6    0.83    0.24
   3   1  -6    0.90    0.11
  -3  -1   6    0.78    0.17
  -3  -1   6    0.87    0.16
   2   1  -6    0.34    0.18
   2   1  -6    0.45    0.17
   2   1  -6    0.57    0.11
   2   1  -6    0.55    0.09
   2   1  -6    0.40    0.06
   2   1  -6    0.32    0.17
   2   1  -6    0.25    0.14
  -2  -1   6    0.21    0.13
  -2  -1   6    0.50    0.18
  -2  -1   6    0.48    0.14
   1   1  -6    1.88    0.24
   1   1  -6    2.11    0.21
   1   1  -6    1.95    0.22
   1   1  -6    1.43    0.19
   1   1  -6    1.42    0.26
  -1  -1   6    1.33    0.20
  -1  -1   6    1.47    0.25
  -1  -1   6    1.89    0.25
   0   1  -6    6.36    0.38
   0   1  -6    7.23    0.41
   0   1  -6    6.41    0.48
   0   1  -6    6.18    0.32
   0  -1   6    6.30    0.41
   0  -1   6    6.76    0.39
   0  -1   6    6.25    0.43
   0  -1   6    6.12    0.38
  -1   1  -6   14.10    0.78
  -1   1  -6   12.69    0.64
  -1   1  -6   13.80    0.65
   1  -1   6   13.78    0.67
   1  -1   6   13.85    0.72
   1  -1   6   13.34    0.62
  -2   1  -6    3.52    0.34
  -2   1  -6    2.19    0.39
  -2   1  -6    3.26    0.37
   2  -1   6    2.96    0.32
   2  -1   6    3.26    0.39
   2  -1   6    2.78    0.34
   2  -1   6    3.56    0.34
  -3   1  -6  136.66    4.65
  -3   1  -6  141.06    4.72
  -3   1  -6  140.75    5.07
   3  -1   6  141.04    4.64
   3  -1   6  140.34    4.97
   3  -1   6  132.58    4.91
   3  -1   6  139.44    4.67
   3  -1   6  140.01    4.51
  -4   1  -6    0.58    0.31
  -4   1  -6   -0.01    0.24
  -4   1  -6    0.14    0.19
   4  -1   6    0.09    0.21
   4  -1   6    0.17    0.23
   4  -1   6   -0.17    0.12
   4  -1   6    0.01    0.20
  -5   1  -6    1.06    0.28
  -5   1  -6    0.51    0.28
  -5   1  -6    0.88    0.35
   5  -1   6    0.78    0.27
   5  -1   6    1.45    0.33
   6   0  -6   12.27    0.74
  -6   0   6   12.71    0.82
  -6   0   6   12.49    0.63
   5   0  -6   29.24    1.06
   5   0  -6   30.82    1.15
   5   0  -6   29.36    1.28
   5   0  -6   28.54    1.32
  -5   0   6   31.60    1.26
  -5   0   6   30.09    1.18
  -5   0   6   30.30    1.41
   4   0  -6    0.61    0.13
   4   0  -6    0.54    0.17
   4   0  -6    0.67    0.22
   4   0  -6    0.53    0.15
  -4   0   6    0.46    0.19
  -4   0   6    0.43    0.18
   3   0  -6    9.13    0.55
   3   0  -6    9.74    0.51
   3   0  -6    8.78    0.45
   3   0  -6    9.42    0.42
   3   0  -6    9.86    0.40
   3   0  -6    8.98    0.48
  -3   0   6    9.49    0.46
  -3   0   6    8.27    0.47
  -3   0   6    9.31    0.54
   2   0  -6    0.10    0.09
   2   0  -6   -0.17    0.15
   2   0  -6   -0.07    0.07
   2   0  -6   -0.05    0.12
   2   0  -6   -0.01    0.05
  -2   0   6    0.18    0.15
  -2   0   6   -0.11    0.12
  -2   0   6    0.17    0.13
  -2   0   6    0.20    0.16
   1   0  -6   25.63    1.16
   1   0  -6   27.08    1.05
   1   0  -6   26.53    1.02
   1   0  -6   27.56    1.03
   1   0  -6   27.44    1.09
  -1   0   6   23.25    1.01
  -1   0   6   24.30    1.06
  -1   0   6   26.21    0.96
  -1   0   6   26.74    0.98
  -1   0   6   25.66    1.07
  -1   0   6   25.20    1.06
   0   0  -6  115.32    3.72
   0   0  -6  113.42    4.03
   0   0  -6  106.30    3.70
   0   0   6  109.80    3.59
   0   0   6  108.80    3.84
   0   0   6  111.55    3.81
   0   0   6  114.25    3.95
  -1   0  -6   13.09    0.64
  -1   0  -6   12.84    0.64
  -1   0  -6   12.69    0.76
   1   0   6   14.26    0.69
   1   0   6   13.00    0.63
   1   0   6   13.51    0.68
   1   0   6   13.79    0.73
  -2   0  -6   19.07    0.87
  -2   0  -6   19.90    0.88
  -2   0  -6   19.89    1.03
   2   0   6   20.29    0.91
   2   0   6   19.18    0.85
   2   0   6   20.08    0.96
   2   0   6   20.58    0.99
  -3   0  -6    7.96    0.55
  -3   0  -6    8.72    0.56
  -3   0  -6    7.05    0.62
   3   0   6    8.05    0.60
   3   0   6    7.99    0.59
   3   0   6    7.82    0.53
   3   0   6    9.25    0.52
   3   0   6    8.29    0.48
  -4   0  -6    2.79    0.46
  -4   0  -6    3.70    0.43
  -4   0  -6    3.03    0.42
   4   0   6    3.12    0.33
   4   0   6    3.19    0.39
   4   0   6    3.49    0.45
   4   0   6    2.75    0.41
  -5   0  -6    6.29    0.69
  -5   0  -6    5.92    0.57
  -5   0  -6    6.59    0.54
   5   0   6    6.05    0.53
   5   0   6    7.03    0.62
   5   0   6    5.70    0.60
   6  -1  -6    1.53    0.35
  -6   1   6    2.12    0.30
  -6   1   6    1.69    0.37
   5  -1  -6    7.50    0.56
  -5   1   6    7.71    0.51
  -5   1   6    7.25    0.49
   4  -1  -6    1.09    0.15
   4  -1  -6    0.71    0.17
   4  -1  -6    0.71    0.24
   4  -1  -6    1.07    0.15
  -4   1   6    0.74    0.22
  -4   1   6    1.22    0.23
   3  -1  -6    0.68    0.14
   3  -1  -6    0.77    0.18
   3  -1  -6    1.07    0.21
   3  -1  -6    0.99    0.24
   3  -1  -6    0.95    0.16
  -3   1   6    0.58    0.18
  -3   1   6    0.51    0.19
   2  -1  -6    1.39    0.22
   2  -1  -6    1.74    0.20
   2  -1  -6    1.29    0.25
   2  -1  -6    1.54    0.13
   2  -1  -6    1.62    0.14
  -2   1   6    1.36    0.25
  -2   1   6    1.24    0.22
  -2   1   6    1.33    0.24
   1  -1  -6    3.09    0.30
   1  -1  -6    2.83    0.36
   1  -1  -6    3.11    0.29
  -1   1   6    2.87    0.32
  -1   1   6    2.99    0.34
  -1   1   6    2.91    0.30
  -1   1   6    2.90    0.26
  -1   1   6    2.84    0.25
   0  -1  -6    5.12    0.38
   0  -1  -6    5.52    0.53
   0  -1  -6    5.68    0.41
   0  -1  -6    6.13    0.40
   0   1   6    5.26    0.42
   0   1   6    5.00    0.36
   0   1   6    4.31    0.38
   0   1   6    4.89    0.37
  -1  -1  -6    1.28    0.32
  -1  -1  -6    1.82    0.27
  -1  -1  -6    1.99    0.28
   1   1   6    2.21    0.30
   1   1   6    1.76    0.27
   1   1   6    1.72    0.31
   1   1   6    2.27    0.28
  -2  -1  -6   67.15    2.41
  -2  -1  -6   70.23    2.70
  -2  -1  -6   66.92    2.44
   2   1   6   65.73    2.53
   2   1   6   68.32    2.59
   2   1   6   68.98    2.45
   2   1   6   65.71    2.29
  -3  -1  -6   18.80    1.03
  -3  -1  -6   17.52    0.87
  -3  -1  -6   17.44    0.88
   3   1   6   17.23    0.82
   3   1   6   16.60    0.93
   3   1   6   17.72    0.96
   3   1   6   18.79    0.86
   3   1   6   19.02    0.84
  -4  -1  -6   -0.21    0.21
  -4  -1  -6   -0.04    0.23
  -4  -1  -6   -0.05    0.19
   4   1   6    0.03    0.21
   4   1   6    0.17    0.23
   4   1   6    0.11    0.20
  -5  -1  -6    0.61    0.29
  -5  -1  -6   -0.31    0.25
  -5  -1  -6   -0.16    0.20
   5   1   6    0.21    0.22
   5   1   6    0.04    0.24
   6  -2  -6    2.50    0.40
  -6   2   6    2.71    0.39
  -6   2   6    1.99    0.32
   5  -2  -6    0.20    0.21
  -5   2   6   -0.06    0.18
  -5   2   6    0.14    0.19
   4  -2  -6    4.12    0.29
   4  -2  -6    3.93    0.30
   4  -2  -6    3.58    0.40
  -4   2   6    3.63    0.38
  -4   2   6    3.61    0.39
   3  -2  -6    0.14    0.08
   3  -2  -6   -0.24    0.12
   3  -2  -6   -0.07    0.13
   3  -2  -6   -0.08    0.15
   3  -2  -6   -0.12    0.13
  -3   2   6    0.20    0.17
  -3   2   6    0.09    0.17
   2  -2  -6    0.14    0.18
   2  -2  -6    0.13    0.13
   2  -2  -6    0.02    0.09
   2  -2  -6    0.12    0.15
   2  -2  -6    0.28    0.16
  -2   2   6    0.01    0.10
  -2   2   6   -0.06    0.14
  -2   2   6   -0.02    0.17
  -2   2   6    0.03    0.15
   1  -2  -6   11.55    0.58
   1  -2  -6    9.15    0.52
   1  -2  -6    9.42    0.63
  -1   2   6   10.32    0.51
  -1   2   6   10.71    0.61
  -1   2   6    9.64    0.54
  -1   2   6    9.79    0.61
   0  -2  -6   40.14    1.49
   0  -2  -6   37.51    1.49
   0  -2  -6   41.48    1.69
   0   2   6   42.01    1.66
   0   2   6   40.06    1.48
   0   2   6   38.20    1.52
   0   2   6   41.01    1.57
   0   2   6   42.75    1.63
  -1  -2  -6   14.96    0.77
  -1  -2  -6   17.01    0.77
  -1  -2  -6   15.82    0.92
   1   2   6   16.34    0.83
   1   2   6   15.48    0.72
   1   2   6   16.02    0.80
   1   2   6   16.64    0.87
  -2  -2  -6   11.67    0.78
  -2  -2  -6    9.58    0.62
  -2  -2  -6   10.10    0.59
   2   2   6   11.34    0.71
   2   2   6   10.93    0.62
   2   2   6   11.90    0.66
   2   2   6    8.68    0.61
   2   2   6   10.00    0.55
  -3  -2  -6   17.04    1.02
  -3  -2  -6   15.92    0.86
  -3  -2  -6   17.69    0.85
   3   2   6   18.88    0.87
   3   2   6   18.69    0.89
   3   2   6   16.02    0.92
   3   2   6   16.04    0.78
  -4  -2  -6   12.57    0.90
  -4  -2  -6   12.64    0.78
  -4  -2  -6   13.55    0.76
   4   2   6   13.29    0.69
   4   2   6   13.72    0.88
   4   2   6   11.25    0.78
  -5  -2  -6    1.34    0.33
  -5  -2  -6    1.20    0.31
  -5  -2  -6    0.94    0.36
   5   2   6    0.98    0.33
   5   2   6    1.02    0.34
   6  -3  -6    1.45    0.34
  -6   3   6    0.87    0.27
   5  -3  -6   13.68    0.77
  -5   3   6   14.09    0.77
  -5   3   6   14.69    0.79
   4  -3  -6    0.18    0.18
   4  -3  -6    0.29    0.14
  -4   3   6    0.55    0.23
  -4   3   6    0.10    0.19
   3  -3  -6    3.61    0.35
   3  -3  -6    3.30    0.35
   3  -3  -6    3.42    0.29
   3  -3  -6    2.98    0.22
  -3   3   6    4.28    0.42
  -3   3   6    3.61    0.41
   2  -3  -6   17.66    0.79
   2  -3  -6   19.55    0.92
   2  -3  -6   18.94    0.70
  -2   3   6   17.97    0.83
  -2   3   6   17.23    0.91
  -2   3   6   17.68    0.86
  -2   3   6   18.93    0.75
   1  -3  -6    0.00    0.21
   1  -3  -6    0.08    0.15
   1  -3  -6    0.11    0.11
  -1   3   6    0.04    0.14
  -1   3   6    0.01    0.18
  -1   3   6    0.16    0.19
  -1   3   6    0.17    0.17
   0  -3  -6    0.66    0.29
   0  -3  -6    0.01    0.19
   0   3   6    0.33    0.21
   0   3   6    0.34    0.18
   0   3   6    0.25    0.18
   0   3   6    0.06    0.22
  -1  -3  -6   57.67    2.40
  -1  -3  -6   61.44    2.16
  -1  -3  -6   57.23    2.16
   1   3   6   56.84    2.08
   1   3   6   59.47    2.30
   1   3   6   60.79    2.29
   1   3   6   62.99    2.41
  -2  -3  -6    2.85    0.48
  -2  -3  -6    2.85    0.36
  -2  -3  -6    2.47    0.36
   2   3   6    2.49    0.42
   2   3   6    2.26    0.36
   2   3   6    2.40    0.36
   2   3   6    2.53    0.37
   2   3   6    2.71    0.33
  -3  -3  -6    0.16    0.27
  -3  -3  -6    0.17    0.21
   3   3   6    0.31    0.19
   3   3   6   -0.06    0.17
   3   3   6   -0.16    0.21
   3   3   6    0.03    0.26
   3   3   6    0.49    0.25
  -4  -3  -6    0.92    0.36
  -4  -3  -6    0.18    0.25
   4   3   6    0.34    0.27
   4   3   6    0.62    0.23
   4   3   6    0.29    0.23
   5  -4  -6    0.43    0.23
  -5   4   6    0.65    0.25
  -5   4   6    0.55    0.25
   4  -4  -6    0.30    0.21
   4  -4  -6    0.56    0.19
  -4   4   6    0.30    0.23
  -4   4   6    0.29    0.20
   3  -4  -6   20.15    0.94
   3  -4  -6   19.22    0.80
  -3   4   6   20.89    1.00
  -3   4   6   17.31    0.87
   2  -4  -6    0.54    0.18
   2  -4  -6    0.73    0.24
   2  -4  -6    0.42    0.13
  -2   4   6    0.18    0.20
  -2   4   6    0.50    0.22
  -2   4   6    0.80    0.27
   1  -4  -6    1.13    0.19
   1  -4  -6    1.07    0.31
   1  -4  -6    1.48    0.26
  -1   4   6    1.38    0.32
  -1   4   6    1.22    0.25
  -1   4   6    1.42    0.30
  -1   4   6    1.55    0.25
   0  -4  -6    0.70    0.24
   0  -4  -6    0.71    0.27
   0   4   6    1.28    0.30
   0   4   6    1.09    0.25
   0   4   6    0.88    0.24
   0   4   6    1.11    0.28
  -1  -4  -6    0.34    0.28
  -1  -4  -6    0.35    0.22
   1   4   6    0.18    0.23
   1   4   6   -0.22    0.21
   1   4   6    0.42    0.21
   1   4   6    0.01    0.15
   1   4   6   -0.15    0.18
  -2  -4  -6   39.45    1.80
  -2  -4  -6   37.61    1.54
   2   4   6   36.55    1.68
   2   4   6   38.53    1.59
   2   4   6   35.64    1.40
   2   4   6   36.39    1.62
  -3  -4  -6    0.31    0.30
  -3  -4  -6    0.37    0.23
   3   4   6    0.39    0.24
   3   4   6    0.20    0.22
   3   4   6    0.34    0.29
   3   4   6    0.11    0.18
  -4  -4  -6    2.80    0.54
  -4  -4  -6    3.09    0.41
   4   4   6    2.14    0.41
   4   4   6    2.35    0.47
  -5   5   6    0.73    0.27
   4  -5  -6    8.40    0.52
  -4   5   6    7.43    0.57
   3  -5  -6    7.89    0.55
  -3   5   6    7.28    0.54
   2  -5  -6    3.53    0.35
   2  -5  -6    3.57    0.31
   2  -5  -6    3.24    0.43
  -2   5   6    3.28    0.44
  -2   5   6    3.30    0.40
   1  -5  -6    0.03    0.20
   1  -5  -6    0.02    0.13
   1  -5  -6    0.06    0.18
  -1   5   6    0.12    0.16
  -1   5   6   -0.15    0.19
  -1   5   6   -0.05    0.19
  -1   5   6    0.16    0.17
   0  -5  -6    5.31    0.37
   0  -5  -6    4.59    0.46
   0  -5  -6    5.45    0.59
   0   5   6    5.78    0.50
   0   5   6    5.75    0.57
   0   5   6    6.94    0.59
   0   5   6    5.27    0.46
  -1  -5  -6    0.66    0.29
   1   5   6    0.27    0.19
   1   5   6    0.66    0.30
   1   5   6    0.91    0.26
  -2  -5  -6    5.78    0.67
   2   5   6    6.25    0.68
   2   5   6    5.82    0.45
   2   5   6    6.34    0.62
  -3  -5  -6    1.73    0.44
   3   5   6    1.46    0.36
   3   5   6    1.61    0.28
   3   5   6    1.66    0.43
   4  -6  -6    4.96    0.44
  -4   6   6    4.45    0.51
   3  -6  -6    2.30    0.36
  -3   6   6    1.51    0.31
   2  -6  -6    2.37    0.39
  -2   6   6    2.29    0.36
   1  -6  -6    9.54    0.72
   1  -6  -6    9.66    0.59
   1  -6  -6    9.48    0.53
  -1   6   6    9.56    0.61
  -1   6   6    8.69    0.58
  -1   6   6   10.30    0.71
   0  -6  -6    0.69    0.30
   0  -6  -6    0.54    0.24
   0   6   6    0.49    0.22
   0   6   6    0.62    0.22
   0   6   6    0.23    0.27
  -1  -6  -6   50.02    2.22
   1   6   6   51.48    2.24
   1   6   6   50.24    2.11
   1   6   6   51.71    1.90
  -2  -6  -6    3.52    0.56
   2   6   6    2.75    0.45
   2   6   6    3.92    0.42
   2   6   6    4.13    0.59
   2  -7  -6    3.04    0.46
  -2   7   6    2.82    0.41
   1  -7  -6    1.89    0.34
   1  -7  -6    2.85    0.47
  -1   7   6    2.76    0.38
   0  -7  -6    3.01    0.42
   0  -7  -6    3.55    0.54
   0   7   6    3.57    0.47
   0   7   6    3.60    0.43
   0   7   6    3.81    0.54
   0  11  -7   19.76    0.97
   0  11  -7   20.96    1.29
   0  11  -7   19.55    1.03
   0 -11   7   19.90    1.11
   0 -11   7   17.93    1.02
   2  10  -7    2.19    0.36
   2  10  -7    1.03    0.28
   2  10  -7    2.02    0.35
   2  10  -7    2.25    0.48
   2  10  -7    2.07    0.39
  -2 -10   7    2.67    0.48
  -2 -10   7    2.81    0.45
   1  10  -7    3.88    0.45
   1  10  -7    3.26    0.43
   1  10  -7    4.06    0.47
   1  10  -7    4.34    0.60
  -1 -10   7    4.38    0.54
  -1 -10   7    3.16    0.48
   0  10  -7   19.93    1.04
   0  10  -7   22.28    1.27
   0  10  -7   21.53    0.98
   0  10  -7   21.08    1.08
   0 -10   7   25.23    1.26
   0 -10   7   22.53    1.15
  -1  10  -7    3.21    0.42
  -1  10  -7    4.25    0.62
  -1  10  -7    3.91    0.42
  -1  10  -7    4.03    0.49
   1 -10   7    3.68    0.50
   1 -10   7    4.39    0.46
  -2  10  -7    5.14    0.58
  -2  10  -7    4.77    0.48
  -2  10  -7    3.98    0.66
   2 -10   7    5.56    0.62
   4   9  -7    0.37    0.34
   4   9  -7    0.74    0.26
   4   9  -7    0.66    0.33
   4   9  -7    1.04    0.30
  -4  -9   7    0.87    0.37
   3   9  -7   15.50    0.99
   3   9  -7   14.65    0.83
   3   9  -7   12.94    0.78
   3   9  -7   15.33    0.88
  -3  -9   7   14.68    0.96
  -3  -9   7   17.68    0.97
   2   9  -7    0.28    0.19
   2   9  -7    0.09    0.19
   2   9  -7    0.74    0.25
   2   9  -7    0.12    0.19
   2   9  -7    0.47    0.26
   2   9  -7    0.32    0.32
  -2  -9   7    0.32    0.19
  -2  -9   7    0.29    0.24
  -2  -9   7    0.09    0.28
   1   9  -7   17.57    0.95
   1   9  -7   20.52    1.16
   1   9  -7   18.48    0.93
   1   9  -7   18.41    0.88
   1   9  -7   17.55    0.91
  -1  -9   7   20.67    0.90
  -1  -9   7   19.68    1.05
  -1  -9   7   20.39    1.08
   0   9  -7    0.83    0.28
   0   9  -7    0.33    0.24
   0   9  -7    0.48    0.23
   0   9  -7    0.68    0.24
   0   9  -7    0.45    0.26
   0   9  -7    0.32    0.33
   0   9  -7    0.70    0.24
   0  -9   7    1.12    0.32
   0  -9   7    0.92    0.29
  -1   9  -7    2.17    0.49
  -1   9  -7    2.20    0.35
  -1   9  -7    1.96    0.38
  -1   9  -7    2.41    0.36
   1  -9   7    2.47    0.42
   1  -9   7    2.17    0.34
  -2   9  -7    4.04    0.62
  -2   9  -7    2.96    0.44
  -2   9  -7    3.33    0.39
  -2   9  -7    4.27    0.51
   2  -9   7    3.23    0.47
  -3   9  -7   -0.02    0.33
  -3   9  -7    0.20    0.33
   3  -9   7    0.32    0.24
   4   8  -7    1.05    0.35
   4   8  -7    0.93    0.29
   4   8  -7    0.69    0.26
   4   8  -7    0.69    0.24
   4   8  -7    0.54    0.32
  -4  -8   7    0.95    0.35
   3   8  -7    0.60    0.24
   3   8  -7    0.11    0.29
   3   8  -7    0.08    0.24
   3   8  -7    0.20    0.19
  -3  -8   7    0.13    0.23
  -3  -8   7    0.77    0.33
   2   8  -7    4.47    0.40
   2   8  -7    5.29    0.53
   2   8  -7    4.47    0.45
   2   8  -7    4.39    0.38
   2   8  -7    4.88    0.40
   2   8  -7    5.55    0.63
  -2  -8   7    5.69    0.39
  -2  -8   7    4.47    0.50
  -2  -8   7    4.63    0.54
   1   8  -7    2.87    0.36
   1   8  -7    3.01    0.40
   1   8  -7    3.63    0.44
   1   8  -7    3.68    0.34
   1   8  -7    3.83    0.55
   1   8  -7    3.13    0.36
  -1  -8   7    3.46    0.44
  -1  -8   7    3.11    0.44
  -1  -8   7    4.14    0.37
   0   8  -7   34.87    1.64
   0   8  -7   37.19    1.44
   0   8  -7   33.47    1.40
   0   8  -7   32.83    1.47
   0   8  -7   31.06    1.41
   0   8  -7   33.97    1.33
   0  -8   7   33.14    1.53
   0  -8   7   35.66    1.46
  -1   8  -7    0.68    0.28
  -1   8  -7    0.49    0.36
  -1   8  -7    1.05    0.25
  -1   8  -7    0.50    0.23
  -1   8  -7    0.91    0.25
  -1   8  -7    0.75    0.25
   1  -8   7    0.90    0.26
   1  -8   7    0.65    0.27
  -2   8  -7    6.12    0.48
  -2   8  -7    8.19    0.62
  -2   8  -7    7.44    0.76
  -2   8  -7    7.57    0.59
   2  -8   7    7.29    0.59
  -3   8  -7    7.52    0.63
  -3   8  -7    7.02    0.49
  -3   8  -7    6.49    0.73
   3  -8   7    8.33    0.65
  -4   8  -7    0.96    0.40
  -4   8  -7   -0.13    0.30
   4  -8   7    0.18    0.22
   5   7  -7    1.02    0.30
   5   7  -7    0.68    0.30
   5   7  -7    1.62    0.35
   5   7  -7    1.19    0.37
  -5  -7   7    1.20    0.37
   4   7  -7    0.66    0.33
   4   7  -7    0.42    0.25
   4   7  -7    0.26    0.23
   4   7  -7    0.59    0.23
   4   7  -7    0.62    0.22
   4   7  -7    0.67    0.31
  -4  -7   7    0.67    0.34
   3   7  -7   24.57    1.24
   3   7  -7   23.09    1.13
   3   7  -7   26.44    1.28
   3   7  -7   24.64    1.09
   3   7  -7   21.85    1.04
   3   7  -7   25.37    1.03
  -3  -7   7   25.27    1.26
  -3  -7   7   25.57    1.18
   2   7  -7    9.15    0.57
   2   7  -7   10.08    0.54
   2   7  -7   10.39    0.48
   2   7  -7   10.12    0.72
   2   7  -7    9.59    0.63
   2   7  -7    9.46    0.55
   2   7  -7   10.13    0.67
  -2  -7   7    9.98    0.69
  -2  -7   7   10.14    0.51
  -2  -7   7   10.72    0.66
   1   7  -7    5.89    0.49
   1   7  -7    6.30    0.39
   1   7  -7    6.34    0.46
   1   7  -7    6.52    0.39
   1   7  -7    7.81    0.54
   1   7  -7    6.27    0.44
   1   7  -7    7.23    0.69
  -1  -7   7    7.27    0.56
  -1  -7   7    6.05    0.54
   0   7  -7    4.16    0.39
   0   7  -7    4.75    0.45
   0   7  -7    4.83    0.40
   0   7  -7    4.40    0.44
   0   7  -7    4.53    0.56
   0   7  -7    4.54    0.43
   0  -7   7    4.11    0.46
   0  -7   7    4.48    0.44
  -1   7  -7    4.46    0.46
  -1   7  -7    4.35    0.36
  -1   7  -7    4.43    0.56
  -1   7  -7    4.15    0.41
  -1   7  -7    4.38    0.45
   1  -7   7    4.34    0.40
   1  -7   7    4.85    0.40
   1  -7   7    4.62    0.49
  -2   7  -7    3.73    0.45
  -2   7  -7    4.71    0.43
  -2   7  -7    4.49    0.58
  -2   7  -7    4.46    0.50
   2  -7   7    4.13    0.48
  -3   7  -7    8.47    0.72
  -3   7  -7    8.06    0.51
  -3   7  -7    7.65    0.63
  -3   7  -7    6.63    0.58
   3  -7   7    7.19    0.57
  -4   7  -7    3.48    0.56
  -4   7  -7    3.40    0.52
   4  -7   7    3.61    0.48
   5   6  -7   -0.44    0.19
   5   6  -7   -0.15    0.22
   5   6  -7   -0.01    0.20
   5   6  -7    0.18    0.29
   5   6  -7    0.06    0.20
  -5  -6   7    0.00    0.28
   4   6  -7    2.08    0.33
   4   6  -7    1.36    0.35
   4   6  -7    2.18    0.34
   4   6  -7    1.66    0.34
   4   6  -7    1.91    0.29
   4   6  -7    2.28    0.42
  -4  -6   7    1.81    0.40
   3   6  -7   20.02    0.99
   3   6  -7   19.26    1.02
   3   6  -7   18.00    0.97
   3   6  -7   17.86    0.80
   3   6  -7   16.91    0.88
   3   6  -7   17.14    0.82
   3   6  -7   18.02    0.76
   3   6  -7   15.58    0.80
  -3  -6   7   17.29    0.76
  -3  -6   7   17.33    0.98
  -3  -6   7   18.91    0.91
  -3  -6   7   18.79    0.70
   2   6  -7    1.70    0.21
   2   6  -7    1.16    0.17
   2   6  -7    1.18    0.23
   2   6  -7    1.50    0.20
   2   6  -7    1.65    0.38
   2   6  -7    1.10    0.23
   2   6  -7    1.27    0.27
   2   6  -7    1.08    0.31
  -2  -6   7    1.13    0.32
  -2  -6   7    1.36    0.26
  -2  -6   7    1.17    0.27
   1   6  -7   56.73    2.24
   1   6  -7   58.79    2.25
   1   6  -7   58.22    1.89
   1   6  -7   60.83    2.22
   1   6  -7   60.38    2.00
   1   6  -7   60.14    2.38
   1   6  -7   55.25    2.15
  -1  -6   7   60.62    2.34
  -1  -6   7   60.56    2.34
  -1  -6   7   61.08    2.11
   0   6  -7    7.48    0.49
   0   6  -7   10.13    0.72
   0   6  -7    7.81    0.51
   0   6  -7    8.08    0.52
   0   6  -7    7.65    0.48
   0   6  -7    5.96    0.48
   0   6  -7    6.98    0.42
   0  -6   7    7.61    0.57
   0  -6   7    8.29    0.54
   0  -6   7    7.40    0.51
   0  -6   7    7.50    0.53
  -1   6  -7    6.25    0.49
  -1   6  -7    6.44    0.43
  -1   6  -7    6.77    0.50
  -1   6  -7    6.15    0.64
  -1   6  -7    7.35    0.47
  -1   6  -7    5.78    0.46
   1  -6   7    7.29    0.53
   1  -6   7    8.11    0.57
   1  -6   7    6.90    0.46
   1  -6   7    5.99    0.44
  -2   6  -7   21.62    1.02
  -2   6  -7   19.88    1.05
  -2   6  -7   22.06    0.88
  -2   6  -7   20.82    1.15
  -2   6  -7   19.71    0.91
   2  -6   7   20.71    1.04
  -3   6  -7    5.16    0.41
  -3   6  -7    5.78    0.64
  -3   6  -7    4.40    0.52
  -3   6  -7    5.92    0.59
   3  -6   7    5.04    0.54
  -4   6  -7   -0.17    0.25
  -4   6  -7   -0.06    0.17
  -4   6  -7    0.02    0.31
   4  -6   7   -0.03    0.20
  -5   6  -7    0.58    0.36
   5  -6   7    0.06    0.24
   6   5  -7    0.16    0.26
   6   5  -7    0.20    0.28
   6   5  -7    0.33    0.22
  -6  -5   7   -0.20    0.24
   5   5  -7    2.38    0.36
   5   5  -7    1.50    0.29
   5   5  -7    1.92    0.42
   5   5  -7    2.02    0.35
   5   5  -7    1.75    0.33
  -5  -5   7    1.73    0.40
   4   5  -7    0.28    0.22
   4   5  -7    0.31    0.25
   4   5  -7   -0.05    0.23
   4   5  -7    0.06    0.18
   4   5  -7   -0.11    0.18
   4   5  -7   -0.12    0.13
  -4  -5   7    0.09    0.24
   3   5  -7    6.82    0.42
   3   5  -7    6.71    0.56
   3   5  -7    6.33    0.45
   3   5  -7    6.39    0.48
   3   5  -7    6.50    0.37
   3   5  -7    8.00    0.60
   3   5  -7    7.72    0.61
   3   5  -7    6.80    0.44
  -3  -5   7    7.05    0.48
  -3  -5   7    5.75    0.53
  -3  -5   7    6.79    0.42
   2   5  -7   13.54    0.74
   2   5  -7   15.59    0.59
   2   5  -7   16.24    0.84
   2   5  -7   15.73    0.70
   2   5  -7   15.26    0.82
   2   5  -7   15.62    0.56
   2   5  -7   15.94    0.85
   2   5  -7   17.30    0.91
   2   5  -7   15.75    0.67
  -2  -5   7   15.71    0.86
  -2  -5   7   16.48    0.72
  -2  -5   7   16.51    0.82
   1   5  -7   92.94    3.44
   1   5  -7   94.95    2.89
   1   5  -7   94.86    3.39
   1   5  -7   94.41    3.09
   1   5  -7   92.70    3.50
   1   5  -7   96.13    3.33
   1   5  -7   89.68    3.21
  -1  -5   7   92.71    3.42
  -1  -5   7   97.49    3.12
  -1  -5   7   89.09    3.32
  -1  -5   7   97.03    3.43
   0   5  -7    1.89    0.37
   0   5  -7    1.95    0.29
   0   5  -7    2.09    0.28
   0   5  -7    2.30    0.30
   0   5  -7    1.99    0.23
   0   5  -7    2.20    0.28
   0   5  -7    2.44    0.30
   0  -5   7    2.15    0.31
   0  -5   7    2.44    0.31
   0  -5   7    1.68    0.27
   0  -5   7    1.90    0.31
  -1   5  -7    3.52    0.40
  -1   5  -7    3.95    0.41
  -1   5  -7    3.53    0.36
  -1   5  -7    3.13    0.47
  -1   5  -7    4.09    0.34
   1  -5   7    3.40    0.38
   1  -5   7    3.76    0.34
   1  -5   7    3.11    0.39
   1  -5   7    3.61    0.33
  -2   5  -7    0.03    0.15
  -2   5  -7    0.24    0.19
  -2   5  -7    0.19    0.27
  -2   5  -7    0.34    0.30
   2  -5   7   -0.06    0.19
   2  -5   7    0.03    0.14
   2  -5   7   -0.40    0.19
   2  -5   7    0.01    0.14
  -3   5  -7   27.35    1.40
  -3   5  -7   28.11    1.16
  -3   5  -7   29.57    1.29
   3  -5   7   30.16    1.38
  -4   5  -7    8.08    0.79
  -4   5  -7    8.40    0.65
  -4   5  -7    7.43    0.50
   4  -5   7    8.11    0.62
  -5   5  -7    3.59    0.53
   5  -5   7    2.75    0.43
   6   4  -7    8.56    0.77
   6   4  -7    6.04    0.55
   6   4  -7    7.12    0.60
  -6  -4   7    6.25    0.66
   5   4  -7    3.59    0.39
   5   4  -7    3.87    0.38
   5   4  -7    3.34    0.41
   5   4  -7    3.79    0.55
   5   4  -7    3.92    0.44
  -5  -4   7    3.53    0.47
   4   4  -7   13.93    0.86
   4   4  -7   12.10    0.68
   4   4  -7   12.20    0.67
   4   4  -7   12.93    0.60
   4   4  -7   13.97    0.79
   4   4  -7   12.20    0.71
   4   4  -7   11.95    0.64
  -4  -4   7   11.80    0.79
  -4  -4   7   14.33    0.60
   3   4  -7   11.39    0.54
   3   4  -7   10.75    0.67
   3   4  -7   10.66    0.63
   3   4  -7   12.32    0.60
   3   4  -7   13.27    0.77
   3   4  -7   10.59    0.69
   3   4  -7   11.95    0.50
   3   4  -7   11.28    0.58
   3   4  -7   10.66    0.70
  -3  -4   7   12.63    0.57
  -3  -4   7   11.32    0.62
  -3  -4   7   10.50    0.70
   2   4  -7   26.94    1.25
   2   4  -7   25.80    1.11
   2   4  -7   26.43    1.19
   2   4  -7   27.67    0.96
   2   4  -7   27.66    1.05
   2   4  -7   28.63    0.90
   2   4  -7   26.99    1.24
   2   4  -7   27.12    1.19
  -2  -4   7   28.73    1.20
  -2  -4   7   28.29    1.26
  -2  -4   7   28.12    1.08
   1   4  -7   36.97    1.50
   1   4  -7   37.23    1.23
   1   4  -7   38.50    1.55
   1   4  -7   38.02    1.32
   1   4  -7   38.26    1.49
   1   4  -7   34.41    1.42
   1   4  -7   37.71    1.60
   1   4  -7   37.84    1.47
  -1  -4   7   36.80    1.33
  -1  -4   7   37.60    1.49
  -1  -4   7   34.40    1.44
  -1  -4   7   36.34    1.48
   0   4  -7   35.43    1.26
   0   4  -7   39.01    1.64
   0   4  -7   37.32    1.42
   0   4  -7   37.83    1.47
   0   4  -7   37.20    1.38
   0  -4   7   39.16    1.56
   0  -4   7   35.02    1.45
   0  -4   7   39.37    1.31
   0  -4   7   38.73    1.50
   0  -4   7   36.68    1.40
  -1   4  -7    0.56    0.20
  -1   4  -7    0.22    0.22
  -1   4  -7    0.06    0.25
  -1   4  -7    0.20    0.17
  -1   4  -7   -0.13    0.13
   1  -4   7    0.44    0.17
   1  -4   7    0.09    0.20
   1  -4   7    0.30    0.16
   1  -4   7    0.33    0.21
  -2   4  -7    8.30    0.52
  -2   4  -7   10.27    0.72
  -2   4  -7    9.79    0.63
   2  -4   7    8.12    0.45
   2  -4   7    9.01    0.44
   2  -4   7    8.15    0.55
   2  -4   7    8.69    0.59
  -3   4  -7    3.02    0.43
  -3   4  -7    2.88    0.47
  -3   4  -7    3.41    0.36
   3  -4   7    2.94    0.41
   3  -4   7    2.87    0.39
  -4   4  -7    1.17    0.26
  -4   4  -7    1.45    0.40
  -4   4  -7    0.82    0.33
   4  -4   7    0.76    0.28
  -5   4  -7    1.45    0.30
  -5   4  -7    1.31    0.39
   5  -4   7    1.54    0.36
   6   3  -7    1.13    0.27
   6   3  -7    1.53    0.33
   6   3  -7    0.44    0.32
  -6  -3   7    1.42    0.36
   5   3  -7    0.21    0.23
   5   3  -7    0.10    0.19
   5   3  -7    0.04    0.27
   5   3  -7   -0.10    0.15
   5   3  -7    0.29    0.19
  -5  -3   7   -0.09    0.22
   4   3  -7   14.67    0.85
   4   3  -7   13.93    0.74
   4   3  -7   15.33    0.84
   4   3  -7   15.28    0.76
   4   3  -7   13.80    0.89
   4   3  -7   15.40    0.69
   4   3  -7   14.77    0.74
  -4  -3   7   14.90    0.87
  -4  -3   7   16.43    0.68
   3   3  -7    2.19    0.34
   3   3  -7    2.31    0.20
   3   3  -7    2.34    0.27
   3   3  -7    2.14    0.33
   3   3  -7    1.90    0.29
   3   3  -7    2.38    0.19
   3   3  -7    1.84    0.32
   3   3  -7    2.62    0.40
  -3  -3   7    2.83    0.30
  -3  -3   7    1.92    0.34
  -3  -3   7    2.61    0.28
   2   3  -7  105.44    3.90
   2   3  -7   99.62    3.47
   2   3  -7  105.11    3.65
   2   3  -7  103.28    3.72
   2   3  -7  102.25    3.07
   2   3  -7   99.95    3.69
  -2  -3   7  101.57    3.74
  -2  -3   7  105.76    3.65
  -2  -3   7  100.80    3.34
   1   3  -7   62.03    2.32
   1   3  -7   65.16    2.41
   1   3  -7   62.28    2.11
   1   3  -7   62.49    2.40
   1   3  -7   58.53    2.19
   1   3  -7   63.01    1.95
  -1  -3   7   64.54    2.36
  -1  -3   7   61.13    2.11
  -1  -3   7   62.90    2.33
  -1  -3   7   60.02    2.28
   0   3  -7   20.31    0.85
   0   3  -7   19.51    0.82
   0   3  -7   19.06    0.89
   0   3  -7   19.60    0.86
   0   3  -7   20.21    1.01
   0   3  -7   19.28    0.76
   0  -3   7   18.66    0.85
   0  -3   7   19.01    0.92
   0  -3   7   19.39    0.82
  -1   3  -7   -0.28    0.17
  -1   3  -7   -0.07    0.16
  -1   3  -7    0.57    0.27
   1  -3   7   -0.09    0.19
   1  -3   7   -0.07    0.16
   1  -3   7   -0.04    0.15
  -2   3  -7    2.54    0.44
  -2   3  -7    2.31    0.36
  -2   3  -7    2.24    0.30
   2  -3   7    2.61    0.36
   2  -3   7    3.02    0.29
   2  -3   7    2.50    0.38
  -3   3  -7    0.66    0.30
  -3   3  -7    0.59    0.22
  -3   3  -7    0.45    0.26
   3  -3   7    0.22    0.23
   3  -3   7    0.55    0.24
  -4   3  -7    2.02    0.40
  -4   3  -7    1.95    0.42
  -4   3  -7    1.68    0.30
   4  -3   7    1.09    0.32
   4  -3   7    2.18    0.38
  -5   3  -7    1.14    0.27
  -5   3  -7    0.82    0.36
  -5   3  -7    1.02    0.35
   5  -3   7    1.50    0.36
   6   2  -7   -0.04    0.23
   6   2  -7    0.04    0.28
  -6  -2   7    0.31    0.26
   5   2  -7   33.36    1.58
   5   2  -7   36.70    1.42
   5   2  -7   40.32    1.77
   5   2  -7   33.41    1.30
   5   2  -7   35.05    1.48
  -5  -2   7   39.62    1.52
  -5  -2   7   33.50    1.64
  -5  -2   7   38.63    1.37
   4   2  -7    0.33    0.22
   4   2  -7   -0.16    0.16
   4   2  -7    0.41    0.28
   4   2  -7    0.20    0.17
   4   2  -7    0.09    0.18
   4   2  -7   -0.03    0.14
  -4  -2   7    0.19    0.16
  -4  -2   7    0.26    0.23
   3   2  -7   -0.10    0.07
   3   2  -7    0.06    0.18
   3   2  -7    0.22    0.19
   3   2  -7    0.05    0.21
   3   2  -7    0.07    0.16
  -3  -2   7   -0.04    0.13
  -3  -2   7    0.10    0.15
   2   2  -7   13.86    0.74
   2   2  -7   12.73    0.44
   2   2  -7   12.52    0.69
   2   2  -7   13.03    0.64
   2   2  -7   13.12    0.54
   2   2  -7   12.63    0.70
   2   2  -7   13.11    0.57
  -2  -2   7   12.38    0.60
  -2  -2   7   12.54    0.65
   1   2  -7    4.41    0.37
   1   2  -7    4.83    0.31
   1   2  -7    5.09    0.37
   1   2  -7    4.09    0.37
   1   2  -7    4.71    0.47
  -1  -2   7    5.21    0.36
  -1  -2   7    3.91    0.39
  -1  -2   7    4.56    0.41
   0   2  -7    8.80    0.48
   0   2  -7    8.55    0.43
   0   2  -7    8.34    0.49
   0   2  -7    7.60    0.59
   0  -2   7    9.36    0.57
   0  -2   7    8.97    0.50
   0  -2   7    9.28    0.54
  -1   2  -7    1.06    0.31
  -1   2  -7    0.57    0.20
  -1   2  -7    0.97    0.25
   1  -2   7    1.22    0.28
   1  -2   7    1.06    0.21
   1  -2   7    0.93    0.23
  -2   2  -7    8.98    0.55
  -2   2  -7   10.83    0.63
  -2   2  -7   10.26    0.72
   2  -2   7    9.91    0.66
   2  -2   7    9.84    0.58
   2  -2   7    9.95    0.61
   2  -2   7    9.78    0.52
  -3   2  -7    6.17    0.49
  -3   2  -7    6.98    0.56
  -3   2  -7    7.45    0.64
   3  -2   7    7.58    0.55
   3  -2   7    7.07    0.48
   3  -2   7    7.42    0.57
   3  -2   7    6.39    0.53
  -4   2  -7    4.93    0.48
  -4   2  -7    5.88    0.66
  -4   2  -7    5.63    0.56
   4  -2   7    4.59    0.48
   4  -2   7    5.00    0.56
   4  -2   7    4.34    0.49
  -5   2  -7    0.80    0.34
  -5   2  -7    1.45    0.31
  -5   2  -7    1.86    0.40
   5  -2   7    1.60    0.36
   5  -2   7    1.42    0.34
   6   1  -7   13.61    0.81
  -6  -1   7   14.20    0.91
   5   1  -7    1.84    0.36
   5   1  -7    2.06    0.30
   5   1  -7    2.07    0.26
  -5  -1   7    2.40    0.32
  -5  -1   7    2.32    0.41
  -5  -1   7    2.22    0.28
   4   1  -7    1.43    0.21
   4   1  -7    1.17    0.23
   4   1  -7    1.48    0.35
   4   1  -7    1.46    0.21
   4   1  -7    0.73    0.25
  -4  -1   7    1.04    0.21
  -4  -1   7    0.92    0.24
   3   1  -7    2.44    0.32
   3   1  -7    2.70    0.35
   3   1  -7    3.19    0.41
   3   1  -7    2.72    0.31
  -3  -1   7    2.95    0.31
  -3  -1   7    2.71    0.34
   2   1  -7   48.74    1.66
   2   1  -7   47.32    1.73
   2   1  -7   45.93    1.43
   2   1  -7   49.02    1.86
   2   1  -7   43.32    1.81
   2   1  -7   45.02    1.69
   2   1  -7   48.15    1.90
  -2  -1   7   45.38    1.74
  -2  -1   7   46.14    1.64
   1   1  -7    0.28    0.15
   1   1  -7    0.25    0.21
   1   1  -7    0.22    0.16
  -1  -1   7    0.33    0.18
  -1  -1   7    0.29    0.16
  -1  -1   7    0.41    0.17
   0   1  -7   19.32    0.82
   0   1  -7   18.24    0.83
   0   1  -7   19.33    0.98
   0  -1   7   19.99    0.91
   0  -1   7   17.51    0.84
   0  -1   7   18.35    0.80
  -1   1  -7    3.43    0.36
  -1   1  -7    3.51    0.36
  -1   1  -7    3.39    0.46
   1  -1   7    3.71    0.36
   1  -1   7    2.88    0.33
   1  -1   7    3.05    0.38
   1  -1   7    3.17    0.34
   1  -1   7    3.17    0.36
  -2   1  -7    4.39    0.55
  -2   1  -7    4.42    0.43
  -2   1  -7    4.45    0.44
   2  -1   7    4.62    0.42
   2  -1   7    3.99    0.42
   2  -1   7    4.01    0.41
   2  -1   7    4.15    0.47
  -3   1  -7    0.10    0.21
  -3   1  -7    0.37    0.25
  -3   1  -7    0.50    0.31
   3  -1   7    0.40    0.17
   3  -1   7    0.48    0.22
   3  -1   7    0.13    0.22
   3  -1   7    0.04    0.18
   3  -1   7    0.36    0.18
  -4   1  -7    3.20    0.52
  -4   1  -7    3.08    0.40
  -4   1  -7    2.48    0.40
   4  -1   7    3.73    0.43
   4  -1   7    3.15    0.44
   4  -1   7    3.27    0.47
  -5   1  -7   -0.11    0.26
  -5   1  -7    0.85    0.27
  -5   1  -7    0.20    0.31
   5  -1   7    0.24    0.25
   5  -1   7    0.25    0.27
   5  -1   7    0.57    0.27
   6   0  -7    1.00    0.34
  -6   0   7    1.39    0.36
  -6   0   7    0.97    0.23
   5   0  -7    9.93    0.56
   5   0  -7   10.19    0.67
  -5   0   7   11.15    0.59
  -5   0   7   10.21    0.63
   4   0  -7    0.53    0.18
   4   0  -7    0.36    0.15
   4   0  -7    0.56    0.16
   4   0  -7    0.26    0.20
  -4   0   7    0.68    0.22
  -4   0   7    0.41    0.17
   3   0  -7    1.24    0.27
   3   0  -7    1.40    0.23
   3   0  -7    1.60    0.20
   3   0  -7    1.34    0.26
  -3   0   7    1.34    0.26
  -3   0   7    1.83    0.26
   2   0  -7   58.46    2.20
   2   0  -7   57.74    2.12
   2   0  -7   55.58    2.02
  -2   0   7   57.39    2.12
  -2   0   7   54.64    1.95
  -2   0   7   56.04    2.10
   1   0  -7   26.18    1.07
   1   0  -7   24.23    1.03
   1   0  -7   25.53    1.01
   1   0  -7   25.16    1.17
  -1   0   7   24.63    1.10
  -1   0   7   24.48    1.01
  -1   0   7   26.04    1.12
   0   0  -7    0.75    0.20
   0   0  -7    0.83    0.26
   0   0  -7    0.66    0.20
   0   0   7    1.09    0.24
   0   0   7    0.53    0.20
   0   0   7    0.81    0.19
   0   0   7    0.70    0.20
  -1   0  -7    4.64    0.38
  -1   0  -7    4.04    0.50
  -1   0  -7    4.43    0.40
   1   0   7    4.56    0.41
   1   0   7    4.05    0.41
   1   0   7    4.45    0.46
   1   0   7    4.77    0.40
  -2   0  -7    0.41    0.23
  -2   0  -7    0.34    0.22
  -2   0  -7   -0.01    0.24
   2   0   7    0.17    0.22
   2   0   7   -0.03    0.18
   2   0   7    0.05    0.17
   2   0   7    0.41    0.20
  -3   0  -7   -0.08    0.22
  -3   0  -7    0.34    0.28
  -3   0  -7    0.21    0.22
   3   0   7    0.14    0.19
   3   0   7    0.28    0.18
   3   0   7   -0.24    0.15
   3   0   7    0.13    0.18
   3   0   7    0.03    0.19
  -4   0  -7    1.63    0.40
  -4   0  -7    1.80    0.34
  -4   0  -7    1.53    0.34
   4   0   7    1.23    0.32
   4   0   7    1.40    0.32
   4   0   7    1.42    0.33
  -5   0  -7    1.08    0.31
  -5   0  -7    1.06    0.33
  -5   0  -7    0.67    0.35
   5   0   7    1.63    0.38
   5   0   7    1.53    0.34
   5   0   7    1.00    0.33
   6  -1  -7    2.40    0.41
  -6   1   7    2.90    0.47
  -6   1   7    2.93    0.37
   5  -1  -7   15.00    0.86
  -5   1   7   17.46    0.88
  -5   1   7   16.37    0.81
   4  -1  -7    1.70    0.31
   4  -1  -7    1.62    0.24
   4  -1  -7    1.96    0.23
  -4   1   7    1.91    0.30
  -4   1   7    2.32    0.32
   3  -1  -7    5.73    0.44
   3  -1  -7    5.30    0.46
   3  -1  -7    5.66    0.39
  -3   1   7    5.71    0.48
  -3   1   7    5.63    0.42
   2  -1  -7   26.85    0.91
   2  -1  -7   29.48    1.14
   2  -1  -7   27.34    1.22
   2  -1  -7   26.90    1.09
  -2   1   7   27.03    1.16
  -2   1   7   28.61    1.21
  -2   1   7   25.90    1.09
   1  -1  -7    1.02    0.23
   1  -1  -7    0.98    0.30
   1  -1  -7    1.46    0.24
  -1   1   7    1.00    0.23
  -1   1   7    1.09    0.19
  -1   1   7    1.32    0.27
  -1   1   7    1.23    0.26
   0  -1  -7  117.40    4.26
   0  -1  -7  117.49    3.90
   0  -1  -7  112.89    3.90
   0   1   7  116.56    4.13
   0   1   7  113.37    3.87
   0   1   7  117.80    4.25
   0   1   7  125.48    4.14
  -1  -1  -7    4.05    0.51
  -1  -1  -7    3.29    0.38
  -1  -1  -7    3.59    0.39
   1   1   7    3.27    0.37
   1   1   7    3.38    0.35
   1   1   7    2.85    0.39
   1   1   7    3.53    0.40
  -2  -1  -7   -0.05    0.18
  -2  -1  -7   -0.25    0.23
  -2  -1  -7   -0.31    0.18
   2   1   7    0.04    0.17
   2   1   7    0.05    0.20
   2   1   7    0.17    0.20
   2   1   7    0.21    0.20
  -3  -1  -7    0.26    0.22
  -3  -1  -7    0.29    0.24
  -3  -1  -7    0.22    0.28
   3   1   7    0.29    0.25
   3   1   7    0.31    0.22
   3   1   7    0.43    0.24
   3   1   7    0.15    0.20
   3   1   7    0.52    0.20
  -4  -1  -7    2.41    0.38
  -4  -1  -7    1.81    0.44
  -4  -1  -7    1.85    0.35
   4   1   7    2.01    0.37
   4   1   7    1.66    0.37
   4   1   7    1.05    0.29
   6  -2  -7    1.88    0.37
  -6   2   7    1.73    0.31
   5  -2  -7    2.11    0.37
  -5   2   7    2.55    0.36
  -5   2   7    2.02    0.34
   4  -2  -7    0.28    0.20
   4  -2  -7    0.49    0.18
   4  -2  -7    0.50    0.17
  -4   2   7    0.53    0.24
  -4   2   7    0.46    0.20
   3  -2  -7   78.95    2.68
   3  -2  -7   78.18    2.88
  -3   2   7   73.87    2.65
  -3   2   7   79.95    2.85
   2  -2  -7   16.12    0.85
   2  -2  -7   16.90    0.78
   2  -2  -7   14.81    0.73
   2  -2  -7   15.95    0.60
  -2   2   7   16.18    0.83
  -2   2   7   17.57    0.90
  -2   2   7   16.43    0.79
   1  -2  -7    9.63    0.56
   1  -2  -7   10.08    0.67
  -1   2   7    9.43    0.56
  -1   2   7    9.14    0.62
  -1   2   7   10.38    0.63
  -1   2   7   10.10    0.52
   0  -2  -7    4.73    0.52
   0  -2  -7    4.67    0.44
   0   2   7    4.36    0.38
   0   2   7    5.69    0.48
   0   2   7    4.88    0.44
   0   2   7    4.53    0.47
  -1  -2  -7   17.34    0.82
  -1  -2  -7   16.40    0.83
  -1  -2  -7   16.52    0.99
   1   2   7   15.95    0.77
   1   2   7   15.74    0.83
   1   2   7   16.36    0.86
   1   2   7   16.55    0.91
  -2  -2  -7    0.50    0.23
  -2  -2  -7    0.63    0.24
  -2  -2  -7    0.50    0.31
   2   2   7    0.77    0.23
   2   2   7    1.13    0.28
   2   2   7    0.61    0.24
   2   2   7    0.69    0.29
   2   2   7    0.61    0.24
  -3  -2  -7    0.30    0.22
  -3  -2  -7    0.46    0.32
  -3  -2  -7    0.05    0.21
   3   2   7    0.42    0.23
   3   2   7    0.54    0.22
   3   2   7    0.20    0.21
   3   2   7    0.19    0.23
  -4  -2  -7    0.76    0.28
  -4  -2  -7    0.56    0.33
  -4  -2  -7    0.39    0.25
   4   2   7    0.19    0.26
   4   2   7    0.29    0.22
   4   2   7    0.19    0.23
   5  -3  -7   19.83    1.02
  -5   3   7   17.75    0.94
  -5   3   7   22.86    1.06
   4  -3  -7    1.42    0.24
   4  -3  -7    1.06    0.28
  -4   3   7    0.85    0.24
  -4   3   7    1.41    0.31
   3  -3  -7   29.64    1.26
   3  -3  -7   28.08    1.12
  -3   3   7   25.17    1.14
  -3   3   7   29.48    1.29
   2  -3  -7   -0.03    0.20
   2  -3  -7    0.18    0.11
   2  -3  -7   -0.06    0.15
  -2   3   7    0.08    0.19
  -2   3   7    0.16    0.18
   1  -3  -7   13.86    0.58
   1  -3  -7   13.70    0.81
   1  -3  -7   12.40    0.68
  -1   3   7   14.13    0.81
  -1   3   7   13.58    0.78
  -1   3   7   11.89    0.67
  -1   3   7   14.21    0.68
   0  -3  -7    1.54    0.36
   0  -3  -7    1.51    0.30
   0   3   7    1.75    0.36
   0   3   7    1.79    0.28
   0   3   7    2.31    0.32
   0   3   7    1.87    0.35
  -1  -3  -7    0.80    0.31
  -1  -3  -7    1.49    0.30
  -1  -3  -7    0.86    0.26
   1   3   7    1.00    0.31
   1   3   7    0.51    0.23
   1   3   7    0.83    0.23
   1   3   7    1.15    0.26
  -2  -3  -7    3.94    0.43
  -2  -3  -7    2.96    0.50
  -2  -3  -7    3.08    0.42
   2   3   7    2.67    0.40
   2   3   7    3.36    0.38
   2   3   7    4.14    0.48
   2   3   7    4.03    0.54
   2   3   7    3.88    0.45
  -3  -3  -7    6.07    0.71
  -3  -3  -7    6.48    0.51
  -3  -3  -7    5.67    0.58
   3   3   7    4.76    0.56
   3   3   7    5.71    0.46
   3   3   7    6.20    0.57
   3   3   7    8.57    0.80
   5  -4  -7    1.80    0.33
  -5   4   7    2.32    0.38
   4  -4  -7   21.17    0.94
   4  -4  -7   19.96    1.03
  -4   4   7   18.34    0.93
   3  -4  -7   27.27    1.23
  -3   4   7   24.45    1.11
   2  -4  -7    2.16    0.36
   2  -4  -7    1.89    0.28
  -2   4   7    1.77    0.32
   1  -4  -7   13.58    0.72
   1  -4  -7   13.00    0.84
   1  -4  -7   14.47    0.63
  -1   4   7   11.83    0.69
  -1   4   7   14.10    0.82
  -1   4   7   13.16    0.68
   0  -4  -7    5.66    0.61
   0  -4  -7    6.30    0.49
   0   4   7    6.64    0.50
   0   4   7    7.48    0.49
   0   4   7    7.13    0.59
  -1  -4  -7    2.45    0.37
  -1  -4  -7    2.21    0.43
   1   4   7    1.85    0.33
   1   4   7    2.33    0.33
   1   4   7    2.40    0.42
  -2  -4  -7    0.48    0.31
  -2  -4  -7    1.17    0.30
  -2  -4  -7    0.51    0.25
   2   4   7    0.80    0.32
   2   4   7    0.67    0.23
   2   4   7    0.86    0.28
  -3  -4  -7   -0.03    0.23
  -3  -4  -7   -0.21    0.21
  -3  -4  -7    0.45    0.34
   3   4   7    0.47    0.22
   3   4   7    0.37    0.29
   3   4   7   -0.29    0.18
   4  -5  -7    2.56    0.34
  -4   5   7    2.19    0.37
   3  -5  -7    6.05    0.52
  -3   5   7    5.98    0.57
   2  -5  -7    0.35    0.24
   2  -5  -7   -0.11    0.18
  -2   5   7    0.41    0.21
   1  -5  -7    1.66    0.37
   1  -5  -7    1.64    0.24
   1  -5  -7    1.34    0.29
  -1   5   7    1.30    0.28
   0  -5  -7    5.67    0.62
   0  -5  -7    4.71    0.49
   0   5   7    4.22    0.55
   0   5   7    4.45    0.45
   0   5   7    5.11    0.50
  -1  -5  -7   -0.32    0.19
  -1  -5  -7   -0.09    0.24
   1   5   7    0.04    0.20
   1   5   7    0.17    0.22
   1   5   7   -0.10    0.25
  -2  -5  -7    0.25    0.30
  -2  -5  -7   -0.13    0.21
   2   5   7    0.11    0.31
   2   5   7    0.07    0.19
   2   5   7   -0.03    0.21
   2  -6  -7    0.55    0.29
  -2   6   7    0.53    0.23
   1  -6  -7    0.41    0.29
   1  -6  -7    0.61    0.26
  -1   6   7    0.70    0.25
   0  -6  -7    1.27    0.39
   0  -6  -7    2.21    0.37
   0   6   7    2.53    0.48
   0   6   7    1.89    0.36
   0   6   7    1.76    0.31
   2  10  -8   -0.07    0.19
   2  10  -8   -0.35    0.19
   2  10  -8    0.23    0.35
   2  10  -8   -0.10    0.22
  -2 -10   8   -0.09    0.28
  -2 -10   8    0.26    0.25
   1  10  -8    0.68    0.30
   1  10  -8    0.96    0.40
   1  10  -8    1.35    0.31
  -1 -10   8    0.60    0.30
  -1 -10   8    0.90    0.33
   0  10  -8    7.74    0.83
   0  10  -8    8.05    0.60
   0  10  -8    8.52    0.58
   0  10  -8    7.80    0.61
   0 -10   8    9.10    0.70
   0 -10   8    8.33    0.66
  -1  10  -8    0.56    0.30
  -1  10  -8    0.29    0.24
  -1  10  -8    0.39    0.40
   1 -10   8    0.28    0.27
   3   9  -8    0.61    0.30
   3   9  -8    0.74    0.26
   3   9  -8    0.52    0.27
   3   9  -8    0.57    0.36
  -3  -9   8    0.44    0.32
   2   9  -8    1.43    0.35
   2   9  -8    0.87    0.27
   2   9  -8    1.03    0.39
   2   9  -8    0.65    0.23
  -2  -9   8    0.82    0.35
  -2  -9   8    0.97    0.32
   1   9  -8   10.54    0.67
   1   9  -8   10.45    0.86
   1   9  -8   10.16    0.70
   1   9  -8   10.71    0.64
   1   9  -8   10.40    0.64
  -1  -9   8    9.49    0.71
  -1  -9   8   12.48    0.79
   0   9  -8   10.65    0.87
   0   9  -8    9.21    0.63
   0   9  -8    8.53    0.63
   0   9  -8   10.85    0.67
   0  -9   8    7.33    0.61
   0  -9   8    8.87    0.68
  -1   9  -8   12.37    0.73
  -1   9  -8   11.97    0.71
  -1   9  -8   11.46    0.90
  -1   9  -8   10.11    0.72
   1  -9   8   11.40    0.79
  -2   9  -8   25.57    1.21
  -2   9  -8   23.40    1.10
  -2   9  -8   23.76    1.40
   2  -9   8   25.98    1.34
  -3   9  -8    0.48    0.37
  -3   9  -8    0.04    0.34
   3  -9   8    0.56    0.27
   4   8  -8    6.31    0.51
   4   8  -8    5.26    0.64
   4   8  -8    6.25    0.58
   4   8  -8    5.67    0.64
   4   8  -8    5.86    0.60
  -4  -8   8    5.35    0.62
   3   8  -8    0.04    0.18
   3   8  -8    0.00    0.22
   3   8  -8   -0.22    0.22
   3   8  -8   -0.08    0.18
   3   8  -8   -0.03    0.28
  -3  -8   8   -0.33    0.26
   2   8  -8    0.98    0.26
   2   8  -8    1.91    0.30
   2   8  -8    1.23    0.37
   2   8  -8    0.92    0.29
  -2  -8   8    1.97    0.38
  -2  -8   8    1.61    0.33
   1   8  -8    1.10    0.27
   1   8  -8    1.31    0.32
   1   8  -8    1.42    0.31
   1   8  -8    1.56    0.27
   1   8  -8    1.18    0.41
  -1  -8   8    1.67    0.36
  -1  -8   8    1.81    0.36
   0   8  -8   -0.01    0.17
   0   8  -8   -0.14    0.19
   0   8  -8    0.26    0.19
   0   8  -8   -0.17    0.28
   0   8  -8   -0.15    0.21
   0   8  -8    0.29    0.23
   0  -8   8    0.10    0.24
   0  -8   8   -0.04    0.21
  -1   8  -8    3.58    0.43
  -1   8  -8    3.56    0.42
  -1   8  -8    3.95    0.59
  -1   8  -8    3.12    0.40
  -1   8  -8    3.77    0.45
   1  -8   8    3.41    0.39
   1  -8   8    4.08    0.51
  -2   8  -8    7.61    0.79
  -2   8  -8    7.16    0.53
  -2   8  -8    6.96    0.58
  -2   8  -8    8.64    0.63
   2  -8   8    7.36    0.61
  -3   8  -8   -0.03    0.31
  -3   8  -8    0.52    0.33
  -3   8  -8    0.10    0.20
   3  -8   8   -0.06    0.20
   4   7  -8    4.13    0.50
   4   7  -8    3.88    0.41
   4   7  -8    4.12    0.56
   4   7  -8    3.84    0.53
   4   7  -8    3.32    0.42
  -4  -7   8    4.37    0.57
   3   7  -8    2.38    0.34
   3   7  -8    3.34    0.44
   3   7  -8    2.99    0.35
   3   7  -8    3.65    0.51
   3   7  -8    3.07    0.49
  -3  -7   8    2.91    0.46
   2   7  -8   11.61    0.71
   2   7  -8   11.33    0.64
   2   7  -8   13.26    0.78
   2   7  -8   11.91    0.64
   2   7  -8   13.06    0.87
  -2  -7   8   13.58    0.70
  -2  -7   8   12.97    0.83
  -2  -7   8   13.35    0.79
   1   7  -8   37.23    1.56
   1   7  -8   39.41    1.62
   1   7  -8   39.98    1.59
   1   7  -8   40.27    1.81
   1   7  -8   38.66    1.60
  -1  -7   8   38.32    1.67
  -1  -7   8   39.79    1.52
  -1  -7   8   40.67    1.72
   0   7  -8   22.11    0.94
   0   7  -8   22.50    1.01
   0   7  -8   22.37    1.03
   0   7  -8   20.82    1.18
   0   7  -8   21.03    0.99
   0   7  -8   19.92    1.01
   0  -7   8   21.68    1.04
   0  -7   8   21.73    1.11
  -1   7  -8    1.10    0.27
  -1   7  -8    1.22    0.29
  -1   7  -8    1.21    0.27
  -1   7  -8    1.14    0.25
  -1   7  -8    1.45    0.41
  -1   7  -8    1.31    0.31
   1  -7   8    0.65    0.26
   1  -7   8    1.49    0.28
  -2   7  -8   21.07    1.02
  -2   7  -8   20.35    1.20
  -2   7  -8   19.75    0.95
  -2   7  -8   19.41    1.07
   2  -7   8   19.53    1.05
  -3   7  -8    0.49    0.23
  -3   7  -8    0.88    0.37
  -3   7  -8    0.84    0.32
   3  -7   8    0.08    0.23
  -4   7  -8   -0.15    0.28
  -4   7  -8   -0.01    0.33
   4  -7   8    0.58    0.27
   5   6  -8    0.23    0.22
   5   6  -8    0.16    0.29
   5   6  -8    0.16    0.27
   5   6  -8    0.14    0.22
   5   6  -8   -0.20    0.21
  -5  -6   8    0.20    0.27
   4   6  -8   14.21    0.92
   4   6  -8   12.12    0.71
   4   6  -8   14.68    0.72
   4   6  -8   13.03    0.79
   4   6  -8   14.57    0.86
  -4  -6   8   13.59    0.88
   3   6  -8    0.15    0.16
   3   6  -8    0.25    0.21
   3   6  -8    0.15    0.18
   3   6  -8    0.23    0.29
   3   6  -8    0.36    0.21
   3   6  -8   -0.15    0.25
  -3  -6   8    0.15    0.19
  -3  -6   8    0.16    0.24
   2   6  -8    3.11    0.39
   2   6  -8    3.93    0.50
   2   6  -8    3.80    0.48
   2   6  -8    3.16    0.42
   2   6  -8    4.24    0.35
   2   6  -8    3.21    0.43
  -2  -6   8    3.71    0.43
  -2  -6   8    3.34    0.43
  -2  -6   8    4.11    0.39
   1   6  -8    8.65    0.58
   1   6  -8   10.67    0.76
   1   6  -8    9.99    0.48
   1   6  -8    9.60    0.49
   1   6  -8    9.12    0.61
   1   6  -8    9.06    0.61
   1   6  -8    9.77    0.55
  -1  -6   8   10.97    0.68
  -1  -6   8    9.17    0.63
  -1  -6   8    8.95    0.58
   0   6  -8    6.20    0.48
   0   6  -8    5.14    0.44
   0   6  -8    5.09    0.59
   0   6  -8    5.51    0.45
   0   6  -8    5.47    0.43
   0   6  -8    5.36    0.42
   0  -6   8    5.66    0.51
   0  -6   8    6.63    0.55
   0  -6   8    6.29    0.50
  -1   6  -8    4.88    0.49
  -1   6  -8    5.21    0.63
  -1   6  -8    5.37    0.43
  -1   6  -8    5.32    0.48
  -1   6  -8    4.70    0.44
   1  -6   8    4.99    0.43
   1  -6   8    4.65    0.48
   1  -6   8    5.06    0.41
   1  -6   8    5.47    0.55
  -2   6  -8   39.79    1.83
  -2   6  -8   37.37    1.73
  -2   6  -8   40.65    1.52
  -2   6  -8   38.32    1.60
  -2   6  -8   38.60    1.53
   2  -6   8   40.70    1.77
   2  -6   8   41.04    1.63
  -3   6  -8    3.85    0.40
  -3   6  -8    4.44    0.59
  -3   6  -8    3.76    0.50
  -3   6  -8    2.39    0.43
   3  -6   8    4.04    0.51
  -4   6  -8    6.57    0.49
  -4   6  -8    6.58    0.67
  -4   6  -8    6.49    0.74
   4  -6   8    5.61    0.60
   5   5  -8    0.04    0.21
   5   5  -8   -0.11    0.20
   5   5  -8    0.10    0.19
   5   5  -8    0.21    0.24
   5   5  -8    0.23    0.28
  -5  -5   8    0.37    0.28
   4   5  -8    0.60    0.24
   4   5  -8    0.14    0.27
   4   5  -8    0.43    0.26
   4   5  -8    0.26    0.20
   4   5  -8    0.21    0.21
  -4  -5   8    0.43    0.26
   3   5  -8    7.54    0.60
   3   5  -8    7.05    0.58
   3   5  -8    6.62    0.51
   3   5  -8    6.78    0.42
   3   5  -8    6.00    0.60
   3   5  -8    7.95    0.58
   3   5  -8    6.58    0.47
  -3  -5   8    6.68    0.45
  -3  -5   8    7.25    0.60
   2   5  -8   52.70    1.96
   2   5  -8   45.42    1.95
   2   5  -8   51.84    2.07
   2   5  -8   49.38    1.83
   2   5  -8   47.31    2.02
   2   5  -8   45.75    1.84
  -2  -5   8   44.80    1.92
  -2  -5   8   49.45    1.89
  -2  -5   8   47.02    1.69
   1   5  -8   20.07    0.75
   1   5  -8   18.97    0.88
   1   5  -8   20.38    0.96
   1   5  -8   20.99    1.08
   1   5  -8   19.44    0.79
   1   5  -8   18.88    0.91
   1   5  -8   18.97    0.95
  -1  -5   8   19.93    0.96
  -1  -5   8   18.45    0.86
  -1  -5   8   18.67    0.94
   0   5  -8    0.46    0.22
   0   5  -8    0.21    0.29
   0   5  -8    0.13    0.14
   0   5  -8    0.00    0.18
   0   5  -8    0.55    0.23
   0   5  -8    0.15    0.18
   0  -5   8    0.23    0.22
   0  -5   8    0.24    0.22
   0  -5   8    0.18    0.19
   0  -5   8    0.45    0.22
  -1   5  -8   -0.12    0.25
  -1   5  -8    0.16    0.21
  -1   5  -8    0.09    0.18
  -1   5  -8    0.04    0.22
  -1   5  -8   -0.02    0.18
   1  -5   8    0.11    0.24
   1  -5   8   -0.06    0.19
   1  -5   8    0.20    0.17
   1  -5   8   -0.16    0.16
  -2   5  -8    0.12    0.20
  -2   5  -8   -0.11    0.15
  -2   5  -8   -0.05    0.26
  -2   5  -8    0.30    0.25
   2  -5   8    0.21    0.21
   2  -5   8    0.29    0.24
  -3   5  -8   -0.19    0.25
  -3   5  -8    0.13    0.21
  -3   5  -8   -0.13    0.26
   3  -5   8   -0.34    0.17
   3  -5   8   -0.28    0.24
  -4   5  -8    3.74    0.41
  -4   5  -8    3.92    0.52
  -4   5  -8    4.35    0.62
   4  -5   8    3.38    0.47
   5   4  -8    6.46    0.48
   5   4  -8    6.30    0.52
   5   4  -8    6.35    0.50
   5   4  -8    6.62    0.70
   5   4  -8    5.68    0.45
  -5  -4   8    5.80    0.63
   4   4  -8    6.07    0.61
   4   4  -8    6.28    0.50
   4   4  -8    6.30    0.45
   4   4  -8    6.90    0.52
   4   4  -8    7.23    0.64
   4   4  -8    5.57    0.46
  -4  -4   8    6.75    0.66
  -4  -4   8    7.87    0.46
   3   4  -8   11.35    0.75
   3   4  -8   13.41    0.57
   3   4  -8   11.91    0.73
   3   4  -8   13.12    0.79
   3   4  -8   11.26    0.72
   3   4  -8   10.42    0.65
   3   4  -8   11.59    0.61
  -3  -4   8   10.98    0.72
  -3  -4   8   12.10    0.59
   2   4  -8    0.18    0.12
   2   4  -8   -0.17    0.19
   2   4  -8    0.19    0.18
   2   4  -8   -0.14    0.10
   2   4  -8   -0.20    0.18
   2   4  -8   -0.11    0.08
   2   4  -8    0.01    0.24
   2   4  -8   -0.03    0.19
  -2  -4   8   -0.06    0.17
  -2  -4   8    0.04    0.17
  -2  -4   8    0.04    0.22
   1   4  -8    9.76    0.59
   1   4  -8    9.52    0.47
   1   4  -8    9.05    0.57
   1   4  -8    9.67    0.53
   1   4  -8    9.82    0.70
   1   4  -8    9.18    0.59
   1   4  -8    9.80    0.44
  -1  -4   8    9.10    0.62
  -1  -4   8   10.84    0.58
  -1  -4   8   11.02    0.66
   0   4  -8    3.18    0.47
   0   4  -8    2.30    0.26
   0   4  -8    3.05    0.33
   0   4  -8    2.92    0.30
   0   4  -8    3.03    0.35
   0   4  -8    3.55    0.38
   0  -4   8    2.78    0.39
   0  -4   8    3.22    0.36
   0  -4   8    3.13    0.36
   0  -4   8    2.51    0.34
  -1   4  -8    8.84    0.56
  -1   4  -8    7.69    0.53
  -1   4  -8    9.21    0.71
  -1   4  -8    8.37    0.53
   1  -4   8    6.90    0.52
   1  -4   8    8.59    0.51
   1  -4   8    7.84    0.58
   1  -4   8    8.49    0.51
  -2   4  -8    8.54    0.58
  -2   4  -8    9.41    0.76
  -2   4  -8    7.40    0.51
   2  -4   8    7.64    0.58
   2  -4   8    8.45    0.63
  -3   4  -8    1.42    0.29
  -3   4  -8    1.74    0.36
  -3   4  -8    1.33    0.38
   3  -4   8    1.15    0.32
   3  -4   8    1.44    0.34
  -4   4  -8   -0.19    0.26
  -4   4  -8    0.47    0.31
  -4   4  -8    0.38    0.22
   4  -4   8   -0.18    0.19
   6   3  -8   -0.03    0.30
   6   3  -8    0.18    0.22
   6   3  -8   -0.09    0.22
  -6  -3   8    0.03    0.24
   5   3  -8    3.16    0.48
   5   3  -8    4.02    0.35
   5   3  -8    3.81    0.43
   5   3  -8    4.62    0.60
   5   3  -8    5.25    0.45
   5   3  -8    4.99    0.49
  -5  -3   8    4.35    0.54
   4   3  -8    2.94    0.32
   4   3  -8    3.36    0.47
   4   3  -8    2.57    0.41
   4   3  -8    2.82    0.36
   4   3  -8    3.18    0.37
  -4  -3   8    2.32    0.41
  -4  -3   8    3.54    0.32
   3   3  -8    5.17    0.53
   3   3  -8    5.08    0.51
   3   3  -8    4.64    0.44
   3   3  -8    5.44    0.48
  -3  -3   8    6.13    0.52
  -3  -3   8    5.07    0.40
   2   3  -8   -0.02    0.22
   2   3  -8    0.29    0.12
   2   3  -8    0.03    0.08
   2   3  -8    0.28    0.22
   2   3  -8    0.09    0.20
   2   3  -8    0.06    0.17
  -2  -3   8   -0.14    0.19
  -2  -3   8   -0.13    0.17
  -2  -3   8    0.15    0.18
   1   3  -8   13.11    0.72
   1   3  -8   14.61    0.84
   1   3  -8   13.95    0.55
   1   3  -8   13.44    0.61
   1   3  -8   12.47    0.69
   1   3  -8   14.42    0.72
  -1  -3   8   12.90    0.67
  -1  -3   8   13.90    0.75
   0   3  -8    8.71    0.48
   0   3  -8    8.64    0.66
   0   3  -8    9.29    0.46
   0   3  -8    8.78    0.51
   0   3  -8    7.85    0.53
   0  -3   8    8.70    0.59
   0  -3   8    8.04    0.54
   0  -3   8    8.97    0.53
  -1   3  -8    3.72    0.39
  -1   3  -8    3.71    0.40
  -1   3  -8    3.60    0.50
   1  -3   8    3.83    0.46
   1  -3   8    3.88    0.42
   1  -3   8    3.96    0.38
  -2   3  -8   17.53    1.01
  -2   3  -8   15.79    0.80
  -2   3  -8   16.04    0.84
   2  -3   8   15.85    0.75
   2  -3   8   16.44    0.83
   2  -3   8   17.31    0.93
  -3   3  -8    9.73    0.65
  -3   3  -8   10.02    0.78
  -3   3  -8    8.72    0.57
   3  -3   8    9.78    0.66
   3  -3   8    9.61    0.69
  -4   3  -8    1.38    0.30
  -4   3  -8    1.86    0.39
  -4   3  -8    1.78    0.46
   4  -3   8    1.25    0.33
   4  -3   8    1.40    0.36
  -6  -2   8    6.32    0.68
   5   2  -8    1.32    0.26
   5   2  -8    1.11    0.32
   5   2  -8    1.74    0.42
   5   2  -8    1.88    0.31
  -5  -2   8    1.60    0.26
  -5  -2   8    1.11    0.27
  -5  -2   8    1.35    0.35
   4   2  -8    4.05    0.39
   4   2  -8    3.73    0.34
   4   2  -8    3.79    0.50
   4   2  -8    3.89    0.40
   4   2  -8    3.17    0.44
  -4  -2   8    3.63    0.48
  -4  -2   8    3.52    0.35
   3   2  -8   12.65    0.68
   3   2  -8   10.92    0.68
   3   2  -8   10.12    0.61
   3   2  -8   11.05    0.72
  -3  -2   8   11.18    0.59
   2   2  -8   46.67    1.74
   2   2  -8   44.43    1.85
   2   2  -8   45.57    1.89
   2   2  -8   49.53    1.92
  -2  -2   8   50.41    1.89
  -2  -2   8   46.49    1.72
   1   2  -8   51.13    1.99
   1   2  -8   55.94    1.94
   1   2  -8   59.10    2.24
   1   2  -8   54.63    2.13
  -1  -2   8   54.97    2.11
  -1  -2   8   53.67    1.93
   0   2  -8    5.76    0.43
   0   2  -8    5.79    0.41
   0   2  -8    5.54    0.58
   0   2  -8    6.07    0.34
   0  -2   8    6.06    0.51
   0  -2   8    5.47    0.42
  -1   2  -8    2.70    0.44
  -1   2  -8    2.04    0.31
  -1   2  -8    2.37    0.33
   1  -2   8    2.13    0.36
   1  -2   8    2.23    0.34
   1  -2   8    2.50    0.32
  -2   2  -8   -0.19    0.22
  -2   2  -8    0.17    0.21
  -2   2  -8   -0.16    0.24
   2  -2   8    0.08    0.21
   2  -2   8    0.22    0.19
   2  -2   8    0.38    0.18
   2  -2   8    0.13    0.23
  -3   2  -8    5.53    0.51
  -3   2  -8    6.73    0.71
  -3   2  -8    6.55    0.54
   3  -2   8    4.48    0.51
   3  -2   8    6.97    0.57
   3  -2   8    6.77    0.48
   3  -2   8    6.08    0.54
  -4   2  -8    2.95    0.53
  -4   2  -8    3.79    0.49
  -4   2  -8    2.61    0.38
   4  -2   8    2.23    0.39
   4  -2   8    2.22    0.39
   4  -2   8    2.58    0.43
   6   1  -8    6.24    0.67
  -6  -1   8    6.95    0.71
   5   1  -8   -0.18    0.17
   5   1  -8    0.18    0.24
  -5  -1   8    0.36    0.28
  -5  -1   8   -0.07    0.16
  -5  -1   8    0.17    0.19
   4   1  -8    2.66    0.28
   4   1  -8    2.05    0.36
   4   1  -8    2.94    0.34
   4   1  -8    2.53    0.30
  -4  -1   8    2.41    0.31
  -4  -1   8    2.71    0.35
   3   1  -8    7.84    0.50
   3   1  -8    7.66    0.56
   3   1  -8    8.80    0.57
  -3  -1   8    8.49    0.53
  -3  -1   8    9.53    0.62
   2   1  -8    0.68    0.21
   2   1  -8    0.21    0.23
   2   1  -8    0.50    0.23
  -2  -1   8    0.24    0.19
  -2  -1   8    0.38    0.20
  -2  -1   8    0.07    0.18
   1   1  -8   -0.22    0.14
   1   1  -8   -0.11    0.16
   1   1  -8    0.00    0.24
  -1  -1   8    0.20    0.21
  -1  -1   8    0.05    0.18
  -1  -1   8    0.05    0.17
   0   1  -8   23.52    0.98
   0   1  -8   24.66    1.20
   0   1  -8   21.28    0.99
   0  -1   8   22.10    0.98
   0  -1   8   23.65    1.08
   0  -1   8   23.11    1.10
  -1   1  -8    1.99    0.30
  -1   1  -8    1.96    0.32
  -1   1  -8    1.86    0.41
   1  -1   8    2.23    0.31
   1  -1   8    2.80    0.36
   1  -1   8    1.91    0.35
   1  -1   8    1.46    0.28
  -2   1  -8    8.32    0.57
  -2   1  -8    9.31    0.72
  -2   1  -8    8.28    0.56
   2  -1   8    8.55    0.60
   2  -1   8    9.34    0.60
   2  -1   8    9.14    0.65
   2  -1   8   10.41    0.63
   2  -1   8    8.88    0.55
  -3   1  -8    0.36    0.22
  -3   1  -8    0.71    0.26
  -3   1  -8    0.47    0.30
   3  -1   8    0.32    0.19
   3  -1   8    0.23    0.23
   3  -1   8    0.62    0.25
   3  -1   8   -0.03    0.18
  -4   1  -8    1.67    0.34
  -4   1  -8    2.12    0.39
  -4   1  -8    2.74    0.51
   4  -1   8    2.06    0.39
   4  -1   8    1.86    0.36
   4  -1   8    1.94    0.38
   5   0  -8    2.15    0.38
  -5   0   8    2.19    0.35
  -5   0   8    1.86    0.30
   4   0  -8    6.27    0.44
   4   0  -8    6.45    0.42
   4   0  -8    5.85    0.51
  -4   0   8    6.98    0.48
  -4   0   8    7.07    0.53
   3   0  -8   36.76    1.59
   3   0  -8   36.02    1.44
   3   0  -8   40.75    1.56
  -3   0   8   42.05    1.67
  -3   0   8   38.76    1.51
   2   0  -8   28.55    1.26
   2   0  -8   26.63    1.13
  -2   0   8   27.05    1.19
  -2   0   8   26.60    1.11
  -2   0   8   28.73    1.25
   1   0  -8   64.61    2.31
   1   0  -8   58.34    2.37
   1   0  -8   55.84    2.14
  -1   0   8   59.88    2.26
  -1   0   8   58.12    2.23
  -1   0   8   56.35    2.06
   0   0  -8   64.34    2.43
   0   0  -8   71.12    2.43
   0   0  -8   69.89    2.72
   0   0   8   74.01    2.59
   0   0   8   67.99    2.51
   0   0   8   64.57    2.38
   0   0   8   68.61    2.64
  -1   0  -8    8.69    0.56
  -1   0  -8    8.11    0.69
  -1   0  -8    7.82    0.54
   1   0   8    8.67    0.64
   1   0   8    9.19    0.62
   1   0   8    9.08    0.57
   1   0   8    7.95    0.55
  -2   0  -8    1.84    0.32
  -2   0  -8    1.86    0.41
  -2   0  -8    1.89    0.31
   2   0   8    1.82    0.31
   2   0   8    1.91    0.36
   2   0   8    2.42    0.34
   2   0   8    1.89    0.33
  -3   0  -8    0.66    0.26
  -3   0  -8    0.78    0.34
  -3   0  -8    1.23    0.30
   3   0   8    1.09    0.28
   3   0   8    0.47    0.22
   3   0   8    0.68    0.25
   3   0   8    0.58    0.29
  -4   0  -8    3.37    0.45
  -4   0  -8    2.88    0.53
  -4   0  -8    2.69    0.42
   4   0   8    2.94    0.42
   4   0   8    2.63    0.43
   4   0   8    2.99    0.47
   5  -1  -8    4.69    0.53
  -5   1   8    5.48    0.53
  -5   1   8    4.14    0.44
   4  -1  -8    4.62    0.39
   4  -1  -8    5.28    0.38
   4  -1  -8    5.20    0.52
  -4   1   8    4.93    0.51
  -4   1   8    4.97    0.47
   3  -1  -8   -0.19    0.17
   3  -1  -8    0.14    0.20
   3  -1  -8    0.20    0.17
  -3   1   8   -0.06    0.17
  -3   1   8    0.15    0.19
   2  -1  -8   11.37    0.62
   2  -1  -8   12.14    0.73
  -2   1   8   11.92    0.65
  -2   1   8   12.27    0.74
   1  -1  -8    5.31    0.43
   1  -1  -8    5.66    0.56
  -1   1   8    6.10    0.47
  -1   1   8    6.39    0.52
  -1   1   8    6.62    0.60
  -1   1   8    6.64    0.41
   0  -1  -8   21.01    1.13
   0  -1  -8   21.15    0.95
   0  -1  -8   21.19    0.97
   0   1   8   19.91    0.94
   0   1   8   20.45    0.95
   0   1   8   23.62    1.08
   0   1   8   21.46    1.07
  -1  -1  -8    1.69    0.41
  -1  -1  -8    2.07    0.33
  -1  -1  -8    1.64    0.29
   1   1   8    1.61    0.30
   1   1   8    2.67    0.40
   1   1   8    2.11    0.36
   1   1   8    1.57    0.29
  -2  -1  -8    0.14    0.28
  -2  -1  -8   -0.11    0.20
  -2  -1  -8    0.41    0.24
   2   1   8    0.34    0.20
   2   1   8    0.06    0.19
   2   1   8    0.08    0.19
   2   1   8    0.43    0.26
  -3  -1  -8    1.34    0.31
  -3  -1  -8    1.33    0.32
  -3  -1  -8    1.85    0.44
   3   1   8    0.70    0.30
   3   1   8    1.22    0.31
   3   1   8    1.41    0.30
   3   1   8    1.51    0.30
   5  -2  -8    3.30    0.47
  -5   2   8    3.46    0.41
   4  -2  -8   18.36    0.83
   4  -2  -8   17.29    0.94
  -4   2   8   15.84    0.82
   3  -2  -8    5.56    0.42
   3  -2  -8    5.63    0.46
  -3   2   8    5.79    0.47
  -3   2   8    5.47    0.55
   2  -2  -8    4.12    0.47
   2  -2  -8    2.98    0.35
  -2   2   8    3.60    0.44
  -2   2   8    3.06    0.36
   1  -2  -8    2.17    0.32
   1  -2  -8    2.61    0.42
  -1   2   8    2.78    0.40
  -1   2   8    2.47    0.33
  -1   2   8    2.27    0.28
   0  -2  -8    1.07    0.33
   0  -2  -8    0.80    0.26
   0   2   8    1.12    0.25
   0   2   8    0.82    0.27
   0   2   8    0.85    0.24
   0   2   8    1.14    0.29
  -1  -2  -8   -0.28    0.16
  -1  -2  -8   -0.08    0.17
  -1  -2  -8   -0.06    0.25
   1   2   8   -0.09    0.17
   1   2   8   -0.02    0.17
   1   2   8    0.05    0.21
   1   2   8    0.13    0.23
  -2  -2  -8    0.70    0.35
  -2  -2  -8    0.12    0.22
  -2  -2  -8    0.64    0.26
   2   2   8    0.34    0.23
   2   2   8    0.60    0.25
   2   2   8    0.54    0.28
   2   2   8    0.77    0.25
  -3  -2  -8    1.33    0.34
  -3  -2  -8    2.51    0.51
  -3  -2  -8    2.33    0.38
   3   2   8    2.43    0.36
   3   2   8    1.73    0.35
   4  -3  -8    2.08    0.30
   4  -3  -8    1.79    0.34
  -4   3   8    2.14    0.35
   3  -3  -8    2.41    0.31
   3  -3  -8    2.73    0.37
  -3   3   8    2.20    0.35
   2  -3  -8    7.01    0.48
   2  -3  -8    6.81    0.56
  -2   3   8    6.73    0.51
   1  -3  -8    4.19    0.43
   1  -3  -8    4.08    0.51
  -1   3   8    3.91    0.41
  -1   3   8    4.32    0.51
   0  -3  -8   13.58    0.75
   0  -3  -8   13.59    0.90
   0   3   8   14.58    0.87
   0   3   8   13.24    0.74
   0   3   8   12.85    0.71
  -1  -3  -8    1.21    0.31
  -1  -3  -8    1.34    0.37
   1   3   8    1.82    0.33
   1   3   8    1.50    0.30
   1   3   8    2.42    0.44
  -2  -3  -8    2.22    0.47
  -2  -3  -8    1.37    0.32
  -2  -3  -8    2.32    0.37
   2   3   8    1.85    0.33
   2   3   8    2.25    0.44
   2   3   8    1.55    0.34
   3  -4  -8    0.40    0.24
  -3   4   8    0.29    0.22
   2  -4  -8    2.35    0.33
   2  -4  -8    2.67    0.42
  -2   4   8    2.02    0.35
   1  -4  -8    0.35    0.23
   1  -4  -8    0.31    0.26
  -1   4   8    0.28    0.19
   0  -4  -8   26.65    1.39
   0  -4  -8   25.94    1.19
   0   4   8   26.79    1.23
   0   4   8   26.08    1.18
   0   4   8   29.07    1.39
  -1  -4  -8    0.29    0.31
  -1  -4  -8   -0.03    0.19
   1   4   8    0.46    0.21
   1   4   8    0.31    0.27
   1   4   8    0.01    0.20
   2  -5  -8    0.38    0.27
  -2   5   8    0.45    0.23
   1  -5  -8    0.46    0.25
   1  -5  -8    0.94    0.33
  -1   5   8    0.45    0.22
   0  -5  -8    0.35    0.24
   0   5   8    0.58    0.23
   0   5   8    0.09    0.28
   2   9  -9    0.04    0.25
   2   9  -9   -0.15    0.19
   2   9  -9   -0.64    0.28
  -2  -9   9   -0.47    0.26
  -2  -9   9    0.31    0.26
   1   9  -9    1.40    0.31
   1   9  -9    1.66    0.33
   1   9  -9    2.10    0.39
   1   9  -9    1.53    0.45
  -1  -9   9    1.45    0.37
  -1  -9   9    1.19    0.36
   0   9  -9    0.03    0.18
   0   9  -9    0.57    0.38
   0   9  -9    0.28    0.24
   0  -9   9   -0.20    0.22
   0  -9   9    0.44    0.27
  -1   9  -9   -0.23    0.33
  -1   9  -9    0.02    0.21
  -1   9  -9    0.01    0.22
  -1   9  -9    0.15    0.27
   1  -9   9   -0.24    0.23
  -2   9  -9    0.35    0.35
  -2   9  -9    0.11    0.28
  -2   9  -9   -0.17    0.20
   2  -9   9    0.07    0.23
   3   8  -9    3.00    0.44
   3   8  -9    2.57    0.36
   3   8  -9    2.93    0.49
   3   8  -9    2.70    0.51
   3   8  -9    2.89    0.39
  -3  -8   9    2.79    0.49
   2   8  -9    0.08    0.29
   2   8  -9    0.36    0.21
   2   8  -9    0.50    0.25
  -2  -8   9    0.21    0.25
  -2  -8   9    0.61    0.31
   1   8  -9    0.94    0.29
   1   8  -9    1.95    0.44
   1   8  -9    1.52    0.31
  -1  -8   9    1.84    0.36
  -1  -8   9    1.60    0.36
   0   8  -9    3.95    0.60
   0   8  -9    3.18    0.42
   0   8  -9    2.79    0.39
   0   8  -9    3.30    0.40
   0   8  -9    3.91    0.45
   0  -8   9    3.69    0.49
   0  -8   9    3.38    0.43
  -1   8  -9   14.13    1.01
  -1   8  -9   14.60    0.78
  -1   8  -9   12.63    0.81
  -1   8  -9   13.60    0.78
   1  -8   9   13.60    0.88
  -2   8  -9    1.46    0.37
  -2   8  -9    1.79    0.34
  -2   8  -9    2.05    0.48
   2  -8   9    1.95    0.40
   4   7  -9    2.46    0.42
   4   7  -9    2.73    0.40
   4   7  -9    3.21    0.49
   4   7  -9    2.81    0.49
  -4  -7   9    3.63    0.52
   3   7  -9    0.41    0.25
   3   7  -9    0.26    0.26
   3   7  -9   -0.03    0.18
   3   7  -9   -0.02    0.28
   3   7  -9    0.23    0.17
  -3  -7   9    0.66    0.31
   2   7  -9   14.20    0.86
   2   7  -9   14.67    0.94
   2   7  -9   12.16    0.77
  -2  -7   9   14.36    0.90
  -2  -7   9   14.66    0.76
  -2  -7   9   15.41    0.88
   1   7  -9   12.06    0.75
   1   7  -9   13.68    0.80
   1   7  -9   13.24    0.70
   1   7  -9   14.15    0.80
   1   7  -9   12.14    0.71
  -1  -7   9   13.17    0.75
  -1  -7   9   14.93    0.86
  -1  -7   9   13.32    0.82
   0   7  -9    0.48    0.25
   0   7  -9    0.33    0.35
   0   7  -9    0.56    0.23
   0   7  -9    0.64    0.25
   0   7  -9    0.81    0.28
   0   7  -9    0.14    0.19
   0  -7   9    0.27    0.24
   0  -7   9    0.36    0.24
   0  -7   9    0.46    0.28
  -1   7  -9    1.79    0.34
  -1   7  -9    2.46    0.37
  -1   7  -9    3.26    0.56
  -1   7  -9    3.14    0.39
  -1   7  -9    1.92    0.34
   1  -7   9    3.23    0.47
   1  -7   9    2.70    0.41
  -2   7  -9    0.70    0.28
  -2   7  -9    1.32    0.34
  -2   7  -9    1.17    0.29
  -2   7  -9    0.98    0.38
   2  -7   9    0.55    0.28
  -3   7  -9    7.51    0.83
  -3   7  -9    7.26    0.68
  -3   7  -9    6.41    0.52
   3  -7   9    7.61    0.66
   4   6  -9    0.27    0.20
   4   6  -9    0.21    0.24
   4   6  -9    0.10    0.28
   4   6  -9    0.19    0.31
  -4  -6   9    0.55    0.29
   3   6  -9    4.01    0.53
   3   6  -9    5.27    0.39
   3   6  -9    4.08    0.47
   3   6  -9    5.28    0.58
   3   6  -9    5.50    0.43
   3   6  -9    4.49    0.55
  -3  -6   9    3.98    0.51
  -3  -6   9    5.32    0.43
   2   6  -9    1.47    0.36
   2   6  -9    1.37    0.31
   2   6  -9    2.02    0.42
   2   6  -9    1.99    0.36
   2   6  -9    1.50    0.26
  -2  -6   9    1.49    0.31
  -2  -6   9    1.80    0.36
  -2  -6   9    1.53    0.31
   1   6  -9    2.85    0.39
   1   6  -9    1.93    0.44
   1   6  -9    2.19    0.34
   1   6  -9    1.50    0.34
   1   6  -9    2.39    0.29
   1   6  -9    2.32    0.26
  -1  -6   9    2.04    0.36
  -1  -6   9    2.03    0.34
  -1  -6   9    2.03    0.37
   0   6  -9    0.43    0.23
   0   6  -9    0.26    0.19
   0   6  -9   -0.08    0.19
   0   6  -9    0.09    0.29
   0   6  -9   -0.03    0.18
   0  -6   9    0.21    0.25
   0  -6   9    0.07    0.21
   0  -6   9   -0.09    0.19
  -1   6  -9    0.81    0.27
  -1   6  -9    0.60    0.25
  -1   6  -9    0.54    0.23
  -1   6  -9    0.57    0.23
  -1   6  -9    0.38    0.32
   1  -6   9    1.54    0.26
   1  -6   9    0.55    0.26
   1  -6   9    0.41    0.25
  -2   6  -9    1.32    0.33
  -2   6  -9    2.31    0.39
  -2   6  -9    1.67    0.44
  -2   6  -9    1.42    0.29
   2  -6   9    1.39    0.35
   2  -6   9    1.68    0.36
  -3   6  -9    0.73    0.33
  -3   6  -9    0.49    0.23
  -3   6  -9    0.61    0.39
   3  -6   9    0.86    0.32
   5   5  -9    8.84    0.66
   5   5  -9    8.19    0.59
   5   5  -9    9.80    0.64
   5   5  -9    9.07    0.78
   5   5  -9    9.70    0.64
  -5  -5   9    6.89    0.71
   4   5  -9    0.39    0.21
   4   5  -9    0.01    0.21
   4   5  -9    0.38    0.27
   4   5  -9    0.38    0.29
   4   5  -9    0.28    0.25
  -4  -5   9    0.61    0.28
   3   5  -9   11.76    0.77
   3   5  -9    8.73    0.55
   3   5  -9    9.39    0.64
   3   5  -9   11.10    0.73
   3   5  -9    9.88    0.72
  -3  -5   9   11.43    0.62
  -3  -5   9    9.71    0.72
   2   5  -9    4.65    0.50
   2   5  -9    3.94    0.51
   2   5  -9    4.38    0.49
   2   5  -9    3.81    0.42
   2   5  -9    4.80    0.52
  -2  -5   9    3.90    0.44
  -2  -5   9    5.18    0.45
  -2  -5   9    4.38    0.50
   1   5  -9   11.61    0.69
   1   5  -9   11.12    0.70
   1   5  -9   13.07    0.85
   1   5  -9   12.76    0.58
   1   5  -9   12.46    0.65
   1   5  -9   12.07    0.73
  -1  -5   9   11.47    0.74
  -1  -5   9   11.73    0.67
  -1  -5   9   12.27    0.73
   0   5  -9   -0.01    0.19
   0   5  -9    0.62    0.31
   0   5  -9    0.07    0.19
   0   5  -9    0.05    0.19
   0   5  -9    0.30    0.20
   0  -5   9    0.17    0.22
   0  -5   9    0.54    0.22
   0  -5   9   -0.12    0.22
  -1   5  -9    7.18    0.74
  -1   5  -9    7.35    0.53
  -1   5  -9    8.64    0.56
  -1   5  -9    8.98    0.56
   1  -5   9    7.41    0.56
   1  -5   9    7.71    0.61
   1  -5   9    8.63    0.53
  -2   5  -9   -0.11    0.18
  -2   5  -9   -0.19    0.21
  -2   5  -9    0.06    0.29
  -2   5  -9   -0.20    0.18
   2  -5   9   -0.15    0.18
   2  -5   9   -0.22    0.24
  -3   5  -9   -0.02    0.31
  -3   5  -9    0.16    0.29
  -3   5  -9    0.31    0.22
   3  -5   9    0.42    0.28
   3  -5   9    0.20    0.26
  -4   5  -9    2.34    0.36
  -4   5  -9    2.50    0.54
  -4   5  -9    1.81    0.43
   4  -5   9    2.50    0.46
   5   4  -9    0.55    0.23
   5   4  -9    0.40    0.32
   5   4  -9    0.07    0.23
   5   4  -9    0.41    0.23
  -5  -4   9    0.54    0.30
   4   4  -9    4.33    0.45
   4   4  -9    4.85    0.58
   4   4  -9    3.40    0.39
   4   4  -9    4.85    0.49
   4   4  -9    3.18    0.47
  -4  -4   9    4.83    0.41
  -4  -4   9    4.36    0.55
   3   4  -9    1.65    0.35
   3   4  -9    1.59    0.35
   3   4  -9    1.46    0.30
   3   4  -9    2.04    0.37
  -3  -4   9    1.78    0.28
  -3  -4   9    2.04    0.38
   2   4  -9   12.97    0.73
   2   4  -9   12.55    0.77
   2   4  -9   14.14    0.79
   2   4  -9   13.52    0.83
  -2  -4   9   14.03    0.71
  -2  -4   9   13.83    0.78
  -2  -4   9   14.02    0.82
   1   4  -9    6.40    0.64
   1   4  -9    5.74    0.48
   1   4  -9    6.46    0.48
   1   4  -9    5.95    0.50
   1   4  -9    6.28    0.44
   1   4  -9    6.67    0.42
  -1  -4   9    5.68    0.46
  -1  -4   9    6.35    0.57
  -1  -4   9    6.18    0.51
   0   4  -9    1.39    0.38
   0   4  -9    1.71    0.31
   0   4  -9    1.54    0.31
   0   4  -9    2.22    0.30
   0   4  -9    2.28    0.26
   0  -4   9    1.79    0.32
   0  -4   9    2.32    0.37
   0  -4   9    2.23    0.33
  -1   4  -9    1.00    0.27
  -1   4  -9    1.70    0.31
  -1   4  -9    1.27    0.27
  -1   4  -9    0.68    0.35
   1  -4   9    0.68    0.27
   1  -4   9    1.16    0.32
   1  -4   9    1.08    0.24
  -2   4  -9    0.21    0.34
  -2   4  -9    0.47    0.25
  -2   4  -9   -0.03    0.20
   2  -4   9    0.65    0.28
   2  -4   9    0.52    0.28
  -3   4  -9   14.40    0.84
  -3   4  -9   14.37    1.01
  -3   4  -9   13.34    0.76
   3  -4   9   11.85    0.75
   3  -4   9   14.19    0.89
  -4   4  -9   12.12    0.76
  -4   4  -9   14.83    0.89
  -4   4  -9   16.18    1.09
   4  -4   9   14.04    0.87
   4  -4   9   14.63    0.95
   5   3  -9    1.37    0.27
   5   3  -9    1.49    0.41
   5   3  -9    1.91    0.33
   5   3  -9    1.07    0.35
  -5  -3   9    1.40    0.36
   4   3  -9    1.78    0.39
   4   3  -9    1.00    0.27
   4   3  -9    1.51    0.27
   4   3  -9    0.88    0.30
   4   3  -9    1.26    0.28
  -4  -3   9    1.53    0.36
  -4  -3   9    1.55    0.27
   3   3  -9    0.43    0.21
   3   3  -9    0.20    0.23
   3   3  -9    0.33    0.22
   3   3  -9    0.32    0.24
  -3  -3   9   -0.01    0.23
  -3  -3   9    0.11    0.19
   2   3  -9   26.85    1.26
   2   3  -9   24.18    1.18
   2   3  -9   23.95    1.10
   2   3  -9   26.32    1.20
  -2  -3   9   27.73    1.18
  -2  -3   9   22.97    1.19
  -2  -3   9   25.58    1.07
   1   3  -9    1.08    0.23
   1   3  -9    1.16    0.29
   1   3  -9    0.93    0.32
   1   3  -9    0.97    0.25
   1   3  -9    1.12    0.21
  -1  -3   9    0.82    0.26
  -1  -3   9    0.87    0.25
   0   3  -9    0.26    0.20
   0   3  -9    0.36    0.20
   0   3  -9    0.39    0.30
   0   3  -9    0.52    0.16
   0  -3   9    0.01    0.21
   0  -3   9    0.46    0.23
  -1   3  -9    0.09    0.18
  -1   3  -9    0.53    0.22
  -1   3  -9    0.06    0.27
   1  -3   9   -0.08    0.19
   1  -3   9    0.46    0.23
  -2   3  -9    4.63    0.47
  -2   3  -9    4.96    0.52
  -2   3  -9    5.70    0.67
   2  -3   9    5.99    0.56
   2  -3   9    6.86    0.67
  -3   3  -9    9.57    0.63
  -3   3  -9    8.29    0.65
  -3   3  -9    7.90    0.82
   3  -3   9    9.67    0.71
   3  -3   9    7.02    0.58
   3  -3   9    9.44    0.61
  -4   3  -9    0.41    0.26
  -4   3  -9    0.65    0.33
  -4   3  -9    1.20    0.43
   4  -3   9    1.01    0.31
   4  -3   9    0.68    0.33
   5   2  -9    3.47    0.42
   5   2  -9    4.04    0.54
  -5  -2   9    3.97    0.39
  -5  -2   9    3.77    0.53
  -5  -2   9    4.05    0.46
   4   2  -9    0.22    0.16
   4   2  -9    0.12    0.23
   4   2  -9   -0.17    0.24
   4   2  -9    0.14    0.19
   4   2  -9   -0.07    0.18
  -4  -2   9    0.13    0.24
  -4  -2   9    0.09    0.18
  -4  -2   9    0.47    0.21
   3   2  -9    4.07    0.48
   3   2  -9    3.81    0.45
   3   2  -9    2.97    0.41
   3   2  -9    3.59    0.41
  -3  -2   9    3.51    0.38
   2   2  -9    2.52    0.41
   2   2  -9    2.35    0.37
   2   2  -9    3.20    0.37
   2   2  -9    4.18    0.42
  -2  -2   9    3.15    0.35
  -2  -2   9    3.47    0.41
   1   2  -9    0.31    0.22
   1   2  -9    0.36    0.21
   1   2  -9    0.38    0.29
   1   2  -9    0.56    0.19
  -1  -2   9    0.41    0.23
  -1  -2   9    0.41    0.23
   0   2  -9    0.99    0.34
   0   2  -9    1.30    0.27
   0   2  -9    1.15    0.27
   0  -2   9    1.25    0.27
   0  -2   9    0.99    0.30
  -1   2  -9   18.03    0.87
  -1   2  -9   20.44    1.13
  -1   2  -9   17.50    0.89
   1  -2   9   17.30    0.88
   1  -2   9   19.40    0.97
   1  -2   9   18.26    1.00
  -2   2  -9   -0.09    0.18
  -2   2  -9   -0.14    0.21
  -2   2  -9   -0.24    0.26
   2  -2   9    0.04    0.18
   2  -2   9   -0.22    0.19
   2  -2   9    0.06    0.22
  -3   2  -9    9.23    0.78
  -3   2  -9    9.41    0.67
  -3   2  -9    8.60    0.60
   3  -2   9    8.16    0.67
   3  -2   9    7.62    0.60
   3  -2   9    8.25    0.58
   5   1  -9    2.81    0.44
  -5  -1   9    3.44    0.50
  -5  -1   9    3.08    0.37
   4   1  -9    3.49    0.38
   4   1  -9    4.00    0.40
   4   1  -9    3.57    0.46
   4   1  -9    3.53    0.34
  -4  -1   9    3.71    0.40
  -4  -1   9    3.28    0.43
   3   1  -9    4.36    0.42
   3   1  -9    4.33    0.46
   3   1  -9    4.04    0.48
  -3  -1   9    5.16    0.52
  -3  -1   9    4.60    0.44
   2   1  -9   11.92    0.66
   2   1  -9   11.43    0.74
   2   1  -9   11.57    0.72
  -2  -1   9   12.19    0.67
  -2  -1   9   13.28    0.78
   1   1  -9   39.94    1.78
   1   1  -9   42.64    1.56
   1   1  -9   39.53    1.59
  -1  -1   9   43.32    1.72
  -1  -1   9   38.50    1.54
  -1  -1   9   40.68    1.70
   0   1  -9   10.82    0.65
   0   1  -9   10.77    0.78
   0   1  -9   11.18    0.61
   0  -1   9   10.69    0.71
   0  -1   9   11.76    0.71
   0  -1   9   10.81    0.63
  -1   1  -9    7.24    0.50
  -1   1  -9    6.09    0.51
  -1   1  -9    7.58    0.75
   1  -1   9    7.33    0.59
   1  -1   9    7.03    0.54
   1  -1   9    6.23    0.48
  -2   1  -9    1.10    0.38
  -2   1  -9    1.16    0.28
  -2   1  -9    0.35    0.22
   2  -1   9    0.45    0.26
   2  -1   9    0.63    0.23
   2  -1   9    0.51    0.24
   2  -1   9    0.45    0.27
  -3   1  -9    2.04    0.48
  -3   1  -9    1.92    0.36
  -3   1  -9    1.97    0.36
   3  -1   9    2.25    0.37
   3  -1   9    1.93    0.41
   3  -1   9    2.08    0.36
   3  -1   9    2.11    0.37
   5   0  -9    4.04    0.52
  -5   0   9    3.51    0.40
   4   0  -9    4.96    0.55
   4   0  -9    6.40    0.47
   4   0  -9    6.43    0.47
  -4   0   9    5.98    0.46
   3   0  -9    0.67    0.25
   3   0  -9    0.37    0.23
   3   0  -9    0.35    0.19
  -3   0   9    0.14    0.22
  -3   0   9    0.69    0.24
   2   0  -9    3.63    0.47
   2   0  -9    4.06    0.41
  -2   0   9    4.90    0.53
  -2   0   9    4.25    0.44
   1   0  -9    0.37    0.20
   1   0  -9    0.10    0.25
  -1   0   9    0.44    0.23
  -1   0   9    0.28    0.21
  -1   0   9    0.48    0.24
   0   0  -9    0.07    0.18
   0   0  -9    0.07    0.23
   0   0  -9    0.04    0.18
   0   0   9    0.14    0.19
   0   0   9   -0.20    0.14
   0   0   9   -0.08    0.18
   0   0   9   -0.02    0.20
  -1   0  -9    1.15    0.30
  -1   0  -9    1.69    0.41
  -1   0  -9    1.53    0.31
   1   0   9    1.36    0.28
   1   0   9    1.36    0.29
   1   0   9    1.28    0.30
   1   0   9    1.83    0.36
  -2   0  -9    2.35    0.49
  -2   0  -9    2.48    0.38
  -2   0  -9    1.82    0.35
   2   0   9    1.46    0.36
   2   0   9    1.67    0.32
   2   0   9    1.80    0.35
   2   0   9    1.33    0.29
  -3   0  -9    2.76    0.43
  -3   0  -9    2.86    0.56
  -3   0  -9    3.47    0.46
   3   0   9    2.49    0.38
   3   0   9    2.58    0.40
   3   0   9    3.07    0.49
   4  -1  -9    1.86    0.36
   4  -1  -9    2.52    0.32
  -4   1   9    1.90    0.32
   3  -1  -9    0.47    0.21
   3  -1  -9    0.14    0.21
   3  -1  -9    0.42    0.24
  -3   1   9    0.13    0.19
   2  -1  -9    0.30    0.20
   2  -1  -9    0.00    0.24
  -2   1   9    0.14    0.19
   1  -1  -9    1.09    0.33
   1  -1  -9    1.04    0.26
  -1   1   9    1.01    0.26
  -1   1   9    0.62    0.27
   0  -1  -9   -0.07    0.18
   0  -1  -9   -0.12    0.20
   0  -1  -9   -0.29    0.21
   0   1   9    0.22    0.18
   0   1   9    0.38    0.24
   0   1   9    0.19    0.20
  -1  -1  -9    0.33    0.24
  -1  -1  -9    0.16    0.29
  -1  -1  -9    0.07    0.21
   1   1   9    0.29    0.25
   1   1   9   -0.02    0.18
   1   1   9    0.05    0.20
  -2  -1  -9    5.61    0.56
  -2  -1  -9    5.58    0.54
  -2  -1  -9    5.07    0.66
   2   1   9    6.19    0.55
   2   1   9    6.18    0.65
   2   1   9    5.01    0.53
   4  -2  -9    0.99    0.24
   4  -2  -9    0.78    0.28
  -4   2   9    0.90    0.26
   3  -2  -9   25.60    1.20
   3  -2  -9   24.36    1.08
  -3   2   9   22.10    1.02
   2  -2  -9    3.79    0.48
   2  -2  -9    3.52    0.40
  -2   2   9    3.79    0.43
   1  -2  -9    7.44    0.53
   1  -2  -9    8.04    0.67
  -1   2   9    7.50    0.53
   0  -2  -9   -0.03    0.24
   0  -2  -9    0.13    0.21
   0   2   9    0.13    0.20
   0   2   9    0.15    0.18
  -1  -2  -9    0.48    0.32
  -1  -2  -9    0.36    0.25
  -1  -2  -9    0.31    0.25
   1   2   9    0.27    0.21
   1   2   9    0.70    0.24
  -2  -2  -9    3.27    0.55
  -2  -2  -9    3.19    0.43
  -2  -2  -9    2.99    0.44
   2   2   9    2.68    0.42
   2   2   9    2.81    0.38
   3  -3  -9    1.28    0.31
  -3   3   9    1.13    0.27
   2  -3  -9    0.13    0.20
   2  -3  -9    0.30    0.27
  -2   3   9    0.74    0.24
   1  -3  -9   16.69    1.00
   1  -3  -9   15.53    0.84
  -1   3   9   14.20    0.78
   0  -3  -9    3.89    0.46
   0  -3  -9    3.82    0.54
   0   3   9    4.31    0.47
   0   3   9    4.08    0.57
  -1  -3  -9    2.21    0.39
  -1  -3  -9    2.57    0.48
   1   3   9    3.19    0.52
   1   3   9    2.28    0.36
   1   3   9    2.79    0.40
   1   9 -10    0.02    0.36
   1   9 -10    0.49    0.27
  -1  -9  10   -0.24    0.25
  -1  -9  10    0.13    0.27
   0   9 -10    2.75    0.43
   0   9 -10    3.28    0.57
   0  -9  10    2.72    0.47
   2   8 -10   12.79    0.86
   2   8 -10   10.73    0.68
   2   8 -10   11.24    0.77
   2   8 -10   12.19    0.91
  -2  -8  10   11.15    0.81
   1   8 -10    1.75    0.33
   1   8 -10    1.90    0.37
   1   8 -10    2.03    0.50
  -1  -8  10    1.93    0.39
  -1  -8  10    1.77    0.40
   0   8 -10    0.47    0.37
   0   8 -10    0.89    0.30
   0  -8  10    0.31    0.27
   0  -8  10    0.59    0.29
  -1   8 -10    0.22    0.24
  -1   8 -10    0.25    0.36
  -1   8 -10    0.65    0.27
  -1   8 -10    0.98    0.29
   1  -8  10    0.21    0.27
   3   7 -10    5.46    0.58
   3   7 -10    6.94    0.71
   3   7 -10    6.87    0.70
   3   7 -10    5.31    0.53
  -3  -7  10    5.59    0.63
   2   7 -10    0.10    0.28
   2   7 -10    0.90    0.36
   2   7 -10    0.74    0.31
   2   7 -10    0.32    0.26
  -2  -7  10    0.79    0.30
  -2  -7  10    1.07    0.30
   1   7 -10    0.53    0.26
   1   7 -10    0.18    0.30
   1   7 -10    0.37    0.24
   1   7 -10    0.24    0.27
  -1  -7  10    0.67    0.27
  -1  -7  10    0.42    0.26
  -1  -7  10    0.37    0.27
   0   7 -10    0.16    0.23
   0   7 -10    0.22    0.20
   0   7 -10    0.10    0.21
   0   7 -10    0.01    0.30
   0   7 -10    0.11    0.21
   0  -7  10    0.24    0.24
   0  -7  10    0.30    0.24
   0  -7  10    0.28    0.24
  -1   7 -10    0.22    0.22
  -1   7 -10    0.55    0.27
  -1   7 -10    0.30    0.36
  -1   7 -10    0.20    0.25
   1  -7  10    0.26    0.27
   1  -7  10    0.30    0.27
  -2   7 -10    6.77    0.62
  -2   7 -10    5.76    0.57
  -2   7 -10    5.95    0.74
   2  -7  10    5.70    0.64
   4   6 -10    0.25    0.29
   4   6 -10    0.16    0.23
   4   6 -10    0.57    0.34
   4   6 -10   -0.04    0.20
  -4  -6  10    0.69    0.32
   3   6 -10    2.15    0.43
   3   6 -10    1.78    0.41
   3   6 -10    1.70    0.36
   3   6 -10    1.86    0.40
   3   6 -10    1.84    0.33
  -3  -6  10    2.62    0.43
  -3  -6  10    2.36    0.34
   2   6 -10    1.76    0.35
   2   6 -10    2.07    0.42
   2   6 -10    2.71    0.42
   2   6 -10    2.24    0.43
  -2  -6  10    2.02    0.39
  -2  -6  10    1.93    0.34
   1   6 -10    0.16    0.30
   1   6 -10    0.72    0.28
   1   6 -10    0.34    0.24
   1   6 -10    0.20    0.23
  -1  -6  10    0.24    0.26
  -1  -6  10    0.69    0.27
  -1  -6  10    0.22    0.23
   0   6 -10    1.02    0.24
   0   6 -10    0.07    0.30
   0   6 -10    0.30    0.20
   0   6 -10    0.13    0.23
   0   6 -10    0.13    0.23
   0  -6  10    0.71    0.25
   0  -6  10    0.25    0.24
   0  -6  10    0.38    0.25
  -1   6 -10    0.26    0.23
  -1   6 -10    0.63    0.24
  -1   6 -10    0.35    0.23
  -1   6 -10    0.15    0.30
  -1   6 -10    0.22    0.24
   1  -6  10    0.12    0.23
   1  -6  10    0.28    0.26
  -2   6 -10    1.61    0.32
  -2   6 -10    1.75    0.47
  -2   6 -10    1.27    0.34
   2  -6  10    1.57    0.35
   2  -6  10    1.28    0.35
   4   5 -10    1.48    0.30
   4   5 -10    2.04    0.43
   4   5 -10    1.71    0.36
   4   5 -10    1.48    0.39
   4   5 -10    1.83    0.35
  -4  -5  10    1.80    0.40
   3   5 -10    1.97    0.41
   3   5 -10    2.05    0.40
   3   5 -10    2.40    0.38
   3   5 -10    2.34    0.43
  -3  -5  10    2.15    0.33
  -3  -5  10    2.09    0.40
   2   5 -10    2.75    0.42
   2   5 -10    3.17    0.49
   2   5 -10    3.42    0.43
   2   5 -10    3.58    0.46
  -2  -5  10    3.72    0.42
  -2  -5  10    3.48    0.47
   1   5 -10    2.50    0.39
   1   5 -10    2.51    0.44
   1   5 -10    3.27    0.32
   1   5 -10    2.24    0.37
  -1  -5  10    2.76    0.38
  -1  -5  10    3.59    0.46
  -1  -5  10    2.36    0.38
   0   5 -10    0.25    0.24
   0   5 -10   -0.13    0.27
   0   5 -10    0.21    0.20
   0   5 -10    0.46    0.22
   0   5 -10    0.27    0.22
   0  -5  10    0.43    0.22
   0  -5  10    0.10    0.24
   0  -5  10    0.12    0.25
  -1   5 -10    0.22    0.22
  -1   5 -10    0.59    0.25
  -1   5 -10    0.89    0.39
  -1   5 -10   -0.25    0.19
   1  -5  10    0.19    0.25
   1  -5  10    0.34    0.26
  -2   5 -10    9.60    0.66
  -2   5 -10   10.23    0.86
  -2   5 -10   10.88    0.69
   2  -5  10   12.49    0.83
   2  -5  10   11.08    0.73
  -3   5 -10    1.50    0.49
  -3   5 -10    0.97    0.30
  -3   5 -10    1.26    0.37
   3  -5  10    1.29    0.35
   3  -5  10    1.15    0.37
   4   4 -10    6.74    0.49
   4   4 -10    7.95    0.71
   4   4 -10    7.08    0.57
   4   4 -10    8.08    0.60
   4   4 -10    5.52    0.63
  -4  -4  10    7.52    0.64
  -4  -4  10    6.93    0.50
   3   4 -10    0.09    0.21
   3   4 -10    0.72    0.28
   3   4 -10    0.36    0.26
   3   4 -10    0.11    0.26
  -3  -4  10    0.10    0.20
  -3  -4  10   -0.05    0.21
   2   4 -10    5.40    0.50
   2   4 -10    4.39    0.52
   2   4 -10    5.45    0.60
   2   4 -10    4.44    0.47
  -2  -4  10    4.68    0.46
  -2  -4  10    5.17    0.55
   1   4 -10   11.26    0.68
   1   4 -10   10.54    0.70
   1   4 -10   12.46    0.83
   1   4 -10   11.17    0.58
  -1  -4  10   12.10    0.74
  -1  -4  10   11.64    0.73
  -1  -4  10   10.29    0.64
   0   4 -10    3.54    0.56
   0   4 -10    3.94    0.44
   0   4 -10    4.22    0.40
   0   4 -10    3.47    0.43
   0  -4  10    4.29    0.46
   0  -4  10    4.60    0.54
   0  -4  10    4.27    0.46
  -1   4 -10    5.41    0.67
  -1   4 -10    4.82    0.50
  -1   4 -10    7.01    0.51
  -1   4 -10    6.35    0.51
   1  -4  10    6.12    0.48
   1  -4  10    5.20    0.53
   1  -4  10    6.91    0.60
  -2   4 -10    2.00    0.36
  -2   4 -10    1.86    0.36
  -2   4 -10    2.68    0.52
   2  -4  10    1.47    0.36
   2  -4  10    2.11    0.41
  -3   4 -10    3.25    0.58
  -3   4 -10    4.00    0.47
  -3   4 -10    4.18    0.52
   3  -4  10    4.44    0.54
   3  -4  10    3.69    0.53
   4   3 -10    3.60    0.51
   4   3 -10    3.02    0.36
   4   3 -10    3.76    0.44
   4   3 -10    3.21    0.46
   4   3 -10    2.86    0.40
  -4  -3  10    2.08    0.42
  -4  -3  10    4.25    0.42
   3   3 -10    0.08    0.23
   3   3 -10    0.04    0.22
   3   3 -10   -0.05    0.23
   3   3 -10    0.10    0.21
  -3  -3  10    0.00    0.23
  -3  -3  10    0.53    0.22
   2   3 -10    8.86    0.67
   2   3 -10    7.23    0.59
   2   3 -10    7.39    0.56
  -2  -3  10    7.62    0.63
  -2  -3  10    8.30    0.55
   1   3 -10   -0.07    0.24
   1   3 -10   -0.09    0.15
   1   3 -10    0.00    0.19
   1   3 -10    0.07    0.22
  -1  -3  10    0.36    0.23
  -1  -3  10    0.38    0.22
   0   3 -10    6.98    0.54
   0   3 -10    7.35    0.58
   0   3 -10    7.07    0.49
   0  -3  10    8.13    0.66
   0  -3  10    6.83    0.53
  -1   3 -10    0.06    0.19
  -1   3 -10    0.22    0.29
  -1   3 -10    0.08    0.20
   1  -3  10    0.22    0.24
   1  -3  10    0.09    0.21
  -2   3 -10    1.39    0.32
  -2   3 -10    2.09    0.46
  -2   3 -10    2.66    0.40
   2  -3  10    0.98    0.32
   2  -3  10    2.01    0.38
  -3   3 -10    0.15    0.23
  -3   3 -10    0.33    0.35
  -3   3 -10    0.64    0.31
   3  -3  10    0.11    0.29
   3  -3  10    0.64    0.28
   4   2 -10    2.42    0.32
   4   2 -10    1.92    0.33
   4   2 -10    1.96    0.34
   4   2 -10    1.90    0.38
  -4  -2  10    2.70    0.35
  -4  -2  10    1.70    0.38
   3   2 -10    1.91    0.38
   3   2 -10    2.75    0.37
   3   2 -10    2.07    0.39
  -3  -2  10    2.28    0.34
   2   2 -10    2.27    0.42
   2   2 -10    2.97    0.42
   2   2 -10    2.91    0.38
  -2  -2  10    2.81    0.38
   1   2 -10   14.28    0.68
   1   2 -10   11.10    0.74
   1   2 -10   12.17    0.83
   1   2 -10   12.58    0.72
  -1  -2  10   13.21    0.79
  -1  -2  10   12.20    0.69
   0   2 -10    8.27    0.58
   0   2 -10    9.04    0.75
   0   2 -10    8.93    0.56
   0  -2  10    9.52    0.69
   0  -2  10    9.31    0.61
  -1   2 -10    0.80    0.27
  -1   2 -10    1.01    0.28
  -1   2 -10    1.01    0.37
   1  -2  10    0.44    0.25
   1  -2  10    1.11    0.31
  -2   2 -10    2.15    0.37
  -2   2 -10    1.93    0.34
  -2   2 -10    1.48    0.42
   2  -2  10    1.33    0.32
   2  -2  10    1.12    0.33
   4   1 -10    4.00    0.43
   4   1 -10    3.00    0.46
   4   1 -10    3.44    0.41
  -4  -1  10    4.32    0.45
   3   1 -10    2.76    0.37
   3   1 -10    2.34    0.39
   3   1 -10    2.16    0.38
  -3  -1  10    2.20    0.33
   2   1 -10   -0.22    0.18
   2   1 -10   -0.05    0.20
   2   1 -10   -0.26    0.19
  -2  -1  10   -0.09    0.16
   1   1 -10    3.96    0.54
   1   1 -10    5.20    0.50
  -1  -1  10    4.03    0.45
  -1  -1  10    4.29    0.50
   0   1 -10    6.44    0.52
   0   1 -10    6.95    0.72
   0   1 -10    6.54    0.49
   0  -1  10    6.62    0.57
   0  -1  10    5.44    0.52
  -1   1 -10   -0.02    0.21
  -1   1 -10   -0.17    0.24
  -1   1 -10   -0.13    0.21
   1  -1  10    0.35    0.23
   1  -1  10   -0.05    0.20
  -2   1 -10    0.05    0.27
  -2   1 -10    0.18    0.22
  -2   1 -10    0.00    0.21
   2  -1  10    0.05    0.24
   2  -1  10    0.19    0.25
   4   0 -10    1.78    0.32
   4   0 -10    1.71    0.30
   4   0 -10    1.40    0.35
  -4   0  10    1.43    0.31
   3   0 -10    1.09    0.26
   3   0 -10    0.70    0.28
   3   0 -10    0.89    0.28
  -3   0  10    0.68    0.24
   2   0 -10    0.15    0.25
   2   0 -10    0.56    0.24
  -2   0  10    0.61    0.24
   1   0 -10    0.79    0.25
   1   0 -10    0.37    0.29
  -1   0  10    0.82    0.26
   0   0 -10    0.05    0.28
   0   0 -10    0.33    0.22
   0   0 -10    0.22    0.23
   0   0  10    0.00    0.20
   0   0  10    0.37    0.24
  -1   0 -10   12.83    0.94
  -1   0 -10   13.22    0.79
  -1   0 -10   15.00    0.79
   1   0  10   14.29    0.76
   1   0  10   12.98    0.87
   1   0  10   12.44    0.75
  -2   0 -10    0.30    0.32
  -2   0 -10    1.17    0.32
  -2   0 -10    0.46    0.26
   2   0  10    0.40    0.25
   2   0  10    0.72    0.30
   2   0  10    0.27    0.25
   3  -1 -10    0.19    0.21
   3  -1 -10    0.14    0.23
   3  -1 -10    0.09    0.23
  -3   1  10    0.12    0.21
   2  -1 -10    0.31    0.19
   2  -1 -10   -0.43    0.21
  -2   1  10    0.19    0.20
   1  -1 -10    0.13    0.21
   1  -1 -10    0.04    0.26
  -1   1  10    0.06    0.20
   0  -1 -10   -0.20    0.18
   0  -1 -10    0.16    0.26
   0   1  10   -0.06    0.20
   0   1  10   -0.06    0.22
  -1  -1 -10    0.97    0.30
  -1  -1 -10    0.09    0.22
  -1  -1 -10    0.79    0.37
   1   1  10    0.47    0.24
   1   1  10    0.96    0.34
   1   1  10    0.78    0.27
   2  -2 -10    3.41    0.41
   2  -2 -10    3.10    0.48
  -2   2  10    1.96    0.35
   1  -2 -10    8.73    0.61
   1  -2 -10    9.19    0.75
  -1   2  10    8.86    0.62
   0  -2 -10   18.41    0.97
   0  -2 -10   19.98    1.18
   0   2  10   18.38    0.95
   2   7 -11    0.22    0.29
   2   7 -11    1.14    0.38
   2   7 -11    0.69    0.38
   2   7 -11    0.87    0.29
  -2  -7  11    0.64    0.29
  -2  -7  11    0.87    0.30
   1   7 -11    0.77    0.36
   1   7 -11    0.49    0.26
   1   7 -11    0.99    0.33
  -1  -7  11    1.06    0.32
  -1  -7  11    1.24    0.34
  -1  -7  11    1.22    0.33
   0   7 -11    4.98    0.55
   0   7 -11    4.46    0.65
   0   7 -11    4.83    0.55
   0  -7  11    5.42    0.63
   0  -7  11    4.68    0.53
   2   6 -11    1.43    0.38
   2   6 -11    0.93    0.30
   2   6 -11    0.85    0.36
  -2  -6  11    1.19    0.31
  -2  -6  11    0.79    0.30
   1   6 -11    0.89    0.30
   1   6 -11   -0.02    0.20
   1   6 -11    0.18    0.28
  -1  -6  11   -0.35    0.18
  -1  -6  11    0.23    0.23
  -1  -6  11    0.01    0.24
   0   6 -11    0.96    0.25
   0   6 -11    0.83    0.38
   0   6 -11    0.32    0.27
   0   6 -11    0.48    0.26
   0  -6  11    0.63    0.30
   0  -6  11    0.94    0.32
   0  -6  11    0.89    0.28
  -1   6 -11    2.31    0.40
  -1   6 -11    1.61    0.47
  -1   6 -11    1.22    0.31
  -1   6 -11    2.02    0.36
  -1   6 -11    1.96    0.37
   1  -6  11    1.14    0.33
   1  -6  11    1.58    0.39
   3   5 -11    4.21    0.54
   3   5 -11    2.79    0.43
   3   5 -11    4.92    0.59
  -3  -5  11    3.60    0.51
  -3  -5  11    4.97    0.48
   2   5 -11    3.21    0.45
   2   5 -11    2.74    0.44
   2   5 -11    4.57    0.60
  -2  -5  11    4.04    0.53
  -2  -5  11    4.36    0.48
   1   5 -11   24.09    1.23
   1   5 -11   25.45    1.38
   1   5 -11   24.21    1.18
  -1  -5  11   28.58    1.37
  -1  -5  11   27.30    1.22
  -1  -5  11   26.47    1.30
   0   5 -11    4.26    0.50
   0   5 -11    3.84    0.46
   0   5 -11    3.61    0.57
   0   5 -11    4.94    0.40
   0  -5  11    5.30    0.60
   0  -5  11    4.35    0.51
   0  -5  11    4.60    0.49
  -1   5 -11    0.31    0.23
  -1   5 -11   -0.04    0.30
  -1   5 -11    0.21    0.22
  -1   5 -11    0.29    0.24
   1  -5  11   -0.02    0.25
   1  -5  11    0.90    0.33
   3   4 -11    6.12    0.64
   3   4 -11    5.85    0.62
   3   4 -11    5.74    0.56
  -3  -4  11    6.32    0.51
  -3  -4  11    5.87    0.64
   2   4 -11    2.49    0.46
   2   4 -11    2.47    0.39
   2   4 -11    2.99    0.44
  -2  -4  11    2.61    0.43
  -2  -4  11    3.16    0.42
   1   4 -11    0.17    0.30
   1   4 -11    0.26    0.23
   1   4 -11    0.63    0.24
   1   4 -11    0.48    0.20
  -1  -4  11    0.72    0.27
  -1  -4  11    0.44    0.28
  -1  -4  11    0.43    0.26
   0   4 -11    0.75    0.23
   0   4 -11    0.36    0.26
   0   4 -11    0.13    0.22
   0   4 -11   -0.11    0.28
   0  -4  11   -0.02    0.23
   0  -4  11   -0.27    0.20
   0  -4  11    0.33    0.22
  -1   4 -11    0.02    0.29
  -1   4 -11   -0.05    0.23
  -1   4 -11   -0.04    0.22
  -1   4 -11    0.40    0.24
   1  -4  11   -0.07    0.24
   1  -4  11    0.36    0.27
   3   3 -11    1.34    0.32
   3   3 -11    1.60    0.36
   3   3 -11    1.21    0.36
  -3  -3  11    1.96    0.41
  -3  -3  11    2.30    0.36
   2   3 -11    2.21    0.39
   2   3 -11    2.14    0.43
   2   3 -11    2.08    0.36
  -2  -3  11    2.80    0.45
  -2  -3  11    2.50    0.37
   1   3 -11   13.07    0.79
   1   3 -11   14.49    0.97
   1   3 -11   12.70    0.83
   1   3 -11   15.53    0.73
  -1  -3  11   13.84    0.78
  -1  -3  11   14.70    0.90
   0   3 -11    0.37    0.33
   0   3 -11    0.00    0.19
   0   3 -11    0.31    0.25
   0   3 -11    0.91    0.29
   0  -3  11    0.60    0.30
   0  -3  11    0.34    0.27
  -1   3 -11    1.02    0.41
  -1   3 -11    2.09    0.35
  -1   3 -11    1.66    0.33
   1  -3  11    1.62    0.35
   1  -3  11    1.37    0.36
   3   2 -11   -0.33    0.21
   3   2 -11    0.19    0.23
   3   2 -11    0.23    0.27
  -3  -2  11   -0.15    0.19
   2   2 -11    1.13    0.29
   2   2 -11    0.88    0.31
   2   2 -11    0.15    0.28
  -2  -2  11    1.03    0.28
   1   2 -11   13.66    0.81
   1   2 -11   16.45    0.78
   1   2 -11   13.02    0.86
   1   2 -11   15.31    0.99
  -1  -2  11   14.22    0.78
   0   2 -11    0.19    0.23
   0   2 -11   -0.17    0.26
   0   2 -11    0.14    0.20
   0  -2  11   -0.13    0.21
   0  -2  11    0.49    0.24
  -1   2 -11    0.24    0.22
  -1   2 -11    0.20    0.30
  -1   2 -11   -0.04    0.20
   1  -2  11   -0.18    0.20
   1  -2  11    0.20    0.24
   2   1 -11    0.39    0.24
   2   1 -11    0.53    0.31
   2   1 -11    0.64    0.29
  -2  -1  11    0.89    0.26
   1   1 -11   -0.02    0.20
   1   1 -11   -0.23    0.26
  -1  -1  11    0.00    0.21
   0   1 -11    4.39    0.47
   0   1 -11    4.28    0.60
   0   1 -11    3.90    0.47
   0  -1  11    4.84    0.58
   0  -1  11    4.34    0.48
   1   0 -11    7.97    0.60
   1   0 -11    7.43    0.76
  -1   0  11    7.78    0.59
   0   0   0    0.00    0.00
;
_shelx_hkl_checksum              12334
#END Tags that were not found in dictionaries
loop_
_space_group_symop_operation_xyz
'x, y, z'
'-x, -y, -z'
loop_
_atom_site_label
_atom_site_type_symbol
_atom_site_fract_x
_atom_site_fract_y
_atom_site_fract_z
_atom_site_U_iso_or_equiv
_atom_site_adp_type
_atom_site_occupancy
_atom_site_site_symmetry_order
_atom_site_calc_flag
_atom_site_refinement_flags_posn
_atom_site_refinement_flags_adp
C1 C 0.9519(2) 0.69884(14) 0.67740(14) 0.0199(3) Uani 1 1 d . .
C2 C 0.9134(2) 0.83934(15) 0.81542(15) 0.0252(3) Uani 1 1 d . .
H2 H 0.9550 0.8167 0.9114 0.030 Uiso 1 1 calc R U
C3 C 0.6782(2) 0.88681(16) 0.80997(15) 0.0289(3) Uani 1 1 d . .
H3A H 0.6759 0.9931 0.8858 0.035 Uiso 1 1 calc R U
H3B H 0.5806 0.8145 0.8374 0.035 Uiso 1 1 calc R U
C4 C 0.5895(2) 0.88407(15) 0.65064(15) 0.0267(3) Uani 1 1 d . .
H4A H 0.6887 0.9541 0.6215 0.032 Uiso 1 1 calc R U
H4B H 0.4380 0.9211 0.6498 0.032 Uiso 1 1 calc R U
C5 C 0.5803(2) 0.71805(14) 0.53693(14) 0.0204(3) Uani 1 1 d . .
H5 H 0.4674 0.6528 0.5635 0.024 Uiso 1 1 calc R U
C6 C 0.5099(2) 0.70444(14) 0.37274(14) 0.0203(3) Uani 1 1 d . .
C7 C 0.2882(2) 0.65768(15) 0.30661(16) 0.0260(3) Uani 1 1 d . .
H7 H 0.1840 0.6333 0.3647 0.031 Uiso 1 1 calc R U
C8 C 0.2175(2) 0.64625(17) 0.15687(16) 0.0316(3) Uani 1 1 d . .
H8 H 0.0653 0.6149 0.1133 0.038 Uiso 1 1 calc R U
C9 C 0.3677(2) 0.68038(17) 0.07054(16) 0.0317(3) Uani 1 1 d . .
H9 H 0.3201 0.6706 -0.0327 0.038 Uiso 1 1 calc R U
C10 C 0.5883(2) 0.72897(17) 0.13642(16) 0.0303(3) Uani 1 1 d . .
H10 H 0.6919 0.7541 0.0783 0.036 Uiso 1 1 calc R U
C11 C 0.6592(2) 0.74125(15) 0.28633(15) 0.0254(3) Uani 1 1 d . .
H11 H 0.8108 0.7750 0.3303 0.030 Uiso 1 1 calc R U
N1 N 0.79856(17) 0.65529(12) 0.55254(12) 0.0200(3) Uani 1 1 d . .
H1 H 0.8310 0.5813 0.4708 0.024 Uiso 1 1 calc R U
O1 O 1.12428(14) 0.63207(11) 0.68528(10) 0.0252(2) Uani 1 1 d . .
F1 F 1.06059(14) 0.96212(10) 0.81591(10) 0.0410(3) Uani 1 1 d . .
loop_
_atom_site_aniso_label
_atom_site_aniso_U_11
_atom_site_aniso_U_22
_atom_site_aniso_U_33
_atom_site_aniso_U_23
_atom_site_aniso_U_13
_atom_site_aniso_U_12
C1 0.0202(6) 0.0208(6) 0.0189(6) 0.0072(5) 0.0033(5) 0.0012(5)
C2 0.0271(7) 0.0255(7) 0.0190(6) 0.0033(5) 0.0017(5) 0.0016(5)
C3 0.0332(7) 0.0303(7) 0.0202(7) 0.0035(5) 0.0059(5) 0.0119(6)
C4 0.0293(7) 0.0258(7) 0.0239(7) 0.0064(5) 0.0046(5) 0.0108(5)
C5 0.0182(6) 0.0225(6) 0.0216(6) 0.0087(5) 0.0037(5) 0.0037(5)
C6 0.0214(6) 0.0171(6) 0.0213(6) 0.0056(5) 0.0014(5) 0.0047(5)
C7 0.0220(7) 0.0264(7) 0.0287(7) 0.0095(5) 0.0018(5) 0.0020(5)
C8 0.0253(7) 0.0330(7) 0.0305(7) 0.0074(6) -0.0063(6) 0.0027(6)
C9 0.0375(8) 0.0341(8) 0.0214(7) 0.0084(6) -0.0022(6) 0.0116(6)
C10 0.0319(7) 0.0367(8) 0.0265(7) 0.0151(6) 0.0068(6) 0.0087(6)
C11 0.0217(6) 0.0302(7) 0.0251(7) 0.0113(6) 0.0016(5) 0.0033(5)
N1 0.0209(5) 0.0196(5) 0.0172(5) 0.0036(4) 0.0023(4) 0.0047(4)
O1 0.0217(5) 0.0282(5) 0.0215(5) 0.0044(4) 0.0000(4) 0.0064(4)
F1 0.0404(5) 0.0281(5) 0.0407(5) -0.0034(4) 0.0053(4) -0.0082(4)
loop_
_atom_type_symbol
_atom_type_description
_atom_type_scat_dispersion_real
_atom_type_scat_dispersion_imag
_atom_type_scat_source
C C 0.0033 0.0016 'International Tables Vol C Tables 4.2.6.8 and 6.1.1.4'
H H 0.0000 0.0000 'International Tables Vol C Tables 4.2.6.8 and 6.1.1.4'
N N 0.0061 0.0033 'International Tables Vol C Tables 4.2.6.8 and 6.1.1.4'
O O 0.0106 0.0060 'International Tables Vol C Tables 4.2.6.8 and 6.1.1.4'
F F 0.0171 0.0103 'International Tables Vol C Tables 4.2.6.8 and 6.1.1.4'
loop_
_geom_angle_atom_site_label_1
_geom_angle_atom_site_label_2
_geom_angle_atom_site_label_3
_geom_angle
O1 C1 N1 122.98(11)
O1 C1 C2 119.02(11)
N1 C1 C2 117.99(11)
F1 C2 C3 109.28(11)
F1 C2 C1 105.26(10)
C3 C2 C1 114.57(11)
C2 C3 C4 110.54(11)
C3 C4 C5 108.93(11)
N1 C5 C6 110.21(10)
N1 C5 C4 109.99(10)
C6 C5 C4 113.18(10)
C7 C6 C11 118.71(12)
C7 C6 C5 119.32(11)
C11 C6 C5 121.95(11)
C8 C7 C6 120.74(13)
C9 C8 C7 120.29(13)
C8 C9 C10 119.25(13)
C9 C10 C11 120.56(13)
C10 C11 C6 120.43(12)
C1 N1 C5 126.83(10)
loop_
_geom_bond_atom_site_label_1
_geom_bond_atom_site_label_2
_geom_bond_distance
C1 O1 1.2382(15)
C1 N1 1.3325(16)
C1 C2 1.5277(17)
C2 F1 1.4061(15)
C2 C3 1.5046(18)
C3 C4 1.5197(18)
C4 C5 1.5210(17)
C5 N1 1.4731(15)
C5 C6 1.5103(17)
C6 C7 1.3897(18)
C6 C11 1.3908(18)
C7 C8 1.3866(19)
C8 C9 1.384(2)
C9 C10 1.386(2)
C10 C11 1.3860(19)
