#------------------------------------------------------------------------------
#$Date: 2016-02-05 03:23:55 +0200 (Fri, 05 Feb 2016) $
#$Revision: 176197 $
#$URL: svn://www.crystallography.net/cod/cif/7/15/47/7154774.cif $
#------------------------------------------------------------------------------
#
# This file is available in the Crystallography Open Database (COD),
# http://www.crystallography.net/
#
# All data on this site have been placed in the public domain by the
# contributors.
#
data_7154774
loop_
_publ_author_name
'Johnson, Sherida'
'Tanaka, Fujie'
_publ_section_title
;
 Direct synthesis of C-glycosides from unprotected 2-N-acyl-aldohexoses
 via aldol condensation-oxa-Michael reactions with unactivated ketones.
;
_journal_issue                   1
_journal_name_full               'Organic &amp; biomolecular chemistry'
_journal_page_first              259
_journal_page_last               264
_journal_paper_doi               10.1039/c5ob02094h
_journal_volume                  14
_journal_year                    2016
_chemical_absolute_configuration 'CHOOSE rm ad rmad syn or unk'
_chemical_formula_moiety         'C11 H21 N O7'
_chemical_formula_sum            'C11 H21 N O7'
_chemical_formula_weight         279.29
_space_group_crystal_system      monoclinic
_space_group_IT_number           4
_space_group_name_Hall           'P 2yb'
_space_group_name_H-M_alt        'P 1 21 1'
_symmetry_space_group_name_Hall  'P 2yb'
_symmetry_space_group_name_H-M   'P 1 21 1'
_atom_sites_solution_hydrogens   geom
_atom_sites_solution_primary     direct
_atom_sites_solution_secondary   difmap
_audit_update_record
;
2015-09-05 deposited with the CCDC.
2015-11-02 downloaded from the CCDC.
;
_cell_angle_alpha                90.0000
_cell_angle_beta                 95.347(5)
_cell_angle_gamma                90.0000
_cell_formula_units_Z            2
_cell_length_a                   5.008(2)
_cell_length_b                   8.002(4)
_cell_length_c                   17.346(8)
_cell_measurement_reflns_used    2504
_cell_measurement_temperature    173
_cell_measurement_theta_max      32.60
_cell_measurement_theta_min      2.40
_cell_volume                     692.1(5)
_computing_cell_refinement       'CrystalClear-SM Expert 2.1 b32'
_computing_data_collection
'CrystalClear-SM Expert 2.1 b32 (Rigaku, 2014)'
_computing_data_reduction        'CrystalClear-SM Expert 2.1 b32'
_computing_molecular_graphics    'CrystalStructure 4.1'
_computing_publication_material  'CrystalStructure 4.1 (Rigaku, 2014)'
_computing_structure_refinement  'SHELXL2013 (Sheldrick, 2008)'
_computing_structure_solution    'SIR92 (Altomare, et al., 1994)'
_diffrn_ambient_temperature      173
_diffrn_detector_area_resol_mean 13.653
_diffrn_measured_fraction_theta_full 0.996
_diffrn_measured_fraction_theta_max 0.996
_diffrn_measurement_device_type  'Rigaku XtaLAB mini'
_diffrn_measurement_method       \w
_diffrn_radiation_type           'Mo K\a'
_diffrn_radiation_wavelength     0.71075
_diffrn_reflns_av_R_equivalents  0.0274
_diffrn_reflns_laue_measured_fraction_full 0.996
_diffrn_reflns_laue_measured_fraction_max 0.996
_diffrn_reflns_limit_h_max       7
_diffrn_reflns_limit_h_min       -7
_diffrn_reflns_limit_k_max       12
_diffrn_reflns_limit_k_min       -12
_diffrn_reflns_limit_l_max       26
_diffrn_reflns_limit_l_min       -26
_diffrn_reflns_number            28544
_diffrn_reflns_point_group_measured_fraction_full 0.996
_diffrn_reflns_point_group_measured_fraction_max 0.989
_diffrn_reflns_theta_full        25.242
_diffrn_reflns_theta_max         32.535
_diffrn_reflns_theta_min         2.806
_diffrn_standards_number         0
_exptl_absorpt_coefficient_mu    0.112
_exptl_absorpt_correction_T_max  0.989
_exptl_absorpt_correction_T_min  0.920
_exptl_absorpt_correction_type   multi-scan
_exptl_absorpt_process_details   'REQAB (Rigaku, 1998)'
_exptl_crystal_colour            colorless
_exptl_crystal_density_diffrn    1.340
_exptl_crystal_density_method    'not measured'
_exptl_crystal_description       block
_exptl_crystal_F_000             300.00
_exptl_crystal_size_max          0.360
_exptl_crystal_size_mid          0.170
_exptl_crystal_size_min          0.100
_refine_diff_density_max         0.31
_refine_diff_density_min         -0.20
_refine_ls_abs_structure_details
;
 Flack x determined using 1968 quotients [(I+)-(I-)]/[(I+)+(I-)]
 (Parsons and Flack (2004), Acta Cryst. A60, s61).
;
_refine_ls_abs_structure_Flack   0.1(2)
_refine_ls_extinction_method     none
_refine_ls_goodness_of_fit_ref   1.049
_refine_ls_hydrogen_treatment    constr
_refine_ls_number_parameters     183
_refine_ls_number_reflns         4987
_refine_ls_number_restraints     2
_refine_ls_R_factor_all          0.0370
_refine_ls_R_factor_gt           0.0332
_refine_ls_shift/su_max          0.001
_refine_ls_structure_factor_coef Fsqd
_refine_ls_weighting_details
'w = 1/[\s^2^(Fo^2^)+(0.0508P)^2^+0.0573P] where P=(Fo^2^+2Fc^2^)/3'
_refine_ls_weighting_scheme      calc
_refine_ls_wR_factor_gt          0.0851
_refine_ls_wR_factor_ref         0.0877
_reflns_number_gt                4612
_reflns_number_total             4987
_reflns_threshold_expression     F^2^>2.0\s(F^2^)
_cod_data_source_file            c5ob02094h2.cif
_cod_data_source_block           SX407
_cod_depositor_comments
'Adding full bibliography for 7154773--7154774.cif.'
_cod_database_code               7154774
_shelxl_res_file
;
TITL SX407
CELL  0.71075 5.00800 8.00200 17.34600 90.000 95.347 90.000
ZERR  2 0.00200 0.00400 0.00800 0.000 0.005 0.000
LATT -1
SYMM    -X, .50+Y,    -Z
SFAC C H N O
UNIT 22 42 2 14
OMIT      1  -2   8
OMIT      1   2   8
OMIT      0   0   4
OMIT     -2   0  11
L.S. 10
FMAP 2
PLAN -150
WPDB -2
HTAB
LIST 4
TEMP -100.0
ACTA
SIZE 0.360 0.170 0.100
SADI 0.01 O8 H8A O8 H8B
WGHT    0.050800    0.057300
FVAR       3.37431
O1    4    0.379305    0.868098    0.761452    11.00000    0.02830    0.01329 =
         0.02002    0.00019    0.00468    0.00148
O2    4    0.218417    0.461587    0.616836    11.00000    0.04382    0.01333 =
         0.02386   -0.00096   -0.01092    0.00113
AFIX 147
H2    2    0.253618    0.362266    0.629757    11.00000   -1.20000
AFIX   0
O3    4    0.251993    1.117717    0.642809    11.00000    0.03752    0.01649 =
         0.02550    0.00010   -0.00115    0.00495
AFIX 147
H3    2    0.195087    1.087319    0.597909    11.00000   -1.20000
AFIX   0
O4    4    0.487894    0.743782    0.562938    11.00000    0.04537    0.02069 =
         0.01937    0.00282    0.00836    0.00896
AFIX 147
H4    2    0.411779    0.812490    0.531535    11.00000   -1.20000
AFIX   0
O5    4    0.652641    0.881056    0.929453    11.00000    0.02557    0.04656 =
         0.03272   -0.00760    0.00238   -0.00779
O7    4   -0.172750    0.387867    0.795110    11.00000    0.01467    0.02816 =
         0.05177    0.00858    0.00538    0.00146
O8    4    0.795259    0.501541    0.507284    11.00000    0.03295    0.02681 =
         0.02468   -0.00735   -0.00412    0.00615
H8A   2    0.695821    0.570156    0.528669    11.00000   -1.20000
H8B   2    0.933702    0.486192    0.538448    11.00000   -1.20000
N22   3    0.271404    0.414245    0.783916    11.00000    0.01418    0.01431 =
         0.02431    0.00296    0.00095    0.00205
AFIX  43
H22   2    0.430290    0.367139    0.792130    11.00000   -1.20000
AFIX   0
C9    1    0.505763    0.868802    0.691026    11.00000    0.02197    0.01501 =
         0.01991    0.00087    0.00302    0.00096
AFIX  13
H9    2    0.694900    0.829720    0.702638    11.00000   -1.20000
AFIX   0
C10   1    0.265909    0.731913    0.875235    11.00000    0.02057    0.01923 =
         0.02012    0.00036    0.00257   -0.00023
AFIX  23
H10A  2    0.090542    0.787818    0.863372    11.00000   -1.20000
H10B  2    0.230758    0.619810    0.896218    11.00000   -1.20000
AFIX   0
C11   1    0.057366    0.331455    0.805826    11.00000    0.01750    0.01627 =
         0.02514   -0.00080    0.00330    0.00040
C12   1    0.253070    0.577569    0.747368    11.00000    0.01644    0.01336 =
         0.02023    0.00192   -0.00020    0.00179
AFIX  13
H12   2    0.059277    0.608752    0.738499    11.00000   -1.20000
AFIX   0
C13   1    0.428330    0.831381    0.937202    11.00000    0.02335    0.02379 =
         0.01982    0.00125   -0.00003    0.00122
C14   1    0.360670    0.746357    0.633388    11.00000    0.02583    0.01462 =
         0.01805    0.00082    0.00227    0.00372
AFIX  13
H14   2    0.169675    0.782083    0.622116    11.00000   -1.20000
AFIX   0
C15   1    0.369244    0.571978    0.668472    11.00000    0.02394    0.01272 =
         0.01792   -0.00042   -0.00130    0.00247
AFIX  13
H15   2    0.559531    0.532822    0.675887    11.00000   -1.20000
AFIX   0
C16   1    0.511799    1.048687    0.662513    11.00000    0.03099    0.01565 =
         0.02450    0.00196    0.00255   -0.00253
AFIX  23
H16A  2    0.607521    1.118447    0.703359    11.00000   -1.20000
H16B  2    0.614399    1.053121    0.616454    11.00000   -1.20000
AFIX   0
C17   1    0.295144    0.862325    1.010250    11.00000    0.03343    0.05782 =
         0.02096   -0.00845    0.00403   -0.00789
AFIX 137
H17A  2    0.114269    0.906610    0.996944    11.00000   -1.20000
H17B  2    0.400748    0.943362    1.042635    11.00000   -1.20000
H17C  2    0.283770    0.757135    1.038692    11.00000   -1.20000
AFIX   0
C18   1    0.114674    0.167118    0.845223    11.00000    0.02982    0.01929 =
         0.04398    0.00930    0.01426    0.00463
AFIX 137
H18A  2    0.268427    0.114074    0.824066    11.00000   -1.20000
H18B  2   -0.042701    0.094416    0.836453    11.00000   -1.20000
H18C  2    0.155804    0.185309    0.900935    11.00000   -1.20000
AFIX   0
C19   1    0.396774    0.710419    0.800173    11.00000    0.01925    0.01396 =
         0.01868    0.00055    0.00177    0.00058
AFIX  13
H19   2    0.589373    0.678746    0.812056    11.00000   -1.20000
AFIX   0
HKLF 4
 
REM  SX407
REM R1 =  0.0332 for    4612 Fo > 4sig(Fo)  and  0.0370 for all    4987 data
REM    183 parameters refined using      2 restraints
 
END  
     
WGHT      0.0507      0.0577 

REM Instructions for potential hydrogen bonds
EQIV $1 x, y-1, z
HTAB O2 O3_$1
EQIV $2 -x+1, y+1/2, -z+1
HTAB O3 O8_$2
HTAB O4 O8_$2
HTAB O8 O4
EQIV $3 x+1, y, z
HTAB O8 O2_$3
HTAB N22 O7_$3
HTAB C15 O7_$3
EQIV $4 x-1, y, z
HTAB C17 O5_$4
HTAB C18 O1_$1
HTAB C19 O7_$3

REM Highest difference peak  0.310,  deepest hole -0.201,  1-sigma level  0.040
Q1    1   0.4331  0.8110  0.6622  11.00000  0.05    0.31
Q2    1   0.3601  0.7764  0.9000  11.00000  0.05    0.25
Q3    1   0.3327  0.7106  0.8408  11.00000  0.05    0.24
Q4    1   0.0752  0.2548  0.8269  11.00000  0.05    0.23
Q5    1   0.2742  0.5008  0.7660  11.00000  0.05    0.22
Q6    1   0.4707  0.9439  0.6705  11.00000  0.05    0.21
Q7    1   0.3172  0.6438  0.7703  11.00000  0.05    0.21
Q8    1   0.3556  0.6601  0.6497  11.00000  0.05    0.21
Q9    1   0.3375  0.8589  0.9725  11.00000  0.05    0.20
Q10   1   0.3112  0.5703  0.7094  11.00000  0.05    0.20
Q11   1   0.1463  0.8400  1.0042  11.00000  0.05    0.17
Q12   1  -0.0313  0.1209  0.8862  11.00000  0.05    0.17
Q13   1   0.1646  0.3826  0.7904  11.00000  0.05    0.17
Q14   1   0.2880  0.1409  0.8612  11.00000  0.05    0.15
Q15   1   0.2609  0.3515  0.7536  11.00000  0.05    0.14
Q16   1   0.0928  0.0998  0.7866  11.00000  0.05    0.14
Q17   1   0.6892  0.8127  0.9450  11.00000  0.05    0.14
Q18   1   0.2471  0.8746  0.7482  11.00000  0.05    0.14
Q19   1   0.0944  0.4472  0.6359  11.00000  0.05    0.13
Q20   1  -0.1765  0.4571  0.7739  11.00000  0.05    0.13
Q21   1   0.5153  0.6826  0.8091  11.00000  0.05    0.12
Q22   1   0.4330  0.8681  0.7274  11.00000  0.05    0.12
Q23   1   0.4355  0.6825  0.5427  11.00000  0.05    0.12
Q24   1   0.2917  0.8985  0.5025  11.00000  0.05    0.12
Q25   1   0.1587  1.0279  0.5368  11.00000  0.05    0.12
Q26   1   0.5620  0.9180  0.9361  11.00000  0.05    0.12
Q27   1   0.3613  0.2448  0.5772  11.00000  0.05    0.11
Q28   1   0.3997  0.8632  1.0432  11.00000  0.05    0.11
Q29   1   0.3902  0.7471  0.6155  11.00000  0.05    0.11
Q30   1   0.1653  0.5929  0.7400  11.00000  0.05    0.11
Q31   1   0.2908  0.4595  0.8786  11.00000  0.05    0.11
Q32   1  -0.0598  0.8289  0.8083  11.00000  0.05    0.11
Q33   1   0.3810  0.8013  0.7772  11.00000  0.05    0.11
Q34   1  -0.2379  0.3632  0.6335  11.00000  0.05    0.11
Q35   1   0.7913  1.0927  0.7534  11.00000  0.05    0.11
Q36   1   0.7396  1.1421  0.6610  11.00000  0.05    0.10
Q37   1  -0.0919 -0.0969  0.7808  11.00000  0.05    0.10
Q38   1  -0.3924  0.1986  0.8391  11.00000  0.05    0.10
Q39   1   0.6561  1.0233  0.5875  11.00000  0.05    0.10
Q40   1  -0.0709  0.3377  0.7969  11.00000  0.05    0.10
Q41   1   0.5722  1.0585  0.6389  11.00000  0.05    0.10
Q42   1  -0.0627  0.3042  0.6367  11.00000  0.05    0.10
Q43   1  -0.2685  0.4592  0.8859  11.00000  0.05    0.10
Q44   1   0.0815  0.8263  0.6313  11.00000  0.05    0.10
Q45   1  -0.2955  0.2877  0.7723  11.00000  0.05    0.10
Q46   1  -0.2300  0.0137  0.8242  11.00000  0.05    0.10
Q47   1   0.8335  0.7129  0.9382  11.00000  0.05    0.10
Q48   1   1.0058  0.7907  0.9473  11.00000  0.05    0.10
Q49   1  -0.3124  0.4358  0.7709  11.00000  0.05    0.09
Q50   1   0.4205  0.9422  0.7885  11.00000  0.05    0.09
Q51   1   0.3872  0.6196  0.4984  11.00000  0.05    0.09
Q52   1  -0.1102  0.5995  0.8919  11.00000  0.05    0.09
Q53   1   0.3412  0.2633  0.6709  11.00000  0.05    0.09
Q54   1   0.2474  0.7451  0.6307  11.00000  0.05    0.09
Q55   1   0.5523  1.0896  0.6881  11.00000  0.05    0.09
Q56   1   0.7057  1.0044  0.9129  11.00000  0.05    0.09
Q57   1   0.8907  0.7883  0.8600  11.00000  0.05    0.09
Q58   1  -0.2136  0.4781  0.5584  11.00000  0.05    0.09
Q59   1   0.1838  0.7168  1.0139  11.00000  0.05    0.09
Q60   1   0.7736  0.6295  0.5929  11.00000  0.05    0.09
Q61   1  -0.0327  0.0747  0.9396  11.00000  0.05    0.09
Q62   1   0.7195  0.6635  0.8165  11.00000  0.05    0.09
Q63   1   0.6022  0.7383  0.8022  11.00000  0.05    0.09
Q64   1   0.3093  0.6808  1.0398  11.00000  0.05    0.09
Q65   1   0.7657  0.7916  1.0037  11.00000  0.05    0.09
Q66   1   0.5592  0.2388  0.7445  11.00000  0.05    0.09
Q67   1  -0.2896  0.4965  0.8544  11.00000  0.05    0.09
Q68   1   0.3496  0.9668  0.5283  11.00000  0.05    0.09
Q69   1   0.6847  1.1004  0.7897  11.00000  0.05    0.09
Q70   1   0.3171  0.3252  0.8905  11.00000  0.05    0.09
Q71   1   0.5797  1.1941  0.7733  11.00000  0.05    0.09
Q72   1  -0.1680  0.6051  0.6356  11.00000  0.05    0.09
Q73   1  -0.1952  0.2039  0.7499  11.00000  0.05    0.08
Q74   1  -0.3248  0.5032  0.7489  11.00000  0.05    0.08
Q75   1   0.2017  0.5963  0.4519  11.00000  0.05    0.08
Q76   1   0.3215  0.4690  0.5311  11.00000  0.05    0.08
Q77   1  -0.2759  0.0418  0.7968  11.00000  0.05    0.08
Q78   1  -0.0761  0.6378  0.8571  11.00000  0.05    0.08
Q79   1   0.2897  1.0177  0.8750  11.00000  0.05    0.08
Q80   1   0.2365  0.5634  0.5312  11.00000  0.05    0.08
Q81   1  -0.3059  0.3923  0.8278  11.00000  0.05    0.08
Q82   1   0.9830  0.9593  0.9703  11.00000  0.05    0.08
Q83   1   0.7635  0.6042  0.6783  11.00000  0.05    0.08
Q84   1  -0.0499  0.5267  0.8572  11.00000  0.05    0.08
Q85   1   0.9548  0.8336  0.7560  11.00000  0.05    0.08
Q86   1   0.6624  1.0771  0.8878  11.00000  0.05    0.08
Q87   1   0.6173  0.8657  1.0235  11.00000  0.05    0.08
Q88   1  -0.0363  0.4590  0.8991  11.00000  0.05    0.08
Q89   1   0.1698  0.6404  1.0469  11.00000  0.05    0.08
Q90   1   0.8670  0.8024  0.9195  11.00000  0.05    0.08
Q91   1   0.8187  0.7767  0.6168  11.00000  0.05    0.08
Q92   1   0.9604  0.7977  0.7022  11.00000  0.05    0.08
Q93   1   0.9687  0.9379  0.9336  11.00000  0.05    0.08
Q94   1   0.8341  0.8511  0.6829  11.00000  0.05    0.08
Q95   1   0.1724  0.9645  0.8495  11.00000  0.05    0.08
Q96   1   0.0270  1.2626  0.6941  11.00000  0.05    0.08
Q97   1   0.7998  1.0247  0.5703  11.00000  0.05    0.08
Q98   1   0.1644  1.0381  0.6390  11.00000  0.05    0.08
Q99   1   0.6768  0.9566  1.0258  11.00000  0.05    0.08
Q100  1   0.2747  1.0255  0.6601  11.00000  0.05    0.08
Q101  1   0.2005  1.2213  0.7333  11.00000  0.05    0.08
Q102  1   0.7437  0.9471  0.8812  11.00000  0.05    0.08
Q103  1  -0.1613  0.5672  0.7216  11.00000  0.05    0.08
Q104  1   1.1342  0.5311  0.5038  11.00000  0.05    0.08
Q105  1   0.8471  0.9605  0.6554  11.00000  0.05    0.08
Q106  1   0.2861  0.6787  0.8857  11.00000  0.05    0.08
Q107  1   0.8237  0.6204  0.9734  11.00000  0.05    0.08
Q108  1  -0.1844  0.6010  0.8082  11.00000  0.05    0.08
Q109  1   0.0625  0.2580  0.5735  11.00000  0.05    0.08
Q110  1   0.1141  0.3797  0.6665  11.00000  0.05    0.08
Q111  1   0.1260  1.1201  0.7293  11.00000  0.05    0.08
Q112  1   0.2314  0.2048  0.6270  11.00000  0.05    0.08
Q113  1  -0.0870  0.6226  0.7768  11.00000  0.05    0.07
Q114  1   0.7241  0.9375  0.8289  11.00000  0.05    0.07
Q115  1   0.1178  0.8975  0.6598  11.00000  0.05    0.07
Q116  1   0.0777  1.0220  0.7257  11.00000  0.05    0.07
Q117  1   0.5588  0.3424  0.6999  11.00000  0.05    0.07
Q118  1   0.2378  0.3029  0.5622  11.00000  0.05    0.07
Q119  1   0.4493  1.0413  0.8918  11.00000  0.05    0.07
Q120  1  -0.2156  0.2419  0.6064  11.00000  0.05    0.07
Q121  1   0.4478  0.2155  0.8543  11.00000  0.05    0.07
Q122  1   0.8814  0.2929  0.5530  11.00000  0.05    0.07
Q123  1   0.3066  0.5228  0.6478  11.00000  0.05    0.07
Q124  1   0.0461  0.8768  0.8080  11.00000  0.05    0.07
Q125  1   0.4703  0.5403  0.6775  11.00000  0.05    0.07
Q126  1   0.6738  1.0990  0.5421  11.00000  0.05    0.07
Q127  1   0.0706  0.5887  0.7693  11.00000  0.05    0.07
Q128  1   0.9972  0.8798  0.9305  11.00000  0.05    0.07
Q129  1   0.7980  1.0786  1.0071  11.00000  0.05    0.07
Q130  1   0.9777  0.8482  0.8898  11.00000  0.05    0.07
Q131  1   0.5089  1.0184  0.8858  11.00000  0.05    0.07
Q132  1   0.3164  0.6018  1.0160  11.00000  0.05    0.07
Q133  1  -0.0243  0.6433  0.9798  11.00000  0.05    0.07
Q134  1   0.6791  0.6411  0.9426  11.00000  0.05    0.07
Q135  1  -0.0523  0.6066  0.6032  11.00000  0.05    0.07
Q136  1   0.6887  0.5922  0.7197  11.00000  0.05    0.07
Q137  1   0.4324  0.6394  1.0493  11.00000  0.05    0.07
Q138  1   1.0178  0.4609  0.4935  11.00000  0.05    0.07
Q139  1   0.7156  0.8821  1.0256  11.00000  0.05    0.07
Q140  1  -0.3128  0.2507  0.8638  11.00000  0.05    0.07
Q141  1   0.7578  0.5837  0.8637  11.00000  0.05    0.07
Q142  1   0.6809  0.6283  0.6134  11.00000  0.05    0.07
Q143  1   0.0156  1.0156  0.6593  11.00000  0.05    0.07
Q144  1   0.1948  0.6477  0.5560  11.00000  0.05    0.07
Q145  1  -0.1282  0.2130  0.8819  11.00000  0.05    0.07
Q146  1  -0.0798 -0.0255  0.7288  11.00000  0.05    0.07
Q147  1   0.2429  0.1750  0.7613  11.00000  0.05    0.07
Q148  1  -0.1419  0.4798  0.6392  11.00000  0.05    0.07
Q149  1   0.8031  0.3826  0.5399  11.00000  0.05    0.07
Q150  1   0.1517  1.0813  0.6761  11.00000  0.05    0.07
;
_shelxl_hkl_file
;
   0   1   0    7.44    1.62
   0  -1   0   29.04    6.77
   0   1   0    8.76    3.49
   0  -1   0   43.24    8.13
   0   1   0    1.74    2.85
   0   1   0   28.55    5.17
   0  -1   0   22.95    5.03
   0  -1   0   -4.84    4.30
   0  -1   0    2.80    3.75
   0  -1   0    2.73    1.94
   0   1   0   10.01    2.81
   0   1   1 7216.19   61.97
   0  -1  -1 7175.03   63.34
   0   1  -1 7131.80   54.67
   0  -1   1 7361.28   65.13
   0  -1  -1 7276.58   60.20
   0  -1   1 7116.31   63.20
   0  -1  -1 6907.41   53.32
   0  -1  -1 7305.72   64.91
   0   1   1 7264.24   55.76
   0   1   1 7103.50   55.63
   0  -1   1 7325.24   64.11
   0   1  -1 7313.97   56.09
   0  -1   1 7261.55   64.34
   0   1   1 7165.82   57.59
   0  -1  -1 7079.25   55.60
   0   1   1 7375.14   63.91
   0  -1  -2  511.60    9.75
   0   1  -2  477.65    6.03
   0  -1  -2  521.99   13.61
   0  -1   2  497.35   13.70
   0   1   2  497.66   13.41
   0   1  -2  506.37   13.22
   0   1   2  513.55   13.61
   0  -1  -2  478.57   11.85
   0  -1  -2  503.70   14.38
   0  -1   2  500.85    6.25
   0  -1   2  499.59   13.24
   0  -1   2  523.49   13.67
   0  -1   2  497.89   12.23
   0  -1   2  501.70   13.13
   0  -1   2  484.13    8.21
   0   1   2  473.01   10.39
   0  -1   2  546.84   14.84
   0   1  -2  489.95    8.05
   0   0   3   75.43    5.46
   0   0   3   67.21    5.27
   0   0  -3   52.98    6.31
   0   0   3   54.47    6.64
   0   0   3   54.95    4.39
   0   0  -3   53.79    5.86
   0   0   3   67.93    7.05
   0   0  -3   64.65    7.45
   1   0   039138.44  286.51
  -1   0   039081.47  295.95
  -1   0   037732.28  272.07
   1   0   038390.51  276.81
   1   0   038751.35  294.71
  -1   0   038691.20  293.38
   1   0   038996.96  288.87
   1   0   039164.43  295.42
  -1   0   039100.09  296.13
   1   0   038689.56  294.00
  -1   0   136357.73  275.45
  -1   0   136545.33  278.47
  -1   0   135743.67  256.06
   1   0  -137323.42  284.33
   1   0  -136222.36  259.44
   1   0  -135974.54  275.20
   1   0  -135786.17  273.98
   1   0  -136220.86  270.14
  -1   0   136494.78  278.79
   1   0  -137033.97  279.25
   1   0   172556.58  490.40
   1   0   171530.75  496.09
   1   0   171206.69  520.66
   1   0   170487.48  504.46
   1   0   171896.63  499.30
   1   0   172688.62  503.88
  -1   0  -170898.17  512.03
   0  -1  -310629.76   93.09
   0  -1  -310392.20   79.20
   0   1  -310544.10   95.11
   0  -1   310608.52   81.47
   0  -1  -310802.83   84.70
   0  -1  -310210.25   93.01
   0  -1   310781.67   96.47
   0   1   310665.10   95.91
   0  -1   310718.87   96.44
   0  -1   310442.14   94.08
   0   1  -310572.05   95.46
   0   1   310666.85   80.91
   0   1   310453.52   90.13
   0  -1   310583.11   94.16
   0  -1   310768.30   94.68
   0   1   310583.15   94.87
   1   0  -2 6655.56   64.55
  -1   0   2 6815.08   68.62
   1   0  -2 6578.14   54.03
  -1   0   2 6647.68   65.48
   1   0  -2 6813.47   69.30
   1   0  -2 6647.47   66.70
   1   0  -2 6728.23   66.84
  -1   0   2 6609.19   66.91
   0   0  -4   68.28    8.10
   0   0   4   44.22    7.90
   0   0  -4   48.48    7.39
   0   0   4   54.25    6.18
   0   0  -4   68.81    9.54
   0   0   4   53.60    7.20
   0   0   4   57.69    6.23
   1   1   0 5628.71   61.03
   1   1   0 5587.72   54.71
  -1  -1   0 5488.93   47.16
  -1  -1   0 5538.23   58.37
   1  -1   0 5442.42   56.52
   1   1   0 5484.86   48.85
   1  -1   0 5449.88   58.52
   1   1   0 5594.13   59.15
   1  -1   0 5523.28   53.90
  -1   1   0 5477.46   52.40
   1  -1   0 5414.87   50.23
   1  -1   0 5370.29   51.31
  -1  -1   0 5488.90   58.90
   1  -1   0 5548.30   55.62
   1   1   0 5533.87   50.42
  -1  -1   0 5485.95   58.18
  -1   1   0 5518.67   54.56
   1  -1   0 5562.48   57.65
   1  -1  -124680.09  195.84
   1   1  -125118.81  196.12
   1   1  -124822.17  197.94
  -1  -1   125349.98  202.47
  -1   1   125179.77  196.80
  -1  -1   125083.89  186.64
   1  -1  -124416.70  192.60
  -1  -1   125274.31  202.45
   1  -1  -124812.84  195.84
   1  -1  -125381.58  201.83
  -1  -1   125112.44  200.10
  -1  -1   125645.17  204.75
  -1   1   124817.63  188.04
   1   1  -124884.30  191.79
   1  -1  -125757.96  205.90
   1   0   2 5794.86   58.76
  -1   0  -2 5840.17   57.98
  -1   0  -2 5814.10   53.88
   1   0   2 5767.64   53.20
   1   0   2 5853.53   59.82
  -1   0  -2 5795.36   57.77
   1   0   2 5796.93   43.88
   1   0   2 5732.17   59.46
   1   0   2 5763.60   45.66
   1   1   145664.41  344.01
   1  -1   144993.54  343.28
  -1  -1  -145842.11  349.21
  -1  -1  -145470.87  346.60
   1  -1   144614.05  332.86
  -1  -1  -145952.06  350.33
   1  -1   145621.24  346.43
   1  -1   145584.00  341.80
  -1  -1  -144868.47  331.21
  -1   1  -143636.04  327.40
  -1   1  -144723.87  333.98
   1   1   145704.54  347.91
   1   1   144296.55  324.25
   0  -2   014871.00  126.17
   0   2   014405.53  116.23
   0  -2   014569.79  119.14
   0  -2   014204.69  123.62
   0  -2   014334.94  112.53
   0  -2   014432.54  124.67
   0   2   014329.24  117.49
   0  -2   013992.74  133.19
   0  -2   014522.65  126.37
  -1   0   320357.52  168.50
   1   0  -319653.44  164.15
  -1   0   320522.74  167.97
  -1   0   320245.14  165.08
   1   0  -319694.26  162.22
   1   0  -320367.62  169.31
  -1   0   319985.71  165.55
  -1  -1   210219.71   96.47
   1  -1  -210186.34   91.56
   1  -1  -2 9989.57   94.74
   1   1  -210056.03   82.38
  -1   1   210320.79   96.19
  -1  -1   210285.29   94.14
   1   1  -210372.75   94.85
   1  -1  -210325.33   89.54
   1  -1  -210192.40   88.78
   1  -1  -210534.11   98.05
  -1   1   210189.75   86.16
  -1  -1   210402.31   97.83
  -1   1   210375.12   95.19
  -1  -1   210112.71   94.09
   1  -1  -210243.94   94.73
   1   1  -210378.81   92.83
  -1  -1   210001.71   94.90
   0  -2  -127097.54  210.99
   0   2   126239.42  206.06
   0   2  -126185.71  198.33
   0  -2   127276.33  217.02
   0  -2   127882.99  211.30
   0  -2  -127543.54  209.84
   0  -2   126626.05  212.59
   0  -2  -127857.56  221.10
   0  -2  -127625.20  220.28
   0  -2   127410.03  214.75
   0  -2   127161.23  202.62
   0  -2  -127142.87  204.34
   0  -1   426159.54  209.57
   0   1   424843.17  201.31
   0  -1  -426151.49  196.08
   0  -1  -425698.56  201.41
   0  -1  -425765.14  206.00
   0   1   425353.56  188.97
   0  -1   426026.03  211.39
   0   1   426007.37  205.92
   0  -1   425753.38  205.10
   0  -1   426121.95  209.40
   0   1   425107.75  183.39
   0  -1   425596.39  191.66
   0  -1   425858.84  198.30
   1   1   2 3383.43   28.61
   1  -1   2 3462.57   44.92
  -1   1  -2 3376.80   37.43
   1   1   2 3444.69   42.69
  -1  -1  -2 3372.06   29.37
   1   1   2 3560.46   45.98
   1  -1   2 3366.63   39.21
  -1  -1  -2 3408.59   44.70
   1  -1   2 3420.53   45.17
  -1  -1  -2 3555.25   40.54
   1  -1   2 3388.09   40.41
   1  -1   2 3414.17   43.10
  -1   1  -2 3385.11   36.02
   1  -1   2 3394.07   38.12
   1   1   2 3353.35   34.24
  -1  -1  -2 3432.28   44.83
   0  -2   2   44.97   28.30
   0   2   2  107.63    6.35
   0  -2  -2  125.95   10.19
   0  -2  -2  111.69    5.62
   0  -2  -2  111.56    8.86
   0  -2   2  113.36    9.62
   0  -2   2  105.93    9.59
   0  -2  -2  117.11    7.21
   0  -2   2  116.65    7.89
   0  -2   2  139.69   10.17
   0   2  -2  122.24   18.41
   0  -2   2  117.30   10.10
   0  -2   2  106.79    4.77
   0   2   2  116.06    8.58
   0   2   2  120.33    9.73
   0  -2  -2  106.96    4.57
   0  -2  -2  110.68    9.30
  -1   0  -321631.88  174.22
  -1   0  -322371.37  180.97
   1   0   321634.08  178.77
   1   0   321238.32  157.85
  -1   0  -321353.24  159.97
   1   0   321790.41  180.03
   1   0   321908.97  170.32
   1   0   322457.97  182.14
   1   1  -3 3983.65   49.85
   1  -1  -3 3964.48   50.36
  -1   1   3 4150.17   44.66
  -1  -1   3 4102.20   50.99
   1  -1  -3 4053.94   45.66
   1  -1  -3 4053.71   43.04
  -1   1   3 4065.31   50.71
   1   1  -3 4078.22   49.06
   1  -1  -3 4050.72   49.90
   1  -1  -3 3959.19   44.74
  -1  -1   3 4070.79   51.17
  -1  -1   3 3969.99   49.80
  -1  -1   3 4084.54   49.32
  -1   1   3 4031.43   49.37
   1   1  -3 4089.25   52.44
   1  -1  -3 4154.07   50.95
  -1  -1   3 4007.44   47.79
   1   1  -3 4089.08   41.97
   0   0   510486.00  100.07
   0   0   5 9985.74   91.44
   0   0  -510437.51   97.57
   0   0   510110.11   94.84
   0   0   510058.41   89.72
   0   0   5 9897.26   86.77
   0   0  -510130.40   93.28
   0   0   510038.64   93.05
   0   0  -510389.76   99.52
   1   0  -4 1532.34   28.94
   1   0  -4 1515.57   29.93
   1   0  -4 1528.72   24.59
   1   0  -4 1613.80   30.66
  -1   0   4 1523.97   28.12
  -1   0   4 1557.16   27.57
  -1   0   4 1500.73   27.02
  -1   0   4 1544.31   28.60
  -1   0   4 1575.62   29.71
   1  -1   3 4820.16   54.22
   1   1   3 4674.04   41.15
   1  -1   3 4756.39   53.65
   1   1   3 4824.53   57.92
   1  -1   3 4662.30   49.30
  -1  -1  -3 4649.53   55.85
  -1   1  -3 4832.35   55.50
   1  -1   3 4679.16   56.33
  -1   1  -3 4723.99   47.72
   1   1   3 4825.25   51.17
  -1  -1  -3 4655.29   56.23
  -1  -1  -3 4638.92   40.16
   1  -1   3 4864.36   50.44
   1   1   3 4804.26   53.78
   1  -1   3 4801.02   57.35
  -1   1  -3 4781.06   47.52
   0   2   3 4027.13   32.50
   0  -2  -3 4336.70   51.71
   0  -2   3 4098.64   33.19
   0  -2  -3 4253.97   49.68
   0  -2   3 4092.97   51.91
   0   2   3 4136.49   44.11
   0  -2   3 4132.06   52.84
   0  -2   3 4045.89   36.42
   0  -2   3 4205.77   47.99
   0  -2  -3 4077.79   42.28
   0  -2   3 4080.27   52.13
   0   2   3 4106.44   52.06
   0  -2  -3 4206.40   35.27
   0   2  -3 4286.79   53.79
   0  -2   3 4221.81   52.83
   0   2   3 4202.38   51.39
   0   1  -514199.25  129.51
   0  -1  -513543.06  121.84
   0   1   513660.46  117.28
   0   1   513508.58  121.63
   0  -1   513295.80  122.94
   0  -1   513871.20  123.72
   0   1  -514185.27  128.14
   0   1   513684.52  110.46
   0  -1   513315.66  130.01
   0  -1   513448.83  109.72
   0  -1  -513634.94  108.89
   0  -1  -513230.44  123.11
   0  -1   513870.48  125.42
   0  -1  -514079.33  121.95
   0  -1   513631.60  116.57
   0   1   513908.17  128.07
   0   1  -513451.97  123.83
  -1   1   413490.66  124.37
   1   1  -413352.13  114.14
  -1   1   413231.24  114.81
  -1  -1   413602.04  126.35
   1  -1  -413419.77  121.74
   1   1  -413826.78  126.58
   1  -1  -413523.42  125.47
   1  -1  -413326.37  111.73
  -1  -1   413439.62  123.80
  -1   1   413642.12  126.34
  -1  -1   413140.95  117.68
  -1  -1   413610.82  125.33
   1  -1  -413298.18  117.27
   1   0   4 1940.94   25.78
  -1   0  -4 1920.33   23.96
  -1   0  -4 1981.54   31.95
  -1   0  -4 1881.05   31.53
   1   0   4 1902.83   31.02
   1   0   4 1968.62   35.52
  -1   0  -4 1930.51   30.93
   1   0   4 1944.50   33.30
  -1  -2   0 5152.35   56.81
   1  -2   0 5057.40   59.03
  -1  -2   0 4979.78   53.06
  -1  -2   0 4931.80   58.05
  -1  -2   0 4979.16   58.13
  -1  -2   0 5059.87   57.76
  -1  -2   0 5154.36   59.02
   1  -2   0 5082.12   60.22
   1  -2   0 4984.47   41.89
  -1  -2   0 5092.19   54.31
  -1  -2   0 5023.29   53.52
  -1   2   0 5116.95   54.37
   1  -2   0 5093.78   58.72
   1  -2   0 5034.04   55.61
  -1  -2   0 4944.24   57.87
  -1   2   0 5055.12   49.46
   1  -2   0 4978.03   57.66
   1  -2   0 5046.99   60.70
  -1  -2   1  998.95   23.51
  -1   2   1  991.68   22.21
  -1  -2   1  958.53   23.28
  -1   2   1 1010.41   20.04
  -1  -2   1  969.62   22.75
   1  -2  -1  996.12   24.22
  -1  -2   1 1023.04   22.78
   1  -2  -1  962.75   11.81
   1  -2  -1  978.49   23.73
  -1  -2   1  987.11   21.79
  -1  -2   1  962.82   23.12
   1  -2  -1 1010.40   24.52
  -1  -2   1  984.14   53.96
  -1  -2   1  967.45   20.77
   1  -2  -1  959.29   19.84
   1  -2  -1 1006.43   22.88
  -1  -2   1  993.37   20.35
   1  -2  -1  962.51   22.10
  -1  -2  -116646.56  140.54
   1  -2   117499.27  151.60
   1  -2   116745.55  149.58
  -1  -2  -116844.59  137.89
   1  -2   116798.31  145.83
  -1  -2  -117458.33  144.11
  -1  -2  -117290.46  152.07
  -1   2  -117397.72  135.28
   1  -2   117481.90  152.97
  -1   2  -117485.01  141.80
  -1  -2  -117145.05  150.96
   1  -2   117462.85  152.64
  -1  -2  -116682.77  136.63
  -1  -2  -116729.30  146.50
   1  -2   117055.38  133.38
   1   2  -214580.40  132.95
   1  -2  -215367.99  139.15
  -1   2   214841.00  128.90
   1  -2  -214981.78  129.07
  -1  -2   214766.47  130.43
  -1  -2   215117.08  139.44
  -1   2   214925.14  133.54
   1  -2  -214689.44  135.30
  -1  -2   214492.55  127.11
   1  -2  -214638.31  121.26
  -1  -2   214872.06  132.72
  -1  -2   214783.34  133.91
   1  -2  -215009.49  135.94
  -1  -2   215051.62  136.34
   1  -2  -214642.30  130.43
  -1   0   522920.36  189.12
   1   0  -521606.42  186.46
   1   0  -522078.73  189.42
  -1   0   522211.90  187.19
  -1   0   521637.77  183.65
  -1   0   521606.46  184.82
  -1   0   522991.34  188.92
   1   0  -522389.09  189.43
   0   2  -422510.68  192.12
   0  -2   422743.70  195.66
   0  -2   422205.61  162.05
   0  -2  -422590.36  192.78
   0  -2  -422720.19  186.56
   0  -2  -421962.85  170.90
   0  -2   421888.09  186.69
   0  -2   423037.21  197.07
   0  -2   423036.58  175.19
   1   1   4 9547.31   91.45
   1   1   4 9603.08   74.92
  -1  -1  -4 9416.63   71.58
   1   1   4 9505.00   96.98
   1  -1   4 9644.47   96.87
  -1   1  -4 9506.56   84.60
   1  -1   4 9957.70  101.65
  -1  -1  -4 9475.58   79.46
   1  -1   4 9423.05   91.86
  -1  -1  -4 9608.47   97.10
   1  -1   4 9573.46   88.05
   1  -1   4 9630.83   91.94
   1   1   4 9510.81   86.80
  -1  -1  -4 9816.34   96.05
   1  -1   4 9650.03   88.04
   1   1   4 9963.53  100.63
   1  -1   4 9758.70   95.69
  -1   1  -4 9603.29   95.86
   1  -2   2 1878.80   34.59
  -1  -2  -2 1889.32   26.91
   1  -2   2 1890.63   32.72
  -1   2  -2 1847.95   20.82
  -1  -2  -2 1875.71   34.35
   1  -2   2 1869.16   26.41
   1   2   2 1940.57   34.65
  -1  -2  -2 1821.32   25.15
  -1  -2  -2 1877.48   34.99
  -1   2  -2 1863.32   25.18
  -1  -2  -2 1883.82   26.04
   1   2   2 1932.58   29.53
  -1  -2  -2 1836.22   31.51
  -1   2  -2 1890.23   34.16
   1  -2   2 1884.14   33.84
   1   2   2 1853.14   30.25
   1  -2   2 1816.63   32.63
   1  -2   2 1851.65   34.12
   0   0   6 3100.40   40.25
   0   0  -6 3103.81   43.53
   0   0   6 3152.88   45.48
   0   0   6 2942.16   45.34
   0   0   6 3148.92   39.22
   0   0   6 3104.86   42.62
   0   0  -6 3011.77   44.50
   0   0   6 2983.67   41.38
   1  -2  -3  653.27   20.29
  -1  -2   3  620.66   20.97
  -1   2   3  660.91   20.58
   1  -2  -3  638.44   20.20
   1  -2  -3  601.97   16.12
  -1  -2   3  642.42   22.78
   1   2  -3  647.62   19.87
   1  -2  -3  631.52   21.00
  -1  -2   3  590.25   17.19
   1  -2  -3  650.64   21.42
   1  -2  -3  620.24   13.75
   1   2  -3  628.70   27.68
  -1   2   3  630.63   12.54
  -1  -2   3  660.34   20.85
   1   2  -3  667.96   17.59
  -1  -2   3  620.37   18.66
  -1   2   3  634.37   19.93
  -1  -2   3  645.24   20.95
   1   1  -5 2804.50   38.95
   1   1  -5 2827.79   46.43
  -1  -1   5 2839.87   45.04
  -1   1   5 2853.54   40.22
   1  -1  -5 2870.76   45.50
  -1  -1   5 2954.14   45.07
  -1   1   5 2790.80   44.47
   1   1  -5 2762.49   44.12
  -1  -1   5 2789.89   42.05
  -1  -1   5 2862.18   44.10
  -1   1   5 2894.00   45.48
   1  -1  -5 2813.53   36.77
   1  -1  -5 2766.60   40.61
   1  -1  -5 2879.68   46.06
  -1   1   5 2828.96   35.46
   1  -1  -5 2838.84   42.84
  -1  -1   5 2896.05   41.21
   1   0   5 3214.00   43.38
   1   0   5 3291.82   37.00
  -1   0  -5 3246.73   44.03
  -1   0  -5 3235.76   37.31
  -1   0  -5 3214.32   46.67
   1   0   5 3372.75   46.10
  -1   0  -5 3358.49   36.35
   1   0   5 3290.08   46.61
   1   0   5 3318.31   49.57
   0  -1   6 9414.53   95.95
   0   1  -6 9512.10   96.44
   0   1   6 9147.87   96.71
   0   1   6 9299.18   95.50
   0  -1  -6 9178.63   97.48
   0  -1   6 9209.36   83.50
   0   1  -6 9326.96   97.99
   0   1   6 8950.24   76.40
   0   1   6 9261.57   82.78
   0  -1   6 9481.50   91.91
   0  -1   6 9345.78   97.73
   0  -1  -6 9130.34   93.85
   0  -1  -6 9188.34   90.64
   0  -1   6 9141.98   92.26
   0  -1  -6 9000.15   78.55
   0  -1   6 9274.48   97.06
   1   2   3 9004.03   93.60
   1   2   3 8671.85   80.58
   1  -2   3 8502.75   92.13
  -1  -2  -3 8779.80   94.44
   1   2   3 8580.28   73.73
   1  -2   3 8646.20   82.73
   1  -2   3 8609.60   91.79
   1   2   3 8778.58   84.66
   1  -2   3 8728.62   93.46
  -1   2  -3 8572.10   69.52
  -1  -2  -3 8661.72   93.30
  -1   2  -3 8674.86   74.24
  -1  -2  -3 8625.84   78.87
  -1  -2  -3 8842.20   89.99
  -1  -2  -3 8484.84   74.43
   1  -2   3 8708.76   88.81
  -1   2  -3 8594.98   91.69
   1  -2   3 8478.67   87.74
   0  -3   0  -11.68    7.90
   0   3   0   11.87    5.93
   0  -3   0    1.26    6.61
   0  -3   0   -3.86    8.48
   0  -3   0   -1.90    4.27
   0   3   0    5.18    5.16
   0  -3   0   -8.46    8.65
   0  -3   0    2.75    8.56
   0  -3   0   -3.63   10.42
   0  -3  -113766.43  120.68
   0  -3   113711.93  130.89
   0   3  -113693.29  113.97
   0  -3   113495.02  113.66
   0   3  -113425.77  114.31
   0   3   113414.60  118.52
   0  -3  -114209.75  135.52
   0   3   113705.65  124.09
   0  -3  -113371.33  110.36
   0  -3   113643.27  126.40
   0  -3   113669.01  131.13
   0  -3   113404.10  129.45
   0  -3  -113526.67  124.42
   0  -3  -113675.51  116.36
   0  -3   113846.47  125.40
   0  -3   113637.89  128.94
   0   2  -5 8650.15   94.11
   0  -2   5 8641.88   69.07
   0  -2   5 8910.26   94.97
   0  -2  -5 8897.98   92.28
   0  -2  -5 8947.17   96.79
   0  -2   5 8875.20   97.07
   0  -2  -5 8766.91   77.04
   0  -2  -5 8986.05   89.71
   0   2   5 8787.23   68.21
   0  -2   5 8456.16  122.40
   0  -2   5 8861.33   78.15
   0   2   5 8895.34   95.46
   0  -2   5 9037.14   93.78
   0  -2   5 8894.28   94.46
   0   2   5 8986.83   88.74
   0   2  -5 8956.53   95.89
   1  -2  -4  483.59   14.29
  -1  -2   4  476.76   20.13
  -1  -2   4  462.85   15.84
   1   2  -4  523.88   27.35
  -1   2   4  485.02   19.62
   1  -2  -4  458.45   19.21
  -1   2   4  483.74   12.80
   1  -2  -4  444.47   17.04
  -1  -2   4  480.63   19.63
   1   2  -4  502.57   19.24
   1  -2  -4  511.86   19.90
   1  -2  -4  459.76   11.18
  -1   2   4  486.85   18.36
  -1  -2   4  496.65   19.53
   1  -2  -4  491.56   17.97
   1   2  -4  469.83   15.77
  -1  -2   4  468.75   18.83
  -1  -2   4  450.31   16.08
  -1   0   6  478.29   16.59
   1   0  -6  440.63   34.51
   1   0  -6  434.74   31.74
   1   0  -6  504.51   19.54
  -1   0   6  504.74   19.26
  -1   0   6  447.75   18.74
  -1   0   6  477.84   17.00
   1   0  -6  453.84   20.74
  -1   0   6  479.07   18.63
  -1   1  -5 3770.25   53.28
  -1  -1  -5 3766.36   53.07
  -1   1  -5 3648.94   42.17
   1  -1   5 3670.45   51.97
   1  -1   5 3712.74   52.17
   1   1   5 3605.87   43.20
   1   1   5 3581.03   29.81
  -1  -1  -5 3763.47   52.66
   1  -1   5 3775.87   45.26
   1  -1   5 3720.35   47.63
   1   1   5 3704.00   54.39
  -1  -1  -5 3634.75   33.39
   1  -1   5 3700.75   54.07
   1   1   5 3610.16   47.20
  -1   1  -5 3753.20   46.69
  -1  -1  -5 3679.40   40.62
   1   1   5 3680.11   54.47
   1  -1   5 3683.33   43.95
   0  -3   2 4611.56   61.72
   0  -3   2 4492.76   43.29
   0  -3  -2 4670.12   46.66
   0   3   2 4821.72   60.24
   0  -3  -2 4598.03   59.14
   0  -3   2 4593.37   58.40
   0   3   2 4545.19   46.66
   0   3   2 4665.71   56.21
   0  -3   2 4688.51   51.69
   0  -3   2 4745.35   63.07
   0  -3  -2 4619.41   55.04
   0  -3   2 4607.20   61.33
   0  -3  -2 4662.58   60.96
   0  -3  -2 4692.62   62.46
   0  -3   2 4466.16   58.28
   0  -3   2 4773.54   62.45
   0  -3  -2 4680.60   49.68
   0   3  -2 4622.33   46.40
  -2   0   1 3005.65   24.20
  -2   0   1 3139.26   49.42
   2   0  -1 3089.24   39.30
   2   0  -1 3135.37   49.52
  -2   0   1 3068.83   49.37
   2   0  -1 3115.68   49.40
   2   0  -1 3135.07   43.63
  -2   0   1 3170.21   48.14
   2   0  -1 3111.88   50.61
  -2   0   012867.01  127.39
   2   0   012917.23  125.30
   2   0   012866.71  128.03
  -2   0   012688.23  124.17
   2   0   012747.65  107.32
  -2   0   012373.81   96.51
   2   0   012758.63  128.07
   2   0   012718.98  113.97
  -2   0   012736.13  123.92
   1   1  -6 6346.17   80.30
  -1  -1   6 6066.70   73.78
  -1   1   6 6178.68   75.83
   1  -1  -6 6264.77   77.72
  -1  -1   6 6263.42   75.45
  -1   1   6 6213.82   77.32
  -1   1   6 6186.68   61.48
  -1   1   6 6123.88   69.00
  -1  -1   6 6371.23   76.87
   1  -1  -6 6056.10   63.17
   1  -1  -6 6249.38   78.65
   1  -1  -6 6330.93   73.73
   1   1  -6 6080.98   67.91
   1   1  -6 6334.86   78.08
   1  -1  -6 6068.95   70.23
  -1  -1   6 6138.47   71.07
   0   0   735103.08  272.53
   0   0   735866.73  293.81
   0   0   735780.89  280.27
   0   0  -735704.03  289.04
   0   0   734675.83  281.36
   0   0   736053.88  286.00
   1  -2   4 8164.53   86.14
  -1  -2  -4 8342.27   73.27
  -1  -2  -4 8551.53   95.47
  -1   2  -4 8097.62   69.39
   1  -2   4 8150.18   68.22
   1   2   4 8340.66   95.80
   1  -2   4 8368.53   93.64
   1   2   4 8648.00   84.01
   1  -2   4 8077.77   86.31
  -1  -2  -4 8373.26   89.77
   1  -2   4 8378.91   93.54
   1   2   4 8173.07   76.03
  -1  -2  -4 8310.89   77.81
   1  -2   4 8365.82   91.22
   1   2   4 8574.81   92.90
   1  -2   4 8361.46   85.74
   2   0  -2  982.47   28.93
  -2   0   2  985.37   10.02
   2   0  -2 1003.65   23.45
   2   0  -2  964.64   27.74
  -2   0   2  957.54   26.97
   2   0  -2  978.79   27.80
  -2   0   2  986.01   26.24
   2   0  -2  957.03   24.66
  -2   0   2  992.47   29.65
   2   0   1 4669.42   60.37
   2   0   1 4692.49   64.63
   2   0   1 4698.69   64.76
   2   0   1 4720.95   66.91
   2   0   1 4708.62   50.85
  -2   0  -1 4658.65   62.85
  -2   0  -1 4621.63   61.65
  -2   0  -1 4554.36   44.57
   2   0   1 4579.86   43.50
   0   3  -310565.41   87.21
   0   3   310957.02  111.84
   0  -3   310441.68  115.74
   0  -3  -310561.80   99.02
   0  -3  -310850.05  109.94
   0  -3   310683.49  111.70
   0  -3  -311003.24  114.42
   0  -3   311158.35  113.56
   0  -3   310851.37  101.69
   0  -3  -310603.09   87.16
   0   3   310779.30  107.78
   0   3   310584.55   94.31
   0  -3  -311071.69  110.34
   0  -3  -310634.05   90.44
   0  -3   310881.56  113.11
  -1   0  -611778.82  105.06
   1   0   612394.81  119.36
   1   0   611970.87  112.95
   1   0   612046.35  117.77
   1   0   611827.21  120.92
  -1   0  -612056.35  114.30
   1   0   611957.96  102.49
  -1   0  -612191.62  103.37
  -2  -1   1 7369.61   87.36
  -2   1   1 7544.15   84.50
  -2  -1   1 7523.22   88.38
   2   1  -1 7649.66   79.30
   2  -1  -1 7484.15   87.18
   2   1  -1 7396.35   72.00
   2   1  -1 7664.95   87.29
   2  -1  -1 7454.14   82.40
  -2   1   1 7546.91   79.65
   2   1  -1 7466.48   88.54
  -2   1   1 7443.13   70.48
   2   1  -1 7650.90   90.69
   2  -1  -1 7513.55   85.82
   2  -1  -1 7285.05   76.95
   2  -1  -1 7555.91   88.73
  -2  -1   1 7416.59   87.71
   1   2  -5  480.96   54.78
  -1   2   5  442.03   14.18
   1  -2  -5  408.11   17.67
   1  -2  -5  398.58   18.93
  -1  -2   5  468.14   20.57
  -1  -2   5  420.06   20.28
  -1  -2   5  424.58   19.43
  -1  -2   5  428.75   15.11
  -1  -2   5  418.01   17.56
   1   2  -5  422.89   19.24
   1  -2  -5  396.11   10.15
  -1   2   5  444.10   20.42
  -1  -2   5  429.81   19.28
   1   2  -5  414.27   15.76
   1  -2  -5  402.95   12.66
   1  -2  -5  423.95   18.22
   1  -2  -5  458.86   19.80
  -1   2   5  413.12   18.84
  -2  -1   012258.81  124.85
   2   1   012072.26  101.07
   2  -1   012126.70  122.48
   2   1   012317.16  120.07
  -2  -1   012281.42  124.79
   2   1   012304.60  109.65
  -2  -1   012472.17  126.77
  -2   1   012188.88  121.31
   2  -1   012306.48  116.26
   2  -1   012251.73  124.43
   2   1   012347.75  125.08
  -2  -1   011804.80   92.24
  -2   1   012126.07  104.62
   2  -1   012211.24  110.50
  -2   1   012106.40  117.35
   2  -1   012280.35  123.15
   2   1   012261.14  125.85
   2   0  -3 5295.10   67.78
   2   0  -3 5330.76   69.89
  -2   0   3 5085.33   68.26
   2   0  -3 5447.16   72.43
  -2   0   3 5321.20   67.48
   2   0  -3 5047.61   42.98
   2   0  -3 5291.49   63.32
   2   0  -3 5257.75   68.06
  -2   0   3 5261.71   70.10
   0   1   7 1360.33   32.38
   0   1   7 1214.51   36.16
   0  -1   7 1387.66   30.87
   0  -1  -7 1396.72   33.95
   0  -1  -7 1363.38   33.53
   0   1  -7 1272.99   30.08
   0  -1   7 1301.22   31.24
   0  -1  -7 1371.54   31.23
   0  -1  -7 1318.43   21.86
   0  -1   7 1338.52   28.59
   0   1  -7 1279.64   31.71
   0   1   7 1341.72   31.67
   0  -1   7 1390.67   32.33
   0  -1   7 1324.54   24.11
   0  -1   7 1338.82   28.01
   0   1  -7 1363.05   31.61
   0   1   7 1342.36   23.79
  -1  -3   0 6317.58   73.42
   1  -3   0 6426.98   79.29
   1  -3   0 6375.07   70.92
   1  -3   0 6408.47   78.50
   1  -3   0 6408.04   75.15
  -1  -3   0 6035.87   70.21
  -1   3   0 6320.61   61.60
  -1  -3   0 6525.16   75.74
  -1  -3   0 6348.95   73.46
  -1  -3   0 6485.31   74.87
  -1   3   0 6404.07   68.41
  -1  -3   0 6458.32   75.79
  -1  -3   0 6410.91   73.12
  -1  -3   0 6402.74   73.33
   1  -3   0 6276.30   77.56
  -2   1   2 1465.17   33.95
  -2  -1   2 1465.89   35.19
   2  -1  -2 1447.41   22.71
   2  -1  -2 1418.57   29.11
   2   1  -2 1481.42   34.95
   2   1  -2 1515.40   35.60
   2  -1  -2 1519.01   34.24
  -2   1   2 1596.94   35.68
  -2  -1   2 1430.58   33.80
   2   1  -2 1501.70   30.99
   2  -1  -2 1527.13   33.23
   2  -1  -2 1474.36   32.13
  -2  -1   2 1451.71   34.10
  -2   1   2 1470.41   29.14
   2   1  -2 1477.73   34.35
   2  -1  -2 1525.63   36.43
   2   1  -2 1492.65   27.89
  -1  -3   1  536.17   19.24
  -1   3   1  520.81   15.51
   1  -3  -1  540.67   21.76
   1  -3  -1  555.10   21.05
  -1  -3   1  500.03   18.22
  -1  -3   1  561.60   20.77
   1  -3  -1  513.90   20.49
  -1  -3   1  520.24   19.67
  -1  -3   1  541.71   20.90
  -1  -3   1  517.09   22.17
   1  -3  -1  540.21   21.59
  -1  -3   1  525.71   18.78
  -1   3   1  560.82   18.14
  -1  -3   1  538.44   19.62
   1  -3  -1  554.67   16.32
   1  -3  -1  530.94   18.31
  -1  -3   1  535.06   18.87
  -2   0  -2  415.70   18.31
   2   0   2  396.44   19.98
   2   0   2  386.79    8.44
   2   0   2  391.13   16.32
   2   0   2  394.42   11.76
  -2   0  -2  404.31   19.98
   2   0   2  419.48   19.66
  -2   0  -2  399.62   14.13
   2   0   2  410.91   25.05
   0  -2   6 9047.39   75.30
   0  -2   6 9430.07   86.33
   0   2   6 9113.86  101.36
   0  -2   6 8974.66  101.03
   0   2   6 9123.60   74.31
   0  -2  -6 9073.64   93.01
   0  -2  -6 9130.64   80.03
   0   2   6 9131.87   94.29
   0  -2   6 9177.97   98.98
   0  -2   6 9244.30  100.07
   0  -2  -6 8994.72   96.57
   0   2  -6 9222.93  101.12
   0  -2   6 9431.04  102.00
   0   2  -6 8946.12  100.67
   0  -2   6 9254.52  102.85
   2   1   1 8620.87   90.04
  -2  -1  -1 8712.58   99.16
  -2   1  -1 8609.18   81.89
   2  -1   1 8612.90   95.31
   2  -1   1 8552.80   89.72
   2  -1   1 8654.85   87.51
   2   1   1 8662.27   78.89
  -2   1  -1 8529.23   92.51
  -2  -1  -1 8470.33   73.86
  -2   1  -1 8579.62   90.02
   2   1   1 8647.15   96.77
  -2  -1  -1 8564.81   97.09
  -2  -1  -1 8390.45   95.75
   2  -1   1 8585.59   96.79
   2   1   1 8557.60   96.84
   2  -1   1 8560.81   81.94
   2   1   1 8459.77   69.68
   2  -1   1 8458.36   97.26
   1  -3   1 3084.14   50.43
  -1  -3  -1 3138.56   47.52
   1  -3   1 2925.83   29.97
   1  -3   1 2848.19   48.66
  -1  -3  -1 3036.77   48.22
  -1   3  -1 2966.12   38.05
  -1  -3  -1 2965.39   43.35
   1  -3   1 3035.99   47.92
  -1  -3  -1 2834.20   41.27
   1  -3   1 3007.57   49.29
  -1  -3  -1 2998.07   43.68
  -1  -3  -1 2924.28   46.45
  -1  -3  -1 2951.65   46.07
   1  -3   1 2994.12   49.04
  -1  -3  -1 2863.15   42.79
   1  -3   1 2949.32   45.30
  -1  -3  -1 3011.42   44.63
  -1   3  -1 2899.34   31.54
   1   0  -720416.09  198.11
  -1   0   720619.34  178.34
  -1   0   720348.69  176.47
  -1   0   720359.72  184.50
   1   0  -719855.69  182.62
   1   0  -719631.19  180.34
  -1   0   720196.47  182.51
   1   0  -720336.14  179.21
   1  -1   613596.61  134.78
   1  -1   613643.00  121.63
  -1  -1  -613680.03  118.75
  -1   1  -613827.18  125.96
   1  -1   613607.54  124.70
   1   1   613707.57  136.39
  -1  -1  -613747.15  110.83
  -1  -1  -613595.00  132.57
  -1   1  -613521.59  118.07
   1  -1   613601.19  131.69
   1   1   613556.59  118.60
  -1   1  -613756.58  135.56
   1   1   613491.35  124.35
   1  -1   613945.23  135.98
   1  -1   613328.98  119.69
   1   1   613936.14  136.75
  -1  -3   2 8762.14   90.41
  -1  -3   2 8753.23   94.82
  -1   3   2 8813.04   88.18
  -1  -3   2 8495.23   87.97
   1  -3  -2 8621.13   81.25
  -1  -3   2 8530.99   92.76
   1  -3  -2 8571.83   95.13
  -1  -3   2 8887.75   96.97
  -1  -3   2 8815.52   98.17
   1  -3  -2 8738.72   97.25
  -1  -3   2 8805.06   96.96
   1  -3  -2 8724.38   88.35
  -1  -3   2 8815.03   97.09
   1  -3  -2 8659.44   97.54
  -1   3   2 8573.07   92.08
   2   1  -3 3088.19   28.69
  -2   1   3 3158.25   50.87
   2  -1  -3 3320.11   54.20
   2  -1  -3 3104.01   47.88
  -2  -1   3 3361.58   54.00
   2  -1  -3 3165.95   53.57
   2   1  -3 3284.35   55.06
  -2  -1   3 3262.58   53.30
  -2   1   3 3212.06   46.07
   2   1  -3 3293.26   50.61
   2  -1  -3 3132.66   48.19
   2   1  -3 3269.86   46.76
   2  -1  -3 3203.89   51.92
  -2   1   3 3277.88   53.53
  -2  -1   3 3283.48   52.70
   2   1  -3 3276.37   53.78
   2  -1  -3 3165.96   37.86
   0   3   423716.66  206.04
   0  -3   423617.98  214.30
   0  -3   423528.34  208.68
   0  -3  -424191.51  209.48
   0  -3  -423225.94  198.89
   0  -3   422851.10  203.65
   0  -3   423591.18  213.84
   0  -3  -423073.35  205.75
   0  -3   422830.14  173.66
   0  -3  -423042.82  174.23
   0  -3   423184.63  205.67
   0   3   423751.64  192.12
   0  -3  -423480.28  190.34
   2   0  -4 2769.46   50.47
  -2   0   4 2719.72   48.29
   2   0  -4 2652.86   46.21
   2   0  -4 2584.65   46.17
  -2   0   4 2738.00   47.42
   2   0  -4 2633.79   48.37
  -2   0   4 2680.09   48.45
   2   0  -4 2769.85   47.93
   2   0  -4 2618.33   30.03
   1   2   510109.74  112.53
   1  -2   510174.02  103.81
   1  -2   5 9790.57  107.39
   1  -2   5 9981.36  102.78
  -1  -2  -5 9885.29  107.68
  -1   2  -5 9681.27   81.24
   1  -2   510096.58  110.02
  -1   2  -510329.21  110.59
   1   2   5 9930.86  106.81
  -1  -2  -5 9759.22   84.35
   1   2   5 9906.39   94.19
   1  -2   5 9719.01   83.54
   1  -2   510165.59  106.53
  -1  -2  -5 9826.39   91.09
   1  -3   2  722.34   23.88
  -1  -3  -2  695.32   23.64
  -1  -3  -2  707.29   19.24
  -1   3  -2  714.02   15.89
  -1  -3  -2  701.69   23.36
   1   3   2  690.26   28.24
   1  -3   2  710.14   24.58
   1  -3   2  708.47   25.07
  -1  -3  -2  696.31   19.13
   1  -3   2  717.42   24.16
  -1  -3  -2  732.39   23.89
  -1   3  -2  701.63   10.55
   1  -3   2  706.78   23.05
   1  -3   2  720.03   15.44
  -1  -3  -2  694.12   18.52
  -1  -3  -2  767.02   21.30
  -1   3  -2  788.34   45.68
  -2  -1  -2 8380.94   97.12
   2   1   2 8458.15   86.88
  -2   1  -2 8579.17   90.26
  -2  -1  -2 8174.66   94.65
  -2   1  -2 8392.35   83.40
   2  -1   2 8442.73   93.98
  -2  -1  -2 8256.83   77.57
   2   1   2 8165.97   94.55
  -2   1  -2 8505.21   91.88
   2  -1   2 8416.83   97.78
   2  -1   2 8254.32   89.11
   2   1   2 8427.83   97.94
   2  -1   2 8250.78   78.25
   2  -1   2 8157.24   81.93
   2   1   2 8076.94   69.87
   2  -1   2 8460.73   98.46
   2   0   3 6502.25   82.96
  -2   0  -3 6607.28   70.86
   2   0   3 6621.59   82.98
  -2   0  -3 6428.27   78.04
   2   0   3 6511.94   80.56
   2   0   3 6434.86   72.75
   2   0   3 6280.31   51.37
  -2   0  -3 6529.47   80.21
   2   0   3 6353.46   58.86
   1  -3  -3 8978.63   80.74
  -1  -3   3 9310.37  102.85
  -1   3   3 9165.57   95.64
   1  -3  -3 9222.03   89.73
  -1  -3   3 9034.05  100.16
   1   3  -3 8890.63   97.38
  -1  -3   3 9291.31   92.30
  -1   3   3 9360.38  101.39
  -1  -3   3 9482.09  104.80
   1  -3  -3 9390.06  104.55
  -1  -3   3 9254.96   94.42
   1  -3  -3 9185.02  101.63
  -1   3   3 8901.16   70.72
  -1  -3   3 9056.59   99.01
   1  -3  -3 9196.42   99.68
  -1  -3   3 9388.27  106.94
   1  -3  -3 9156.35  103.46
  -1  -3   3 9205.25  100.55
  -1   1   7  544.20   29.52
   1   1  -7  548.77   21.35
  -1  -1   7  576.29   22.44
   1  -1  -7  581.71   49.47
   1  -1  -7  532.52   21.41
  -1  -1   7  562.18   21.14
  -1   1   7  552.94   20.57
  -1  -1   7  536.84   23.40
   1  -1  -7  588.70   20.88
   1   1  -7  501.09   21.31
   1  -1  -7  571.46   23.69
  -1   1   7  550.99   22.94
   1  -1  -7  565.40   23.94
  -1   1   7  548.25   15.94
  -1  -1   7  530.85   21.83
  -1  -1   7  552.14   20.25
   1   1  -7  568.73   23.10
   1   1  -7  628.93   46.71
   1  -2  -610794.73  116.82
  -1  -2   611099.28  119.67
  -1   2   610998.92  117.55
  -1  -2   610593.30  106.96
   1   2  -611124.82  120.23
   1  -2  -610667.28  112.64
   1   2  -610742.53  109.42
   1  -2  -610603.29   94.46
  -1  -2   611067.35  119.13
  -1   2   611011.69  119.48
  -1  -2   610713.72  102.11
   1   2  -610840.14  116.75
  -1   2   611013.67  104.80
  -1  -2   610869.84  116.67
   1  -2  -611089.76  112.15
   2   1  -4  555.88   22.87
   2  -1  -4  563.35   23.49
   2   1  -4  535.93   21.75
  -2   1   4  569.23   22.87
   2  -1  -4  521.58   20.85
   2   1  -4  525.75   39.96
  -2  -1   4  549.52   23.05
   2  -1  -4  528.50   15.23
   2   1  -4  555.23   20.89
   2  -1  -4  516.60   21.19
  -2  -1   4  542.26   22.10
   2   1  -4  528.16   11.80
  -2   1   4  552.69   22.06
  -2  -1   4  531.48   22.10
  -2  -1   4  568.67   22.35
  -2   1   4  531.02   18.66
   2  -1  -4  561.17   23.72
   2  -1  -4  522.32   20.78
   0   0  -8  108.78    8.42
   0   0  -8  116.66   13.25
   0   0  -8   96.16   14.42
   0   0   8  117.29   14.79
   0   0  -8   99.65   11.36
   0   0   8  108.45    9.27
   0   0   8  106.66   11.88
   0   0   8  116.02   10.63
   1   3   3 3284.51   42.67
  -1   3  -3 3569.70   57.90
  -1  -3  -3 3435.05   55.16
  -1  -3  -3 3210.06   51.02
   1  -3   3 3374.71   54.97
  -1   3  -3 3248.48   34.75
  -1  -3  -3 3321.41   44.32
   1  -3   3 3367.43   42.11
   1  -3   3 3465.62   54.16
   1   3   3 3381.65   54.36
   1   3   3 3277.13   50.41
   1   3   3 3408.91   47.32
  -1  -3  -3 3314.68   41.11
   1  -3   3 3303.19   52.72
   1  -3   3 3275.32   54.25
  -1  -3  -3 3370.01   47.01
   1  -3   3 3445.67   54.98
  -1   0  -7 5042.99   58.30
   1   0   7 4904.32   51.65
   1   0   7 4842.27   64.50
   1   0   7 4967.92   61.38
   1   0   7 4887.58   64.31
   1   0   7 4876.97   69.04
   1   0   7 4934.73   65.39
   2   1   3  326.15    6.83
   2  -1   3  357.24   16.59
  -2  -1  -3  329.72   12.94
   2   1   3  357.02   17.92
   2  -1   3  338.35   18.71
  -2   1  -3  356.08   15.87
  -2  -1  -3  347.67   18.44
   2   1   3  354.58   18.56
   2  -1   3  344.99   13.39
   2   1   3  323.65   17.84
  -2   1  -3  354.16   15.38
   2   1   3  358.01   15.31
   2  -1   3  341.57   17.28
   2  -1   3  323.46   11.76
   2  -1   3  371.58   20.20
  -2   1  -3  336.29   15.89
  -2  -1  -3  368.17   18.91
  -2  -2   1 2321.32   29.78
  -2  -2   1 2358.18   45.09
   2   2  -1 2535.87   48.41
   2   2  -1 2383.01   35.75
  -2  -2   1 2494.66   47.55
   2  -2  -1 2398.10   47.09
   2   2  -1 2304.21   37.59
  -2   2   1 2454.40   44.41
   2  -2  -1 2452.51   43.40
   2   2  -1 2428.85   44.21
   2  -2  -1 2427.42   43.15
   2  -2  -1 2438.86   45.69
   2  -2  -1 2556.94   46.60
   2   2  -1 2408.46   46.03
   2  -2  -1 2469.73   38.38
  -2   2   1 2455.54   41.05
  -2  -2   1 2353.81   45.43
   2   0  -5   45.78   13.62
   2   0  -5   53.31    6.24
  -2   0   5   46.78   10.48
  -2   0   5   60.71   11.53
   2   0  -5   63.65   11.62
   2   0  -5   33.81   10.55
   2   0  -5   43.76   11.75
  -2   0   5   58.05   11.83
   2  -2   0 6931.94   84.27
  -2   2   0 6839.30   81.29
  -2   2   0 6860.05   76.49
  -2  -2   0 6698.48   65.10
  -2  -2   0 6798.15   86.60
  -2   2   0 6857.70   76.02
  -2  -2   0 7005.07   88.11
   2   2   0 6835.00   84.76
   2  -2   0 6791.88   85.72
   2   2   0 6679.18   71.15
   2  -2   0 6816.55   82.49
   2  -2   0 6640.09   69.69
  -2  -2   0 6877.64   87.56
   2   2   0 7051.22   82.13
   2  -2   0 6844.67   86.67
   2   2   0 6900.27   68.96
   2  -2   0 6786.62   78.50
   2   2   0 6915.13   86.76
   0  -3   5 6595.15   77.05
   0   3   5 6525.30   82.24
   0  -3   5 6667.28   84.47
   0  -3   5 6432.28   94.45
   0  -3   5 6311.66   95.69
   0  -3   5 6575.89   83.82
   0  -3   5 6322.88   81.55
   0  -3  -5 6294.69   75.95
   0  -3   5 6331.78   57.91
   0  -3  -5 6433.53   83.75
   0  -3  -5 6311.80   78.54
   0  -3  -5 6318.44   65.37
   0   3   5 6536.00   71.31
   1  -3  -4 9679.32   82.15
  -1  -3   410123.19  111.24
   1  -3  -410057.41  106.41
  -1  -3   410257.49  114.37
   1   3  -4 9887.73  109.12
   1  -3  -410121.17  112.33
  -1   3   4 9752.55   82.68
  -1  -3   4 9894.59  110.36
  -1   3   4 9998.03  106.07
  -1  -3   4 9909.06   99.06
  -1  -3   4 9921.92   95.84
  -1  -3   4 9805.01  106.57
   1   3  -410198.50  107.06
   1  -3  -4 9702.83  109.25
   1  -3  -410261.58  111.19
   1  -3  -4 9911.28   92.80
  -1  -3   410081.31  112.86
  -1   3   4 9986.22  109.73
   0  -2   711250.68  118.96
   0   2  -711391.00  120.84
   0   2   710750.99   89.79
   0   2  -710946.78  118.96
   0  -2  -711079.86  120.06
   0  -2   711074.49  119.61
   0  -2   710928.68   92.61
   0   2  -710802.61  116.32
   0  -2  -711122.91  111.31
   0   2   710923.70  112.03
   0  -2   710857.51  124.99
   0   2   711012.34  119.49
   0  -2   710854.47  116.51
   0  -2  -711429.81  118.97
   0  -2   711292.05  103.89
   0  -2  -711068.77   95.06
   2   2  -2  122.99   13.09
   2  -2  -2  118.53    9.95
   2   2  -2  104.52    8.72
   2  -2  -2  127.62   14.96
  -2   2   2  111.37    7.87
  -2  -2   2  125.95   13.74
   2   2  -2  120.61   13.07
  -2  -2   2  118.21   13.63
  -2   2   2  113.92   12.42
   2  -2  -2  126.70   11.70
   2  -2  -2  113.66   13.10
  -2   2   2  115.05   11.02
  -2  -2   2  126.86   12.77
   2  -2  -2  110.48   11.89
  -2  -2   2  126.44   13.47
   2   2  -2  120.57   14.77
   2  -2  -2  125.54   11.66
   2   2  -2  143.40   29.82
   0   1  -8  672.80   23.50
   0   1   8  653.85   25.35
   0   1   8  670.59   24.44
   0   1   8  641.11   23.18
   0   1   8  665.81   18.42
   0  -1  -8  783.59   29.82
   0   1  -8  696.57   24.49
   0  -1  -8  696.25   26.18
   0  -1   8  636.88   24.14
   0  -1  -8  659.66   16.46
   0  -1   8  660.07   21.93
   0  -1   8  618.59   18.15
   0  -1   8  645.54   22.60
   0   1  -8  696.17   28.67
   0  -1   8  654.04   23.42
   0   1   8  651.36   19.33
   0  -1   8  607.22   20.88
   2   2   1 9765.78   90.71
  -2  -2  -1 9928.55  112.24
   2  -2   110070.02  113.16
  -2   2  -1 9833.89  101.94
  -2  -2  -1 9917.18   91.36
   2  -2   1 9645.59   93.05
   2  -2   1 9881.57  110.70
   2  -2   1 9874.52  108.39
  -2   2  -1 9716.21   95.99
  -2   2  -1 9951.52  101.47
   2   2   1 9730.15   85.91
  -2  -2  -1 9758.19  109.97
   2  -2   110065.01  102.47
   2   2   110301.45  111.49
   2   2   1 9927.42  101.52
  -2  -2  -110353.09  115.03
   2  -2   110119.90  106.85
  -2   0  -4 1335.10   32.37
  -2   0  -4 1410.04   33.55
   2   0   4 1416.27   35.70
   2   0   4 1321.17   18.78
   2   0   4 1401.46   34.53
   2   0   4 1371.67   34.82
  -2   0  -4 1394.89   16.35
   2   0   4 1390.08   28.73
   1  -1   7 4371.46   65.27
   1  -1   7 4346.32   62.27
  -1  -1  -7 4291.86   64.09
   1  -1   7 4351.55   55.60
   1   1   7 4424.19   64.29
   1  -1   7 4364.78   54.93
   1  -1   7 4257.68   62.81
   1   1   7 4278.50   56.44
  -1  -1  -7 4397.01   54.03
  -1   1  -7 4295.10   56.45
   1   1   7 4447.42   37.70
   1   1   7 4289.11   64.54
  -1  -1  -7 4412.24   47.60
  -1   1  -7 4396.18   55.10
   1  -1   7 4260.47   51.62
   1   1   7 4379.81   67.79
   1   1   7 4288.10   50.77
   1   2   6 3049.65   56.64
   1  -2   6 3045.43   53.00
   1  -2   6 2894.60   48.73
   1   2   6 2816.46   34.87
   1  -2   6 2892.65   35.34
   1   2   6 3033.75   53.62
   1  -2   6 3020.38   52.64
   1   2   6 2920.96   41.73
  -1  -2  -6 2872.08   50.15
  -1   2  -6 2985.17   61.49
  -1  -2  -6 2867.17   34.39
  -1   2  -6 3052.51   53.61
  -1  -2  -6 2993.30   41.17
   1  -2   6 2786.14   47.14
   1   2   6 2962.01   51.80
   1  -2   6 3042.68   48.08
   1   0  -812129.25  154.68
  -1   0   812164.33  120.14
  -1   0   812909.40  133.94
   1   0  -812263.64  161.27
   1   0  -811926.93  132.74
   1   0  -812110.38  124.06
  -1   0   812541.22  124.00
  -1   0   812809.60  131.83
   2  -1  -5   57.51   13.25
  -2  -1   5   76.17   12.98
   2   1  -5   55.80   11.67
   2  -1  -5   66.90   11.74
  -2  -1   5   64.28   11.43
  -2   1   5   62.67   12.14
   2  -1  -5   49.71    9.94
   2   1  -5   66.92   14.96
   2  -1  -5   49.84    6.86
   2   1  -5   36.29   11.38
   2   1  -5   60.65    6.50
  -2  -1   5   47.69   11.30
  -2   1   5   52.23    9.07
   2  -1  -5  119.49   18.38
  -2   1   5  103.64   10.87
   2  -1  -5   60.49    9.08
  -2  -1   5   81.80   12.42
   2   1  -5   53.77    9.96
  -2   2   3 1740.83   36.68
   2  -2  -3 1776.82   38.43
   2   2  -3 1776.15   40.47
   2   2  -3 1693.56   25.54
   2  -2  -3 1833.02   40.38
  -2   2   3 1751.13   41.02
  -2  -2   3 1757.90   39.45
   2   2  -3 1841.15   38.69
  -2  -2   3 1798.64   41.22
  -2   2   3 1722.79   29.47
   2   2  -3 1711.68   39.78
   2  -2  -3 1774.71   41.38
  -2  -2   3 1872.78   42.28
   2  -2  -3 1706.26   34.28
   2  -2  -3 1681.71   37.28
  -2  -2   3 1778.16   40.09
   2   2  -3 1751.42   34.94
   2  -2  -3 1667.50   31.52
  -1  -3  -421628.05  196.45
   1  -3   421602.64  198.60
   1  -3   421850.47  183.76
  -1  -3  -421095.11  174.90
   1   3   422487.85  205.00
   1   3   421436.49  173.58
   1  -3   421808.06  199.41
   1   3   421467.99  178.33
   1  -3   422102.24  199.18
  -1  -3  -422089.74  187.09
   1  -3   421799.80  201.12
  -1  -3  -422462.55  205.29
  -1  -3  -421385.89  170.00
  -2  -2  -2 3628.78   59.99
   2   2   2 3700.20   65.64
   2  -2   2 3558.72   59.82
  -2   2  -2 3593.06   47.08
   2   2   2 3526.97   47.98
   2  -2   2 3445.84   52.44
   2  -2   2 3623.38   49.68
  -2   2  -2 3543.60   50.28
   2   2   2 3643.26   56.59
  -2  -2  -2 3571.88   46.10
  -2   2  -2 3718.34   53.51
   2  -2   2 3566.69   58.01
   2   2   2 3500.09   38.12
   2  -2   2 3464.36   49.15
   2   2   2 3598.57   57.26
   2  -2   2 3499.18   58.42
  -2  -2  -2 3675.66   60.61
   2   1   4  648.25   18.28
   2  -1   4  652.87   23.24
   2   1   4  674.75   25.86
  -2  -1  -4  654.85   20.20
   2   1   4  693.68   25.32
   2  -1   4  636.42   25.18
  -2  -1  -4  667.55   24.56
   2  -1   4  618.59   21.84
  -2   1  -4  694.61   21.77
  -2   1  -4  651.84   21.80
  -2  -1  -4  676.19   25.63
   2  -1   4  671.11   25.93
   2   1   4  662.48   25.14
   2  -1   4  646.18   16.36
  -2   1  -4  654.77   22.73
   2  -1   4  626.22   17.32
   0   4   0 7190.47   75.18
   0  -4   0 7118.30   78.40
   0  -4   0 7206.04   90.43
   0  -4   0 7054.93   86.36
   0  -4   0 7226.93   70.94
   0  -4   0 7422.69   92.18
   0   4   0 6878.78   89.19
   0  -4   0 7105.29   90.63
   0  -4   0 7118.45   81.53
   1   2  -7 1386.06   33.17
  -1   2   7 1373.93   35.81
   1  -2  -7 1339.21   23.59
  -1  -2   7 1384.56   35.64
   1  -2  -7 1390.97   33.05
  -1  -2   7 1447.37   37.81
   1   2  -7 1357.96   35.85
   1  -2  -7 1396.80   36.85
   1  -2  -7 1282.16   20.99
  -1  -2   7 1419.73   38.08
  -1  -2   7 1367.67   36.13
  -1  -2   7 1369.25   31.97
   1  -2  -7 1317.38   35.55
  -1   2   7 1370.84   38.66
  -1  -2   7 1384.62   28.49
   1   2  -7 1376.40   36.44
   1  -2  -7 1433.29   35.12
  -1   2   7 1399.29   30.76
  -1  -1   8 8709.68  101.90
   1   1  -8 8936.63  102.67
  -1   1   8 8905.21  102.27
   1  -1  -8 9083.37  101.51
   1   1  -8 9511.06  102.80
  -1   1   8 9107.28  100.50
   1  -1  -8 9357.93  110.03
   1   1  -8 9447.05  108.35
   1   1  -8 9367.99  107.40
  -1   1   8 9217.67  105.97
  -1  -1   8 9254.77  100.76
  -1  -1   8 9132.55  101.86
   1  -1  -8 8750.42   93.56
  -1  -1   8 9100.87   95.29
  -1  -1   8 9306.18  102.80
  -1   1   8 9053.47   87.09
   0   4  -112569.46  106.95
   0  -4  -113071.22  115.59
   0  -4  -112483.26  129.53
   0  -4   113206.07  133.71
   0  -4  -113478.90  134.04
   0  -4   113148.32  133.54
   0  -4   112939.92  121.74
   0  -4   113115.71  110.60
   0  -4  -112938.61  125.38
   0  -4   112773.96  128.36
   0  -4  -113471.51  134.78
   0  -4   113386.74  134.56
   0   4   113019.71  129.65
   0  -4  -112865.15  118.22
   0  -4   112658.80  133.25
   0   4  -112570.74  125.91
   0   4   113030.86  117.87
   1  -3  -5  777.68   26.61
   1  -3  -5  780.13   18.22
  -1   3   5  808.43   28.13
  -1  -3   5  816.66   27.57
  -1  -3   5  823.17   28.92
  -1   3   5  811.12   17.59
   1  -3  -5  819.42   28.97
   1   3  -5  784.77   27.38
  -1   3   5  829.43   28.19
  -1  -3   5  799.42   20.14
  -1  -3   5  845.35   29.02
   1   3  -5  758.14   24.97
   1   3  -5  800.72   27.12
  -1  -3   5  846.19   29.77
   1  -3  -5  828.23   30.37
   1  -3  -5  812.62   25.33
  -1  -3   5  803.67   22.42
   2   0  -6 1665.83   41.72
  -2   0   6 1512.92   38.41
   2   0  -6 1498.48   27.20
   2   0  -6 1510.08   36.78
  -2   0   6 1505.79   37.77
  -2   0   6 1526.58   36.63
   2   0  -6 1579.37   42.44
   2   0  -6 1499.75   38.73
  -2   0   6 1556.56   36.28
  -2  -2   4 9986.20  111.88
  -2  -2   4 9182.25  102.18
   2  -2  -4 9586.93   95.28
   2  -2  -4 9585.36  108.38
   2  -2  -4 9203.15  106.10
   2   2  -4 9488.41  100.98
   2  -2  -4 9578.84  105.63
  -2  -2   4 9505.23  109.19
   2   2  -4 9693.43  111.80
  -2  -2   4 9560.46  109.15
  -2   2   4 9652.36  108.33
  -2   2   4 9686.35  105.08
  -2  -2   4 9728.74  107.95
   2   2  -4 9418.18   83.55
  -2   2   4 9448.90   89.64
   0  -3   6 7216.16   89.93
   0   3   6 7392.28   90.88
   0  -3  -6 7319.97   86.60
   0  -3   6 7344.20   92.17
   0   3  -6 7170.70   89.53
   0  -3  -6 7219.45   82.59
   0   3   6 7200.22   78.18
   0  -3   6 7251.23   89.38
   0  -3  -6 7145.26   68.68
   0  -3   6 7377.64   85.06
   0  -3   6 7033.66   88.47
   0  -3   6 7152.17   64.18
   0  -4  -213856.23  140.42
   0  -4  -213170.69  125.44
   0  -4   213457.74  116.32
   0   4   212997.25  107.66
   0  -4   213554.50  136.92
   0   4   213587.99  137.79
   0  -4  -213354.61  132.25
   0  -4   212943.23  130.11
   0  -4   213455.85  135.95
   0  -4  -213284.61  116.73
   0   4   213211.29  123.78
   0   4  -213163.77  107.49
   0  -4  -213396.74  112.94
   0  -4   213186.62  126.99
   0  -4   213109.12  133.69
   0  -4   213391.86  135.06
  -2   0  -5 3410.49   33.07
   2   0   5 3531.70   58.88
  -2   0  -5 3600.03   56.15
   2   0   5 3655.34   60.83
   2   0   5 3450.67   33.84
  -2   0  -5 3543.16   55.95
   2   0   5 3509.51   56.92
  -2   0  -5 3661.41   54.10
   2   0   5 3455.07   47.02
  -2  -2  -311823.68  125.92
  -2   2  -311568.62  108.61
   2  -2   311601.90  120.70
  -2  -2  -311627.22  124.72
   2  -2   311470.02  109.67
   2   2   311355.41  122.52
   2   2   311137.74  113.72
  -2   2  -311104.29  111.89
   2  -2   311396.99  121.88
  -2  -2  -311784.41  108.52
   2  -2   311572.61  123.22
   2  -2   311377.61  111.62
   2   2   311697.65  104.60
  -2   2  -311117.76  100.84
   2   2   311750.71  120.33
   2   1  -6 3011.85   56.77
   2   1  -6 3122.11   54.98
   2  -1  -6 3204.52   57.59
  -2   1   6 2938.37   49.01
   2  -1  -6 3125.16   57.09
   2  -1  -6 2822.46   51.96
  -2  -1   6 3098.64   55.82
   2   1  -6 3054.97   41.05
  -2   1   6 3122.46   56.77
  -2  -1   6 2938.44   53.09
  -2  -1   6 3108.60   54.63
   2  -1  -6 3024.16   54.53
  -2   1   6 3001.53   53.94
  -2  -1   6 3085.22   56.08
   2  -1  -6 3143.36   51.89
   2  -1  -6 2976.04   43.70
   2   1  -6 3067.15   53.98
   0   0  -9 2160.53   47.45
   0   0   9 2152.17   37.82
   0   0  -9 2191.35   41.66
   0   0   9 2177.95   46.26
   0   0  -9 2213.45   38.74
   0   0   9 2145.34   41.21
   0   0   9 2129.77   43.03
   0   0   9 2108.74   40.29
   0   0  -9 2229.98   45.80
  -1   0  -8 1322.45   36.64
   1   0   8 1318.70   30.24
   1   0   8 1292.69   36.09
  -1   0  -8 1356.79   26.01
   1   0   8 1305.18   23.70
   1   0   8 1308.00   32.77
  -1   0  -8 1294.55   28.16
   1   0   8 1316.43   32.65
   1   0   8 1308.79   30.47
  -1  -3  -516750.98  144.12
   1   3   516752.47  131.63
   1  -3   516898.06  162.33
   1   3   517531.95  167.33
  -1  -3  -516875.60  138.80
  -1   3  -517111.84  164.61
   1  -3   516664.58  155.52
   1   3   516984.41  156.34
   1  -3   516911.99  147.03
   1  -3   517581.15  165.58
  -1  -3  -516658.75  125.92
   1  -3   517056.52  163.06
   1   3   517063.87  163.14
   0   2  -8 6404.72   85.81
   0  -2   8 6641.43   63.14
   0  -2   8 6767.95   86.34
   0   2  -8 6599.57   86.21
   0  -2  -8 6824.79   84.11
   0   2   8 6707.35   62.24
   0  -2   8 6836.10   89.19
   0   2   8 6887.42   89.55
   0  -2  -8 6595.22   87.82
   0   2  -8 6590.44   86.52
   0  -2   8 6777.24   72.41
   0   2   8 6790.90   83.06
   0  -2   8 6604.95   85.51
   0  -2  -8 6614.82   62.07
   0  -2   8 6833.80   84.92
   0  -2  -8 6758.79   79.29
   0  -4   3 7788.58   80.23
   0  -4   3 7688.36   92.49
   0  -4   3 7822.40   95.78
   0  -4   3 8072.57   98.60
   0   4   3 7659.79   73.06
   0  -4  -3 7746.99   84.33
   0  -4  -3 7832.26   91.95
   0   4  -3 7736.29   70.22
   0  -4  -3 7874.93   75.69
   0  -4  -3 8088.00   98.51
   0  -4   3 7987.60   93.03
   0  -4  -3 7986.16   96.19
   0   4  -3 7624.03   95.61
   0  -4  -3 7904.07   71.57
   0   4   3 8186.16   91.50
   0  -4   3 7718.97   95.66
   2   1   5 5637.79   58.63
   2  -1   5 5757.95   76.20
   2  -1   5 5672.98   70.66
  -2  -1  -5 5791.73   70.77
   2  -1   5 5582.15   78.23
   2   1   5 5778.07   77.38
   2  -1   5 5616.87   58.49
   2  -1   5 5605.96   76.62
   2  -1   5 5481.39   58.85
   2   1   5 5625.53   72.70
  -2   1  -5 5651.21   69.61
   2   1   5 5854.72   81.63
  -2   1  -5 5684.19   72.15
  -2  -1  -5 5772.97   77.97
  -2  -1  -5 5691.14   77.45
  -2   1  -5 5822.09   70.28
   1   2   7 2979.95   54.45
   1  -2   7 2818.06   33.75
   1   2   7 2983.30   55.64
   1   2   7 2977.03   42.89
   1  -2   7 2857.80   53.23
  -1  -2  -7 3003.47   55.09
  -1  -2  -7 2924.55   42.62
   1  -2   7 3112.64   53.71
  -1   2  -7 3086.78   56.68
   1  -2   7 3029.67   50.54
   1   2   7 2942.89   52.93
  -1  -2  -7 2889.45   36.40
   1   2   7 2852.29   35.09
  -1   2  -7 2990.63   49.65
   1  -2   7 2942.44   48.15
   1  -2   7 2935.17   52.66
   1  -2   7 2898.66   38.12
  -2  -2   5 2816.00   54.65
   2  -2  -5 2948.42   55.44
   2   2  -5 2955.05   52.06
  -2  -2   5 2914.40   53.21
  -2   2   5 2965.49   53.12
  -2  -2   5 2881.69   54.69
   2  -2  -5 2779.47   43.49
   2  -2  -5 2952.84   54.56
   2   2  -5 2938.00   39.87
   2  -2  -5 2914.43   45.96
  -2  -2   5 2925.39   55.13
  -2   2   5 2919.30   53.79
   2  -2  -5 2785.80   47.34
  -2  -2   5 2930.02   51.83
   2  -2  -5 2935.51   55.37
  -2   2   5 2875.84   43.02
   2   2  -5 2840.71   54.91
   0  -1  -9  123.18   14.25
   0   1   9  116.11    9.53
   0  -1   9  100.91   11.12
   0  -1  -9  115.75   16.29
   0   1  -9  129.13   16.61
   0  -1   9  102.50    9.82
   0   1  -9  101.79   13.74
   0  -1   9  102.48   12.04
   0   1   9  107.57    8.46
   0   1   9  105.05   13.44
   0  -1   9  138.60   13.40
   0  -1  -9   81.99   11.47
   0   1   9  100.39   13.10
   0  -1   9  110.95   17.34
   0  -1  -9   94.42    7.78
   0  -1   9  107.59   11.51
   0   1   9  113.29   15.14
   0   1  -9  111.58   13.51
   1   1   8  136.82   11.35
   1  -1   8  140.58   12.25
   1   1   8  139.33   14.60
   1  -1   8  133.85    9.04
  -1   1  -8  151.63   17.87
   1  -1   8  121.92   10.88
   1  -1   8  131.43   11.19
   1  -1   8  153.48   15.48
   1   1   8  123.49   14.69
  -1  -1  -8  143.00    8.97
  -1   1  -8  143.24   31.98
  -1   1  -8  137.64   13.14
   1   1   8  169.65   36.64
   1  -1   8  154.87   13.59
   1   1   8  141.15    9.72
  -1  -1  -8  124.88   15.53
  -1  -1  -8  144.34   10.67
  -1  -3   6  866.38   30.95
   1   3  -6  932.24   28.28
   1  -3  -6  854.04   29.16
   1  -3  -6  897.31   26.58
  -1   3   6  847.32   30.19
  -1  -3   6  830.98   20.72
   1  -3  -6  846.95   30.30
  -1   3   6  829.45   20.36
  -1  -3   6  832.84   23.45
   1  -3  -6  858.28   18.33
  -1  -3   6  918.95   45.86
   1  -3  -6  802.79   29.24
   1   3  -6  840.89   28.61
  -1  -3   6  882.12   29.98
   1   3  -6  918.56   31.12
  -1  -3   6  855.28   28.86
  -1   3   6  871.02   29.05
  -1   4   0  863.82   18.97
  -1  -4   0  877.05   26.26
  -1  -4   0  880.62   26.25
   1  -4   0  849.07   29.66
  -1  -4   0  918.54   28.31
  -1  -4   0  861.56   25.75
   1  -4   0  861.44   29.09
  -1  -4   0  858.19   26.52
  -1  -4   0  856.99   26.35
   1  -4   0  887.40   30.28
  -1  -4   0  812.75   26.25
   1  -4   0  840.84   23.55
  -1   4   0  930.26   23.93
  -1  -4   0  861.96   26.05
  -1  -4   0  898.50   27.20
   1  -4   0  809.52   29.14
   1  -4   0  893.31   27.34
   1  -4  -1 1313.34   36.69
   1  -4  -1 1307.33   36.58
  -1  -4   1 1283.23   33.33
   1  -4  -1 1279.75   27.13
  -1  -4   1 1250.94   31.84
  -1   4   1 1327.59   26.56
  -1  -4   1 1313.14   31.01
  -1  -4   1 1309.99   34.11
  -1   4   1 1311.11   30.24
   1  -4  -1 1255.72   30.25
  -1  -4   1 1324.07   33.64
   1  -4  -1 1344.82   35.63
  -1  -4   1 1383.35   31.96
  -1  -4   1 1367.09   34.74
  -1  -4   1 1365.16   32.52
  -1  -4   1 1387.10   35.28
   1  -4  -1 1246.75   34.77
  -1   0   922739.16  203.73
   1   0  -923672.96  211.75
  -1   0   924086.05  202.99
   1   0  -923507.97  212.99
   1   0  -923405.57  201.14
  -1   0   923225.49  195.47
   1   0  -924170.11  209.69
  -1   0   924080.28  214.57
  -1   0   923548.98  210.01
   2  -2   4 2066.83   39.39
   2   2   4 2031.75   31.03
   2  -2   4 2036.74   42.44
   2   2   4 2036.25   45.47
  -2  -2  -4 2157.60   47.33
  -2   2  -4 2034.17   35.78
   2  -2   4 2071.33   46.33
   2   2   4 2123.68   40.99
  -2  -2  -4 2030.96   37.47
  -2  -2  -4 2056.77   46.02
   2   2   4 2036.50   42.60
  -2   2  -4 2164.44   42.33
   2  -2   4 2094.98   37.20
  -2   2  -4 2111.51   34.14
   2  -2   4 2131.48   46.58
  -2  -2  -4 1988.44   22.04
   2  -2   4 2103.06   38.84
   2   0  -7 5308.86   62.72
   2   0  -7 5670.70   83.43
  -2   0   7 5374.81   75.37
   2   0  -7 5246.43   81.76
  -2   0   7 5403.99   74.30
  -2   0   7 5519.23   79.85
  -2   0   7 5383.70   77.88
   2   0  -7 5662.29   76.78
   1  -4   1  324.80   16.88
  -1  -4  -1  332.87   15.97
  -1  -4  -1  339.18   17.21
   1  -4   1  306.82    7.98
  -1  -4  -1  325.52   16.41
   1  -4   1  361.31   21.29
  -1  -4  -1  334.29   17.95
  -1  -4  -1  329.91   15.88
  -1  -4  -1  350.98   20.07
   1  -4   1  350.52   19.66
  -1  -4  -1  333.53   15.68
  -1  -4  -1  320.80   16.97
  -1   4  -1  319.64   10.10
   1  -4   1  354.06   19.48
   1  -4   1  342.24   21.26
   1  -4   1  332.26   19.85
  -1  -4  -1  346.32   17.63
  -1   4  -1  339.79   14.09
  -1  -4   2  952.73   25.70
  -1   4   2  992.43   24.88
   1  -4  -2  935.79   22.10
  -1  -4   2  998.19   30.69
  -1  -4   2 1000.20   32.47
  -1  -4   2  954.97   29.71
  -1  -4   2  939.28   25.72
  -1  -4   2  949.79   29.61
   1  -4  -2  927.17   30.12
   1  -4  -2  999.50   32.41
  -1  -4   2  988.35   31.33
  -1  -4   2 1007.43   28.44
   1  -4  -2 1020.05   26.69
  -1   4   2  956.77   28.95
   1  -4  -2  881.27   29.83
  -1  -4   2 1021.63   31.58
   1  -4  -2 1020.46   32.68
   1  -2  -8 1164.83   30.32
  -1  -2   8 1130.99   34.40
  -1   2   8 1128.40   29.85
   1  -2  -8 1189.43   34.93
   1   2  -8 1233.06   36.57
  -1  -2   8 1186.50   27.16
  -1   2   8 1156.46   34.94
  -1  -2   8 1113.48   32.62
   1  -2  -8 1117.49   21.77
   1  -2  -8 1118.35   32.53
   1   2  -8 1161.13   32.27
   1  -2  -8 1128.52   35.23
  -1  -2   8 1153.83   29.92
  -1   2   8 1106.11   33.89
  -1  -2   8 1139.53   33.62
   1   2  -8 1142.98   35.30
  -1   2   8 1090.11   20.01
  -1  -2   8 1193.56   35.09
   2   3  -1 4898.43   71.30
   2  -3  -1 4736.24   65.16
  -2  -3   1 4959.18   72.68
  -2  -3   1 4902.35   57.88
   2   3  -1 5130.89   68.80
  -2  -3   1 4974.58   73.60
   2  -3  -1 5045.18   73.35
   2  -3  -1 5056.68   67.23
  -2   3   1 5077.25   62.60
   2  -3  -1 4778.82   69.24
   2   3  -1 4895.46   62.34
   2  -3  -1 4938.05   75.09
   2   3  -1 5046.74   70.52
  -2  -3   1 5072.32   73.62
  -2  -3   1 4910.22   73.62
  -2   3   1 5059.42   69.15
   2  -3  -1 5052.31   71.87
   2  -3   0 1101.21   30.54
  -2   3   0 1081.29   24.80
  -2  -3   0 1113.17   34.08
  -2  -3   0 1085.16   33.23
  -2   3   0 1104.90   29.47
   2   3   0 1099.81   35.26
   2  -3   0 1088.61   29.77
  -2  -3   0 1078.96   24.98
   2   3   0 1106.00   29.26
   2  -3   0 1109.36   31.20
   2  -3   0 1117.44   32.39
   2  -3   0 1049.45   19.54
  -2  -3   0 1135.92   33.77
   2   3   0 1107.81   32.18
   2  -3   0 1106.99   34.88
   2   3   0 1109.68   25.54
   2   3   0 1132.64   33.19
   2  -3   0 1074.35   33.35
   0  -4  -4 4143.62   67.04
   0   4  -4 4237.53   68.47
   0  -4   4 4095.97   66.22
   0   4   4 4007.59   61.24
   0  -4   4 4140.28   67.44
   0  -4  -4 3880.19   62.44
   0  -4   4 3992.66   66.42
   0  -4  -4 3953.87   53.79
   0  -4   4 4103.04   55.79
   0  -4   4 3869.44   38.98
   0   4   4 4040.27   49.10
   0  -4   4 4141.57   67.92
   0  -4  -4 3986.34   61.01
   0   4  -4 3977.18   39.70
   0  -4  -4 4096.65   45.04
   0  -4   4 3958.10   83.02
   0  -3  -7  876.92   26.08
   0   3  -7  903.34   30.66
   0   3  -7  915.59   31.34
   0  -3  -7  855.46   31.93
   0  -3   7  844.50   18.34
   0   3   7  887.41   30.30
   0  -3   7  881.46   29.24
   0  -3   7  896.24   30.58
   0  -3   7  875.77   27.66
   0  -3   7  885.32   30.80
   0  -3  -7  911.32   19.73
   0  -3   7  929.54   30.34
   0   3   7  917.09   26.55
   0  -3  -7  955.67   29.84
  -2  -3   2  750.86   27.34
  -2   3   2  672.12   22.32
   2   3  -2  665.29   35.29
  -2  -3   2  682.88   27.50
   2   3  -2  677.47   41.11
   2  -3  -2  625.69   25.31
   2  -3  -2  650.94   17.80
  -2  -3   2  713.86   28.47
   2   3  -2  683.46   25.84
   2  -3  -2  704.63   31.58
   2  -3  -2  710.92   28.19
   2  -3  -2  676.01   22.54
  -2  -3   2  683.69   27.98
   2  -3  -2  644.51   23.18
   2  -3  -2  724.83   26.10
  -2  -3   2  722.10   27.94
  -2   3   2  674.57   25.50
   2   0   6 1438.73   39.31
  -2   0  -6 1473.13   35.34
   2   0   6 1432.31   37.74
   2   0   6 1423.63   36.90
   2   0   6 1494.68   28.87
  -2   0  -6 1425.57   34.47
  -2   0  -6 1412.49   20.97
  -2   0  -6 1478.24   36.27
  -1   4  -2  885.06   19.87
  -1  -4  -2  839.95   28.67
   1  -4   2  859.95   30.29
   1  -4   2  867.19   30.37
   1  -4   2  848.74   16.87
  -1  -4  -2  877.49   23.55
  -1  -4  -2  887.15   24.27
   1  -4   2  818.29   28.98
   1   4   2  861.00   26.43
  -1  -4  -2  828.61   24.76
   1  -4   2  872.62   28.19
   1  -4   2  831.91   29.34
  -1  -4  -2  864.88   26.42
  -1   4  -2  968.54   36.56
   1   4   2  879.46   27.97
  -1  -4  -2  828.44   28.47
  -1   1   9 8359.46   84.65
   1  -1  -9 8339.75   92.94
  -1   1   9 8374.01  102.69
   1  -1  -9 8000.34  102.85
   1   1  -9 8270.94  103.01
  -1  -1   9 8252.21   97.34
   1  -1  -9 8758.38  105.30
  -1  -1   9 8242.87  102.63
  -1   1   9 8285.26   83.54
  -1  -1   9 8480.19  100.02
   1   1  -9 8217.50  103.61
   1  -1  -9 8393.69   99.82
  -1  -1   9 8421.10   98.20
   1   1  -9 8433.07   98.25
  -1   1   9 8479.07  103.46
  -1   1   9 8331.03   98.13
  -2  -3  -1 1531.60   39.81
   2   3   1 1564.85   33.49
  -2   3  -1 1626.88   34.03
   2   3   1 1623.96   39.57
   2   3   1 1646.98   31.33
  -2   3  -1 1584.76   36.87
   2  -3   1 1605.30   40.69
   2   3   1 1532.15   36.99
  -2  -3  -1 1569.01   31.20
  -2  -3  -1 1617.30   41.87
  -2  -3  -1 1665.96   41.13
  -2   3  -1 1564.49   28.81
   2  -3   1 1559.01   37.37
  -2  -3  -1 1533.55   28.52
   2  -3   1 1592.31   38.44
   2  -3   1 1626.05   41.20
   2  -3   1 1542.59   26.17
   2  -3   1 1556.77   37.74
   2  -1  -7 3233.98   59.45
  -2  -1   7 3239.15   57.23
   2   1  -7 3107.18   62.45
   2   1  -7 3222.14   62.87
   2  -1  -7 3104.63   51.96
  -2  -1   7 3201.56   56.93
  -2  -1   7 3136.06   56.39
   2  -1  -7 3031.74   56.87
  -2   1   7 3195.15   59.17
   2  -1  -7 3329.36   61.83
  -2   1   7 3175.34   53.35
   2  -1  -7 2998.93   51.99
  -2  -1   7 3183.86   59.26
   2   1  -7 3205.49   45.77
   2  -1  -7 3164.80   48.20
  -2  -1   7 3252.22   59.04
  -2   1   7 3172.23   58.92
   2   1  -7 3237.30   58.52
   1  -4  -3 1158.64   35.44
   1  -4  -3 1050.76   25.21
  -1  -4   3 1087.09   33.87
  -1  -4   3 1156.73   33.62
  -1  -4   3 1048.28   26.49
  -1   4   3 1060.96   28.09
   1   4  -3 1107.28   31.88
  -1   4   3 1100.63   31.22
  -1  -4   3 1027.76   31.40
  -1  -4   3 1093.65   33.22
  -1  -4   3 1033.26   28.99
   1  -4  -3 1078.39   31.09
  -1  -4   3 1108.60   33.96
   1  -4  -3 1038.77   20.96
  -1  -4   3 1050.42   25.54
   1  -4  -3 1087.05   34.70
   1  -4  -3 1085.65   34.81
   1  -3   6  104.73   14.39
   1  -3   6  103.03   13.72
  -1  -3  -6   89.16    9.54
   1  -3   6   88.23   11.81
   1  -3   6   91.88   15.09
  -1   3  -6  106.23   15.55
   1   3   6   89.77    7.88
   1  -3   6   62.37   14.05
   1   3   6   91.21    6.19
  -1  -3  -6   91.46   12.76
   1   3   6  107.18   25.79
   1   3   6   82.15   13.28
  -1  -3  -6  107.22    8.71
   1  -3   6   49.52   14.86
   1   3   6  105.19   14.57
  -2  -2   6  143.85   16.82
   2   2  -6  156.48   10.31
   2  -2  -6  131.67   10.48
  -2   2   6  146.24   12.11
   2  -2  -6  132.54   14.87
   2  -2  -6  149.86   15.84
   2  -2  -6  129.09   14.63
   2  -2  -6  137.30   13.75
   2   2  -6  146.35   14.76
   2  -2  -6  146.33   11.85
  -2  -2   6  154.07   16.64
  -2   2   6  146.13   14.52
  -2  -2   6  136.12   13.08
  -2  -2   6  151.94   16.47
   2   2  -6  160.92   21.70
  -2  -2   6  140.65   16.67
  -2   2   6  143.28   14.95
   2  -3  -3 2691.44   47.98
   2   3  -3 2585.43   40.07
   2   3  -3 2717.48   47.93
   2  -3  -3 2752.03   53.02
  -2  -3   3 2709.93   51.34
   2  -3  -3 2736.93   44.44
  -2  -3   3 2820.36   56.28
  -2   3   3 2691.15   47.10
   2  -3  -3 2751.31   49.37
  -2   3   3 2685.47   50.35
   2  -3  -3 2694.97   53.94
   2  -3  -3 2751.27   54.96
  -2  -3   3 2753.79   54.75
  -2   3   3 2636.60   32.61
   2   3  -3 2761.99   53.81
   2   3  -3 2773.07   50.90
  -2  -3   3 2778.39   51.13
  -2  -3   3 2780.96   55.63
   2   1   6 2857.83   36.48
   2  -1   6 2869.21   53.95
   2   1   6 2922.58   49.80
  -2  -1  -6 2910.71   53.77
   2  -1   6 2804.98   38.96
   2   1   6 2979.50   58.12
  -2   1  -6 2879.57   46.98
   2  -1   6 2980.01   48.69
  -2   1  -6 2782.73   43.55
   2   1   6 2977.05   54.14
   2  -1   6 2954.89   56.89
  -2  -1  -6 2838.27   53.05
  -2   1  -6 2927.59   47.45
   2  -1   6 2797.31   52.18
  -2   1  -6 2970.29   51.64
  -2  -1  -6 2977.25   50.58
   2  -3   2 2741.60   49.37
   2   3   2 2793.82   39.88
  -2   3  -2 2693.50   37.03
   2   3   2 2875.40   56.42
   2  -3   2 2762.00   39.25
   2  -3   2 2776.65   52.22
   2  -3   2 2693.86   53.93
  -2  -3  -2 2918.33   56.51
   2  -3   2 2737.62   50.60
   2   3   2 2796.65   43.55
  -2   3  -2 2785.53   43.45
   2  -3   2 2699.37   53.35
   2   3   2 2893.49   52.45
  -2  -3  -2 2751.87   38.38
  -2   3  -2 2764.33   50.82
  -2  -3  -2 2751.12   44.11
  -2  -3  -2 2774.42   54.04
   2   3   2 2911.28   50.83
  -1  -4  -312559.06  113.88
   1  -4   312344.03  105.73
   1  -4   312436.53  134.89
   1   4   312537.51  115.82
  -1  -4  -312353.08  113.98
  -1  -4  -312485.24  122.68
   1  -4   312645.63  134.38
  -1   4  -312191.94  133.70
   1   4   312332.84  133.93
  -1  -4  -312559.33  120.64
   1  -4   312584.75  130.56
  -1   4  -312297.21   99.56
   1   4   312304.38  139.66
   1   4   312489.01  123.72
   1  -4   312818.42  135.12
   1  -4   312590.72  134.78
   2  -2   5 6615.04   90.02
   2  -2   5 6572.81   76.69
   2   2   5 6630.45   89.44
   2  -2   5 6579.80   80.86
   2   2   5 6291.94   60.52
   2  -2   5 6474.31   83.10
   2  -2   5 6650.87   75.66
  -2   2  -5 6518.31   69.59
  -2   2  -5 6443.75   82.32
   2   2   5 6473.16   77.25
   2   2   5 6638.57   83.46
  -2   2  -5 6252.07   70.17
  -2  -2  -5 6574.06   90.16
  -2  -2  -5 6621.06   89.73
  -2  -2  -5 6524.24   78.61
   2  -2   5 6544.04   88.99
  -1  -3   7 3772.97   67.10
   1  -3  -7 3751.81   56.26
  -1  -3   7 3878.62   65.26
   1  -3  -7 3674.88   62.80
  -1  -3   7 3687.37   53.06
   1  -3  -7 3914.72   65.33
   1  -3  -7 3698.47   41.01
  -1   3   7 3665.83   62.02
   1   3  -7 3682.60   59.56
   1   3  -7 3934.45   68.21
  -1  -3   7 3827.21   49.18
  -1   3   7 3651.47   63.48
  -1  -3   7 3715.76   65.45
   1  -3  -7 3835.70   65.54
  -1   3   7 3830.75   51.62
   1   0   9  330.85   18.53
   1   0   9  296.49   12.23
  -1   0  -9  288.53   14.87
  -1   0  -9  305.43   20.71
   1   0   9  297.07   20.78
   1   0   9  286.53   15.44
  -1   0  -9  311.79   13.84
   1   0   9  295.75   17.07
   1   0   9  315.59   16.14
   0  -4   5 4207.17   40.91
   0  -4   5 4345.10   60.63
   0  -4   5 4266.70   70.12
   0  -4  -5 4387.01   72.29
   0   4   5 4337.63   54.06
   0  -4  -5 4203.72   41.59
   0  -4  -5 4462.96   65.69
   0  -4   5 4278.03   69.98
   0  -4   5 4474.93   71.63
   0  -4   5 4262.03   70.05
   0  -4  -5 4239.39   54.84
   0   4  -5 4380.69   71.31
   0  -4  -5 4328.96   66.20
   0   4   5 4438.68   67.48
   0  -4   5 4275.68   68.29
   0  -2   9 1242.73   33.49
   0  -2  -9 1214.78   21.92
   0   2   9 1333.84   38.88
   0  -2   9 1253.58   35.24
   0  -2  -9 1227.49   38.28
   0   2  -9 1305.61   36.71
   0  -2   9 1209.74   28.67
   0   2   9 1224.48   36.93
   0  -2   9 1260.85   24.79
   0   2  -9 1366.41   64.75
   0  -2  -9 1265.06   32.42
   0  -2   9 1256.27   37.02
   0   2   9 1252.50   34.26
   0  -2   9 1280.08   39.92
   0   2   9 1252.61   23.26
   0  -2  -9 1321.79   36.09
   0   2  -9 1246.80   37.82
  -1  -2  -8  141.59   10.99
   1  -2   8  130.92   15.28
   1   2   8  130.84   15.88
   1  -2   8  134.29    9.22
   1  -2   8  144.87   14.26
   1  -2   8  120.37   15.34
   1   2   8  136.97   10.34
  -1  -2  -8  142.26   15.61
  -1   2  -8  129.87   12.60
   1  -2   8  125.89    7.64
   1   2   8  149.35   28.63
   1   2   8  117.74    7.38
  -1  -2  -8  127.09    8.45
  -1   2  -8  135.46   15.58
   1  -2   8  155.29   15.68
   1   2   8  131.40   14.47
   1  -2   8  123.07   13.98
   1   4  -4 1117.34   34.65
   1  -4  -4 1173.97   35.08
   1  -4  -4 1140.91   25.05
  -1   4   4 1171.42   33.56
  -1  -4   4 1092.81   25.62
   1  -4  -4 1128.32   32.30
   1  -4  -4 1037.62   34.03
  -1  -4   4 1185.60   37.34
  -1  -4   4 1194.48   35.97
  -1  -4   4 1097.42   33.87
  -1  -4   4 1168.76   32.96
  -1  -4   4 1111.76   33.75
   1  -4  -4 1111.78   34.95
  -1  -4   4 1121.37   26.91
   1  -4  -4 1067.21   18.77
  -1   4   4 1112.95   30.97
  -1  -4   4 1141.98   34.53
   0   0 -10   26.08    5.25
   0   0 -10   23.36    8.15
   0   0  10   33.39   10.84
   0   0 -10   17.77    8.31
   0   0 -10   -0.00   14.41
   0   0  10   15.82    6.61
   0   0  10   14.69   11.68
   0   0  10   22.58   10.23
   0   0  10   18.06    8.06
  -2  -3   4 1022.82   34.70
   2   3  -4  980.52   24.62
   2  -3  -4  948.15   33.72
   2   3  -4 1004.74   33.96
   2  -3  -4 1006.44   32.99
  -2   3   4  988.33   20.08
   2   3  -4  990.18   30.04
   2  -3  -4  975.02   32.06
  -2  -3   4 1021.84   34.11
   2   3  -4 1022.50   32.69
  -2  -3   4  976.24   30.27
   2  -3  -4  963.66   24.45
  -2  -3   4  981.32   30.89
  -2   3   4  942.34   30.51
  -2   3   4  964.97   32.02
  -2  -3   4  964.34   33.61
   2  -3  -4  943.27   27.82
   2  -3  -4  985.62   29.40
   2   0  -852397.15  415.03
   2   0  -853026.18  350.24
  -2   0   852231.45  409.64
  -2   0   852404.96  407.86
  -2   0   851965.83  397.61
   2   0  -852967.94  341.72
  -2   0   853188.40  341.96
  -2  -3  -3  852.77   31.27
   2   3   3  858.00   28.68
   2   3   3  883.08   19.95
   2  -3   3  888.17   31.77
   2   3   3  916.59   27.48
  -2   3  -3  863.70   22.66
  -2  -3  -3  865.03   25.50
  -2   3  -3  848.98   29.00
  -2  -3  -3  883.44   31.97
  -2   3  -3  867.81   19.10
   2  -3   3  891.44   30.29
  -2  -3  -3  850.87   19.59
   2  -3   3  870.53   27.31
   2  -3   3  905.60   31.26
   2   3   3  861.67   22.12
   2  -3   3  825.93   21.87
   2   3   3  931.65   45.07
   2  -3   3  875.86   28.89
   1  -1   9   63.56    9.04
  -1   1  -9   69.88    9.02
  -1  -1  -9   55.60    7.81
   1   1   9   99.01   16.24
  -1  -1  -9   56.58    7.32
   1   1   9   73.97    8.20
   1  -1   9   55.24    7.61
  -1  -1  -9   72.21   10.21
   1   1   9   64.98    9.39
   1  -1   9   48.66   10.25
   1  -1   9   78.35   11.70
  -1   1  -9   72.94    8.99
   1  -1   9   67.40    9.69
   1   1   9   67.68   13.31
  -1   1  -9   95.20   17.65
   1  -1   9   67.86   13.62
  -1  -1  -9   93.89   16.81
   1   1   9   94.51   13.13
   0  -1  10  246.73   16.45
   0   1  10  250.98   18.60
   0   1  10  250.31   13.81
   0  -1  10  251.21   16.86
   0  -1 -10  247.13   12.02
   0  -1  10  221.75   19.46
   0   1  10  263.76   18.34
   0  -1  10  270.24   15.29
   0   1  10  255.76   17.38
   0   1  10  225.39   12.50
   0  -1  10  268.46   16.74
   0   1 -10  260.37   17.90
   0  -1 -10  188.13   19.04
   0  -1 -10  285.40   21.50
   0   1 -10  255.06   21.09
   0  -1  10  276.78   17.93
   1  -4   4 4650.71   72.60
  -1  -4  -4 4434.92   62.46
   1   4   4 4631.65   56.77
   1  -4   4 4689.28   73.32
   1  -4   4 4536.24   55.44
   1   4   4 4711.57   73.15
   1  -4   4 4629.71   74.73
   1  -4   4 4592.10   73.54
   1   4   4 4649.99   57.22
  -1  -4  -4 4448.90   54.79
  -1  -4  -4 4484.54   59.95
  -1  -4  -4 4853.22   73.39
   1   4   4 4562.08   70.55
   1  -4   4 4624.33   73.89
   1   4   4 4525.80   64.61
   1   0 -10 1279.54   40.50
  -1   0  10 1378.71   34.78
  -1   0  10 1290.57   40.83
  -1   0  10 1319.65   38.90
  -1   0  10 1323.90   33.70
   1   0 -10 1309.31   39.99
   1   0 -10 1304.72   38.34
  -1   0  10 1335.01   38.26
   1   0 -10 1189.79   32.70
  -1   2   9 1381.30   38.53
   1  -2  -9 1377.52   32.56
  -1  -2   9 1433.79   39.37
  -1  -2   9 1308.38   38.55
  -1  -2   9 1302.33   29.69
  -1   2   9 1353.17   34.53
   1  -2  -9 1257.43   23.98
   1  -2  -9 1486.58   39.04
   1   2  -9 1262.20   34.94
   1   2  -9 1409.02   40.59
  -1  -2   9 1359.30   34.03
  -1  -2   9 1341.11   36.88
  -1   2   9 1359.57   24.29
  -1  -2   9 1406.13   39.91
   1  -2  -9 1407.27   40.32
   1  -2  -9 1409.30   38.81
   1   2  -9 1431.82   40.66
  -1   2   9 1329.29   38.73
   0  -3   8 1211.35   35.29
   0   3  -8 1230.44   71.51
   0  -3  -8 1255.14   34.95
   0   3  -8 1298.28   38.97
   0   3   8 1156.84   30.85
   0   3   8 1221.47   37.74
   0  -3   8 1187.97   23.96
   0  -3  -8 1202.23   22.69
   0  -3   8 1223.74   34.61
   0  -3  -8 1197.18   37.63
   0  -3   8 1240.44   36.36
   0  -3   8 1230.54   37.51
   0  -3  -8 1235.39   31.99
   0  -3   8 1274.02   38.11
  -2   0  -7 4872.68   50.32
   2   0   7 5069.69   59.09
   2   0   7 5185.19   84.41
  -2   0  -7 5195.85   74.06
   2   0   7 5205.27   76.29
  -2   0  -7 5182.31   72.36
  -2   0  -7 4874.92   46.08
   2   0   7 5113.23   72.13
  -2   1   8 3766.50   61.14
   2  -1  -8 3790.22   69.26
  -2   1   8 3767.63   67.53
   2  -1  -8 3775.49   64.90
  -2  -1   8 3746.27   66.45
  -2  -1   8 3753.21   65.08
  -2  -1   8 3677.49   62.85
  -2   1   8 3690.82   55.98
   2   1  -8 3676.16   67.47
   2   1  -8 3796.62   54.52
   2   1  -8 3832.56   68.15
   2  -1  -8 3606.37   55.08
   2  -1  -8 3826.33   59.16
  -2  -1   8 3681.05   63.15
  -2   1   8 3740.26   65.58
  -2  -1   8 3787.54   62.81
   2   1  -8 3850.31   67.30
   2  -1  -8 3717.75   67.99
   2   2  -7 2962.63   60.20
  -2  -2   7 2820.24   57.36
  -2  -2   7 2988.52   60.10
   2  -2  -7 2956.72   60.28
  -2   2   7 2832.15   47.15
   2  -2  -7 2785.06   42.98
  -2   2   7 2890.25   57.77
   2  -2  -7 2903.70   56.10
   2  -2  -7 2952.20   58.63
   2   2  -7 2855.28   54.99
   2   2  -7 2919.29   58.91
  -2   2   7 2882.31   59.57
  -2  -2   7 2923.62   58.67
   2  -2  -7 2782.64   47.57
  -2  -2   7 2968.95   55.84
   2   2  -7 2796.42   43.79
   2  -2  -7 2890.08   50.22
  -2  -2   7 2761.88   51.60
   3   0  -1 5558.24   81.40
  -3   0   1 5414.48   78.04
   3   0  -1 5460.15   62.75
   3   0  -1 5437.56   70.51
  -3   0   1 5395.45   81.56
   3   0  -1 5613.38   86.19
  -3   0   1 5394.67   79.76
   3   0  -1 5454.65   82.58
   1  -3   7 1961.51   41.94
  -1  -3  -7 1887.87   36.74
   1  -3   7 1896.52   46.49
   1  -3   7 1916.82   44.26
  -1   3  -7 1965.90   47.11
   1   3   7 1898.29   46.41
  -1  -3  -7 1849.88   44.80
   1  -3   7 1842.75   23.70
   1  -3   7 1832.99   41.74
   1   3   7 1998.13   44.18
  -1  -3  -7 1855.72   31.92
   1  -3   7 1998.67   43.88
   1  -3   7 1915.04   46.51
   1   3   7 1917.27   32.50
   1   3   7 1951.55   61.46
  -3   0   0   97.23   12.32
   3   0   0  104.78   15.95
  -3   0   0   95.10   13.25
   3   0   0   88.33    7.87
   3   0   0   92.80   16.48
   3   0   0  107.08   17.55
  -3   0   0  117.10   16.95
   3   0   0   92.98    9.53
  -3   0   2 2465.91   53.72
   3   0  -2 2467.09   53.79
   3   0  -2 2341.17   39.73
  -3   0   2 2465.09   50.41
   3   0  -2 2470.57   53.11
   3   0  -2 2422.62   54.13
  -3   0   2 2436.37   53.25
   3   0  -2 2449.45   46.89
  -1  -4   5 1970.52   46.85
  -1   4   5 1856.23   25.91
   1  -4  -5 1937.88   42.86
  -1  -4   5 1875.47   35.41
  -1  -4   5 1903.82   42.63
  -1  -4   5 1928.75   47.46
   1   4  -5 1789.99   44.30
  -1   4   5 1915.58   42.90
   1  -4  -5 1782.50   44.51
  -1  -4   5 1891.07   33.61
  -1  -4   5 1968.26   47.17
  -1   4   5 1877.01   44.30
   1  -4  -5 1918.95   46.52
   1  -4  -5 1825.60   30.34
   1  -4  -5 1925.72   46.28
   1   4  -5 1764.20   41.52
  -1  -4   5 1803.85   44.53
   2   3  -5 2448.68   40.80
   2  -3  -5 2462.40   47.65
   2  -3  -5 2448.31   44.29
   2  -3  -5 2540.77   55.01
   2  -3  -5 2381.40   51.06
   2  -3  -5 2341.96   38.13
   2   3  -5 2515.57   52.41
  -2  -3   5 2505.45   53.83
   2  -3  -5 2348.95   52.56
  -2   3   5 2388.03   51.27
   2   3  -5 2410.44   49.14
   2   3  -5 2412.70   53.92
  -2   3   5 2340.47   47.62
  -2  -3   5 2390.33   46.47
  -2  -3   5 2506.52   53.51
  -2   3   5 2420.59   35.51
  -2  -3   5 2378.01   52.42
  -2  -3   5 2440.03   49.33
  -1  -1  10  346.36   22.57
  -1  -1  10  328.16   19.36
  -1   1  10  321.47   61.36
  -1   1  10  324.80   14.60
  -1   1  10  357.76   20.75
   1  -1 -10  371.56   21.31
   1   1 -10  302.50   18.75
   1  -1 -10  323.96   22.09
  -1   1  10  311.61   14.93
   1  -1 -10  326.81   22.02
   1   1 -10  369.68   22.72
   1   1 -10  407.47   27.31
   1  -1 -10  307.75   17.28
  -1   1  10  299.81   20.50
  -1  -1  10  338.12   19.61
  -1  -1  10  320.19   19.76
  -1  -1  10  372.48   19.28
   1   1 -10  335.33   20.86
  -2  -2  -6 3178.21   54.77
   2  -2   6 2976.31   57.91
  -2   2  -6 3114.58   56.08
   2  -2   6 2986.71   53.22
   2   2   6 2924.28   59.70
   2   2   6 2982.33   53.44
   2  -2   6 2942.82   47.31
   2  -2   6 3034.20   47.76
   2   2   6 2896.99   47.83
  -2   2  -6 3067.46   45.04
  -2  -2  -6 2935.28   57.49
  -2  -2  -6 2987.68   59.29
   2  -2   6 2906.31   58.63
  -2  -2  -6 2818.89   30.99
   2  -2   6 2994.36   53.23
   2   2   6 2833.91   32.39
   0   4   6  585.63   20.10
   0  -4   6  540.75   28.55
   0  -4  -6  545.82   26.73
   0   4  -6  561.11   27.12
   0  -4  -6  507.34   17.16
   0   4   6  547.93   24.30
   0  -4   6  529.47   28.43
   0  -4   6  509.82   26.91
   0  -4  -6  525.86   24.29
   0  -4   6  530.75   25.97
   0  -4   6  541.90   21.39
   0  -4   6  569.43   26.67
   0  -4  -6  516.28   22.05
   0  -4   6  476.80   11.66
   2   1   7  967.43   30.91
   2  -1   7 1019.44   35.49
  -2   1  -7 1083.09   33.06
   2   1   7  970.43   38.92
   2   1   7 1040.11   35.34
  -2   1  -7 1002.71   23.33
   2  -1   7 1086.63   74.48
   2  -1   7  980.20   34.35
   2  -1   7  953.26   26.79
   2   1   7  950.42   18.95
   2   1   7  941.22   28.52
   2  -1   7  926.99   30.55
  -2   1  -7  962.86   27.30
  -2  -1  -7  963.99   31.33
   2  -1   7  993.16   22.83
  -2  -1  -7 1024.84   30.86
  -2  -1  -7  922.14   16.49
   3   0   1 3598.38   41.16
   3   0   1 3859.89   70.22
  -3   0  -1 3611.73   64.86
   3   0   1 3674.20   50.73
   3   0   1 3890.16   67.93
   3   0   1 3754.57   62.31
   3   0   1 3689.59   66.86
  -3   0  -1 3706.53   63.59
  -3   0  -1 3696.97   40.00
  -2   3  -4 4453.68   48.67
   2  -3   4 4473.52   71.38
   2   3   4 4501.89   62.47
   2  -3   4 4640.83   75.54
   2   3   4 4509.74   72.36
   2  -3   4 4530.96   59.54
  -2   3  -4 4366.02   53.99
  -2  -3  -4 4570.81   64.62
   2   3   4 4578.77   66.95
   2  -3   4 4433.35   65.01
   2  -3   4 4706.94   74.34
  -2  -3  -4 4498.16   47.71
  -2  -3  -4 4677.90   76.16
  -2   3  -4 4605.44   71.07
   2   3   4 4535.75   53.07
   2  -3   4 4536.93   67.43
  -2  -3  -4 4378.16   49.12
  -2  -3  -4 4563.29   74.35
   3   0  -3 2161.08   51.57
   3   0  -3 2225.17   50.25
  -3   0   3 2204.21   51.50
   3   0  -3 2147.92   45.11
  -3   0   3 2174.97   47.51
   3   0  -3 2183.64   41.44
  -3   0   3 2168.02   50.99
   3   0  -3 2156.56   51.16
  -3   1   1  371.83   20.11
  -3   1   1  451.03   23.54
   3  -1  -1  392.73   19.47
   3  -1  -1  421.54   23.79
  -3  -1   1  431.47   24.53
   3  -1  -1  436.81   23.44
  -3   1   1  380.47   11.89
   3   1  -1  418.23   24.40
   3  -1  -1  430.50   24.31
  -3  -1   1  435.63   26.37
   3   1  -1  418.41   19.19
  -3  -1   1  454.65   24.70
  -3   1   1  440.19   23.14
   3   1  -1  409.56   23.90
   3  -1  -1  401.93   16.85
   3   1  -1  385.69   14.41
   3   1  -1  390.33   20.85
   3   1   0 1146.05   33.73
   3   1   0 1171.47   37.99
   3   1   0 1109.09   26.62
   3  -1   0 1157.80   46.18
  -3   1   0 1104.39   33.07
   3  -1   0 1125.87   36.70
  -3   1   0 1091.62   21.27
   3   1   0 1146.46   37.67
   3  -1   0 1107.93   35.03
  -3  -1   0 1110.18   37.49
  -3   1   0 1123.27   35.32
   3  -1   0 1109.76   26.41
   3  -1   0 1132.32   30.87
  -3  -1   0 1118.07   36.98
   3   1   0 1119.23   21.43
  -3  -1   0 1151.18   36.97
   3  -1   0 1084.31   34.43
   1  -3  -8 2153.33   41.61
   1  -3  -8 2106.78   49.52
   1  -3  -8 2109.40   48.33
   1   3  -8 2102.94   46.30
  -1  -3   8 2082.85   50.34
   1   3  -8 2195.66   50.62
   1  -3  -8 2042.99   27.67
  -1   3   8 2103.34   49.55
  -1  -3   8 2199.78   36.34
  -1   3   8 2038.85   48.23
  -1  -3   8 2153.33   50.22
  -1  -3   8 2185.47   41.04
  -1  -3   8 2111.19   48.28
   1   3  -8 2060.57   75.02
   1  -3  -8 2132.74   48.46
  -1   3   8 2102.61   39.02
  -3   1   2  277.35   18.06
  -3  -1   2  277.09   22.00
   3   1  -2  295.66   17.80
   3  -1  -2  301.96   18.80
  -3   1   2  297.72   23.04
  -3  -1   2  299.54   21.50
   3   1  -2  312.57   24.49
  -3   1   2  271.54    9.82
   3   1  -2  296.54   19.85
   3  -1  -2  298.73   24.78
   3   1  -2  276.01   14.17
   3  -1  -2  278.01   16.24
   3  -1  -2  287.48   19.67
   3   1  -2  304.45   21.26
  -3  -1   2  287.07   20.88
  -3   1   2  264.34   19.41
   3  -1  -2  276.73   20.22
   1   4   5 7312.08   98.42
   1   4   5 7207.32   74.22
   1  -4   5 7332.38   97.80
  -1   4  -5 7164.64   98.41
   1  -4   5 7313.47   80.67
   1  -4   5 7613.84   98.69
   1   4   5 7420.46   98.54
   1  -4   5 7463.37  100.50
   1   4   5 7046.43   68.92
  -1  -4  -5 7221.29   80.44
  -1  -4  -5 7044.98   83.89
   1  -4   5 7576.78   99.06
  -1  -4  -5 7202.55   71.72
   1  -4   5 7537.82  101.39
  -1  -4  -5 7527.54   97.57
   1   4   5 7374.67   89.76
  -3  -1  -1 5876.67   87.71
  -3   1  -1 5605.28   60.27
   3  -1   1 5796.13   73.16
   3   1   1 5899.15   88.86
   3  -1   1 5752.34   82.58
   3  -1   1 5725.02   64.15
   3   1   1 5685.61   84.95
   3   1   1 5777.72   79.34
   3  -1   1 5787.88   82.94
  -3   1  -1 5890.01   81.29
   3  -1   1 5700.21   85.27
   3   1   1 5630.81   63.70
  -3  -1  -1 5822.01   87.23
  -3   1  -1 5732.13   81.86
   3  -1   1 5703.96   86.43
   3   1   1 5909.05   87.70
   3  -1  -3  531.10   23.99
   3   1  -3  549.83   26.90
   3   1  -3  565.12   24.24
  -3   1   3  520.37   13.98
   3  -1  -3  529.82   21.83
   3   1  -3  570.09   28.06
  -3  -1   3  574.13   27.27
  -3   1   3  556.17   25.14
   3  -1  -3  553.57   26.11
  -3   1   3  549.38   29.75
   3   1  -3  548.64   26.28
   3  -1  -3  551.71   25.12
  -3  -1   3  576.77   28.04
   3   1  -3  555.50   20.97
   3  -1  -3  578.82   28.42
  -3   1   3  577.58   24.25
  -3  -1   3  551.70   26.67
   3   0   2  888.68   22.23
   3   0   2  890.58   33.01
  -3   0  -2  937.66   20.43
  -3   0  -2  931.53   32.42
  -3   0  -2  903.34   30.71
   3   0   2  916.40   33.66
   3   0   2  916.15   30.62
   3   0   2  869.74   16.03
   3   0   2  930.13   31.84
   3   0  -4 1082.51   34.85
  -3   0   4 1144.29   35.36
   3   0  -4 1117.60   34.53
   3   0  -4 1241.48   38.13
   3   0  -4 1156.72   37.96
  -3   0   4 1186.34   39.61
   3   0  -4 1070.06   30.67
  -3   0   4 1192.86   40.28
   0  -5   0    5.03   12.52
   0  -5   0   12.10   10.18
   0  -5   0    0.87   11.66
   0   5   0    0.08    5.03
   0  -5   0    0.14    5.65
   0  -5   0   -2.84    4.61
   0  -5   0   10.03    9.55
   0  -5   0   14.57   12.38
  -2   0   9 1462.55   37.86
   2   0  -9 1505.29   35.41
  -2   0   9 1568.29   42.94
  -2   0   9 1642.73   43.52
   2   0  -9 1513.97   44.00
   2   0  -9 1553.37   43.39
   2   0  -9 1584.90   40.98
   2   0  -9 1370.50   44.88
  -2   0   9 1457.46   41.25
   1  -2   9  723.51   30.11
   1   2   9  659.47   21.16
  -1   2  -9  666.86   24.07
  -1  -2  -9  685.04   19.07
   1  -2   9  716.78   28.08
   1   2   9  715.20   30.82
   1  -2   9  683.96   20.46
   1  -2   9  752.11   27.14
   1  -2   9  724.06   29.33
   1   2   9  669.43   16.76
  -1   2  -9  701.04   25.94
  -1  -2  -9  699.57   23.34
   1   2   9  761.06   30.71
  -1  -2  -9  767.44   31.41
   1   2   9  703.48   28.28
  -1   2  -9  647.04   28.71
   0  -5   1  406.27   15.09
   0  -5  -1  398.97   22.79
   0  -5  -1  392.11   16.42
   0  -5   1  388.43   18.07
   0  -5   1  426.18   23.38
   0  -5  -1  402.38   23.98
   0  -5   1  411.03   21.84
   0  -5  -1  375.01   19.62
   0   5  -1  402.33   15.29
   0  -5  -1  413.28   21.87
   0   5   1  411.47   17.73
   0  -5   1  391.88   20.10
   0  -5   1  411.02   23.44
   0  -5   1  455.91   25.17
   0  -5  -1  368.53   17.34
   0   5   1  371.67   32.84
  -2  -3   6 2254.34   45.39
   2  -3  -6 2264.71   46.76
  -2  -3   6 2259.98   52.27
  -2   3   6 2342.13   53.02
  -2   3   6 2242.13   36.26
   2  -3  -6 2441.09   54.62
   2  -3  -6 2358.04   53.09
   2   3  -6 2302.07   53.11
   2  -3  -6 2304.38   43.02
   2   3  -6 2228.12   40.38
  -2   3   6 2242.69   48.55
  -2  -3   6 2236.13   47.99
   2  -3  -6 2226.68   36.63
   2   3  -6 2208.83   48.86
   2  -3  -6 2350.51   50.51
   2   3  -6 2356.62   54.07
  -2  -3   6 2288.58   52.71
  -2  -3   6 2319.01   53.90
   1   0  10 3345.08   55.39
   1   0  10 3404.10   54.62
  -1   0 -10 3293.85   63.96
   1   0  10 3379.45   59.05
   1   0  10 3420.97   58.62
  -1   0 -10 3358.76   54.14
   1   0  10 3380.06   64.94
   1   0  10 3296.34   44.16
  -1   0 -10 3373.98   48.66
   0   2  10 6783.89   95.40
   0  -2  10 6594.08   87.05
   0   2 -10 6304.48   84.20
   0  -2 -10 6654.62   89.93
   0   2  10 6495.74   67.19
   0  -2  10 6485.17   78.76
   0   2 -10 6629.86   89.91
   0   2  10 6525.99   87.70
   0  -2  10 6752.03   90.36
   0  -2  10 6582.33   92.87
   0   2  10 6508.63   88.43
   0  -2 -10 6358.46   81.61
   0  -2  10 6555.65   85.74
   0  -2  10 6556.21   65.22
  -1  -4   6  369.75   16.15
  -1  -4   6  383.61   23.87
  -1  -4   6  377.73   22.45
   1  -4  -6  404.02   20.64
   1   4  -6  411.48   22.90
  -1  -4   6  372.89   22.62
   1  -4  -6  351.43   12.54
  -1   4   6  392.74   13.54
   1  -4  -6  357.11   22.59
   1  -4  -6  350.96   20.87
  -1  -4   6  388.36   20.90
  -1  -4   6  383.56   14.93
  -1   4   6  394.12   21.65
  -1  -4   6  397.32   23.92
  -1   4   6  376.68   22.74
   1  -4  -6  398.86   23.22
   1   4  -6  389.68   27.66
   2  -2  -8  289.34   17.42
  -2  -2   8  283.14   18.48
  -2  -2   8  324.68   21.95
   2   2  -8  287.41   21.16
   2  -2  -8  315.63   22.52
  -2   2   8  312.39   17.06
   2   2  -8  314.57   23.03
  -2  -2   8  307.10   22.88
  -2   2   8  299.90   21.24
   2   2  -8  308.57   23.84
   2  -2  -8  307.12   20.90
   2  -2  -8  303.83   16.53
   2  -2  -8  290.10   21.88
  -2  -2   8  314.64   21.81
   2  -2  -8  303.44   14.26
  -2   2   8  344.81   23.03
   2   2  -8  327.46   17.64
  -2  -2   8  318.81   18.51
   0  -5   2  706.47   20.31
   0   5  -2  740.95   18.69
   0  -5  -2  741.24   32.35
   0  -5   2  715.30   29.11
   0  -5   2  711.14   27.16
   0  -5  -2  729.73   22.34
   0  -5   2  750.88   29.03
   0  -5  -2  724.07   29.54
   0  -5   2  776.41   30.67
   0   5   2  683.99   17.84
   0  -5   2  772.08   26.63
   0  -5  -2  703.94   20.08
   0  -5  -2  760.20   28.30
   0   5   2  723.91   24.32
   0  -5   2  782.30   30.05
   0  -5  -2  746.28   26.65
  -3  -1  -2 4690.03   45.78
  -3  -1  -2 4791.02   75.01
   3  -1   2 4762.48   69.14
  -3  -1  -2 4825.71   75.48
   3   1   2 4635.70   65.86
   3  -1   2 4788.14   71.38
   3  -1   2 4764.75   50.86
   3   1   2 4853.66   76.16
   3  -1   2 4864.86   76.19
   3   1   2 4905.28   75.91
  -3   1  -2 4844.73   71.06
   3  -1   2 4731.17   76.05
   3   1   2 4714.10   48.32
   3   1   2 5011.38   80.20
   3  -1   2 4699.99   58.52
  -3   1  -2 4719.67   53.13
  -3   1  -2 4820.75   69.47
  -3   1   4  369.61   24.50
  -3  -1   4  409.93   24.26
   3   1  -4  388.31   19.78
  -3   1   4  336.22   21.57
   3  -1  -4  376.81   21.14
   3   1  -4  409.95   46.62
   3  -1  -4  341.47   19.12
   3  -1  -4  360.33   22.74
  -3  -1   4  421.27   25.11
   3   1  -4  378.75   21.35
   3  -1  -4  358.98   11.90
   3   1  -4  364.02   23.13
   3  -1  -4  422.45   23.59
   3   1  -4  378.26   24.68
  -3  -1   4  398.01   24.45
   3  -1  -4  369.42   24.49
  -3   1   4  328.89   19.43
   0   0 -11   81.51   12.71
   0   0 -11   78.94   15.00
   0   0  11   55.36   11.84
   0   0 -11   69.60   15.38
   0   0 -11  100.91   12.60
   0   0  11   92.10   11.22
   0   0  11   85.30   13.56
   0   0  11   90.38   15.86
   0   0  11   82.04   10.70
   2  -3   5 5253.13   79.11
   2   3   5 5248.72   64.13
   2  -3   5 5415.72   66.59
  -2  -3  -5 5255.34   69.88
  -2  -3  -5 5190.80   44.62
   2  -3   5 5385.32   79.95
   2   3   5 5304.09   79.30
  -2   3  -5 5194.64   48.87
   2   3   5 5384.76   71.01
  -2  -3  -5 5173.94   50.65
   2  -3   5 5285.58   72.34
  -2  -3  -5 5410.81   80.44
  -2   3  -5 5201.07   54.70
  -2   3  -5 5439.00   76.60
  -2  -3  -5 5304.42   79.66
   2  -3   5 5349.22   76.60
   2   3   5 5327.55   50.49
  -2  -1   9  635.09   27.32
   2  -1  -9  640.41   23.69
   2   1  -9  620.19   23.34
   2  -1  -9  617.31   23.99
  -2  -1   9  661.55   28.01
  -2   1   9  626.88   28.25
  -2  -1   9  660.95   26.54
   2   1  -9  610.09   30.65
   2  -1  -9  726.13   32.57
  -2   1   9  664.25   27.00
  -2  -1   9  652.51   29.51
   2   1  -9  632.77   28.26
   2  -1  -9  670.25   27.51
   2   1  -9  616.50   31.64
   2  -1  -9  650.60   34.16
  -2  -1   9  651.29   27.06
  -2   1   9  621.58   22.42
  -2   1   9  665.92   29.50
   2   4  -1  113.51   12.57
   2  -4  -1  120.86   15.41
  -2  -4   1  100.52   12.80
  -2   4   1  125.68   12.68
  -2  -4   1  102.95   13.38
  -2  -4   1   96.53   14.88
   2  -4  -1  110.91   14.53
   2  -4  -1  105.60   14.74
  -2  -4   1  108.42   10.80
   2  -4  -1  103.82   10.70
  -2   4   1  104.90    9.84
  -2  -4   1  112.66   13.33
  -2  -4   1  138.95   14.54
  -2  -4   1  113.30   11.30
   2  -4  -1  115.15   13.84
   2  -4  -1  120.29   16.55
   2   0   8 4076.45   65.61
  -2   0  -8 3882.76   44.19
   2   0   8 4122.17   62.77
   2   0   8 4087.64   68.60
   2   0   8 3906.51   47.52
  -2   0  -8 3954.92   61.73
   2   0   8 4098.61   66.89
  -2   4   0 2224.92   35.57
   2  -4   0 2281.83   51.22
   2  -4   0 2350.96   46.66
   2   4   0 2315.73   46.26
   2  -4   0 2363.14   50.64
  -2  -4   0 2268.34   41.38
   2  -4   0 2366.36   52.92
   2  -4   0 2367.07   49.98
  -2  -4   0 2371.70   43.28
  -2  -4   0 2277.60   42.46
  -2  -4   0 2369.33   50.27
  -2  -4   0 2251.61   48.30
  -2   4   0 2248.57   42.68
   2  -4   0 2347.19   48.02
  -2  -4   0 2261.52   49.15
  -2  -4   0 2399.68   49.77
   3   0   3   60.42   12.17
  -3   0  -3   83.61   12.55
  -3   0  -3   69.24   12.87
   3   0   3   79.42   18.89
   3   0   3   83.47   15.47
   3   0   3   72.65   13.18
   3   0   3   58.44    6.81
  -3   0  -3   61.98    7.93
   0   3   9 2135.53   43.95
   0   3  -9 2329.79  110.89
   0  -3   9 2190.29   34.73
   0  -3  -9 2182.84   43.21
   0   3  -9 2130.88   50.08
   0  -3  -9 2267.11   52.40
   0  -3  -9 2120.78   29.56
   0  -3   9 2072.30   46.96
   0  -3   9 2226.11   51.30
   0  -3   9 2204.86   49.35
   0   3  -9 2112.54   48.41
   0  -3  -9 2151.17   46.91
   0  -3   9 2178.43   51.60
   0   3   9 2075.85   49.52
   1   3   8  602.96   28.60
   1  -3   8  551.29   27.80
   1   3   8  542.02   16.90
  -1  -3  -8  600.39   21.63
   1  -3   8  553.32   13.97
  -1   3  -8  562.92   28.63
   1   3   8  561.52   27.02
   1  -3   8  542.20   23.70
   1   3   8  585.91   26.64
   1  -3   8  578.33   25.40
   1  -3   8  570.66   25.70
  -1   3  -8  596.57   85.86
  -1  -3  -8  555.54   26.03
  -1  -3  -8  527.33   17.13
   1  -1  10   96.27   10.27
   1  -1  10   96.11   15.04
  -1  -1 -10   77.45    8.63
  -1   1 -10   69.85    9.54
   1  -1  10   70.58    8.09
   1  -1  10   88.59   14.38
   1   1  10  107.73   16.80
   1  -1  10   87.90   13.24
  -1  -1 -10  100.88   15.22
  -1   1 -10   96.32   15.78
   1   1  10   94.11   12.40
  -1   1 -10  100.13   10.87
   1  -1  10   87.31   10.87
   1   1  10   78.88    8.73
   1   1  10   90.17   13.38
   1   1  10   85.68   11.78
  -1  -1 -10   71.96    9.47
  -3   0   5  372.76   23.54
  -3   0   5  400.46   24.75
   3   0  -5  376.77   22.08
   3   0  -5  369.47   21.42
   3   0  -5  356.60   23.70
   3   0  -5  360.98   20.39
  -3   0   5  370.51   21.29
   3   0  -5  382.95   22.98
   0  -4   7 2218.01   44.31
   0   4   7 2363.03   51.49
   0  -4   7 2210.45   51.20
   0  -4  -7 2257.99   47.79
   0   4   7 2310.26   40.94
   0  -4  -7 2189.31   34.41
   0  -4  -7 2177.10   51.42
   0   4  -7 2110.22   50.23
   0  -4   7 2386.96   53.46
   0  -4   7 2267.94   50.31
   0   4  -7 2363.32   53.13
   0  -4  -7 2374.34   46.86
   0  -4   7 2223.38   27.41
   0  -4   7 2382.58   52.60
   2  -4  -2  381.11   22.26
   2   4  -2  364.03   29.69
  -2  -4   2  373.89   21.80
   2  -4  -2  353.80   23.20
   2  -4  -2  372.51   21.47
  -2  -4   2  355.17   20.94
  -2  -4   2  394.67   17.91
  -2   4   2  363.34   17.22
   2   4  -2  345.34   62.99
   2  -4  -2  359.60   23.19
  -2  -4   2  370.48   21.49
   2  -4  -2  376.17   17.89
   2  -4  -2  343.54   21.56
  -2   4   2  326.25   21.02
  -2  -4   2  341.99   52.77
  -2  -4   2  363.49   21.12
  -2  -4   2  387.89   20.54
  -1  -2  10  342.85   22.63
  -1   2  10  306.26   12.73
   1  -2 -10  329.81   21.93
   1   2 -10  330.15   24.21
   1  -2 -10  303.22   22.64
  -1   2  10  320.57   21.30
   1   2 -10  313.91   21.36
  -1  -2  10  334.86   21.13
  -1  -2  10  296.45   20.22
  -1  -2  10  324.29   16.01
   1   2 -10  331.91   22.02
   1  -2 -10  298.00   12.31
   1  -2 -10  297.01   21.05
  -1  -2  10  315.95   18.71
  -1  -2  10  284.55   21.64
   1  -2 -10  310.25   16.73
  -1   2  10  272.28   17.64
  -1   2  10  281.64   21.93
  -2   2  -7  705.18   23.56
   2  -2   7  711.24   29.63
   2   2   7  701.21   23.30
  -2   2  -7  689.94   20.65
  -2   2  -7  675.14   27.02
  -2  -2  -7  662.51   14.82
   2  -2   7  679.86   22.36
   2  -2   7  721.24   27.45
   2   2   7  687.03   30.49
  -2  -2  -7  728.49   30.62
  -2  -2  -7  686.88   27.56
   2  -2   7  717.52   26.50
   2   2   7  704.08   26.13
   2  -2   7  691.33   29.20
   2  -2   7  739.74   30.67
   2   2   7  748.11   45.44
  -2  -4  -1  185.81   12.69
   2   4   1  226.17   47.63
  -2  -4  -1  190.66   12.97
   2  -4   1  208.41   16.10
  -2  -4  -1  191.83   17.46
   2  -4   1  177.06   17.79
  -2  -4  -1  174.77   16.41
  -2   4  -1  189.52   13.07
  -2   4  -1  221.21   33.90
   2  -4   1  201.59   17.33
  -2   4  -1  189.13   10.49
   2   4   1  221.94   53.83
  -2  -4  -1  190.67   16.50
   2  -4   1  184.72    8.31
   2   4   1  204.16   36.51
  -2  -4  -1  194.02   14.36
   2  -4   1  180.10   18.21
   2  -4   1  190.09   16.69
   0  -5  -3 1712.21   41.86
   0  -5   3 1796.28   45.38
   0  -5   3 1696.52   32.59
   0  -5   3 1711.55   44.99
   0  -5  -3 1714.22   29.07
   0  -5  -3 1690.15   38.13
   0   5  -3 1841.18   47.98
   0   5   3 1684.94   38.66
   0  -5   3 1700.85   40.94
   0   5   3 1685.79   28.58
   0  -5  -3 1812.38   46.55
   0   5  -3 1699.73   26.03
   0  -5   3 1719.64   44.25
   0  -5  -3 1648.65   42.39
   0  -5   3 1608.56   41.73
   0  -5  -3 1738.02   32.92
   0  -1  1111656.31  105.57
   0   1 -1112219.58  140.75
   0   1  1111980.29  123.39
   0   1  1111766.81  119.89
   0  -1  1111931.39  120.96
   0   1  1111814.46  125.32
   0  -1  1112256.22  134.74
   0  -1  1112400.61  132.40
   0  -1  1111775.67  115.96
   0  -1 -1112406.01  147.25
   0   1 -1111730.44  118.54
   0   1  1111826.92   97.16
   0   1 -1112372.20  146.64
   0  -1 -1111982.68  136.63
   0  -1  1112118.38  145.19
   0  -1 -1111425.42  111.26
   0   1  1111921.96  124.85
   3  -2  -1 3554.75   59.77
   3   2  -1 3678.18   67.21
  -3   2   1 3783.11   64.33
  -3   2   1 3496.22   46.64
   3  -2  -1 3715.79   66.38
   3   2  -1 3722.30   63.23
  -3  -2   1 3664.46   67.49
  -3   2   1 3504.36   58.39
  -3  -2   1 3619.69   65.93
   3   2  -1 3730.90   53.37
   3  -2  -1 3654.50   62.64
   3   2  -1 3737.74   68.20
   3  -2  -1 3686.81   56.58
   3   2  -1 3592.36   45.56
   3  -2  -1 3658.36   66.67
  -3  -2   1 3679.26   67.49
   3  -2  -1 3583.06   63.62
   1   0 -11 1357.86   39.02
  -1   0  11 1432.08   37.38
  -1   0  11 1491.79   40.32
   1   0 -11 1556.02   45.37
  -1   0  11 1423.31   34.65
   1   0 -11 1557.91   38.15
  -1   0  11 1533.28   37.81
  -1   0  11 1495.51   41.73
   1   0 -11 1468.52   41.53
   1   4   6  866.76   33.69
  -1  -4  -6  820.83   17.90
   1   4   6  848.02   32.08
  -1  -4  -6  871.74   26.77
  -1  -4  -6  849.15   23.89
   1  -4   6  870.55   32.77
  -1   4  -6  789.99   31.99
   1   4   6  881.26   30.68
   1   4   6  775.69   16.85
   1  -4   6  926.02   33.31
   1  -4   6  858.52   31.32
   1  -4   6  876.44   26.34
   1   4   6  830.45   20.19
   1  -4   6  889.89   33.16
  -1  -4  -6  918.47   32.86
  -3   2   0  919.44   31.39
   3  -2   0  966.73   57.61
  -3  -2   0  907.54   34.67
  -3   2   0  853.09   29.36
  -3  -2   0  925.71   34.30
  -3   2   0  853.68   23.09
   3  -2   0  900.42   34.14
   3  -2   0  899.36   29.86
  -3  -2   0  883.92   33.95
   3  -2   0  921.17   34.91
   3  -2   0  860.72   26.91
   3   2   0  861.67   24.01
   3   2   0  891.55   35.19
   3   2   0  900.97   35.10
   3  -2   0  908.70   34.53
   3   2   0  940.59   32.19
   3   2   0  864.47   19.60
   3   2  -2 1075.13   37.80
   3  -2  -2 1126.02   37.69
   3   2  -2 1128.35   27.43
   3  -2  -2 1114.53   32.92
   3  -2  -2 1121.82   35.11
  -3  -2   2 1154.40   38.48
  -3   2   2 1083.78   35.14
  -3   2   2 1162.43   34.59
  -3   2   2 1107.00   27.73
   3   2  -2 1120.93   35.90
  -3   2   2 1090.28   28.90
  -3  -2   2 1144.05   37.11
   3  -2  -2 1124.04   34.47
   3   2  -2 1171.19   70.69
   3  -2  -2 1178.07   38.52
   3   2  -2 1115.80   31.51
  -3  -2   2 1092.20   36.26
  -2  -1  -8  510.22   24.18
  -2   1  -8  494.42   17.78
   2  -1   8  531.26   20.71
   2  -1   8  531.20   68.50
  -2  -1  -8  532.59   24.83
   2   1   8  478.18   21.42
  -2   1  -8  485.12   20.48
  -2  -1  -8  455.25   13.47
   2   1   8  568.93   28.70
   2  -1   8  501.98   16.79
   2   1   8  571.97   46.17
  -2   1  -8  510.29   24.68
   2  -1   8  459.26   25.44
   2  -1   8  523.17   25.25
   2   1   8  481.03   12.93
   2  -1   8  514.70   24.34
   2   1   8  508.00   23.76
   3  -1   3 2234.93   52.11
   3  -1   3 2189.12   51.67
   3  -1   3 2124.71   36.74
   3  -1   3 2067.92   30.24
   3   1   3 2125.80   48.87
  -3  -1  -3 2187.62   51.53
  -3  -1  -3 2164.34   33.48
  -3   1  -3 2108.44   44.36
   3   1   3 2148.03   51.92
   3   1   3 2064.85   26.87
   3   1   3 2174.32   43.10
   3  -1   3 2123.43   46.47
  -3   1  -3 2119.95   36.64
  -3  -1  -3 2204.71   52.21
  -3   1  -3 2171.57   47.13
   3   1   3 2242.88   51.46
   3  -1   3 2158.51   46.71
   2  -4  -3 5448.66   64.22
  -2  -4   3 5310.21   74.28
  -2  -4   3 5689.14   82.55
  -2  -4   3 5403.55   77.95
   2  -4  -3 5101.88   73.62
   2   4  -3 5242.33   75.14
   2  -4  -3 5582.04   81.86
  -2   4   3 5411.29   69.39
   2   4  -3 5115.33   69.58
   2  -4  -3 5480.37   72.27
  -2  -4   3 5240.63   78.17
  -2   4   3 5306.52   74.36
  -2  -4   3 5261.67   72.97
   2   4  -3 5386.56   78.93
   2  -4  -3 5710.09   84.38
  -2  -4   3 5569.20   80.65
   2  -4  -3 5441.43   80.41
   3  -1  -5 3717.41   61.23
  -3  -1   5 3696.19   67.97
  -3  -1   5 3878.35   68.14
   3   1  -5 3573.01   91.15
  -3   1   5 3683.86   60.36
   3  -1  -5 3568.85   61.08
  -3   1   5 3716.86   67.57
  -3   1   5 3696.81   68.59
   3  -1  -5 3657.12   65.02
  -3  -1   5 3711.91   67.87
   3  -1  -5 3640.46   67.33
   3  -1  -5 3569.96   40.53
   3   1  -5 3741.71   69.79
   3  -1  -5 3750.74   66.17
   3   1  -5 3699.15   64.17
   3   1  -5 3760.22   60.54
   3   1  -5 3656.73   67.92
  -1   5   0  271.12   11.93
   1  -5   0  300.46   21.33
  -1  -5   0  257.00   17.34
  -1  -5   0  297.91   17.61
  -1  -5   0  299.45   17.46
  -1  -5   0  306.35   17.35
   1  -5   0  325.95   22.44
  -1  -5   0  298.60   18.66
   1  -5   0  308.78   21.16
   1  -5   0  284.89   23.29
   1  -5   0  276.29   17.79
  -1   5   0  288.57   15.29
   1  -5   0  291.86   15.66
  -1  -5   0  315.86   20.19
  -1  -5   0  285.64   18.23
  -1  -5   0  304.21   17.07
  -1  -5   0  282.32   17.66
  -1  -5   1 2144.80   47.80
   1  -5  -1 2057.54   37.42
   1  -5  -1 2040.60   41.93
  -1  -5   1 2118.37   45.29
   1  -5  -1 2133.50   50.64
  -1  -5   1 2062.21   46.01
  -1  -5   1 2130.23   42.30
  -1   5   1 2121.53   41.82
  -1  -5   1 2018.97   41.33
   1  -5  -1 2281.57   52.55
   1  -5  -1 2124.96   48.19
  -1  -5   1 2099.15   40.87
  -1  -5   1 2159.87   45.47
  -1  -5   1 2078.76   46.51
  -1  -5   1 2008.60   46.03
   1  -5  -1 1989.48   49.06
  -1   5   1 2042.96   34.99
  -2  -4  -2  208.70   14.29
  -2   4  -2  209.79   30.75
  -2  -4  -2  206.70   17.79
  -2   4  -2  188.97    9.25
  -2  -4  -2  223.75   13.24
  -2  -4  -2  232.59   13.59
   2  -4   2  218.23   10.42
   2  -4   2  227.31   19.21
  -2  -4  -2  194.14   17.87
   2   4   2  240.71   40.48
   2   4   2  223.54   33.11
   2  -4   2  177.47   18.04
   2  -4   2  215.12   17.06
   2   4   2  231.24   51.68
   2  -4   2  218.81   18.72
  -2   4  -2  228.52   13.20
   2  -4   2  217.99   18.11
   2   4   2  208.78   51.09
   1   3  -9 2916.12   59.97
   1  -3  -9 2907.09   59.47
  -1   3   9 2943.86   58.84
   1   3  -9 2951.75   55.88
  -1   3   9 2907.92   59.42
  -1  -3   9 2928.06   59.72
  -1  -3   9 2890.73   59.30
  -1  -3   9 2868.56   60.08
   1  -3  -9 3019.91   60.42
  -1  -3   9 2811.56   41.45
   1   3  -9 3028.38   60.88
   1  -3  -9 3016.46   58.38
  -1   3   9 2818.75   47.23
  -1  -3   9 2994.95   58.56
   1  -3  -9 2959.45   48.68
   3  -2   1 4930.12   64.75
   3  -2   1 5014.99   77.33
   3  -2   1 4991.58   78.41
   3   2   1 5038.97   79.02
  -3  -2  -1 4967.07   78.85
  -3   2  -1 4963.65   72.81
  -3   2  -1 4892.55   67.55
  -3   2  -1 4847.03   59.15
   3   2   1 5007.34   77.54
   3  -2   1 4981.56   69.17
   3  -2   1 5000.88   79.33
  -3  -2  -1 4997.78   79.49
   3   2   1 4955.10   55.27
   3   2   1 5137.82   71.60
   3  -2   1 4958.19   62.71
  -3  -2  -1 5000.56   79.73
   3  -2  -3  149.80   19.70
   3   2  -3  142.72   18.77
   3  -2  -3   94.66    8.89
   3  -2  -3  154.17   18.56
  -3   2   3  123.60   15.19
  -3  -2   3  102.56   15.03
   3   2  -3  123.97   18.08
   3   2  -3  128.52   16.83
  -3  -2   3  121.27   16.92
   3  -2  -3  130.67   13.90
   3   2  -3  123.91   12.01
  -3   2   3  114.75   11.51
   3  -2  -3  127.15   14.21
   3  -2  -3  120.01   14.41
   3   2  -3  110.87   13.44
  -3  -2   3  116.26   15.78
  -3   2   3  106.45   16.10
  -2  -3   7 2626.28   51.59
  -2  -3   7 2732.84   58.10
  -2   3   7 2672.22   58.29
  -2  -3   7 2488.35   54.94
   2   3  -7 2644.95   58.31
   2  -3  -7 2687.42   44.83
  -2   3   7 2644.12   40.95
   2  -3  -7 2651.51   57.22
   2  -3  -7 2818.14   60.29
   2  -3  -7 2598.18   37.98
   2   3  -7 2711.12   55.65
   2   3  -7 2611.86   45.49
   2  -3  -7 2612.51   51.25
   2  -3  -7 2720.11   54.49
  -2  -3   7 2743.06   49.29
  -2  -3   7 2624.30   57.40
  -2   3   7 2657.84   55.36
   2   3  -7 2787.44   58.67
   1  -5   1 1838.09   39.52
   1   5   1 1879.45   42.99
  -1  -5  -1 1917.57   39.58
   1  -5   1 1864.82   43.49
  -1  -5  -1 1865.48   39.06
   1  -5   1 1963.56   48.67
  -1  -5  -1 1884.94   43.95
  -1  -5  -1 1861.35   39.05
  -1  -5  -1 1891.06   45.55
  -1   5  -1 1792.77   26.24
   1  -5   1 1910.78   48.32
   1  -5   1 1909.73   48.66
  -1  -5  -1 1859.83   41.07
   1   5   1 1840.70   42.78
  -1  -5  -1 1892.22   42.91
   1  -5   1 1909.44   48.44
  -1   5  -1 1822.05   33.71
  -1  -1  11  179.39   15.84
  -1  -1  11  170.64   15.60
  -1   1  11  184.01   18.94
   1   1 -11  212.64   20.35
   1  -1 -11  187.61   13.81
   1   1 -11  190.15   32.03
  -1  -1  11  174.41   18.17
  -1   1  11  183.13   17.55
  -1   1  11  175.34   16.47
   1   1 -11  195.36   19.19
   1  -1 -11  151.54   16.25
  -1   1  11  188.33   13.02
  -1   1  11  178.50   13.20
  -1  -1  11  154.83   15.88
   1  -1 -11  178.78   18.51
  -1  -1  11  178.88   14.13
   1  -1 -11  179.43   20.88
   1   1 -11  197.41   17.72
   1   4  -7  455.07   88.47
   1  -4  -7  442.72   24.68
  -1   4   7  401.16   22.04
  -1  -4   7  388.57   17.39
   1   4  -7  443.18   23.04
  -1  -4   7  394.11   14.86
   1  -4  -7  411.88   23.32
   1  -4  -7  453.10   27.74
   1  -4  -7  362.55   11.57
  -1   4   7  404.12   14.97
  -1  -4   7  376.75   24.08
  -1   4   7  401.13   24.92
  -1  -4   7  384.71   23.64
  -1  -4   7  412.21   22.08
   1  -4  -7  421.59   20.01
  -1  -4   7  450.90   25.46
   1   4  -7  420.61   47.69
  -1   5   2 2511.23   42.62
  -1  -5   2 2568.29   52.06
   1  -5  -2 2416.01   43.59
  -1  -5   2 2512.53   43.65
   1  -5  -2 2530.01   55.71
   1  -5  -2 2554.80   52.37
   1  -5  -2 2432.98   38.54
  -1  -5   2 2666.41   54.79
  -1  -5   2 2518.55   52.43
  -1  -5   2 2612.43   51.08
  -1   5   2 2576.70   48.52
  -1  -5   2 2554.60   46.92
  -1  -5   2 2467.62   52.20
  -1  -5   2 2485.18   44.20
   1  -5  -2 2593.17   55.60
  -1  -5   2 2554.89   52.40
   1  -5  -2 2616.29   56.57
  -3   0  -4  251.18   14.12
   3   0   4  271.68   21.77
  -3   0  -4  260.42   18.27
  -3   0  -4  293.09   22.97
   3   0   4  237.28   10.35
   3   0   4  254.14   20.03
   3   0   4  245.12   16.96
   3   0   4  280.42   22.57
   3   0  -6  987.28   35.42
   3   0  -6  926.47   17.77
   3   0  -6 1040.98   36.62
  -3   0   6  963.34   35.86
   3   0  -6 1015.78   33.36
   3   0  -6  992.60   36.82
  -3   0   6  990.09   33.67
   3   0  -6 1006.81   36.91
  -3   0   6 1015.14   35.73
   0   5  -4 3309.50   64.09
   0  -5   4 3100.26   62.04
   0  -5  -4 3134.12   57.26
   0  -5  -4 3120.95   41.52
   0  -5  -4 3095.82   58.75
   0   5   4 3056.27   40.73
   0  -5   4 3130.95   57.67
   0  -5   4 3102.82   62.25
   0  -5  -4 3041.44   50.36
   0  -5   4 3027.95   46.56
   0  -5   4 3002.00   59.49
   0  -5  -4 2968.70   35.59
   0   5   4 3198.13   56.43
   0  -5  -4 3072.76   61.67
   0  -5   4 3085.93   59.58
   2  -4  -4  528.47   18.65
   2   4  -4  571.10   35.28
   2  -4  -4  587.70   27.26
  -2  -4   4  601.30   28.93
   2  -4  -4  573.62   29.35
   2   4  -4  592.91   26.60
  -2  -4   4  581.48   24.51
  -2   4   4  555.36   25.43
  -2  -4   4  600.99   27.93
   2  -4  -4  607.24   23.67
   2  -4  -4  591.74   27.77
  -2  -4   4  585.38   28.47
  -2   4   4  557.35   23.63
  -2  -4   4  546.60   26.53
   2  -4  -4  557.72   28.29
   2   4  -4  587.25   22.60
  -2  -4   4  605.75   26.27
  -2   3  -6 3838.90   45.07
  -2  -3  -6 3933.39   70.56
   2  -3   6 3836.67   60.17
  -2  -3  -6 3921.12   62.47
   2   3   6 3802.23   52.26
   2  -3   6 3668.35   41.59
   2   3   6 3821.27   68.75
   2  -3   6 3752.86   64.41
  -2  -3  -6 3751.36   42.44
  -2   3  -6 3989.98   67.11
   2  -3   6 3904.36   61.46
   2   3   6 4053.02   69.86
   2  -3   6 3928.15   69.28
   2  -3   6 3972.09   59.08
   2   3   6 3815.18   58.56
   2  -3   6 4001.41   70.97
  -1  -5  -2 2574.24   48.99
   1  -5   2 2538.05   55.53
  -1   5  -2 2554.90   37.18
   1   5   2 2641.72   70.42
  -1  -5  -2 2612.95   53.94
   1  -5   2 2717.04   57.31
  -1  -5  -2 2582.91   50.52
  -1  -5  -2 2472.63   43.93
   1   5   2 2633.54   51.17
  -1  -5  -2 2603.53   44.54
   1  -5   2 2718.57   59.54
  -1  -5  -2 2618.45   46.77
   1  -5   2 2551.01   48.73
   1   5   2 2579.34   52.93
   3   2   2  822.26   31.40
   3  -2   2  865.85   33.50
   3  -2   2  835.33   27.82
   3  -2   2  858.52   26.94
   3   2   2  820.46   27.69
   3   2   2  863.79   33.89
  -3  -2  -2  810.09   19.48
   3  -2   2  838.63   35.24
   3   2   2  825.21   19.13
  -3   2  -2  835.32   24.40
  -3   2  -2  876.15   31.02
   3   2   2 1025.00  108.02
  -3  -2  -2  903.46   36.03
  -3   2  -2  835.66   28.41
   3  -2   2  833.19   32.72
   3  -2   2  839.63   24.31
  -3  -2  -2  861.82   33.97
   3  -2  -4  282.94   21.96
   3  -2  -4  297.84   19.79
  -3   2   4  248.35   18.70
   3  -2  -4  254.27   18.30
  -3  -2   4  291.22   21.96
  -3   2   4  267.24   16.24
   3   2  -4  296.83   20.01
  -3  -2   4  278.88   20.98
   3   2  -4  330.60   63.99
  -3  -2   4  259.40   22.11
   3   2  -4  302.21   23.54
   3  -2  -4  273.47   19.65
   3   2  -4  283.51   17.29
   3  -2  -4  283.21   25.03
   3   2  -4  283.70   21.49
   3  -2  -4  262.14   12.94
  -3   2   4  279.91   21.07
   2   0 -10  270.78   20.36
  -2   0  10  260.69   21.08
   2   0 -10  260.61   21.53
  -2   0  10  259.98   20.33
   2   0 -10  247.55   17.22
   2   0 -10  229.35   16.19
   2   0 -10  257.06   19.26
  -2   0  10  210.25   19.37
  -2   0  10  257.78   17.95
  -2   4  -3 1496.81   29.75
  -2  -4  -3 1519.29   42.83
   2  -4   3 1418.42   39.86
  -2  -4  -3 1511.52   30.79
  -2  -4  -3 1579.41   42.77
   2  -4   3 1532.63   41.81
   2   4   3 1572.76   38.52
  -2  -4  -3 1481.49   31.30
   2  -4   3 1475.63   39.78
   2   4   3 1461.03   30.89
  -2   4  -3 1524.37   41.85
  -2  -4  -3 1453.46   36.38
   2   4   3 1421.32   34.63
   2  -4   3 1527.56   43.44
   2   4   3 1543.81   42.62
   2  -4   3 1427.67   27.28
   2  -4   3 1514.50   43.57
   1  -5  -3 1965.58   31.68
  -1  -5   3 2038.72   46.18
   1  -5  -3 2096.22   46.85
  -1   5   3 2069.74   46.72
  -1  -5   3 2013.53   42.60
   1  -5  -3 2083.45   50.89
  -1  -5   3 2125.33   49.28
   1  -5  -3 2028.24   49.37
  -1  -5   3 2116.87   39.69
  -1  -5   3 2128.59   49.08
   1  -5  -3 2002.12   37.70
   1  -5  -3 2030.92   49.94
   1   5  -3 1946.04   48.54
  -1  -5   3 2087.79   49.51
  -1   5   3 2093.12   41.52
  -1  -5   3 2133.33   50.07
  -1  -5   3 2024.00   38.65
  -2   2   9  436.70   25.47
  -2   2   9  441.81   21.74
   2   2  -9  476.65   26.32
   2  -2  -9  432.56   17.58
   2  -2  -9  455.77   25.71
  -2  -2   9  447.86   25.94
   2  -2  -9  445.83   23.28
  -2  -2   9  444.12   25.95
   2   2  -9  532.79   30.43
  -2  -2   9  532.76   31.81
   2   2  -9  451.83   20.95
   2  -2  -9  454.00   23.06
   2  -2  -9  466.26   19.74
  -2  -2   9  498.68   24.59
   2   2  -9  496.36   27.96
  -2   2   9  461.90   27.86
   2  -2  -9  428.00   27.73
  -2  -2   9  490.30   23.11
  -3   1  -4 1222.67   29.70
  -3   1  -4 1229.45   35.59
  -3  -1  -4 1268.32   40.26
   3  -1   4 1297.74   40.69
   3  -1   4 1205.02   22.51
   3  -1   4 1225.36   35.45
   3   1   4 1207.76   30.91
   3   1   4 1321.47   40.77
   3   1   4 1245.19   38.69
   3  -1   4 1249.04   36.72
   3  -1   4 1195.73   26.60
   3  -1   4 1227.56   39.98
   3   1   4 1215.69   40.46
  -3   1  -4 1239.63   36.39
  -3  -1  -4 1202.99   38.82
  -3  -1  -4 1239.33   28.01
   3  -1  -6 1619.10   42.32
  -3  -1   6 1656.83   47.27
  -3   1   6 1630.91   45.43
   3   1  -6 1747.29   49.45
   3  -1  -6 1625.01   41.93
   3   1  -6 1636.16   42.35
   3   1  -6 1669.80   50.29
  -3   1   6 1631.56   47.35
   3  -1  -6 1547.75   42.33
   3   1  -6 1575.56   45.19
   3  -1  -6 1690.13   47.07
  -3  -1   6 1660.65   47.02
  -3  -1   6 1608.49   44.75
  -3   1   6 1620.89   41.00
   3  -1  -6 1693.28   47.78
   3   1  -6 1686.25   46.01
   1  -2  10 1685.94   44.96
   1   2  10 1552.53   32.97
  -1   2 -10 1615.69   49.65
  -1   2 -10 1714.04   46.55
   1   2  10 1664.73   45.60
  -1   2 -10 1611.22   40.20
   1   2  10 1598.01   45.44
   1  -2  10 1587.17   32.91
   1  -2  10 1642.28   39.57
   1  -2  10 1599.14   44.90
  -1  -2 -10 1604.81   36.21
  -1  -2 -10 1631.66   31.37
  -1  -2 -10 1678.59   46.24
   1   2  10 1501.39   25.69
   1   2  10 1602.28   43.60
   0   4  -8 1270.21   52.23
   0  -4  -8 1255.07   36.65
   0  -4  -8 1220.76   41.23
   0   4   8 1277.97   40.52
   0   4   8 1209.13   32.01
   0  -4   8 1182.88   21.41
   0   4  -8 1304.01   41.39
   0  -4  -8 1303.95   35.76
   0  -4   8 1268.74   42.84
   0  -4   8 1261.43   35.85
   0  -4   8 1277.67   40.74
   0  -4   8 1365.24   41.51
   0  -4   8 1382.32   42.17
   0  -4  -8 1220.60   24.91
  -1  -5  -3 1221.95   29.23
   1   5   3 1242.34   37.81
  -1  -5  -3 1093.66   28.82
  -1  -5  -3 1129.87   33.61
  -1   5  -3 1135.76   21.79
  -1  -5  -3 1126.15   32.34
   1  -5   3 1159.62   38.21
   1   5   3 1125.58   31.15
   1  -5   3 1124.54   22.66
   1  -5   3 1142.51   38.58
   1   5   3 1163.15   35.06
   1  -5   3 1115.64   34.05
  -1  -5  -3 1198.53   29.13
  -1   5  -3 1297.85  111.36
   1  -5   3 1151.74   38.19
  -1  -5  -3 1209.22   38.28
   0  -2 -11 2031.71   51.97
   0  -2 -11 2130.93   46.31
   0  -2  11 2024.69   34.39
   0   2  11 2123.82   50.72
   0  -2  11 2213.65   48.10
   0   2  11 2173.19   52.12
   0   2  11 2098.42   34.51
   0  -2  11 2145.71   51.57
   0  -2 -11 1982.01   52.65
   0   2 -11 2049.62   49.14
   0  -2  11 2075.20   50.93
   0  -2  11 2148.92   50.16
   0  -2  11 1997.08   40.13
   0   2  11 2198.77   50.14
   0   2 -11 1983.44   47.98
   0   2 -11 2180.17   52.71
   0  -2 -11 2047.13   30.91
  -2  -1  10 2811.20   56.88
   2   1 -10 2894.34   60.23
  -2  -1  10 2807.60   56.84
   2  -1 -10 2838.25   49.60
   2  -1 -10 2880.22   53.38
   2   1 -10 2809.04   51.10
  -2  -1  10 2711.84   54.14
  -2  -1  10 2914.80   59.21
   2  -1 -10 2879.28   61.35
   2   1 -10 2841.90   61.81
  -2   1  10 2937.95   60.99
   2  -1 -10 2853.03   57.58
  -2   1  10 2770.65   54.70
   2   1 -10 2857.58   61.86
   2  -1 -10 2805.39   61.52
  -2  -1  10 2937.42   61.45
  -2   1  10 2860.30   61.23
  -2   1  10 2706.30   47.54
   1  -4   7  631.48   28.24
  -1  -4  -7  610.76   20.88
   1   4   7  661.84   31.02
  -1  -4  -7  669.11   30.55
  -1   4  -7  630.80   29.97
   1   4   7  602.73   29.12
   1  -4   7  622.42   29.68
   1   4   7  608.94   26.75
   1   4   7  619.79   17.58
   1  -4   7  622.66   28.32
  -1  -4  -7  598.89   23.00
   1  -4   7  595.99   29.72
   1  -4   7  628.69   23.97
   1   0  11   11.03    7.83
  -1   0 -11   -2.85    5.27
   1   0  11   -1.51    3.91
  -1   0 -11    6.35    7.17
   1   0  11   -9.17   11.53
   1   0  11   20.35   14.46
   1   0  11    1.40    7.99
  -1   0 -11   10.99   13.53
  -2   0  -9   72.45    6.31
   2   0   9   79.64    8.43
   2   0   9   92.57   15.28
   2   0   9   86.46   12.86
  -2   0  -9   68.66    7.67
   2   0   9   81.43   14.03
  -2   0  -9  109.75   13.47
  -2   0  -9  101.52   15.46
   2   0   9   83.17   12.23
   1  -3   9  379.01   13.26
   1  -3   9  394.83   22.12
   1   3   9  464.93   27.31
  -1  -3  -9  399.58   16.73
  -1   3  -9  394.95   24.79
   1  -3   9  392.81   21.74
   1  -3   9  409.00   23.09
   1   3   9  367.71   21.89
  -1  -3  -9  361.30   22.94
  -1  -3  -9  381.36   18.74
   1   3   9  381.38   15.10
   1   3   9  415.37   25.01
   1  -3   9  403.65   24.94
  -1   3  -9  437.54   25.48
   2  -2   8   12.13    5.64
  -2  -2  -8   26.59   11.83
  -2   2  -8   26.80   12.12
   2  -2   8    9.05    6.46
  -2  -2  -8   43.05   16.84
  -2   2  -8   30.54    7.64
   2  -2   8   17.15    9.51
  -2   2  -8   28.62    5.22
   2  -2   8   21.53    9.62
  -2  -2  -8   17.45    4.65
   2   2   8   -5.60   10.38
   2   2   8   43.79   10.48
   2  -2   8   29.58   10.42
   2   2   8   30.73   13.20
   2   2   8   27.19    7.90
   2  -2   8   -6.53    9.76
   2  -4  -5 1282.14   37.69
  -2  -4   5 1343.99   41.71
  -2  -4   5 1301.07   39.91
  -2  -4   5 1441.76   44.80
  -2   4   5 1335.77   37.15
   2   4  -5 1329.96   33.79
  -2  -4   5 1222.03   35.60
   2  -4  -5 1295.83   39.48
   2  -4  -5 1359.03   34.13
  -2   4   5 1370.31   41.00
  -2  -4   5 1373.20   35.22
   2   4  -5 1328.06   39.66
   2  -4  -5 1268.96   41.80
  -2  -4   5 1366.19   41.68
   2   4  -5 1339.79   38.89
   2  -4  -5 1423.62   44.51
   2  -4  -5 1332.33   27.89
   3   2   3  106.73   11.94
  -3   2  -3   99.07   10.18
  -3  -2  -3   93.94    8.69
   3  -2   3  112.55   15.06
  -3  -2  -3  122.10   16.78
  -3   2  -3  119.75   13.41
   3  -2   3  115.84   12.89
   3   2   3  109.47   17.30
   3  -2   3  122.24   16.97
   3  -2   3  118.89   14.12
  -3  -2  -3  123.45   16.49
  -3   2  -3  122.76   13.49
   3  -2   3  109.56   12.85
   3  -2   3  111.34   10.23
   3   2   3  107.25   16.92
   3   2   3  125.85   24.93
   0  -5  -5 1564.82   44.38
   0   5   5 1520.49   29.71
   0   5   5 1526.00   41.12
   0  -5   5 1523.01   41.81
   0  -5  -5 1527.23   41.77
   0  -5   5 1598.29   44.80
   0  -5  -5 1541.97   34.66
   0  -5   5 1476.12   34.49
   0  -5   5 1502.24   43.63
   0   5  -5 1625.90   46.47
   0  -5   5 1535.49   43.11
   0  -5  -5 1496.40   25.41
   0  -5  -5 1592.31   41.23
   0  -5   5 1601.19   45.03
   1  -5  -4  920.95   34.73
  -1  -5   4  981.80   33.79
   1   5  -4  973.40   34.95
  -1  -5   4  964.23   34.61
  -1   5   4  984.06   35.51
  -1  -5   4  951.97   25.50
   1  -5  -4  954.23   35.00
  -1  -5   4  954.62   34.71
  -1  -5   4  949.77   30.91
   1  -5  -4 1036.13   37.49
   1  -5  -4  894.50   24.39
   1  -5  -4  873.11   18.74
  -1  -5   4 1013.88   27.39
   1  -5  -4 1028.82   33.34
  -1   5   4  950.26   31.03
  -1  -5   4  940.53   34.00
  -1  -5   4 1007.45   36.18
   3   2  -5  388.35   28.90
   3   2  -5  393.15   26.48
  -3  -2   5  436.25   26.93
  -3   2   5  380.73   23.74
   3  -2  -5  400.40   25.19
   3  -2  -5  425.54   21.74
   3  -2  -5  399.90   22.62
   3   2  -5  393.86   20.74
   3  -2  -5  437.22   25.88
   3   2  -5  395.18   25.64
  -3   2   5  414.88   19.97
  -3  -2   5  377.25   25.51
   3   2  -5  419.93   23.33
  -3  -2   5  380.69   23.14
  -3   2   5  417.74   25.20
   3  -2  -5  392.31   23.97
   3  -2  -5  375.20   16.09
   0  -3  10 2074.49   36.72
   0  -3 -10 2232.75   54.91
   0   3  10 2104.46   46.21
   0  -3  10 2110.92   52.55
   0  -3 -10 2122.62   48.68
   0   3  10 2101.26   52.30
   0   3  10 2067.35   51.37
   0   3 -10 2059.97   51.29
   0  -3  10 2182.93   50.36
   0  -3  10 2102.17   50.35
   0  -3 -10 2087.30   29.88
   0  -3 -10 2158.95   44.67
   0   3 -10 2105.37   51.57
   0  -3  10 2139.49   52.48
   0   3 -10 2220.22   51.09
   3   0   5 1145.66   32.00
  -3   0  -5 1223.36   30.64
   3   0   5 1093.55   37.20
  -3   0  -5 1128.44   36.60
   3   0   5 1189.83   38.10
   3   0   5 1151.35   39.36
  -3   0  -5 1187.64   36.93
  -3   0   7 6539.62   95.32
  -3   0   7 6653.71   96.48
   3   0  -7 6457.46   95.17
  -3   0   7 6418.41   89.25
   3   0  -7 6317.61   95.20
   3   0  -7 6298.43   88.03
   3   0  -7 6217.79   58.25
   3   0  -7 6422.63   91.15
   3   0  -7 6289.23   91.97
  -2  -3   8 1963.25   41.85
   2   3  -8 1944.82   40.92
  -2  -3   8 1972.59   50.60
   2  -3  -8 1930.83   45.35
   2   3  -8 2056.12   51.50
  -2  -3   8 1993.03   46.09
   2  -3  -8 2010.55   47.36
   2   3  -8 2129.55   60.41
   2  -3  -8 1955.03   37.95
  -2  -3   8 2040.41   52.41
   2  -3  -8 1871.03   31.08
  -2  -3   8 2119.56   52.35
   2  -3  -8 1957.61   50.60
  -2   3   8 2058.56   50.82
   2   3  -8 2057.52   52.88
  -2   3   8 2023.69   51.48
  -2   3   8 2038.49   38.52
   2  -3  -8 1952.96   51.21
  -2   4  -4 4252.97   48.98
   2  -4   4 4295.77   73.88
  -2  -4  -4 4390.51   74.98
   2  -4   4 4345.32   70.57
   2   4   4 4246.22   59.26
   2  -4   4 4350.66   54.34
   2  -4   4 4310.34   74.53
  -2  -4  -4 4185.03   53.41
   2   4   4 4324.42   52.47
  -2  -4  -4 4442.54   67.08
  -2   4  -4 4186.31   71.42
   2   4   4 4250.52   63.13
  -2  -4  -4 4350.16   74.55
   2  -4   4 4312.85   71.62
   2   4   4 4440.42   72.63
  -2  -4  -4 4271.15   51.54
   2  -4   4 4335.44   68.67
   0   0 -12   19.80   10.67
   0   0  12   35.05   10.50
   0   0 -12   15.46    6.93
   0   0 -12   33.06   10.70
   0   0 -12   37.29    8.29
   0   0  12   35.73    9.83
   0   0  12   24.41    8.37
   0   0  12   18.90    9.74
   0   0  12   31.11   10.55
  -1   2  11  814.48   36.46
   1  -2 -11  770.82   34.38
  -1   2  11  723.81   28.41
  -1  -2  11  782.91   28.41
   1  -2 -11  757.41   33.77
   1  -2 -11  718.42   18.97
  -1  -2  11  766.26   32.67
   1  -2 -11  776.15   25.48
   1   2 -11  733.94   31.68
  -1  -2  11  755.57   31.42
  -1   2  11  707.02   19.54
   1   2 -11  714.49   30.01
  -1  -2  11  784.44   31.91
  -1   2  11  752.07   32.62
  -1  -2  11  717.40   24.14
   1  -2 -11  804.05   32.20
  -1   1 -11  879.28   35.98
   1   1  11  764.36   32.22
   1  -1  11  791.41   33.16
  -1  -1 -11  809.09   27.37
   1   1  11  821.55   32.40
   1   1  11  854.79   31.79
   1  -1  11  854.25   31.97
  -1   1 -11  842.47   29.00
   1  -1  11  806.61   25.23
  -1  -1 -11  823.43   34.11
  -1  -1 -11  797.59   23.45
   1  -1  11  830.24   27.79
  -1   1 -11  844.09   27.19
   1   1  11  844.96   28.00
   2  -1   9   93.50   16.45
  -2   1  -9   95.53   10.72
   2  -1   9   85.29   16.51
  -2   1  -9   88.39   19.10
   2   1   9  106.90   17.95
   2   1   9   86.82   12.10
   2  -1   9   67.76   12.85
  -2   1  -9   93.06   12.30
  -2  -1  -9   91.23   13.66
   2   1   9   84.95   14.99
   2  -1   9   82.79   10.72
  -2  -1  -9   85.94   14.45
  -2  -1  -9   96.22    8.42
  -2   1  -9  102.63   15.52
   2  -1   9   76.74   10.16
   2   1   9   84.64   13.16
   1  -4  -8   69.77    9.75
  -1   4   8   77.56   15.84
  -1   4   8   74.47   15.99
   1  -4  -8   67.18   14.58
  -1   4   8   67.23    8.60
   1  -4  -8   77.72   15.13
   1  -4  -8   79.86   14.73
   1   4  -8   87.89   17.40
  -1  -4   8   64.89    7.74
  -1  -4   8   71.58   12.87
   1   4  -8   68.53   14.75
   1   4  -8   95.36   14.40
  -1  -4   8   81.51    9.90
  -1  -4   8   79.16   15.55
  -1  -4   8   76.99   13.49
  -1  -4   8   77.05   15.47
   1  -5   4 6845.06   94.89
   1   5   4 6647.04   71.79
  -1  -5  -4 6676.78   84.60
  -1  -5  -4 6699.48   73.66
   1  -5   4 6647.34   95.89
   1  -5   4 6479.24   65.04
   1   5   4 6558.69   79.17
   1  -5   4 6695.11   93.13
  -1   5  -4 6838.53   98.12
   1   5   4 6658.96   89.72
  -1  -5  -4 6545.25   79.91
   1   5   4 6728.52   92.74
  -1  -5  -4 6647.21   69.68
   1  -5   4 6645.93   88.73
  -1  -5  -4 6603.05   90.77
  -3   1  -5 1063.49   29.92
   3  -1   5 1134.55   36.56
   3  -1   5 1050.98   20.86
   3   1   5 1221.45   42.05
   3  -1   5 1157.14   39.55
  -3   1  -5 1092.69   34.82
   3   1   5 1128.63   37.01
  -3  -1  -5 1118.26   38.65
  -3  -1  -5 1097.98   38.49
   3  -1   5 1133.19   39.70
   3   1   5 1123.73   38.73
  -3  -1  -5 1177.15   29.89
  -3   1  -5 1252.61   36.09
   3  -1   5 1108.19   34.44
   3  -1   5 1098.17   24.76
   3   1   5 1145.35   29.55
  -1  -3  10  972.41   37.41
  -1  -3  10  912.53   35.26
  -1   3  10  957.49   37.64
   1  -3 -10  985.28   28.35
   1  -3 -10  926.70   35.87
   1   3 -10  995.41   37.71
   1  -3 -10 1020.85   37.80
  -1  -3  10 1001.66   30.90
   1   3 -10  989.01   34.36
   1   3 -10  899.08   35.26
  -1   3  10  920.07   29.60
  -1  -3  10  946.53   35.74
  -1  -3  10  925.78   24.55
   1  -3 -10  939.82   35.11
  -1   3  10  982.13   38.08
  -1  -3  10 1012.42   37.21
  -2  -3  -7  257.81   19.61
   2   3   7  292.65   52.48
   2   3   7  228.87   20.75
   2  -3   7  270.67   17.73
   2  -3   7  254.77   19.37
  -2  -3  -7  230.93   11.34
   2  -3   7  261.83   18.68
   2  -3   7  225.11   10.28
   2  -3   7  247.51   17.01
   2  -3   7  245.76   20.45
  -2   3  -7  274.51   21.49
  -2   3  -7  238.96   11.21
  -2  -3  -7  269.35   18.42
   2  -3   7  250.02   20.93
   2   3   7  247.70   14.12
  -3   1   7 5958.84   82.01
   3  -1  -7 6040.85   92.46
   3  -1  -7 5796.32   79.93
   3   1  -7 5857.40   87.86
   3   1  -7 6017.04   84.33
   3  -1  -7 6109.50   88.84
   3   1  -7 6179.31   95.01
   3   1  -7 5871.00   88.71
  -3  -1   7 5878.70   88.26
  -3   1   7 5982.41   91.37
   3  -1  -7 5861.92   85.26
   3  -1  -7 6254.33   92.76
   3   1  -7 5910.20   88.93
   3  -1  -7 5707.84   61.14
  -3  -1   7 5934.91   89.80
  -3   1   7 5992.72   89.88
  -1   0  12  764.02   27.96
   1   0 -12  819.61   35.11
   1   0 -12  758.28   32.93
   1   0 -12  807.81   33.41
  -1   0  12  800.03   32.01
  -1   0  12  750.84   26.78
  -1   0  12  721.90   31.01
   1   0 -12  793.91   28.33
  -1   0  12  739.16   29.95
   0  -1  12  702.10   30.72
   0  -1 -12  642.63   30.09
   0  -1  12  742.57   27.04
   0  -1 -12  626.94   19.82
   0  -1  12  758.09   33.97
   0  -1 -12  699.66   28.84
   0   1 -12  674.16   29.34
   0   1 -12  709.92   28.93
   0  -1  12  664.58   24.25
   0   1  12  730.90   31.73
   0   1  12  668.00   21.36
   0  -1  12  722.13   28.30
   0  -1 -12  696.30   32.45
   0   1 -12  746.33   32.89
   0   1  12  776.10   26.36
   0  -1  12  755.15   30.71
   0   1  12  719.22   32.70
   3   3  -1  434.02   25.57
  -3  -3   1  477.29   27.16
  -3   3   1  410.25   20.69
   3  -3  -1  466.02   24.77
   3   3  -1  478.10   27.60
   3  -3  -1  430.32   22.24
   3   3  -1  398.23   16.64
  -3  -3   1  415.95   13.89
  -3   3   1  452.71   24.08
   3  -3  -1  436.66   27.34
   3   3  -1  452.45   24.08
   3  -3  -1  429.27   25.46
  -3  -3   1  449.23   27.90
   3  -3  -1  418.69   16.57
   3  -3  -1  418.75   26.12
   3   3  -1  462.57   21.58
  -3  -3   1  471.72   26.28
  -3   3   1  452.68   36.52
   3  -3   0  845.62   34.73
  -3  -3   0  839.87   35.70
   3  -3   0  812.79   23.26
   3  -3   0  904.83   36.88
   3  -3   0  843.25   32.55
   3   3   0  887.42   35.72
   3   3   0  862.52   25.24
  -3   3   0  906.06   32.54
  -3   3   0  867.53   27.81
  -3  -3   0  805.95   19.99
   3   3   0  851.57   33.54
   3  -3   0  859.45   32.34
  -3  -3   0  898.10   35.68
  -3   3   0  839.67   27.56
  -3  -3   0  868.67   34.35
   3  -3   0  849.32   30.40
   3   3   0  808.34   21.61
   3   3   0  892.79   31.26
   3   3  -2 1129.42   32.45
  -3  -3   2 1162.43   39.47
  -3   3   2 1157.24   37.00
   3  -3  -2 1160.29   39.34
   3   3  -2 1022.30   42.33
  -3  -3   2 1129.81   40.09
   3   3  -2 1112.83   49.48
   3  -3  -2 1056.04   38.39
   3  -3  -2 1110.16   29.71
   3   3  -2 1086.01   28.40
   3  -3  -2 1122.15   35.02
   3  -3  -2 1157.86   36.58
  -3   3   2 1092.74   34.01
   3   3  -2 1139.66   40.55
  -3  -3   2 1122.93   40.54
   3   3  -2 1129.94   36.78
   3  -3  -2 1061.32   27.96
   3  -3  -2 1124.33   39.18
   1  -5  -5 3374.35   65.09
   1  -5  -5 3461.42   59.88
  -1  -5   5 3554.30   67.89
   1   5  -5 3430.22   64.80
  -1  -5   5 3508.76   66.63
  -1  -5   5 3594.55   60.89
  -1  -5   5 3483.87   67.36
   1  -5  -5 3513.14   67.96
  -1   5   5 3320.49   57.79
  -1  -5   5 3388.79   47.05
  -1   5   5 3528.45   64.52
   1  -5  -5 3432.31   45.91
   1  -5  -5 3503.77   68.35
  -1  -5   5 3361.78   65.02
  -1  -5   5 3539.73   68.87
  -3  -2  -4 1363.22   42.64
  -3  -2  -4 1298.36   42.25
   3  -2   4 1294.24   32.78
  -3  -2  -4 1318.94   30.10
  -3   2  -4 1283.63   35.58
  -3   2  -4 1308.41   33.46
   3   2   4 1338.86   38.93
   3  -2   4 1405.43   46.04
   3   2   4 1332.29   42.16
   3  -2   4 1360.83   37.11
   3   2   4 1384.10   32.79
   3  -2   4 1254.71   37.79
   3  -2   4 1274.97   28.90
   3   2   4 1262.73   41.20
   3  -2   4 1321.40   42.11
  -3   2  -4 1321.98   33.69
   2   4  -6 1108.76   32.07
  -2  -4   6 1090.63   34.30
   2   4  -6 1134.26   40.37
   2  -4  -6 1046.80   38.17
   2  -4  -6 1088.39   36.56
  -2  -4   6 1087.32   38.81
   2   4  -6 1112.84   37.96
   2  -4  -6 1063.99   38.06
   2  -4  -6 1068.01   23.80
  -2  -4   6 1083.61   39.30
  -2   4   6 1088.36   38.68
  -2  -4   6 1051.12   31.15
   2  -4  -6 1062.83   34.88
  -2  -4   6 1088.54   39.20
  -2   4   6 1069.22   35.08
  -2  -4   6 1071.12   38.58
   2  -4  -6 1033.01   29.03
  -3  -2   6 1676.19   47.89
   3  -2  -6 1587.71   46.91
  -3  -2   6 1617.45   46.64
   3   2  -6 1633.04   42.00
   3  -2  -6 1563.66   43.59
   3   2  -6 1590.92   46.41
  -3   2   6 1582.97   46.67
  -3  -2   6 1632.64   45.85
   3   2  -6 1604.13   44.47
  -3   2   6 1571.92   37.43
   3  -2  -6 1643.35   40.05
   3  -2  -6 1541.25   32.63
   3  -2  -6 1565.06   42.76
  -3   2   6 1534.26   44.92
  -3  -2   6 1666.99   47.49
   3  -2  -6 1594.66   46.24
   3   2  -6 1601.64   47.09
   0   5   6  566.92   20.46
   0  -5   6  564.81   28.72
   0  -5   6  674.01   33.32
   0   5  -6  555.65   29.36
   0  -5   6  627.13   23.96
   0  -5  -6  614.55   30.28
   0   5   6  599.67   27.09
   0  -5  -6  612.78   28.05
   0  -5   6  617.31   30.55
   0  -5  -6  570.28   20.88
   0  -5   6  578.20   29.20
   0  -5   6  535.84   28.14
   0  -5  -6  585.14   26.36
   3   3   1 1555.70   39.45
  -3   3  -1 1613.02   36.23
  -3   3  -1 1572.28   37.30
   3  -3   1 1552.04   39.24
  -3  -3  -1 1672.33   48.55
   3  -3   1 1608.62   46.42
   3  -3   1 1623.57   41.83
   3   3   1 1496.84   44.11
   3   3   1 1548.78   26.98
   3  -3   1 1604.16   45.99
   3  -3   1 1496.79   32.25
  -3  -3  -1 1610.19   47.38
  -3  -3  -1 1554.77   29.23
   3   3   1 1649.07   45.20
   3  -3   1 1603.45   46.61
  -3   3  -1 1573.83   40.15
  -3  -3  -1 1576.20   45.95
   3   3   1 1549.48   31.18
  -1  -1  12 1675.81   44.84
  -1   1  12 1669.94   46.22
  -1   1  12 1635.52   46.75
   1  -1 -12 1705.15   40.37
  -1  -1  12 1742.46   44.87
  -1   1  12 1793.10   50.08
  -1   1  12 1632.84   37.06
  -1  -1  12 1681.82   44.28
   1  -1 -12 1674.53   47.98
   1   1 -12 1693.97   49.78
   1   1 -12 1646.13   43.89
  -1  -1  12 1735.76   49.86
   1   1 -12 1757.63   50.15
   1  -1 -12 1662.15   46.85
  -1   1  12 1706.00   36.24
   1  -1 -12 1618.67   47.39
  -1  -1  12 1653.40   41.03
  -3  -3   3 1542.57   46.94
   3  -3  -3 1581.40   46.59
  -3   3   3 1375.55   30.25
   3   3  -3 1464.68   45.40
   3  -3  -3 1387.70   38.75
  -3  -3   3 1475.14   44.36
   3  -3  -3 1438.73   42.00
   3  -3  -3 1418.38   35.03
   3   3  -3 1407.59   43.84
  -3  -3   3 1442.09   44.34
  -3   3   3 1448.77   40.10
  -3   3   3 1465.07   43.36
   3  -3  -3 1483.62   41.67
   3   3  -3 1465.36   36.64
   3  -3  -3 1516.07   47.18
   3   3  -3 1497.36   39.76
   3   3  -3 1447.54   43.06
   2   2 -10  184.51   23.71
   2  -2 -10  154.28   18.59
   2   2 -10  169.96   18.88
   2  -2 -10  165.04   19.08
   2  -2 -10  146.42   31.42
   2  -2 -10  158.52   13.31
  -2  -2  10  152.70   15.95
  -2   2  10  163.56   19.63
  -2  -2  10  168.03   16.86
  -2   2  10  181.95   20.16
   2   2 -10  179.49   18.07
  -2  -2  10  144.48   17.79
  -2  -2  10  176.36   15.42
   2   2 -10  174.90   19.83
   2  -2 -10  172.92   22.26
  -2   2  10  155.68   15.64
  -2  -2  10  188.14   18.92
   2  -2 -10  185.23   17.70
  -2  -4  -5 4494.45   60.51
   2   4   5 4703.11   80.12
   2  -4   5 4724.46   67.28
   2   4   5 4562.76   55.98
   2   4   5 4637.81   88.96
  -2   4  -5 4570.55   80.30
  -2  -4  -5 4538.03   56.44
   2  -4   5 4567.32   81.69
  -2  -4  -5 4514.49   74.01
   2  -4   5 4639.55   83.31
  -2  -4  -5 4939.14   85.87
   2  -4   5 4536.35   76.84
   2   4   5 4572.75   69.69
   2  -4   5 4668.43   76.32
   2   4   5 4721.19   66.45
   2  -4   5 4834.31   83.51
   2   0 -11   -8.38   12.22
  -2   0  11    5.33   12.48
   2   0 -11   11.86   10.96
  -2   0  11   23.07   13.54
   2   0 -11   -3.26   11.05
  -2   0  11    3.61    7.55
   2   0 -11   26.33   14.17
  -2   0  11    0.82   10.75
   0  -4   9  725.15   32.89
   0   4   9  740.15   32.47
   0  -4   9  691.11   18.09
   0   4  -9  675.13   31.40
   0  -4  -9  759.47   34.26
   0  -4   9  699.82   34.04
   0  -4  -9  727.22   30.44
   0  -4  -9  675.10   18.82
   0  -4   9  722.67   30.11
   0   4   9  711.78   27.59
   0  -4   9  668.14   30.34
   0  -4  -9  714.82   28.02
   0   4  -9  743.82   38.81
   0  -4   9  723.96   32.03
  -3   0  -6  497.36   25.55
  -3   0  -6  511.36   26.61
   3   0   6  518.50   27.45
   3   0   6  497.65   27.79
   3   0   6  508.03   30.17
   3   0   6  524.49   21.97
  -3   0  -6  491.53   21.73
  -1  -4  -8 1915.12   51.27
   1  -4   8 1973.05   50.78
  -1  -4  -8 1864.35   37.65
   1   4   8 1922.52   47.19
   1  -4   8 1939.51   45.44
   1   4   8 1888.86   52.01
  -1  -4  -8 1834.97   41.84
   1  -4   8 2110.44   53.67
   1   4   8 1977.54   53.10
   1  -4   8 1961.95   53.34
   1  -4   8 1751.50   48.16
  -1   4  -8 1848.50   50.66
   1   4   8 1799.92   31.03
   1  -4   8 1983.89   54.04
  -3   0   8  496.37   29.10
   3   0  -8  457.37   28.64
   3   0  -8  433.23   25.70
   3   0  -8  517.04   30.17
  -3   0   8  446.43   26.10
   3   0  -8  425.73   15.64
   3   0  -8  485.58   26.70
   3   0  -8  510.69   35.95
  -3   0   8  461.69   28.01
   1  -5   5 5078.08   87.36
   1   5   5 4973.57   74.16
   1   5   5 4695.19   58.28
  -1  -5  -5 5121.28   85.03
   1  -5   5 4870.40   64.68
   1   5   5 4874.66   61.39
  -1  -5  -5 4730.02   70.76
   1  -5   5 4799.14   83.39
   1  -5   5 5049.41   88.09
   1   5   5 5094.89   87.43
  -1  -5  -5 4927.31   76.39
   1  -5   5 5049.74   84.27
   1   5   5 4990.70   83.40
  -1   5  -5 4859.51   87.10
  -1  -5  -5 4821.64   64.79
   1  -5   5 4926.96   84.85
  -3   3  -2  127.08   11.81
  -3  -3  -2  187.31   20.16
  -3   3  -2  123.22   14.49
   3  -3   2  115.83   18.30
   3  -3   2  123.53   18.81
  -3  -3  -2  124.75   17.29
   3   3   2  114.31    8.67
   3  -3   2  113.49   13.48
   3   3   2  137.06   15.48
   3  -3   2  128.58   11.97
   3   3   2  126.94   12.77
   3   3   2  147.21   18.86
  -3  -3  -2  131.44   10.74
  -3   3  -2  120.19   13.29
   3   3   2  131.48   21.33
   3  -3   2  131.45   18.24
   3  -3   2  115.10   14.02
   3  -3  -4 1930.53   45.06
   3  -3  -4 2049.15   50.72
   3   3  -4 1880.42   60.34
  -3   3   4 1831.67   36.08
   3   3  -4 1905.49   51.38
   3  -3  -4 1976.17   53.93
   3   3  -4 1979.05   45.20
  -3  -3   4 1843.44   49.68
   3   3  -4 1922.38   46.48
   3  -3  -4 1993.90   52.20
  -3   3   4 1988.43   48.84
  -3  -3   4 2089.76   55.66
  -3   3   4 1949.63   51.73
   3  -3  -4 1920.28   49.47
  -3  -3   4 1923.96   51.36
   3   3  -4 1801.48   29.66
   3  -3  -4 1940.05   41.81
  -1   2 -11 2453.20   51.13
   1   2  11 2448.44   37.10
   1  -2  11 2610.99   57.68
   1   2  11 2532.05   45.49
   1  -2  11 2739.83   62.34
   1  -2  11 2548.05   46.48
   1  -2  11 2512.35   51.79
  -1   2 -11 2516.62   54.24
  -1  -2 -11 2563.43   49.90
   1  -2  11 2541.25   58.97
   1   2  11 2549.15   59.23
  -1  -2 -11 2616.40   43.78
   1   2  11 2661.74   60.91
  -1   2 -11 2337.44   58.31
   1  -2  11 2488.82   40.32
   1   2  11 2614.69   60.10
  -1  -2 -11 2689.73   61.93
  -2  -2  -9 2325.47   54.81
   2  -2   9 2217.19   52.83
   2   2   9 2270.34   56.42
  -2  -2  -9 2252.29   54.70
   2  -2   9 2154.90   40.87
   2   2   9 2241.89   56.72
   2  -2   9 2216.01   55.29
   2  -2   9 2265.13   44.60
   2   2   9 2189.01   41.70
   2   2   9 2164.11   48.01
  -2  -2  -9 2116.50   34.15
  -2   2  -9 2183.47   44.39
   2  -2   9 2238.92   49.08
   2  -2   9 2148.14   53.44
  -2   2  -9 2161.99   39.85
  -2   2  -9 2298.53   54.92
   2  -3  -9  449.82   27.63
  -2   3   9  436.76   26.61
   2  -3  -9  448.65   26.95
   2  -3  -9  461.39   24.81
   2  -3  -9  428.63   18.80
  -2  -3   9  446.16   24.61
  -2   3   9  472.74   21.09
  -2  -3   9  480.27   22.43
   2   3  -9  508.17  108.06
   2   3  -9  426.29   26.83
   2  -3  -9  450.69   25.45
  -2   3   9  491.19   29.39
   2   3  -9  468.27   23.11
   2  -3  -9  441.58   16.12
  -2  -3   9  466.44   27.93
  -2  -3   9  429.64   29.61
  -2  -3   9  478.98   27.85
   2   3  -9  494.48   27.76
  -2  -1  11  296.85   21.27
  -2   1  11  290.10   23.12
  -2   1  11  257.20   19.52
  -2  -1  11  290.21   21.54
   2  -1 -11  303.15   25.48
   2   1 -11  304.25   25.33
   2  -1 -11  274.18   17.55
   2   1 -11  308.16   21.23
  -2   1  11  276.21   23.98
  -2  -1  11  292.75   22.28
   2  -1 -11  298.77   21.86
  -2  -1  11  278.32   21.96
   2   1 -11  273.25   24.30
   2  -1 -11  262.76   20.49
   2   1 -11  268.51   23.18
   2  -1 -11  308.27   26.71
  -2  -1  11  302.05   21.77
  -2   1  11  273.93   17.33
   3   1   6 8386.33   94.79
   3   1   6 8550.12  113.22
   3  -1   6 8464.66  106.32
   3  -1   6 8397.31  119.47
  -3  -1  -6 8688.58  103.77
  -3   1  -6 8369.58  106.78
   3  -1   6 8392.28  117.02
  -3   1  -6 8457.80  109.08
  -3  -1  -6 8462.72  117.10
   3   1   6 8470.86  117.96
  -3  -1  -6 8379.10  116.50
   3   1   6 8488.88  119.91
   3  -1   6 8658.20  116.08
  -1  -3 -10 1115.63   32.35
  -1   3 -10 1180.37   38.10
   1  -3  10 1077.54   35.64
   1  -3  10 1202.47   37.59
  -1  -3 -10 1137.99   40.51
   1   3  10 1076.21   26.06
   1  -3  10 1106.22   25.24
   1  -3  10 1088.48   39.09
   1  -3  10 1122.04   38.87
   1   3  10 1093.59   37.88
  -1   3 -10 1133.47   41.58
   1  -3  10 1126.86   38.44
  -1  -3 -10 1141.84   28.22
   1   3  10 1098.92   39.25
   1   3  10 1123.79   40.27
  -1  -5   6 1595.76   31.64
  -1   5   6 1571.87   42.00
  -1  -5   6 1654.97   48.55
  -1  -5   6 1573.65   34.33
   1   5  -6 1546.28   45.52
  -1   5   6 1593.27   46.29
  -1  -5   6 1657.29   48.49
   1  -5  -6 1602.85   47.72
  -1  -5   6 1571.90   47.74
   1  -5  -6 1619.61   46.49
  -1  -5   6 1689.66   49.63
  -1  -5   6 1613.16   43.36
   1  -5  -6 1649.26   41.93
   1   5  -6 1558.64   46.46
   1  -5  -6 1637.14   48.69
  -2   0 -10 3202.20   49.20
  -2   0 -10 3158.00   65.39
   2   0  10 3223.52   64.64
   2   0  10 3175.06   67.37
   2   0  10 3198.45   61.24
   2   0  10 3120.52   45.77
   2   0  10 3194.40   60.31
   2   0  10 3186.79   61.68
   3   1  -8 1063.06   24.37
  -3  -1   8 1144.10   39.77
   3  -1  -8 1212.12   44.74
   3   1  -8 1123.11   38.36
   3  -1  -8 1180.40   43.26
  -3  -1   8 1197.45   41.15
  -3   1   8 1140.11   42.13
  -3   1   8 1176.78   37.39
   3  -1  -8 1198.83   39.48
   3   1  -8 1130.93   40.15
   3   1  -8 1126.99   40.33
   3  -1  -8 1044.22   34.51
   3  -1  -8 1063.52   27.73
   3   1  -8 1135.54   45.00
  -3  -1   8 1136.53   40.52
   3  -1  -8 1089.28   40.25
  -3   1   8 1162.38   42.37
  -3  -1   8 1144.88   41.14
   3  -2   5  290.13   16.71
   3  -2   5  289.52   23.39
  -3   2  -5  268.44   18.28
   3  -2   5  291.71   23.37
   3   2   5  281.10   21.70
  -3  -2  -5  278.69   16.35
  -3   2  -5  290.49   17.42
   3  -2   5  269.69   14.73
   3   2   5  294.09   22.07
  -3  -2  -5  270.68   22.01
   3  -2   5  289.13   18.92
  -3  -2  -5  272.40   21.40
   3  -2   5  314.75   20.97
  -3   2  -5  307.73   18.68
   3   2   5  279.12   14.64
   3   2   5  292.15   23.03
   1  -4  -9  229.71   22.05
   1  -4  -9  222.38   20.60
   1   4  -9  250.20   22.80
  -1  -4   9  240.10   15.10
  -1   4   9  200.82   19.30
  -1  -4   9  245.88   20.45
  -1   4   9  199.51   13.75
  -1  -4   9  276.16   21.62
   1  -4  -9  248.65   17.47
   1   4  -9  280.19   22.72
  -1  -4   9  233.86   21.46
  -1  -4   9  222.23   22.70
  -1   4   9  265.56   23.39
  -1  -4   9  241.61   12.17
   1   4  -9  236.32   55.96
   1  -4  -9  243.93   20.07
  -3   2   7 1968.31   53.47
   3  -2  -7 1924.54   52.53
   3   2  -7 1903.71   52.61
   3   2  -7 2024.94   51.93
   3  -2  -7 1958.03   49.71
   3  -2  -7 2005.36   45.34
   3   2  -7 1920.02   32.47
  -3  -2   7 2103.62   56.09
   3   2  -7 2060.16   51.61
  -3  -2   7 1958.92   53.17
  -3   2   7 1895.62   50.30
  -3  -2   7 2010.17   53.31
  -3  -2   7 1937.79   51.02
   3   2  -7 1922.62   54.37
   3  -2  -7 1946.19   54.08
  -3   2   7 1985.35   45.48
   3  -2  -7 1994.34   52.06
   3  -2  -7 1890.74   38.91
   2  -4  -7 1407.85   33.88
  -2  -4   7 1476.76   47.10
   2   4  -7 1389.17   43.71
   2  -4  -7 1495.16   43.37
   2   4  -7 1388.45   37.48
   2  -4  -7 1366.44   26.56
   2   4  -7 1498.25   47.28
  -2  -4   7 1518.12   47.63
  -2   4   7 1467.61   42.58
   2  -4  -7 1498.59   47.88
  -2  -4   7 1399.33   39.24
   2  -4  -7 1392.03   45.30
  -2   4   7 1342.62   27.27
  -2  -4   7 1457.28   46.06
   2  -4  -7 1415.34   42.16
  -2  -4   7 1437.85   46.29
  -2   4   7 1436.75   44.82
  -2  -4   7 1455.63   37.05
   0   2 -12 3149.62   64.79
   0  -2 -12 2897.16   56.34
   0  -2  12 3028.26   48.42
   0   2  12 3070.72   65.67
   0  -2  12 3135.75   69.18
   0   2  12 3093.81   65.36
   0  -2  12 2934.17   53.95
   0  -2 -12 2890.97   61.77
   0   2  12 3038.29   47.34
   0  -2 -12 2967.99   66.16
   0  -2  12 2978.29   63.92
   0  -2  12 3081.56   63.24
   0   2 -12 3069.40   65.39
   0   2  12 3007.26   66.60
   0   2 -12 2991.06   66.40
   0   3 -11 5769.22   93.51
   0  -3 -11 5617.69   83.22
   0   3  11 5646.31   86.68
   0   3 -11 5640.77   92.97
   0  -3 -11 5667.19   95.57
   0  -3  11 5612.89   91.18
   0  -3 -11 5693.07   89.61
   0  -3  11 5587.76   93.62
   0  -3  11 5497.30   88.46
   0   3  11 5565.43   94.36
   0   3  11 5666.89   95.03
   0  -3  11 5746.56   93.43
   0  -3  11 5635.41   74.54
   0   3 -11 6038.26   98.11
  -1   0 -12  120.21   12.55
   1   0  12   86.27   10.94
  -1   0 -12   94.19   17.67
   1   0  12  107.25    9.30
   1   0  12  127.83   18.74
  -1   0 -12   93.30   12.20
   1   0  12  108.13   15.10
   1   0  12  109.01   14.77
  -2   5   1 1740.32   35.43
  -2  -5   1 1743.60   46.38
  -2  -5   1 1788.40   43.98
   2  -5  -1 1831.30   49.15
  -2  -5   1 1786.14   44.87
  -2  -5   1 1762.08   47.38
   2  -5  -1 1727.45   49.61
   2  -5  -1 1709.78   48.46
  -2  -5   1 1799.42   46.34
  -2   5   1 1804.94   43.41
   2  -5  -1 1741.46   50.07
  -2  -5   1 1839.18   45.26
  -2  -5   1 1793.24   47.05
  -2  -5   1 1775.60   47.51
   2  -5  -1 1786.38   45.96
   2  -5  -1 1834.82   42.08
  -2  -5   1 1838.97   47.66
   2   3   8 1836.11   93.40
  -2   3  -8 1575.61   29.14
   2  -3   8 1771.67   50.50
   2   3   8 1639.65   34.37
   2  -3   8 1596.04   29.07
  -2  -3  -8 1748.05   46.91
  -2  -3  -8 1609.55   30.40
   2  -3   8 1698.89   45.98
  -2   3  -8 1709.08   48.32
   2   3   8 1651.77   40.60
   2  -3   8 1627.27   48.02
   2  -3   8 1618.56   42.52
   2   3   8 1768.17   49.96
   2  -3   8 1632.31   41.37
  -2  -3  -8 1615.05   47.71
  -2   3  -8 1620.70   40.78
   2  -5   0  170.48   19.22
  -2   5   0  129.06   13.73
  -2  -5   0  113.38   14.03
   2  -5   0  106.84   16.14
  -2  -5   0  101.47   14.13
   2  -5   0  111.98   17.20
  -2  -5   0  126.86   15.55
  -2  -5   0  117.66   14.49
  -2   5   0  121.62    9.77
  -2  -5   0  141.84   15.95
   2  -5   0  103.79   12.75
   2  -5   0  128.16   16.64
  -2  -5   0  114.62   13.96
  -2  -5   0  134.14   13.85
  -2  -5   0  109.29   14.63
  -2  -5   0  125.33   14.51
   2  -5   0  105.39   14.83
   3  -3   3  180.56   15.66
   3  -3   3  197.22   20.13
   3   3   3  196.39   14.82
   3  -3   3  185.20   14.73
   3   3   3  228.86   53.94
   3  -3   3  182.43   16.34
  -3  -3  -3  203.11   20.15
  -3   3  -3  204.71   16.74
   3   3   3  177.59   16.39
  -3   3  -3  199.36   13.90
  -3  -3  -3  167.52   19.71
  -3   3  -3  196.94   16.46
  -3  -3  -3  186.37   13.69
   3  -3   3  180.77   20.02
   3  -3   3  184.75   17.72
   3   3   3  198.11   18.55
   3   3  -5 1441.77   40.39
   3  -3  -5 1491.90   45.93
   3  -3  -5 1446.06   46.31
   3   3  -5 1376.76   44.54
   3   3  -5 1444.14   42.61
   3   3  -5 1297.95   25.87
   3   3  -5 1335.15   44.76
  -3  -3   5 1434.25   47.29
  -3   3   5 1369.38   40.79
  -3  -3   5 1461.48   45.23
  -3  -3   5 1389.19   43.20
  -3  -3   5 1408.91   46.32
  -3   3   5 1396.17   32.43
   3  -3  -5 1444.36   36.83
   3  -3  -5 1384.12   41.56
  -3   3   5 1398.18   43.89
   3  -3  -5 1451.46   44.14
   3  -3  -5 1350.79   36.51
   0  -5  -7  527.89   31.51
   0  -5   7  493.16   23.05
   0  -5   7  493.99   27.49
   0  -5   7  480.16   27.94
   0  -5   7  473.82   28.87
   0  -5  -7  481.77   19.84
   0   5   7  445.77   18.57
   0  -5   7  437.25   26.61
   0  -5  -7  441.21   23.59
   0   5  -7  481.87   27.81
   0   5   7  448.83   26.36
   0  -5   7  480.92   26.90
   0  -5  -7  514.44   27.28
   2   1  10   39.41   11.50
  -2   1 -10   30.94    8.08
  -2   1 -10   47.26   15.05
   2  -1  10   48.52   10.56
   2  -1  10   56.31   14.18
   2   1  10   39.54   10.72
   2   1  10   59.34   13.89
  -2  -1 -10   34.67   17.31
   2   1  10   35.38   11.22
  -2  -1 -10   31.61    7.26
   2   1  10   32.43    8.85
  -2   1 -10   35.15    7.44
   2  -1  10   29.06    7.18
   2  -1  10   44.79   11.49
   2  -1  10   45.57   14.76
   2  -1  10   36.71    9.92
   2  -5  -2  376.04   25.23
   2  -5  -2  387.79   22.00
  -2  -5   2  367.30   23.14
  -2  -5   2  370.71   23.18
  -2   5   2  331.00   16.91
  -2  -5   2  376.07   20.61
  -2   5   2  373.12   22.76
  -2  -5   2  364.06   23.39
  -2  -5   2  362.22   24.08
  -2  -5   2  329.47   20.41
   2  -5  -2  399.39   25.48
   2  -5  -2  376.36   25.15
  -2  -5   2  343.11   21.29
   2  -5  -2  358.82   18.41
   2  -5  -2  382.33   25.39
  -2  -5   2  363.56   21.84
  -2  -5   2  364.82   26.18
  -2  -4  -6  546.68   26.69
  -2   4  -6  608.60   29.61
  -2  -4  -6  583.10   20.27
   2  -4   6  595.82   31.09
   2   4   6  609.43   24.82
   2  -4   6  604.44   30.58
   2   4   6  695.29  114.68
   2  -4   6  638.15   28.47
   2   4   6  617.78   22.08
   2   4   6  617.45   30.56
   2  -4   6  623.11   24.59
  -2  -4  -6  582.30   17.56
   2  -4   6  628.86   28.42
   2  -4   6  609.18   30.61
  -2  -4  -6  570.47   29.88
   2  -5   1 1965.34   51.90
   2  -5   1 1837.54   51.50
  -2   5  -1 1961.36   40.44
  -2  -5  -1 1873.01   49.11
  -2  -5  -1 2011.81   50.34
  -2  -5  -1 1901.30   43.58
   2  -5   1 2023.12   53.43
  -2   5  -1 2197.88  147.30
  -2  -5  -1 2007.02   47.58
  -2  -5  -1 1954.46   45.03
  -2  -5  -1 1877.95   49.64
  -2  -5  -1 1916.28   43.96
   2   5   1 1971.51   48.37
   2  -5   1 1946.09   50.09
   2  -5   1 1989.36   48.11
  -1   2  12  583.81   31.72
   1   2 -12  615.14   29.74
   1  -2 -12  547.44   31.61
   1  -2 -12  510.67   35.92
  -1  -2  12  574.14   28.35
  -1  -2  12  589.60   28.27
  -1  -2  12  511.72   21.80
   1   2 -12  560.80   29.96
  -1  -2  12  533.31   29.74
   1  -2 -12  584.01   30.29
  -1   2  12  534.63   18.60
  -1   2  12  542.13   27.49
   1  -2 -12  568.16   23.41
   1   2 -12  647.60   33.73
   1  -2 -12  526.39   31.82
  -1  -2  12  562.84   28.68
   1   2 -12  563.39   30.32
  -1   2  12  560.19   31.64
   0  -6   0 5746.03   90.68
   0  -6   0 5757.12   79.72
   0   6   0 5671.58   74.24
   0  -6   0 5972.35   96.95
   0  -6   0 5466.80   64.63
   0  -6   0 5806.74   84.95
   0  -6   0 6096.99   98.00
   0  -6   0 5545.13   92.71
   1  -3 -11  817.75   36.73
   1   3 -11  879.94   37.27
   1  -3 -11  790.69   33.98
  -1  -3  11  746.55   23.54
  -1   3  11  820.96   39.46
  -1  -3  11  811.37   35.59
  -1  -3  11  750.55   38.23
   1   3 -11  821.62   35.91
  -1   3  11  824.44   36.18
  -1  -3  11  750.95   28.18
   1   3 -11  803.02   33.31
  -1  -3  11  829.48   35.49
   1  -3 -11  787.88   33.97
   1  -3 -11  787.42   26.33
  -1  -3  11  774.64   33.78
  -1   3  11  750.08   28.43
  -1   5  -6  182.85   19.92
   1  -5   6  147.49   19.06
   1   5   6  165.73   18.19
   1  -5   6  134.33   17.96
   1   5   6  152.01   32.20
  -1  -5  -6  139.90   17.43
   1  -5   6  147.41   12.65
   1   5   6  134.11   15.42
   1  -5   6  129.73   16.78
   1   5   6  117.96    9.04
  -1  -5  -6  127.94   10.00
   1  -5   6  160.23   18.88
  -1  -5  -6  147.30   15.10
   1  -5   6  193.36   23.50
  -1  -5  -6  133.81   12.65
   1  -1  12   42.38   13.26
   1   1  12   25.93   12.36
  -1  -1 -12   35.35   12.48
   1   1  12   33.93    9.70
  -1   1 -12   42.58   12.91
  -1  -1 -12   56.03   16.76
   1  -1  12   46.24   10.82
   1   1  12   31.49    7.51
   1   1  12   21.99   13.22
   1  -1  12   53.89   14.84
   1  -1  12   39.04    8.20
  -1   1 -12   37.99   12.85
   1  -1  12   29.47    9.02
  -1  -1 -12   29.35   10.13
   0  -6  -1 1797.23   50.95
   0  -6   1 1795.59   48.76
   0  -6   1 1904.63   52.06
   0   6   1 1871.21   41.60
   0  -6   1 1934.09   52.46
   0  -6  -1 1818.59   46.86
   0   6   1 1799.02   33.55
   0  -6  -1 1907.78   51.56
   0  -6  -1 1873.97   42.97
   0  -6   1 1811.70   34.18
   0  -6   1 1848.76   46.17
   0  -6  -1 1966.36   54.05
   0  -6  -1 1867.84   40.33
   0  -6   1 1880.02   43.76
   0   6  -1 1798.47   35.78
   0   0  13   25.11   14.08
   0   0  13    0.72    8.71
   0   0 -13    3.21   12.46
   0   0 -13    8.87    6.05
   0   0  13   14.30   10.86
   0   0  13   23.10   12.60
   0   0 -13   36.38   13.47
   0   0  13    6.02    9.33
   0   0 -13   17.04   13.00
  -2  -5   3  956.45   35.29
   2  -5  -3  986.47   36.06
  -2  -5   3  990.99   37.44
  -2   5   3  956.16   30.01
   2  -5  -3  956.51   28.84
  -2  -5   3  908.30   33.10
   2  -5  -3 1009.64   38.78
  -2  -5   3 1021.03   36.78
  -2  -5   3  887.39   32.43
  -2  -5   3  918.94   35.72
   2  -5  -3 1032.20   38.83
   2   5  -3 1046.32   52.18
   2   5  -3  919.64   57.16
  -2   5   3  997.53   34.40
   2  -5  -3  949.16   31.76
   2  -5  -3 1053.75   39.34
  -3   0  -7 1151.77   34.94
   3   0   7 1156.87   38.68
  -3   0  -7 1126.99   37.41
   3   0   7 1156.06   42.01
  -3   0  -7 1102.42   37.19
   3   0   7 1155.50   41.02
   3   0   7 1133.82   30.84
  -2  -5  -2  511.35   22.77
  -2   5  -2  587.94  102.70
   2   5   2  534.24   93.34
   2  -5   2  509.03   28.85
  -2   5  -2  499.34   19.65
  -2  -5  -2  471.83   21.70
   2  -5   2  519.46   27.86
  -2  -5  -2  520.43   27.95
   2  -5   2  489.39   26.97
  -2  -5  -2  524.37   22.70
   2  -5   2  519.99   27.03
  -2  -5  -2  482.84   27.42
   2   5   2  495.84   88.80
   2   5   2  494.55   89.48
  -2  -5  -2  501.84   25.96
   2  -5   2  481.62   26.83
   3   0  -9  727.20   33.76
  -3   0   9  699.68   32.98
   3   0  -9  671.02   32.24
   3   0  -9  681.94   30.27
  -3   0   9  682.55   35.07
  -3   0   9  639.29   30.48
   3   0  -9  742.22   35.57
   3   0  -9  670.36   21.61
   3   0  -9  702.95   35.26
   0  -6   2 2767.09   63.36
   0  -6   2 2662.98   57.46
   0  -6  -2 2691.75   50.72
   0  -6   2 2744.24   63.07
   0  -6  -2 2735.46   46.69
   0   6  -2 2622.07   41.96
   0   6   2 2678.28   51.80
   0  -6  -2 2869.39   63.57
   0  -6  -2 2652.53   63.48
   0   6   2 2599.02   39.49
   0  -6   2 2679.09   44.16
   0  -6  -2 2647.17   55.95
   0  -6   2 2708.13   61.97
   0  -6   2 2756.91   56.30
   0  -6   2 2792.14   64.47
   0  -6  -2 2759.64   61.66
   1   0 -13   96.35   16.52
  -1   0  13  120.43   15.05
   1   0 -13  102.87   16.52
  -1   0  13   90.50   14.68
  -1   0  13  112.19   16.47
   1   0 -13  102.87   19.58
  -1   0  13  115.75   17.18
  -1   0  13  107.72   13.71
   1   0 -13  121.28   14.39
   1  -5  -7  425.26   26.70
   1   5  -7  346.49   23.66
  -1  -5   7  406.87   24.64
  -1  -5   7  370.59   26.25
  -1   5   7  339.37   24.19
  -1  -5   7  335.20   14.35
   1  -5  -7  376.97   20.62
   1  -5  -7  403.60   25.90
   1   5  -7  384.34   75.08
  -1   5   7  370.68   23.64
  -1  -5   7  363.95   17.91
   1  -5  -7  359.18   24.33
  -1  -5   7  358.53   25.21
  -1  -5   7  363.71   25.54
  -1  -5   7  360.37   26.11
  -1   4  -9 2990.94   67.23
   1  -4   9 3019.41   64.33
  -1  -4  -9 2947.96   50.16
   1  -4   9 2988.30   67.59
  -1  -4  -9 3028.64   56.49
  -1   4  -9 3203.98   68.09
   1   4   9 3037.72   61.55
   1   4   9 3135.26   69.85
   1  -4   9 2983.15   66.97
   1   4   9 3059.57   68.97
   1  -4   9 3077.30   61.48
   1  -4   9 3005.22   65.32
  -1  -4  -9 3065.39   67.68
   2  -2 -11   95.95   19.65
  -2  -2  11  123.88   18.02
   2  -2 -11   74.05   13.83
   2  -2 -11   89.24   10.82
  -2  -2  11  112.06   14.86
  -2   2  11   85.00   17.69
  -2  -2  11  109.77   13.72
   2  -2 -11  104.33   18.78
  -2   2  11  119.89   14.31
  -2   2  11  114.46   18.25
  -2  -2  11   97.23   15.11
   2   2 -11  110.90   17.80
   2   2 -11  115.24   14.45
  -2  -2  11  108.05   17.72
   2   2 -11  123.92   19.44
   2  -2 -11   79.56   14.98
   2   2 -11  104.29   18.27
   2  -2 -11  121.81   19.19
  -3  -3  -4  447.29   20.07
  -3  -3  -4  475.02   29.26
   3   3   4  426.41   26.71
   3   3   4  405.92   18.35
   3  -3   4  403.36   20.51
   3  -3   4  450.88   27.54
  -3   3  -4  428.68   21.35
  -3  -3  -4  447.14   27.98
  -3   3  -4  434.44   18.91
   3  -3   4  440.89   23.16
   3   3   4  472.05   27.33
   3  -3   4  408.85   20.99
   3  -3   4  451.63   26.35
  -3   3  -4  420.94   22.14
   3  -3   4  439.69   27.65
   3   3   4  471.93   24.76
   0   1  13  663.28   31.97
   0   1 -13  580.21   29.94
   0  -1  13  611.33   25.91
   0  -1 -13  598.72   20.46
   0   1  13  601.14   21.11
   0  -1  13  606.22   24.83
   0  -1 -13  626.77   30.22
   0  -1  13  637.91   29.31
   0  -1 -13  623.90   28.93
   0  -1  13  568.45   26.91
   0  -1  13  627.34   28.01
   0   1 -13  641.66   29.87
   0   1  13  614.97   28.84
   0  -1  13  627.74   32.05
   0   1  13  617.86   24.23
   0  -1 -13  665.41   32.86
   0   1  13  579.55   29.62
   0   1 -13  591.96   31.91
  -3  -2  -6 6213.20  100.37
  -3   2  -6 6063.00   82.52
   3  -2   6 6037.23   99.81
   3   2   6 6358.52   94.00
   3  -2   6 6173.67  100.26
  -3   2  -6 6028.31   85.13
   3  -2   6 6169.26   92.57
   3  -2   6 6188.68   92.53
  -3  -2  -6 6161.75   83.86
  -3   2  -6 6129.60   88.35
   3  -2   6 6098.58   79.08
   3   2   6 5969.93   71.57
   3   2   6 6376.38  103.23
  -3  -2  -6 6340.71  101.38
   3  -2   6 6118.25   75.26
   3   2   6 6165.60   97.73
  -3   3   6  421.50   18.69
  -3  -3   6  431.15   26.96
   3  -3  -6  437.91   27.76
   3   3  -6  436.37   25.91
   3   3  -6  445.78   28.62
   3  -3  -6  401.96   20.33
   3  -3  -6  366.48   23.24
  -3   3   6  441.61   26.61
  -3  -3   6  440.76   27.45
   3   3  -6  371.46   14.61
   3  -3  -6  431.18   21.59
   3  -3  -6  405.14   27.24
   3   3  -6  460.61   25.71
   3  -3  -6  480.00   26.96
   3   3  -6  503.36   87.85
  -3  -3   6  438.09   27.69
  -3   3   6  437.61   24.91
  -3  -3   6  459.87   26.77
   0  -4 -10 1495.50   48.52
   0   4 -10 1360.58   44.85
   0  -4  10 1333.56   27.66
   0   4  10 1352.05   45.66
   0  -4  10 1444.67   47.91
   0  -4 -10 1460.59   43.00
   0   4 -10 1389.00   45.83
   0  -4  10 1408.44   46.17
   0  -4  10 1408.42   44.77
   0  -4  10 1453.79   44.09
   0   4  10 1362.55   38.58
   0  -4 -10 1390.21   39.60
   0   4  10 1368.16   45.76
   0   4 -10 1433.86   45.69
   3  -2  -8 2104.34   46.79
   3   2  -8 2091.40   55.18
   3  -2  -8 2241.36   59.44
   3   2  -8 2198.43   54.56
   3  -2  -8 2148.90   51.82
   3   2  -8 2145.08   57.91
  -3  -2   8 2267.79   55.97
  -3  -2   8 2135.81   56.66
  -3   2   8 2126.46   56.76
   3  -2  -8 2163.20   44.14
   3   2  -8 2161.14   58.32
  -3   2   8 2089.36   47.60
   3   2  -8 2103.75   37.36
   3  -2  -8 2192.06   56.68
   3  -2  -8 2258.03   59.94
  -3  -2   8 2206.79   58.53
  -3   2   8 2186.63   57.39
  -3  -2   8 2271.85   58.02
   3   1   7 2343.79   54.34
   3  -1   7 2428.87   51.07
   3   1   7 2582.09   61.82
   3  -1   7 2409.76   60.03
  -3   1  -7 2484.24   53.84
   3  -1   7 2440.17   59.18
  -3  -1  -7 2414.52   58.02
  -3  -1  -7 2446.23   58.64
   3   1   7 2429.38   60.45
   3  -1   7 2332.37   37.55
  -3  -1  -7 2446.25   50.94
  -3   1  -7 2404.55   53.54
  -3   1  -7 2355.08   51.98
   3  -1   7 2414.74   58.06
   3   1   7 2354.87   41.69
  -2  -5   4 1878.28   49.91
   2  -5  -4 2002.22   56.33
   2   5  -4 1974.47   51.80
  -2  -5   4 1951.37   45.89
  -2  -5   4 1950.42   48.17
  -2   5   4 1960.86   49.92
   2  -5  -4 1969.98   45.04
   2  -5  -4 1966.28   51.81
   2  -5  -4 1828.50   35.91
  -2   5   4 1925.84   45.24
  -2  -5   4 1910.72   52.07
   2  -5  -4 1981.36   54.41
   2   5  -4 1838.33   45.09
  -2  -5   4 2000.02   53.86
   2   5  -4 1900.28   48.48
  -2  -5   4 1998.02   53.25
   2  -5  -4 1981.11   53.01
   2  -4  -8   86.87   17.09
  -2   4   8  117.15   19.56
  -2  -4   8   99.14   13.19
  -2  -4   8  126.78   18.49
  -2   4   8  109.84    9.72
  -2   4   8  101.55   16.55
  -2  -4   8  106.14   12.59
  -2  -4   8  110.87   17.89
   2   4  -8  103.74   15.40
   2   4  -8  117.91   15.70
   2  -4  -8  112.87   17.39
   2  -4  -8   90.75   10.63
   2   4  -8   98.47   16.85
   2  -4  -8  104.81   18.83
  -2  -4   8  122.87   18.89
   2  -4  -8  121.34   18.23
   3   1  -9  522.15   30.72
  -3  -1   9  574.53   28.79
   3  -1  -9  567.61   31.62
   3   1  -9  578.70   30.49
  -3  -1   9  590.68   30.42
   3  -1  -9  542.67   33.73
  -3   1   9  549.66   29.83
  -3   1   9  613.41   32.75
   3  -1  -9  598.88   32.41
   3  -1  -9  557.45   21.63
  -3  -1   9  585.89   31.31
   3   1  -9  539.39   19.63
   3  -1  -9  529.00   26.54
   3  -1  -9  555.50   31.45
  -3   1   9  592.04   28.06
  -3  -1   9  580.98   30.67
   3   1  -9  594.53   39.33
   3   1  -9  630.89   36.63
  -2   0  12  361.56   28.14
   2   0 -12  342.12   23.53
   2   0 -12  345.19   26.49
  -2   0  12  358.89   25.79
  -2   0  12  350.15   21.50
  -2   0  12  329.75   23.48
   2   0 -12  360.85   26.53
   2   0 -12  342.18   21.54
  -2   0  12  356.21   23.27
   0  -6   3 1104.66   37.30
   0  -6  -3 1138.47   40.33
   0  -6   3 1136.60   42.14
   0  -6   3 1047.99   39.86
   0  -6  -3 1089.51   26.92
   0  -6  -3 1126.11   35.65
   0   6  -3 1110.75   26.62
   0  -6  -3 1141.77   31.06
   0  -6   3 1117.67   29.43
   0   6   3 1028.20   24.13
   0  -6   3 1125.65   41.79
   0   6  -3 1181.09   45.63
   0  -6  -3 1143.99   39.72
   0  -6   3 1133.20   38.97
   0  -6  -3 1180.91   42.82
   0   6   3 1126.75   35.08
   2   3 -10 1482.79   41.00
  -2  -3  10 1286.15   36.35
  -2   3  10 1392.25   46.63
  -2  -3  10 1342.99   46.80
   2  -3 -10 1337.62   32.09
   2  -3 -10 1428.72   47.25
  -2   3  10 1317.43   36.06
   2  -3 -10 1414.83   43.56
  -2  -3  10 1329.02   45.66
   2   3 -10 1548.66   89.38
   2  -3 -10 1278.32   40.68
   2   3 -10 1375.29   45.74
   2  -3 -10 1369.13   46.78
   2  -3 -10 1251.93   26.95
  -2   3  10 1402.22   45.89
  -2  -3  10 1375.96   41.75
  -2  -3  10 1354.50   45.83
   1  -1 -13  900.52   37.16
   1   1 -13  949.61   38.22
  -1   1  13  853.71   29.61
  -1   1  13  923.24   37.92
   1  -1 -13  863.05   36.01
  -1  -1  13  841.76   32.95
   1  -1 -13  821.28   37.17
   1   1 -13  899.83   38.53
  -1  -1  13  871.35   30.76
   1   1 -13  989.99   38.88
   1  -1 -13  878.88   30.03
   1   1 -13  988.25   36.64
  -1   1  13  946.35   36.72
  -1  -1  13  935.26   35.75
  -1   1  13  933.55   35.80
  -1   1  13  880.81   26.66
  -1  -1  13  908.39   37.09
  -1  -1  13  926.78   34.65
   2  -5   3 7570.98  108.14
   2   5   3 7364.55   96.15
   2  -5   3 7377.91  109.55
   2  -5   3 7474.90  113.16
   2   5   3 7202.00   96.95
  -2  -5  -3 7153.80   92.04
  -2  -5  -3 7225.45  101.68
  -2  -5  -3 7162.36   90.34
   2   5   3 7070.65   89.82
   2  -5   3 7412.99  110.87
  -2   5  -3 7044.25   80.63
  -2  -5  -3 7642.92  113.88
   2   5   3 7541.50  108.33
   2  -5   3 7582.73  109.64
  -2  -5  -3 6994.92  105.18
  -2   5  -3 7319.50  111.10
   2  -2  10 2957.40   64.83
   2  -2  10 2803.98   49.86
   2   2  10 2859.31   57.33
  -2  -2 -10 2779.80   43.14
   2   2  10 2964.03   67.16
  -2   2 -10 2895.85   66.59
  -2  -2 -10 3047.28   65.11
   2   2  10 2929.70   49.73
   2  -2  10 2793.22   48.61
   2   2  10 3240.99  177.97
   2  -2  10 2881.54   57.30
  -2   2 -10 2733.48   52.33
   2  -2  10 2968.12   66.56
   2  -2  10 2893.71   51.93
   2   2  10 3022.69   68.80
   2  -2  10 2869.79   63.79
  -1  -6   0 5172.87   79.49
  -1   6   0 4905.03   61.34
  -1  -6   0 5130.70   87.91
   1  -6   0 4870.80   88.74
   1  -6   0 4979.82   79.95
  -1  -6   0 4968.97   78.39
   1   6   0 5219.35   80.89
   1  -6   0 5063.19   90.05
  -1  -6   0 5237.45   87.44
  -1  -6   0 5169.45   86.19
  -1   6   0 5069.94   72.49
   1   6   0 4947.08   76.93
  -1  -6   0 5014.03   74.42
   1  -6   0 5281.65   89.79
  -1  -6   0 5209.95   85.16
   1  -6   0 5129.11   91.01
   1  -6   0 5040.80   74.51
  -1  -6   1  323.72   22.63
  -1  -6   1  310.24   22.57
  -1  -6   1  333.77   23.22
   1  -6  -1  358.13   27.33
  -1  -6   1  326.50   22.89
   1  -6  -1  323.62   19.85
   1   6  -1  339.46   70.27
   1  -6  -1  370.92   26.00
  -1  -6   1  316.00   23.48
   1  -6  -1  290.97   16.86
   1   6  -1  319.72   68.95
  -1  -6   1  305.80   22.28
  -1   6   1  308.20   16.16
  -1  -6   1  302.48   18.68
   1  -6  -1  293.94   22.17
   1  -6  -1  279.78   22.81
  -1   6   1  323.18   19.84
  -1  -4  10 1462.48   47.37
   1  -4 -10 1449.57   48.95
   1  -4 -10 1373.44   45.79
   1   4 -10 1473.26   45.74
  -1   4  10 1556.17   52.52
  -1  -4  10 1456.09   35.91
  -1  -4  10 1559.26   47.42
  -1   4  10 1484.96   49.54
  -1   4  10 1474.24   36.29
  -1  -4  10 1446.76   64.99
  -1  -4  10 1399.82   29.06
   1   4 -10 1732.01  153.39
   1  -4 -10 1484.65   45.82
   1   4 -10 1490.26   48.71
  -1  -4  10 1598.84   50.66
   1  -4 -10 1537.05   38.72
   0  -5   8   45.15   15.91
   0  -5   8   43.30   14.33
   0  -5  -8   66.31   14.21
   0  -5   8   45.32   11.55
   0  -5   8   84.39   16.53
   0  -5   8   73.28   16.14
   0  -5  -8   63.81   14.79
   0  -5  -8   35.09   14.70
   0   5   8   51.27   14.76
   0   5   8   54.33    9.60
   0   5  -8   67.21   15.47
   0   5  -8   51.13    9.33
   0  -5  -8   56.53    9.18
  -2  -4  -7 1460.43   43.64
   2  -4   7 1405.40   42.41
   2  -4   7 1349.24   40.85
   2  -4   7 1452.67   38.52
   2  -4   7 1353.99   45.21
   2   4   7 1382.92   36.47
  -2   4  -7 1521.64   47.67
   2   4   7 1372.62   31.36
  -2  -4  -7 1382.27   31.74
   2  -4   7 1390.93   44.78
   2   4   7 1366.04   45.82
   2  -4   7 1461.64   47.59
  -2  -4  -7 1470.14   48.34
   2   4   7 1411.23   44.42
   2  -1 -12  759.14   36.25
   2  -1 -12  740.65   32.93
  -2  -1  12  662.38   30.14
   2   1 -12  668.13   36.76
  -2  -1  12  677.35   30.42
  -2  -1  12  732.69   34.18
   2   1 -12  720.19   33.49
  -2   1  12  662.90   34.23
  -2   1  12  694.66   26.93
   2  -1 -12  687.77   34.02
   2   1 -12  625.51   33.53
  -2   1  12  696.90   34.54
  -2  -1  12  688.59   30.90
  -2  -1  12  713.52   32.91
   2  -1 -12  690.61   30.44
   2  -1 -12  673.90   42.83
   2   1 -12  662.10   29.10
  -2   1  12  683.37   32.98
   1   6   1 3162.23   62.55
  -1  -6  -1 3172.52   62.35
   1  -6   1 3266.88   72.65
   1  -6   1 3316.23   72.44
  -1  -6  -1 3207.92   65.48
  -1  -6  -1 3217.55   58.65
   1  -6   1 3059.90   63.39
  -1  -6  -1 3038.34   57.33
   1  -6   1 3164.86   59.97
   1   6   1 3094.38   56.90
   1  -6   1 3309.83   71.94
  -1  -6  -1 3235.59   64.87
  -1   6  -1 3168.84   51.97
   1   6   1 3166.45   60.47
  -1  -6  -1 3348.01   70.14
   1  -6   1 3443.76   73.20
   3   4  -1  221.69   17.03
  -3  -4   1  254.58   23.31
   3  -4  -1  272.33   23.61
   3   4  -1  255.18   16.13
   3  -4  -1  240.56   19.75
   3  -4  -1  271.48   22.30
   3   4  -1  258.05   23.06
  -3  -4   1  232.68   13.92
   3   4  -1  277.67   60.91
   3  -4  -1  233.80   19.20
  -3  -4   1  235.13   21.32
  -3   4   1  242.72   16.89
  -3  -4   1  233.49   21.52
   3   4  -1  244.26   19.09
  -3   4   1  257.89   25.41
   3  -4  -1  247.00   21.06
  -3   4   1  246.64   19.73
   1  -5   7   65.51   16.78
   1  -5   7   55.38   12.80
   1   5   7   89.10   15.10
   1   5   7   73.23   16.38
   1  -5   7   78.43   16.15
   1  -5   7   81.75   11.38
   1   5   7   80.53   14.05
   1  -5   7   71.44   14.24
  -1  -5  -7   72.86   11.14
  -1   5  -7   82.86   18.57
  -1  -5  -7   62.62   14.16
  -1  -5  -7   51.13    6.85
   1  -5   7   61.79   11.42
  -1  -5  -7   81.75   16.33
   1  -3  11  198.30   20.99
   1   3  11  226.73   24.43
   1  -3  11  189.56   12.21
   1   3  11  196.71   19.27
  -1   3 -11  160.73   19.64
  -1  -3 -11  199.32   21.92
   1  -3  11  199.01   18.91
   1  -3  11  172.52   17.80
   1  -3  11  191.10   19.66
   1   3  11  166.98   18.80
  -1  -3 -11  183.08   13.13
  -1   3 -11  197.37   35.52
   1   3  11  168.17   11.13
  -1  -3 -11  183.83   16.05
  -1   3 -11  197.86   18.27
   1  -2  12 3435.35   68.60
   1   2  12 3586.27   75.21
  -1  -2 -12 3320.92   61.79
  -1   2 -12 3428.42   74.85
   1  -2  12 3330.85   50.43
   1   2  12 3447.65   71.87
   1  -2  12 3417.38   58.49
  -1  -2 -12 3291.43   52.71
  -1   2 -12 3346.34   62.69
  -1   2 -12 3309.38   65.58
  -1  -2 -12 3272.04   71.05
   1  -2  12 3472.29   64.59
   1  -2  12 3456.57   72.95
   1   2  12 3434.49   71.78
   1   2  12 3353.75   55.65
   1  -2  12 3456.53   72.22
  -1   6   2  535.75   25.67
   1  -6  -2  574.28   31.03
  -1  -6   2  489.14   22.95
  -1  -6   2  551.94   28.73
   1  -6  -2  521.68   27.36
   1  -6  -2  536.94   32.02
   1  -6  -2  519.32   29.81
  -1  -6   2  510.12   22.31
  -1  -6   2  507.14   25.93
  -1  -6   2  596.52   31.54
  -1  -6   2  547.22   30.91
  -1  -6   2  600.78   30.62
  -1   6   2  548.78   21.70
   1  -6  -2  488.34   22.94
  -1  -6   2  453.52   24.32
   1  -6  -2  477.53   19.51
   1   6  -2  533.63   23.33
  -3  -4   0  831.30   25.26
   3   4   0  847.61   34.16
   3   4   0  851.07   26.16
   3  -4   0  858.55   34.01
  -3  -4   0  858.28   36.76
   3   4   0  853.27   32.21
   3   4   0  833.29   27.63
   3  -4   0  838.12   34.84
   3  -4   0  880.46   35.05
  -3   4   0  883.69   28.42
   3  -4   0  791.30   21.31
  -3  -4   0  854.89   37.25
  -3  -4   0  864.41   40.07
   3  -4   0  808.44   34.76
   3   4   0  846.26   39.78
  -3   4   0  875.29   32.94
  -3   4   0  829.82   36.35
   3  -4   0  784.93   35.22
   2  -3   9  263.55   22.54
  -2   3  -9  254.89   45.38
   2   3   9  297.78   49.48
   2  -3   9  269.56   18.27
   2  -3   9  243.68   19.14
  -2  -3  -9  263.23   21.78
  -2   3  -9  284.21   25.77
   2   3   9  298.64   25.79
   2   3   9  221.06   13.40
  -2  -3  -9  215.53   11.81
   2  -3   9  212.85   11.71
   2   3   9  255.91   18.18
   2   3   9  273.97   24.84
   2  -3   9  259.74   19.74
   2  -3   9  260.11   23.27
   3   4  -2  267.83   17.27
   3  -4  -2  261.95   21.52
   3   4  -2  212.79   40.14
  -3  -4   2  317.80   27.29
   3   4  -2  304.42   58.94
   3  -4  -2  256.88   23.84
   3  -4  -2  258.75   19.09
  -3   4   2  253.03   18.37
   3   4  -2  290.44   48.31
   3  -4  -2  259.19   22.63
  -3   4   2  246.32   18.90
  -3  -4   2  274.86   22.36
   3   4  -2  270.09   20.72
   3  -4  -2  265.63   19.26
  -3  -4   2  271.37   22.52
   3  -4  -2  261.75   20.91
   3   4  -2  272.02   20.98
   2  -5  -5 1733.09   51.82
   2   5  -5 1778.43   50.89
  -2   5   5 1747.25   50.29
  -2  -5   5 1766.00   51.65
   2  -5  -5 1765.59   41.64
   2  -5  -5 1770.79   50.95
   2   5  -5 1727.72   44.40
  -2  -5   5 1780.30   45.56
  -2  -5   5 1685.68   42.15
  -2  -5   5 1717.67   51.29
   2  -5  -5 1644.28   32.56
   2  -5  -5 1753.15   51.14
   2   5  -5 1760.34   48.68
  -2   5   5 1703.53   44.22
  -2  -5   5 1819.21   56.93
   2  -5  -5 1750.75   49.80
  -2  -5   5 1670.96   48.18
   2   0  11   59.08   13.52
   2   0  11   61.22   12.74
   2   0  11   44.86   12.17
   2   0  11   69.62   16.12
   2   0  11   56.13    7.89
  -2   0 -11   70.62   11.58
   2   0  11   70.92   13.54
  -2   0 -11   81.00   17.07
   0   6  -4 3316.15   72.77
   0  -6  -4 3127.19   49.25
   0  -6   4 3217.04   70.94
   0   6   4 3151.50   61.46
   0  -6   4 3265.19   71.27
   0  -6  -4 3163.55   60.04
   0  -6   4 3131.02   52.91
   0  -6  -4 3268.75   68.55
   0  -6   4 3237.60   65.41
   0  -6  -4 3303.63   67.71
   0   6   4 3071.69   45.55
   0  -6   4 3171.19   66.17
   0  -6   4 3234.93   71.44
   0  -6  -4 3482.12   75.29
   3  -3   5 3734.07   73.21
   3   3   5 3747.79   54.98
   3  -3   5 3735.61   76.41
   3   3   5 3923.66   70.49
  -3  -3  -5 3806.55   62.76
  -3   3  -5 3790.96   69.11
  -3   3  -5 3932.07   63.81
   3  -3   5 3695.37   65.69
   3   3   5 3761.83   72.80
   3  -3   5 3846.27   77.63
  -3   3  -5 3662.29   56.19
  -3  -3  -5 3866.07   79.39
  -3  -3  -5 3854.41   78.49
   3   3   5 3853.53   78.46
   3  -3   5 3711.20   64.32
   3  -3   5 3831.85   63.49
   1   6   2 2881.94   58.90
   1  -6   2 3002.48   68.68
   1  -6   2 2966.02   60.20
   1  -6   2 3026.14   69.33
  -1  -6  -2 2808.40   60.25
  -1  -6  -2 2810.49   56.51
   1  -6   2 3016.62   68.90
   1  -6   2 2915.34   63.53
  -1   6  -2 2961.26   98.75
  -1   6  -2 2874.63   45.78
   1   6   2 2966.20   62.18
  -1  -6  -2 2962.00   61.43
   1   6   2 3066.12   57.65
  -1  -6  -2 2922.06   54.24
  -1  -6  -2 3210.09   69.13
  -1  -6  -2 2983.95   54.60
   3  -3  -7  102.46   17.89
   3   3  -7   84.82   16.14
  -3   3   7   83.69   10.34
  -3  -3   7   94.54   18.09
  -3   3   7   60.44   13.63
   3  -3  -7   69.82   13.41
   3   3  -7  103.11   18.05
   3   3  -7   97.59   18.11
   3  -3  -7  114.36   20.93
  -3  -3   7   72.92   12.84
   3   3  -7   99.01   14.59
   3  -3  -7   92.27   11.49
  -3  -3   7   87.76   14.09
   3  -3  -7   87.66   16.00
   3  -3  -7   78.30   11.89
   3   3  -7   80.48    8.88
  -3   3   7   96.20   18.51
  -3  -3   7   88.05   14.51
  -3  -4  -1  228.89   15.36
   3   4   1  267.61   23.50
   3  -4   1  262.07   20.90
  -3   4  -1  242.20   19.50
  -3  -4  -1  254.26   22.70
   3  -4   1  240.83   24.01
   3   4   1  229.88   13.46
   3   4   1  274.48   22.42
   3   4   1  257.09   18.79
  -3   4  -1  202.83   13.53
  -3  -4  -1  233.61   22.21
  -3  -4  -1  234.32   22.63
   3  -4   1  267.13   21.58
   3  -4   1  207.32   12.14
  -3   4  -1  227.46   20.11
   3  -4   1  269.76   21.16
   3   4   1  236.37   14.56
   3  -4   1  233.58   21.91
   2  -5   4 7734.23  116.21
  -2   5  -4 7633.92  114.66
   2   5   4 7625.42  119.05
   2   5   4 7627.71   98.90
  -2  -5  -4 7276.93  103.53
  -2  -5  -4 7120.42   90.68
   2   5   4 7477.51   94.27
   2  -5   4 7701.86  116.32
  -2  -5  -4 7619.14  115.43
   2  -5   4 7622.94  112.91
  -2  -5  -4 7243.34   89.01
   2   5   4 7422.79  106.83
   2  -5   4 7516.27   83.00
   2   5   4 7199.86   93.73
   2  -5   4 7450.37  109.62
   2  -5   4 7582.76  112.05
  -3   4   3  416.13   23.61
  -3  -4   3  396.85   26.14
  -3  -4   3  429.31   28.03
   3  -4  -3  370.76   24.83
   3  -4  -3  384.35   22.68
  -3   4   3  398.64   23.40
  -3  -4   3  419.31   27.82
   3  -4  -3  372.57   27.72
   3   4  -3  394.07   18.23
   3   4  -3  402.64   24.66
   3   4  -3  428.88   26.51
   3  -4  -3  393.30   24.93
   3  -4  -3  417.17   23.22
   3   4  -3  404.21   21.99
   3  -4  -3  408.60   30.81
   3   4  -3  401.76   88.66
   0  -3  12 8817.31  107.34
   0  -3  12 8643.78  105.99
   0  -3 -12 8768.38  113.60
   0   3  12 8999.76  101.47
   0  -3  12 8836.70  106.62
   0  -3  12 9013.62  103.79
   0   3 -12 8790.15  125.50
   0   3 -12 8741.03  126.11
   0  -3 -12 8559.37  126.33
   0   3 -12 8603.43  122.08
   0   3  12 9038.78  112.11
   0  -3  12 8554.36  125.36
   0  -3 -12 8954.15  103.86
   0   3  12 9018.07  111.62
  -1  -6   3  866.99   37.74
   1   6  -3  916.30   47.84
  -1  -6   3  871.30   27.89
  -1  -6   3  869.27   34.69
   1  -6  -3  775.42   35.31
  -1   6   3  870.97   30.54
   1   6  -3  839.20   27.29
   1  -6  -3  942.31   38.91
   1  -6  -3  805.33   23.02
   1  -6  -3  823.46   27.72
  -1  -6   3  865.40   30.96
  -1  -6   3  866.18   33.44
   1  -6  -3  844.27   37.19
  -1   6   3  864.56   33.70
   1  -6  -3  841.23   34.01
  -1  -6   3  930.88   37.59
  -1  -6   3  956.04   38.54
   1  -5  -8  218.38   23.19
  -1  -5   8  214.90   13.92
  -1   5   8  166.28   11.15
   1   5  -8  214.54   20.14
  -1  -5   8  240.56   20.15
  -1   5   8  192.77   20.04
  -1  -5   8  254.53   25.35
   1   5  -8  207.09   20.95
  -1   5   8  209.40   20.84
   1  -5  -8  187.34   20.19
   1  -5  -8  240.28   23.49
   1   5  -8  246.59   46.75
  -1  -5   8  275.13   26.19
   1  -5  -8  248.37   18.90
  -1  -5   8  248.83   24.28
   3   0   8  275.98   22.86
  -3   0  -8  297.09   20.20
  -3   0  -8  305.14   22.07
   3   0   8  328.37   24.56
  -3   0  -8  288.29   20.26
   3   0   8  306.76   22.00
   3   0   8  291.16   15.95
   0   2  13 4017.55   79.46
   0   2  13 3843.54   57.09
   0   2  13 3882.96   79.96
   0  -2 -13 3695.55   72.10
   0   2 -13 3989.11   82.64
   0  -2  13 3982.35   75.35
   0  -2 -13 3688.99   76.92
   0  -2  13 3922.66   77.35
   0  -2  13 3930.94   69.05
   0  -2  13 4083.19   75.63
   0  -2  13 3993.43   81.10
   0   2 -13 4126.05   80.08
   0  -2 -13 3930.75   68.93
   0   2  13 3851.61   75.71
   0   2 -13 3863.16   74.65
   0  -2  13 3840.67   58.54
   2   1  11 1253.62   34.93
   2  -1  11 1327.06   41.43
  -2  -1 -11 1221.98   41.83
   2  -1  11 1288.47   43.13
   2  -1  11 1196.26   32.10
  -2   1 -11 1170.09   29.73
   2   1  11 1234.68   63.74
   2  -1  11 1191.84   38.72
  -2   1 -11 1232.93   33.13
   2  -1  11 1253.70   45.26
   2   1  11 1301.04   43.37
   2  -1  11 1203.10   36.43
   2   1  11 1353.78   47.11
  -2  -1 -11 1213.27   29.82
   2   1  11 1260.31   39.94
   3   0 -10  201.83   20.80
   3   0 -10  197.47   26.51
   3   0 -10  162.61   12.73
  -3   0  10  208.18   21.35
   3   0 -10  213.00   19.70
  -3   0  10  186.56   21.15
   3   0 -10  180.22   22.40
  -3   0  10  205.89   20.06
  -3   2  -7 1660.25   37.05
  -3  -2  -7 1724.54   43.45
  -3   2  -7 1763.52   42.67
   3   2   7 1676.53   45.36
  -3   2  -7 1796.02   47.43
   3  -2   7 1734.71   46.45
   3  -2   7 1707.69   46.95
   3   2   7 1720.84   53.01
   3  -2   7 1696.27   37.49
  -3  -2  -7 1769.57   51.84
   3  -2   7 1755.91   51.47
   3   2   7 1783.79   50.20
   3  -2   7 1693.24   51.04
  -3  -2  -7 1793.77   52.20
  -3   2  -7 1740.82   40.93
   1   0  13 1763.52   47.76
   1   0  13 1849.87   48.60
  -1   0 -13 1895.43   57.98
   1   0  13 1807.51   43.45
  -1   0 -13 1702.14   40.70
   1   0  13 1886.82   55.13
   1   0  13 1717.50   34.61
  -1   0 -13 1807.55   47.40
   1  -3 -1210112.09  116.35
  -1  -3  1210184.02  137.87
   1  -3 -1210496.03  119.42
  -1  -3  1210118.97  139.56
  -1  -3  1210331.37   82.30
  -1   3  1210453.15  104.25
  -1   3  1210342.11  120.99
   1  -3 -1210124.39  135.41
  -1  -3  1210291.85  116.51
   1   3 -1210105.94  141.02
   1  -3 -1210168.97  141.23
  -1  -3  1210321.60   97.61
  -1   3  12 9909.66  138.82
   1   3 -1210580.34  123.76
  -1  -3  1210067.02  141.36
   3  -2  -9 1099.30   43.70
   3  -2  -9  983.24   30.84
  -3  -2   9 1190.97   41.87
   3   2  -9 1015.50   27.67
  -3   2   9  952.78   38.79
  -3   2   9 1058.37   35.16
  -3  -2   9 1036.73   41.19
  -3   2   9 1009.88   41.33
   3  -2  -9 1058.79   42.70
  -3  -2   9 1005.60   41.08
   3   2  -9 1090.20   41.97
   3  -2  -9 1028.19   42.56
   3   2  -9 1042.98   42.46
   3   2  -9 1080.54   42.77
   3  -2  -9 1004.15   36.51
   3   2  -9 1082.09   43.11
   3  -2  -9  969.94   31.93
  -3  -2   9 1022.21   40.71
  -4   0   1 4112.05   80.45
  -4   0   1 4006.38   77.66
   4   0  -1 4148.03   85.34
   4   0  -1 3905.67   56.40
  -4   0   1 4089.08   82.66
   4   0  -1 4100.69   85.02
   4   0  -1 4139.31   80.55
   4   0  -1 4064.33   68.30
   3  -4   2 3822.68   75.39
  -3  -4  -2 3723.98   59.68
   3   4   2 3736.75  120.20
   3  -4   2 3835.98   74.53
  -3  -4  -2 3787.79   79.20
  -3   4  -2 3721.33   64.49
   3  -4   2 3828.91   77.94
   3  -4   2 3605.19   67.70
   3   4   2 3777.06   71.74
  -3   4  -2 3843.69   72.22
  -3  -4  -2 3855.83   79.27
  -3   4  -2 3555.14   54.44
   3   4   2 3696.62   55.53
   3  -4   2 3689.51   54.37
   3   4   2 3760.36   63.77
   3  -4   2 3938.01   80.03
   3   4   2 3734.24   54.13
   3   4   2 3777.49   74.49
  -1  -6  -3 3021.62   67.77
  -1  -6  -3 3127.57   58.87
   1  -6   3 3143.19   70.27
   1  -6   3 3245.88   72.30
   1   6   3 3051.43   56.30
   1   6   3 3229.19   68.23
  -1  -6  -3 3158.90   54.87
  -1  -6  -3 3041.87   63.59
  -1  -6  -3 3081.21   53.99
   1   6   3 3236.34   65.70
   1  -6   3 3119.43   69.72
  -1  -6  -3 3115.15   63.57
  -1   6  -3 3126.41   71.31
   1  -6   3 3114.47   63.49
   1  -6   3 3251.21   69.91
   3  -4  -4  670.23   33.95
   3   4  -4  722.41   32.50
   3  -4  -4  653.56   32.83
  -3   4   4  676.73   29.06
   3  -4  -4  650.20   26.66
  -3  -4   4  673.81   33.21
   3  -4  -4  650.63   27.33
   3   4  -4  647.97   27.54
   3   4  -4  643.19   34.05
   3   4  -4  669.56   35.24
  -3  -4   4  681.05   34.39
  -3  -4   4  682.57   31.73
  -3  -4   4  725.79   36.45
   3   4  -4  616.27   20.68
   3  -4  -4  660.93   32.08
   3  -4  -4  638.96   30.12
  -3   4   4  701.59   31.73
  -4   0   2    4.51   11.14
  -4   0   2   22.78   16.89
   4   0  -2   16.76   14.62
  -4   0   2    1.24   11.43
   4   0  -2    2.58   13.75
   4   0  -2    1.39    9.23
   4   0  -2   17.12   11.38
   4   0  -2    2.25    4.65
  -1   2  13 3153.43   49.74
   1  -2 -13 3412.09   74.94
  -1  -2  13 3273.97   70.20
  -1  -2  13 3295.52   66.61
   1  -2 -13 3198.12   57.43
   1  -2 -13 3387.27   70.34
  -1  -2  13 3189.20   57.75
  -1   2  13 3268.84   72.85
   1   2 -13 3424.77   76.40
   1   2 -13 3407.47   77.53
   1   2 -13 3361.22   72.31
  -1   2  13 3328.77   69.42
   1  -2 -13 3136.39   70.33
  -1  -2  13 3279.87   72.56
   1   2 -13 3260.23   73.90
  -1  -2  13 3134.54   67.02
  -1   2  13 3252.91   74.19
  -2  -4   9 2290.89   61.80
   2  -4  -9 2395.33   64.04
   2   4  -9 2191.61   50.96
   2   4  -9 2216.03   61.55
   2   4  -9 2317.59   59.44
  -2  -4   9 2314.28   48.44
  -2   4   9 2269.23   65.62
  -2  -4   9 2260.26   61.78
  -2   4   9 2199.54   41.57
  -2  -4   9 2395.95   61.30
   2  -4  -9 2335.67   57.00
  -2  -4   9 2355.89   53.88
  -2   4   9 2211.58   58.38
   2  -4  -9 2271.84   56.66
   2  -4  -9 2318.15   61.35
   2  -4  -9 2220.82   41.69
   2   4  -9 2438.53   65.31
   4   0   0  453.31   31.38
  -4   0   0  388.96   26.87
   4   0   0  428.72   54.17
   4   0   0  390.23   19.93
   4   0   0  365.13   28.20
  -4   0   0  411.84   27.37
   4   0   0  379.46   26.24
   3  -1   8  484.99   23.42
  -3  -1  -8  477.34   24.93
  -3  -1  -8  489.74   29.49
   3  -1   8  453.16   28.23
   3   1   8  454.11   17.20
   3   1   8  495.31   29.39
   3  -1   8  539.65   29.76
  -3   1  -8  483.35   25.73
   3   1   8  450.00   29.50
  -3  -1  -8  444.96   26.76
   3   1   8  485.47   25.92
  -3   1  -8  442.10   23.43
   3  -1   8  521.39   28.25
  -3   1  -8  512.81   29.25
   0   6  -5  472.94   29.26
   0   6   5  490.19   25.17
   0  -6   5  470.61   29.16
   0  -6  -5  477.21   29.30
   0  -6  -5  460.73   31.33
   0   6   5  438.23   17.28
   0  -6   5  444.93   27.97
   0  -6  -5  435.53   16.73
   0  -6  -5  524.38   28.57
   0  -6   5  446.37   31.13
   0  -6  -5  418.34   21.13
   0  -6   5  433.20   20.43
   0  -6   5  475.38   30.13
   0  -6   5  478.56   28.57
   2  -5  -6   16.49   14.91
   2   5  -6    5.49    5.79
  -2  -5   6   -2.12   15.09
  -2  -5   6   25.84   10.03
   2  -5  -6   31.44   11.09
   2   5  -6    7.20    4.77
  -2   5   6   16.69   11.92
  -2  -5   6    5.63   12.07
   2  -5  -6    6.06   11.90
   2   5  -6    0.28    7.79
   2  -5  -6    5.84    7.00
  -2  -5   6   13.92   10.23
  -2   5   6   -1.27    9.42
  -2  -5   6   -4.43   11.23
   2  -5  -6   19.93   14.41
  -2  -5   6   22.11   11.67
  -1  -4 -10  681.81   27.51
  -1   4 -10  659.99   33.79
   1   4  10  683.46   30.65
   1  -4  10  635.38   29.41
  -1  -4 -10  638.88   22.85
   1   4  10  640.29   33.54
   1  -4  10  690.40   36.45
   1  -4  10  679.63   31.03
  -1   4 -10  644.45   39.87
  -1  -4 -10  670.93   33.72
   1  -4  10  705.76   32.42
   1  -4  10  663.77   34.47
   1   4  10  674.47   33.24
  -1  -6   4  268.68   23.09
   1  -6  -4  287.58   24.28
   1   6  -4  349.48   59.38
   1  -6  -4  305.16   21.31
  -1   6   4  305.66   22.73
  -1  -6   4  329.05   26.54
  -1   6   4  284.41   19.85
  -1  -6   4  289.85   17.27
   1   6  -4  270.95   15.57
  -1  -6   4  250.23   21.90
  -1  -6   4  310.74   24.56
  -1  -6   4  288.78   19.51
   1  -6  -4  275.51   23.10
  -1  -6   4  308.12   26.43
   1  -6  -4  290.04   23.45
   1  -6  -4  276.99   17.20
   4   0  -3 3530.97   76.99
   4   0  -3 3428.59   66.93
   4   0  -3 3258.06   56.35
   4   0  -3 3399.60   74.62
   4   0  -3 3549.16   78.51
  -4   0   3 3508.44   75.85
  -4   0   3 3453.19   75.94
  -4   0   3 3510.27   73.04
  -3  -1  10 3742.88   77.93
   3  -1 -10 3516.84   59.01
   3   1 -10 3887.03   82.49
   3   1 -10 3861.62   80.72
   3  -1 -10 3578.42   70.09
  -3  -1  10 3697.56   78.96
  -3   1  10 3616.48   77.10
   3   1 -10 3638.97   80.54
  -3   1  10 3842.14   81.54
  -3  -1  10 3732.90   76.86
   3  -1 -10 3915.87   80.57
   3   1 -10 3695.18   57.74
  -3  -1  10 3684.59   77.27
  -3   1  10 3604.26   70.48
   3   1 -10 3951.05   79.59
   3  -1 -10 3847.84   81.68
   3  -1 -10 3782.31   81.55
   3  -1 -10 3876.53   74.84
  -1  -1 -13 2710.75   67.87
  -1   1 -13 2729.92   60.05
   1  -1  13 2477.93   55.41
  -1   1 -13 2617.47   53.92
  -1  -1 -13 2579.17   48.88
   1  -1  13 2534.14   55.79
  -1   1 -13 2573.83   68.14
  -1  -1 -13 2509.33   54.72
   1   1  13 2477.68   46.15
   1   1  13 2622.26   62.52
   1  -1  13 2569.78   60.62
   1   1  13 2549.36   54.17
   1   1  13 2547.96   64.25
   1  -1  13 2664.82   66.52
   1  -1  13 2529.85   48.96
   1  -1  13 2487.61   49.71
   4   1  -1 1123.98   43.82
  -4  -1   1 1160.26   44.32
   4  -1  -1 1141.11   42.62
   4  -1  -1 1142.66   31.10
  -4   1   1 1191.95   43.43
   4  -1  -1 1116.29   36.29
   4  -1  -1 1079.08   73.01
  -4  -1   1 1093.95   41.27
   4   1  -1 1184.13   43.86
   4   1  -1 1095.25   26.37
   4  -1  -1 1154.50   42.12
   4   1  -1 1089.73   43.29
   4  -1  -1 1212.02   46.57
  -4   1   1 1113.52   42.59
  -4  -1   1 1180.13   43.82
   4   1  -1 1154.55   33.89
   2  -2 -12  369.35   25.15
   2   2 -12  376.16   28.24
   2  -2 -12  376.53   28.81
  -2  -2  12  365.68   24.21
   2  -2 -12  383.89   29.16
  -2   2  12  382.55   23.02
   2  -2 -12  400.46   24.54
   2   2 -12  388.76   22.97
  -2  -2  12  373.59   24.47
   2  -2 -12  353.32   19.08
  -2  -2  12  400.33   26.33
  -2  -2  12  440.69   24.71
  -2   2  12  371.96   27.39
  -2   2  12  351.09   27.25
   2   2 -12  401.52   27.88
  -2  -2  12  350.23   26.38
   2   2 -12  361.89   27.24
   4   1  -2 1456.21   49.81
   4  -1  -2 1388.16   35.99
   4   1  -2 1510.35   41.33
   4  -1  -2 1485.37   49.79
   4  -1  -2 1406.42   41.69
  -4  -1   2 1459.39   48.36
  -4   1   2 1420.93   43.53
  -4  -1   2 1384.53   46.24
   4   1  -2 1373.46   32.40
   4   1  -2 1486.63   48.77
  -4  -1   2 1481.02   49.27
  -4   1   2 1385.00   47.44
   4   1  -2 1471.06   50.11
   4  -1  -2 1494.12   50.28
   4  -1  -2 1514.45   50.07
  -4   1   2 1537.22   48.77
   0  -4 -11   -3.62   13.28
   0   4  11   12.32    9.87
   0  -4  11   20.11   16.62
   0   4 -11   20.69    8.78
   0  -4  11   11.12   11.72
   0   4 -11    3.38   13.69
   0  -4 -11   19.72   10.51
   0   4  11    1.34   13.93
   0  -4  11   16.95   13.84
   0  -4 -11   16.39   10.30
   0   4  11   24.70   13.40
   0   4 -11   -2.22   12.42
   0  -4  11    5.99    4.58
   0  -4  11   28.00   15.99
  -4   0  -1  146.40   20.09
   4   0   1  172.43   21.74
   4   0   1  230.12   24.95
  -4   0  -1  180.76   18.87
   4   0   1  181.10   18.58
   4   0   1  177.91   13.28
   4   0   1  189.52   30.45
   2   5   5  806.54   27.46
   2   5   5  885.26   34.70
   2  -5   5  906.64   26.08
   2   5   5  902.06   48.76
  -2  -5  -5  857.75   37.45
   2  -5   5  923.93   40.44
   2  -5   5  933.79   38.94
  -2  -5  -5  851.86   28.14
   2  -5   5  970.74   38.32
  -2  -5  -5  858.09   26.30
   2   5   5  900.77   30.14
  -2   5  -5  900.19   38.08
   2  -5   5  867.06   35.72
   2  -5   5  969.53   41.36
  -2  -5  -5  932.20   35.60
   2   5   5  921.22   28.66
   0   0 -14 2629.61   51.09
   0   0 -14 2361.91   56.41
   0   0 -14 2668.14   64.00
   0   0  14 2675.06   59.08
   0   0  14 2637.22   65.90
   0   0  14 2491.96   55.08
   0   0  14 2719.81   55.08
   0   0 -14 2477.26   65.09
   0   0  14 2620.83   61.26
   4  -1   0 1919.02   56.66
  -4   1   0 1946.17   52.24
  -4  -1   0 1929.05   56.56
   4   1   0 1967.87   57.49
   4  -1   0 2242.93  109.10
  -4   1   0 1909.23   54.47
  -4  -1   0 1935.46   56.96
   4   1   0 1949.52   41.48
   4  -1   0 1913.16   45.62
   4   1   0 1797.85   53.32
   4   1   0 1974.57   53.75
   4  -1   0 1942.84   54.57
   4  -1   0 1851.95   37.43
   4   1   0 2035.26   59.64
   4  -1   0 1945.00   57.58
  -2   3  11 7295.22  115.21
   2  -3 -11 7203.22   86.45
   2   3 -11 7465.12  105.05
  -2  -3  11 7486.29  117.76
   2  -3 -11 7372.44  118.01
   2  -3 -11 7452.90  107.98
  -2   3  11 7342.90  115.87
  -2  -3  11 7511.04  101.10
   2  -3 -11 7232.58  115.67
  -2  -3  11 7422.88  117.33
  -2  -3  11 7411.26  107.79
  -2  -3  11 7454.02  117.69
   2  -3 -11 7300.56  109.25
  -2   3  11 7467.94  101.03
   2   3 -11 7431.99  117.25
   2  -4   8 1348.93   47.32
   2  -4   8 1433.44   42.63
   2   4   8 1400.37   36.26
  -2   4  -8 1357.65   47.23
   2  -4   8 1391.43   40.29
   2  -4   8 1453.43   43.93
   2   4   8 1400.60   57.34
   2  -4   8 1480.93   49.59
  -2  -4  -8 1323.07   31.18
   2   4   8 1411.10   48.00
   2   4   8 1392.36   46.24
   2   4   8 1295.53   29.90
  -2  -4  -8 1338.68   42.82
   2  -4   8 1427.21   46.15
  -3   4  -3  184.95   15.78
   3  -4   3  188.80   22.65
  -3  -4  -3  164.23   14.27
   3   4   3  179.98   18.19
   3   4   3  168.71   17.29
  -3   4  -3  164.18   17.17
   3   4   3  168.31   13.83
   3  -4   3  163.67   12.46
  -3  -4  -3  165.51   24.35
   3  -4   3  145.76   15.59
   3   4   3  184.91   43.84
   3  -4   3  158.14   16.94
  -3   4  -3  149.46   11.73
  -3  -4  -3  192.85   22.97
   3  -4   3  189.52   20.22
   3  -4   3  187.79   17.91
   0   5   9  260.62   22.66
   0  -5   9  312.59   27.46
   0  -5  -9  253.91   13.87
   0   5  -9  269.34   23.50
   0  -5   9  303.32   22.87
   0  -5  -9  269.89   20.96
   0  -5   9  267.79   22.73
   0  -5  -9  273.31   21.14
   0  -5   9  273.02   25.16
   0   5   9  264.44   17.10
   0  -5  -9  284.32   24.89
   0   5   9  275.74   23.89
   0   5  -9  312.34   53.38
   0  -5   9  313.69   26.14
   3  -3   6  217.48   16.89
  -3   3  -6  234.35   15.89
  -3  -3  -6  202.39   15.32
  -3   3  -6  231.03   19.75
  -3  -3  -6  287.76   24.56
   3  -3   6  192.72   16.73
   3   3   6  269.62   24.11
   3   3   6  242.30   20.33
   3  -3   6  233.00   22.34
  -3  -3  -6  212.69   21.06
  -3   3  -6  238.69   14.48
   3  -3   6  228.91   23.99
   3  -3   6  247.69   21.62
   3  -3   6  240.51   17.25
   3   3   6  242.61   22.09
   1  -5   8   11.59   12.81
  -1   5  -8   17.26   20.35
  -1  -5  -8   -1.67    8.84
  -1  -5  -8   21.47    8.38
   1   5   8   16.56   12.94
   1  -5   8   12.74   13.58
  -1  -5  -8    9.12   13.06
   1   5   8   24.13   12.07
   1  -5   8   23.10   16.21
   1  -5   8   24.59   14.87
   1  -5   8   10.62   11.86
   1   5   8   30.80   12.10
   1  -5   8   28.21   12.96
   4   0  -4  929.87   39.45
   4   0  -4 1025.04   44.64
  -4   0   4  966.30   37.79
   4   0  -4  978.46   36.80
   4   0  -4 1056.03   48.36
  -4   0   4 1005.15   40.93
  -4   0   4 1003.21   42.52
   4   0  -4  947.38   32.00
   3   4  -5  274.55   24.08
  -3  -4   5  258.76   23.85
  -3  -4   5  246.99   20.56
   3  -4  -5  273.03   24.16
   3  -4  -5  241.26   20.99
  -3   4   5  265.45   20.54
  -3  -4   5  218.26   20.26
   3   4  -5  283.53   26.86
   3  -4  -5  256.95   18.86
   3   4  -5  240.07   13.65
   3  -4  -5  269.93   22.12
   3   4  -5  240.03   20.09
   3  -4  -5  279.49   24.68
  -3   4   5  308.65   23.80
   3  -4  -5  252.38   16.86
   3   4  -5  246.79   22.67
  -3  -4   5  277.66   24.75
   4   1  -3 2262.93   44.75
   4  -1  -3 2436.06   51.39
   4  -1  -3 2485.09   66.01
   4   1  -3 2353.21   63.23
   4   1  -3 2347.39   53.34
   4   1  -3 2413.61   62.67
  -4   1   3 2353.02   55.53
  -4  -1   3 2385.99   62.58
  -4  -1   3 2421.24   62.51
   4  -1  -3 2368.71   55.70
  -4   1   3 2490.96   65.31
   4   1  -3 2380.41   64.48
   4  -1  -3 2359.37   64.40
  -4   1   3 2327.79   59.23
   4  -1  -3 2257.45   59.62
  -4  -1   3 2296.84   60.48
  -1   6  -4  647.04   34.67
   1   6   4  602.47   28.16
   1  -6   4  607.15   28.41
   1   6   4  537.70   46.23
  -1  -6  -4  656.72   33.65
   1  -6   4  644.71   31.71
  -1  -6  -4  591.98   21.66
   1   6   4  600.56   29.62
  -1  -6  -4  578.48   27.95
   1  -6   4  583.92   31.30
  -1  -6  -4  577.62   28.44
   1  -6   4  561.35   33.99
   1   6   4  577.32   24.06
  -1  -6  -4  546.16   23.16
   1  -6   4  621.04   31.90
   3  -3  -8  129.68   15.16
   3  -3  -8  144.39   14.30
   3  -3  -8  168.23   21.05
   3  -3  -8  152.96   14.73
  -3  -3   8  147.73   18.78
  -3  -3   8  172.47   21.04
  -3   3   8  177.17   20.95
  -3  -3   8  143.88   16.68
   3  -3  -8  175.02   23.51
   3   3  -8  148.00   18.22
   3   3  -8  190.40   22.24
  -3  -3   8  173.05   21.57
   3   3  -8  135.53   11.86
  -3   3   8  133.36   12.81
   3  -3  -8  154.78   20.03
   3   3  -8  170.11   20.40
  -3   3   8  181.95   21.29
  -1   0  14  523.77   25.22
  -1   0  14  559.86   27.72
   1   0 -14  528.79   26.35
   1   0 -14  499.79   37.09
  -1   0  14  572.74   31.13
   1   0 -14  540.41   29.79
   1   0 -14  557.12   32.32
  -1   0  14  492.82   29.15
  -1   0  14  484.77   24.27
   4  -1   1   60.76   11.76
   4   1   1   42.18   18.93
   4  -1   1   64.12   13.31
   4   1   1   60.19   14.02
  -4   1  -1   51.33   13.59
   4   1   1   48.68   16.29
   4  -1   1   40.23    7.24
   4  -1   1   56.31   15.47
  -4  -1  -1   62.55   16.76
   4   1   1   42.87   12.87
  -4   1  -1   50.53   13.71
   4  -1   1   42.98   17.38
   4   1   1   49.02    8.39
  -4  -1  -1   21.73   14.15
   4  -1   1   54.79   17.44
  -2   0  13  234.77   24.89
  -2   0  13  249.54   19.91
   2   0 -13  239.59   20.45
  -2   0  13  204.53   22.95
   2   0 -13  255.70   20.95
   2   0 -13  218.35   24.93
  -2   0  13  232.03   23.07
  -2   0  13  245.16   20.81
   2   0 -13  263.21   26.29
   1   4 -11 8108.58  124.28
  -1  -4  11 8201.91  122.11
   1   4 -11 8204.65  125.42
  -1   4  11 8307.58  127.35
  -1  -4  11 8339.88  125.91
   1   4 -11 8792.71  124.83
   1  -4 -11 8565.21  128.32
  -1   4  11 8220.82  124.51
  -1  -4  11 8200.42  125.35
  -1   4  11 8059.45  103.97
   1  -4 -11 8058.48  117.97
   1  -4 -11 8387.33  104.37
   1  -4 -11 8192.12  124.39
  -1  -4  11 8297.53  103.16
   0   1 -14  484.76   27.77
   0   1  14  535.58   30.91
   0   1 -14  464.07   30.91
   0   1  14  477.43   28.78
   0  -1 -14  438.01   24.58
   0  -1  14  486.88   30.72
   0  -1 -14  430.22   18.10
   0   1  14  482.97   23.08
   0   1  14  479.99   26.70
   0   1 -14  483.10   24.39
   0  -1  14  472.53   23.43
   0  -1  14  499.12   27.48
   0  -1  14  487.59   26.35
   0   1 -14  483.10   28.47
   0   1  14  480.35   20.42
   0  -1 -14  493.05   27.75
   0  -1  14  491.45   26.44
   0  -1 -14  485.02   30.97
   4   0   2  192.31   13.29
   4   0   2  270.83   50.14
   4   0   2  234.69   20.42
   4   0   2  243.19   24.06
  -4   0  -2  220.59   21.91
   4   0   2  216.45   23.94
  -4   0  -2  248.10   22.06
  -1  -6   5  345.92   26.19
   1  -6  -5  328.10   16.17
  -1  -6   5  297.49   15.96
  -1  -6   5  353.26   26.43
  -1   6   5  380.06   25.37
  -1  -6   5  384.98   26.84
  -1  -6   5  317.42   15.85
   1  -6  -5  336.74   26.32
  -1   6   5  332.35   22.45
   1  -6  -5  363.43   24.00
   1   6  -5  389.52   25.81
  -1  -6   5  369.40   24.87
   1  -6  -5  375.21   27.58
   1  -6  -5  370.15   26.77
  -1  -6   5  295.04   20.71
  -1  -6   5  335.58   26.05
   2   2  11   86.20   18.61
  -2   2 -11  122.57   22.72
   2  -2  11  112.12   18.20
   2  -2  11   92.46   17.13
   2   2  11   92.42   17.62
   2  -2  11  101.91   11.23
   2  -2  11   87.31   15.67
  -2  -2 -11   93.68    9.99
   2  -2  11   83.23   20.91
   2   2  11   82.79   13.09
  -2   2 -11   79.62   18.55
   2   2  11  100.93   22.95
   2   2  11   87.35   11.01
  -2  -2 -11   77.07   16.48
   2  -2  11   93.01   13.79
  -2   2 -11   97.83   13.03
   4   1  -4  528.83   23.66
   4  -1  -4  527.76   32.25
  -4  -1   4  542.01   31.38
  -4   1   4  533.35   31.24
  -4   1   4  503.32   26.95
   4  -1  -4  537.57   30.49
  -4  -1   4  548.32   34.02
   4   1  -4  571.64   33.73
   4   1  -4  558.70   36.70
   4  -1  -4  491.58   30.43
   4  -1  -4  543.70   25.51
   4   1  -4  540.92   33.59
  -4  -1   4  545.34   31.35
   4   1  -4  549.52   27.82
  -4   1   4  572.44   30.91
   4  -1  -4  505.89   27.50
   2  -3  10  830.60   33.20
  -2   3 -10  741.58   57.00
  -2   3 -10  837.95   37.78
  -2  -3 -10  896.62   36.09
   2   3  10  847.24   38.07
   2  -3  10  791.33   31.03
   2  -3  10  844.09   37.12
   2   3  10  779.48   23.29
   2  -3  10  727.21   20.83
   2  -3  10  796.37   33.48
   2   3  10  928.81   89.55
   2  -3  10  831.68   37.47
   2   3  10  788.33   29.00
   2   3  10  846.00   38.49
  -2  -3 -10  762.14   23.15
  -1  -1  14 1446.53   41.99
  -1   1  14 1470.10   35.76
  -1  -1  14 1449.29   43.80
  -1  -1  14 1572.12   52.15
  -1   1  14 1575.98   53.28
  -1  -1  14 1556.75   47.26
  -1   1  14 1505.26   48.29
   1  -1 -14 1460.91   48.04
   1  -1 -14 1571.44   50.08
   1  -1 -14 1606.29   52.46
  -1  -1  14 1577.40   46.66
   1   1 -14 1580.91   48.08
   1   1 -14 1533.85   49.34
  -1   1  14 1556.37   48.13
   1   1 -14 1542.18   49.78
   1  -1 -14 1499.15   40.46
   1   1 -14 1498.62   51.33
  -1   1  14 1427.86   40.27
   1  -5  -9  915.65   40.91
  -1   5   9  932.33   37.99
  -1  -5   9  945.39   36.56
  -1  -5   9  862.60   26.56
   1   5  -9 1045.75   83.27
  -1  -5   9  927.70   41.13
  -1   5   9  932.19   26.55
   1  -5  -9  954.42   39.36
  -1  -5   9  962.32   41.86
   1  -5  -9  916.72   41.62
   1   5  -9 1119.55  100.49
  -1   5   9  969.38   40.78
   1   5  -9  974.59   39.45
   1  -5  -9  868.17   30.68
  -1  -5   9  921.70   39.93
   0  -6  -6  754.35   35.05
   0  -6  -6  704.62   26.12
   0   6   6  726.11   22.68
   0  -6   6  725.02   35.75
   0  -6  -6  723.24   32.18
   0  -6   6  698.25   26.82
   0  -6   6  757.30   35.42
   0   6   6  732.18   32.28
   0  -6  -6  732.92   36.80
   0   6  -6  753.35   36.22
   0  -6   6  725.15   35.46
   0  -6   6  726.69   36.37
   0  -6   6  733.14   34.09
   4   0  -5  216.12   19.58
  -4   0   5  224.78   21.68
   4   0  -5  248.99   23.57
  -4   0   5  199.62   22.60
  -4   0   5  240.58   23.94
   4   0  -5  221.80   23.65
   4   0  -5  213.45   23.87
   4   0  -5  229.95   21.01
  -2  -5   7  289.84   18.15
  -2   5   7  317.20   24.30
   2   5  -7  295.25   21.47
   2  -5  -7  318.50   25.15
  -2  -5   7  317.69   27.08
   2   5  -7  300.19   22.96
   2  -5  -7  329.73   25.97
  -2  -5   7  299.10   25.91
   2  -5  -7  276.54   16.96
   2  -5  -7  349.12   26.06
  -2  -5   7  297.79   20.63
  -2   5   7  289.27   20.92
  -2  -5   7  332.96   27.05
  -2  -5   7  295.12   23.76
   2  -5  -7  275.98   26.20
   2   5  -7  348.63   52.29
   2   1 -13  639.62   32.83
  -2  -1  13  623.94   35.05
   2  -1 -13  695.87   36.51
   2   1 -13  608.14   35.20
   2  -1 -13  710.30   32.19
  -2   1  13  646.27   31.50
  -2  -1  13  727.99   34.49
   2  -1 -13  635.39   30.37
  -2  -1  13  625.09   30.15
  -2   1  13  636.98   26.17
  -2  -1  13  666.19   31.88
   2  -1 -13  624.48   34.99
   2   1 -13  674.00   35.86
  -2  -1  13  645.89   30.84
  -2   1  13  579.22   31.06
   2  -1 -13  555.30   49.00
  -2   1  13  646.68   37.14
   2   1 -13  699.23   31.52
   1   3  12  751.54   40.42
   1  -3  12  678.16   34.41
   1  -3  12  624.96   21.57
  -1   3 -12  766.99   80.41
  -1  -3 -12  757.18   37.20
  -1   3 -12  705.24   31.65
   1  -3  12  712.95   31.27
   1   3  12  700.86   34.86
  -1  -3 -12  701.47   23.67
  -1   3 -12  657.98   34.94
   1  -3  12  631.68   32.66
   1   3  12  624.09   20.63
  -1  -3 -12  687.27   28.45
   1  -3  12  689.58   33.07
   4  -1   2 1501.35   50.24
   4   1   2 1385.38   42.67
   4   1   2 1430.29   49.10
   4  -1   2 1356.71   43.10
   4   1   2 1461.16   49.91
  -4  -1  -2 1379.77   47.13
   4  -1   2 1420.16   50.38
  -4   1  -2 1466.34   46.29
  -4  -1  -2 1437.46   47.98
   4  -1   2 1346.85   35.34
   4   1   2 1426.96   50.21
  -4   1  -2 1427.01   46.51
   4  -1   2 1455.87   50.04
   3   2   8 1034.86   36.77
  -3   2  -8  987.72   28.78
   3  -2   8  997.37   41.42
  -3  -2  -8 1091.34   37.23
   3  -2   8 1014.48   31.61
   3   2   8 1015.77   38.93
  -3   2  -8 1046.69   37.10
   3  -2   8  998.02   35.55
   3  -2   8 1033.39   38.44
  -3   2  -8 1010.35   32.40
  -3  -2  -8 1022.15   40.61
   3   2   8 1043.57   41.66
   3  -2   8 1002.57   28.98
   3   2   8 1025.97   45.28
   3  -2   8 1029.07   40.53
   3  -4   4  347.79   19.15
   3  -4   4  344.62   27.10
  -3   4  -4  336.00   24.56
   3  -4   4  357.57   26.80
   3  -4   4  322.87   22.21
   3   4   4  382.93   25.04
   3   4   4  336.09   17.24
   3   4   4  336.30   22.60
   3  -4   4  374.70   30.76
   3   4   4  343.77   43.30
   3  -4   4  334.99   23.02
  -3  -4  -4  350.62   27.30
  -3  -4  -4  343.62   27.84
  -3  -4  -4  301.18   18.55
  -3   4  -4  322.04   17.79
  -3   0  -9  278.93   20.42
  -3   0  -9  271.23   21.78
   3   0   9  285.10   28.02
   3   0   9  289.25   23.47
   3   0   9  316.97   24.85
   3   0   9  279.18   15.75
   3   0   9  291.26   55.29
  -3   4   6  372.59   23.29
  -3  -4   6  393.98   29.42
   3   4  -6  373.49   16.88
   3  -4  -6  381.09   20.07
   3  -4  -6  417.51   27.18
   3   4  -6  406.69   24.31
   3  -4  -6  389.59   27.63
   3   4  -6  377.64   27.77
  -3  -4   6  359.66   27.92
   3  -4  -6  419.05   28.33
  -3  -4   6  431.19   26.89
  -3   4   6  365.27   25.50
  -3  -4   6  340.41   26.73
   3  -4  -6  366.95   23.48
   3  -4  -6  368.64   22.88
  -3  -4   6  377.17   24.65
   3  -2 -10 1969.20   46.89
   3  -2 -10 2009.01   60.99
   3  -2 -10 1963.19   57.66
   3   2 -10 2064.68   58.81
   3  -2 -10 1899.82   45.20
  -3  -2  10 1956.30   56.79
  -3   2  10 1902.75   55.85
  -3   2  10 1953.94   49.49
  -3  -2  10 1953.58   58.64
   3   2 -10 1933.41   59.68
   3  -2 -10 1931.46   57.20
   3   2 -10 2020.34   59.61
  -3  -2  10 1954.27   54.69
  -3   2  10 1879.45   59.19
   3   2 -10 1891.89   40.70
   3  -2 -10 1960.09   51.15
   3   2 -10 1923.91   57.79
  -3  -2  10 1904.92   55.87
  -2   0 -12  180.07   22.51
  -2   0 -12  154.77   13.45
   2   0  12  187.23   18.37
   2   0  12  192.62   23.28
   2   0  12  195.69   34.40
   2   0  12  185.80   18.59
   2   0  12  197.73   19.95
   3   0 -11  733.19   37.64
   3   0 -11  748.90   37.53
   3   0 -11  762.06   33.33
  -3   0  11  776.80   37.22
  -3   0  11  685.17   30.59
   3   0 -11  743.37   26.55
  -3   0  11  798.19   41.59
   3   0 -11  787.07   39.59
  -3   0  11  748.76   36.16
   1  -6   5  621.81   32.84
  -1  -6  -5  579.66   31.21
   1   6   5  581.45   20.32
   1  -6   5  626.82   32.94
   1   6   5  573.50   19.76
  -1  -6  -5  629.23   28.59
   1   6   5  634.68   25.97
   1  -6   5  603.26   21.15
   1  -6   5  625.85   34.91
   1  -6   5  596.93   32.45
  -1  -6  -5  632.65   24.98
  -1   6  -5  611.10   34.71
   1   6   5  632.26   30.78
   1  -6   5  638.58   36.91
   1   6   5  653.09   31.38
  -1  -6  -5  623.67   27.36
  -1   2 -13 2891.76   62.97
   1  -2  13 2805.75   48.11
   1  -2  13 3046.31   66.95
  -1   2 -13 2985.99   61.68
   1  -2  13 3054.65   57.50
   1   2  13 2891.81   53.49
   1   2  13 2994.92   70.83
  -1  -2 -13 2786.66   68.67
  -1  -2 -13 2772.40   58.23
   1  -2  13 2971.12   69.22
   1   2  13 2854.50   69.57
  -1   2 -13 2927.81   72.30
   1  -2  13 3035.13   71.94
   1  -2  13 3013.85   61.27
  -1  -2 -13 2736.03   49.88
   2   5   6  700.78   26.15
   2  -5   6  660.36   32.03
   2   5   6  702.21   34.64
  -2  -5  -6  763.69   33.26
   2  -5   6  785.11   37.94
   2   5   6  732.31   62.24
  -2   5  -6  683.58   36.25
   2   5   6  644.41   22.38
   2  -5   6  656.74   34.76
   2  -5   6  676.90   31.98
  -2  -5  -6  631.34   21.50
   2   5   6  718.49   32.80
   2  -5   6  703.75   25.33
   2  -5   6  653.02   32.86
  -2  -5  -6  651.49   25.16
  -4   0  -3  763.94   35.74
  -4   0  -3  672.21   32.36
   4   0   3  721.73   36.83
   4   0   3  671.45   30.13
   4   0   3  698.14   34.93
   4   0   3  675.87   32.99
   4   1  -5 1687.52   54.24
  -4   1   5 1595.56   51.06
  -4  -1   5 1629.60   51.49
   4   1  -5 1660.87   47.85
  -4  -1   5 1597.90   52.45
   4   1  -5 1689.58   55.29
   4  -1  -5 1589.72   49.83
  -4   1   5 1623.05   46.99
   4   1  -5 1686.91   55.40
   4  -1  -5 1717.57   56.26
   4   1  -5 1629.18   44.12
   4  -1  -5 1643.84   54.85
  -4   1   5 1728.35   54.31
   4  -1  -5 1704.02   46.22
  -4  -1   5 1631.72   53.97
   4  -1  -5 1689.21   50.87
  -4  -2   1  313.27   25.60
   4   2  -1  382.24   29.07
   4  -2  -1  338.11   19.51
  -4   2   1  364.17   24.40
   4   2  -1  338.04   24.25
  -4  -2   1  355.28   27.58
   4  -2  -1  352.73   54.96
   4  -2  -1  313.11   21.04
  -4  -2   1  354.45   31.84
  -4   2   1  344.98   29.94
   4  -2  -1  324.48   28.73
   4   2  -1  315.47   18.45
   4  -2  -1  341.36   29.84
   4   2  -1  375.69   28.28
   4  -2  -1  338.84   25.55
   4  -2  -2  615.81   37.01
   4   2  -2  586.53   21.16
   4   2  -2  634.73   36.49
   4  -2  -2  579.11   33.50
  -4  -2   2  578.78   37.00
   4   2  -2  542.70   30.19
   4  -2  -2  672.32   47.31
   4  -2  -2  603.54   31.74
  -4  -2   2  620.91   33.89
   4   2  -2  560.38   33.37
  -4  -2   2  583.08   32.81
  -4   2   2  611.72   30.16
   4  -2  -2  556.19   27.41
  -4   2   2  584.68   33.48
   4   2  -2  548.03   25.49
   4  -2  -2  635.19   28.32
   2  -4 -10 4391.78   81.11
   2   4 -10 4603.66   94.82
   2  -4 -10 4775.15   93.44
  -2   4  10 4285.21   84.47
   2   4 -10 4553.92   90.74
   2  -4 -10 4326.11   82.75
   2   4 -10 4339.60   76.07
  -2  -4  10 4546.11   90.28
   2   4 -10 4280.49   85.54
   2  -4 -10 4410.34   61.66
  -2  -4  10 4496.47   93.96
  -2   4  10 4290.56   90.52
  -2  -4  10 4371.49   77.19
  -2  -4  10 4472.90   70.97
   2  -4 -10 4721.31   92.51
  -2   4  10 4344.81   65.75
  -2  -4  10 4243.46   86.37
  -4   2   0  922.94   38.54
   4  -2   0  895.71   40.36
   4   2   0  941.82   37.30
   4  -2   0  879.55   43.51
  -4   2   0  864.06   23.97
   4  -2   0  864.90   32.70
   4   2   0  858.13   26.83
  -4  -2   0  908.57   41.02
  -4  -2   0  935.66   40.48
  -4   2   0  879.43   34.68
   4  -2   0  905.80   40.48
   4   2   0  952.17   41.70
   4   2   0  907.77   41.01
   4  -2   0  863.09   32.42
   4  -2   0  834.31   28.11
  -4  -2   0  937.98   41.16
   0  -3  13 6155.91  106.24
   0  -3  13 6307.45  106.52
   0   3  13 6123.84  106.61
   0  -3 -13 5930.17   91.32
   0   3  13 5993.02   97.40
   0   3  13 6230.16  110.01
   0   3 -13 6267.33  105.78
   0  -3 -13 6174.24  100.54
   0  -3  13 6320.71  102.45
   0  -3 -13 5832.30  105.12
   0  -3  13 6066.00  103.05
   3  -1   9  202.70   16.77
  -3  -1  -9  197.67   20.79
   3  -1   9  174.45   21.92
   3   1   9  192.68   23.12
   3  -1   9  172.97   39.26
  -3   1  -9  186.10   17.98
   3  -1   9  186.86   20.96
   3   1   9  186.33   44.61
   3   1   9  218.11   18.92
  -3  -1  -9  181.08   17.35
  -3   1  -9  171.74   21.52
   3   1   9  164.59   23.51
   3  -1   9  166.22   20.77
  -1  -6   6 1304.85   45.79
   1  -6  -6 1317.96   40.98
   1   6  -6 1202.39   44.06
  -1   6   6 1263.93   40.26
  -1  -6   6 1261.39   40.40
  -1  -6   6 1316.34   48.13
   1  -6  -6 1414.39   48.68
   1  -6  -6 1166.61   44.49
  -1   6   6 1352.20   45.93
  -1  -6   6 1295.23   47.02
   1  -6  -6 1216.01   46.42
  -1  -6   6 1368.47   50.29
  -1  -6   6 1298.34   47.66
  -1  -6   6 1177.27   30.70
  -4   2   3  924.96   40.23
   4   2  -3  949.71   35.06
   4   2  -3  988.05   40.21
  -4  -2   3  937.22   40.84
  -4   2   3  844.76   32.14
  -4  -2   3  860.67   39.28
   4   2  -3  901.81   28.38
   4  -2  -3  889.43   32.94
   4  -2  -3  869.57   39.67
   4   2  -3  954.39   44.78
   4  -2  -3  829.26   35.12
   4  -2  -3  951.88   39.96
  -4  -2   3  857.21   40.03
   4  -2  -3  919.85   41.54
  -4   2   3  980.61   40.66
   4   2  -3  891.41   40.00
  -2  -1 -12 1739.73   53.59
   2  -1  12 1566.27   45.94
   2   1  12 1710.06   96.75
  -2   1 -12 1793.16   54.91
   2  -1  12 1680.12   50.95
   2   1  12 1771.00   52.35
   2   1  12 1650.85   45.90
  -2  -1 -12 1527.20   35.00
  -2   1 -12 1623.32   40.58
   2   1  12 1662.26   53.65
  -2   1 -12 1642.34   36.54
   2  -1  12 1708.29   53.62
   2  -1  12 1660.42   42.36
   2  -1  12 1602.03   37.88
   2   1  12 1609.42   41.11
   2  -1  12 1630.64   44.53
   3  -1 -11   48.87   13.50
  -3  -1  11   42.15   17.47
  -3  -1  11   43.34   16.22
   3   1 -11   30.50    7.73
   3   1 -11   24.29   15.25
   3  -1 -11   42.96   10.70
   3  -1 -11   25.66   17.81
   3  -1 -11   43.67    8.68
  -3  -1  11   29.38   12.47
  -3   1  11   17.27   16.87
   3   1 -11   27.93   19.20
   3  -1 -11   19.02   19.29
   3   1 -11   36.22   18.04
   3   1 -11   23.92   18.75
  -3   1  11   31.53    9.81
   3  -1 -11   33.71   19.02
  -3  -1  11   47.17   15.61
  -3   1  11   37.28   18.68
  -3   3  -7  781.40   26.96
   3   3   7  773.76   31.36
   3  -3   7  762.71   32.12
  -3  -3  -7  750.20   36.45
  -3   3  -7  739.76   32.29
   3  -3   7  809.08   36.01
  -3  -3  -7  807.13   39.50
   3  -3   7  767.64   38.50
   3  -3   7  790.15   30.16
  -3   3  -7  757.51   24.82
   3   3   7  819.13   38.14
   3  -3   7  785.59   36.82
   3   3   7  757.05   33.52
  -3  -3  -7  777.92   30.48
   3  -3   7  718.65   26.48
   4   0  -6   10.34   12.32
  -4   0   6    4.06   14.02
   4   0  -6   15.50   15.18
   4   0  -6   18.09   16.07
   4   0  -6   28.81   13.82
  -4   0   6   -3.04   13.29
  -4   0   6   31.12   15.99
   4   0  -6   15.80   10.19
  -4  -1  -3 1028.60   43.47
  -4   1  -3 1020.39   38.20
   4  -1   3  937.27   42.64
   4   1   3 1014.69   42.62
  -4   1  -3  960.24   27.33
   4   1   3 1057.12   45.45
   4  -1   3  976.83   37.45
   4  -1   3  997.64   38.86
   4   1   3  985.45   41.55
   4  -1   3  904.11   28.06
  -4  -1  -3 1023.42   43.99
  -4   1  -3  966.31   40.42
   4  -1   3  947.35   43.25
   4   1   3  968.28   36.48
  -3  -3   9  177.81   20.55
   3   3  -9  163.94   22.06
   3  -3  -9  171.70   23.25
  -3  -3   9  156.38   21.43
  -3   3   9  176.22   21.55
  -3  -3   9  180.30   22.80
  -3  -3   9  184.82   21.53
   3  -3  -9  153.28   15.02
  -3   3   9  139.34   17.45
   3   3  -9  154.39   12.81
   3  -3  -9  191.67   18.72
   3  -3  -9  172.12   21.87
   3   3  -9  134.16   19.44
  -3  -3   9  171.80   21.82
  -3   3   9  139.19   13.79
   3   3  -9  162.59   22.91
   3  -3  -9  167.56   20.91
   3  -3  -9  162.18   17.30
  -4   2  -1   37.22   11.60
  -4   2  -1   41.41   14.37
  -4  -2  -1   80.95   18.73
   4   2   1   54.88    9.29
  -4  -2  -1   64.84   17.20
   4  -2   1   52.53   11.52
   4  -2   1   39.80   15.44
   4  -2   1   50.86   20.80
   4   2   1   69.30   18.49
   4  -2   1   68.82   18.94
  -4   2  -1   48.98    7.96
   4  -2   1   38.52    9.20
   4   2   1   38.91   16.07
   4  -2   1   56.68   11.87
   4   2   1   72.58   21.33
   4   2   1   42.73   12.87
  -1  -3  13 2246.44   44.82
  -1  -3  13 2247.48   61.74
   1  -3 -13 2248.58   47.29
  -1  -3  13 2311.76   60.89
   1   3 -13 2224.20   62.47
  -1   3  13 2379.02   65.62
  -1  -3  13 2304.25   62.22
  -1  -3  13 2168.96   59.84
   1   3 -13 2390.19   64.90
   1  -3 -13 2193.15   58.34
  -1   3  13 2239.59   55.04
  -1   3  13 2308.12   65.06
   1  -3 -13 2155.65   60.46
   1   3 -13 2231.50   59.89
  -1  -3  13 2378.87   54.19
   1  -3 -13 2261.25   63.14
   1  -4  11  379.81   25.74
  -1   4 -11  459.52   92.26
   1  -4  11  466.57   30.45
   1   4  11  382.60   29.39
  -1  -4 -11  394.76   24.68
   1  -4  11  456.32   29.43
  -1   4 -11  401.21   31.45
  -1  -4 -11  458.52   30.64
   1   4  11  385.05   28.66
   1  -4  11  442.58   27.82
   1   4  11  422.14   26.26
  -1  -4 -11  412.73   19.53
   1  -4  11  422.16   25.65
   0  -2  14  942.44   35.10
   0  -2 -14  879.57   33.05
   0   2 -14  987.56   41.13
   0  -2  14  896.44   28.56
   0   2  14  911.24   39.67
   0   2  14  994.64   41.65
   0  -2  14  953.83   42.62
   0  -2  14  976.98   37.94
   0  -2  14  956.43   35.81
   0   2  14  868.64   40.02
   0  -2  14  956.74   39.77
   0  -2 -14  909.47   37.09
   0  -2 -14  879.12   40.81
   0   2  14  913.98   27.52
   0   2 -14  830.69   38.73
   2   4   9 2660.71   68.02
   2   4   9 2604.54   51.22
  -2  -4  -9 2482.49   45.11
  -2   4  -9 2618.56   60.82
   2  -4   9 2690.86   64.50
   2  -4   9 2645.83   59.00
   2   4   9 2669.94   68.55
   2  -4   9 2614.36   66.73
   2  -4   9 2622.03   58.99
  -2  -4  -9 2603.34   63.09
  -2   4  -9 2820.16   69.73
   2  -4   9 2688.63   68.83
   2   4   9 2883.86   68.85
   1  -5   9  188.87   20.70
  -1   5  -9  193.29   23.74
  -1   5  -9  237.43   26.24
  -1  -5  -9  155.62   15.92
   1   5   9  178.33   17.36
  -1  -5  -9  148.80   14.63
   1  -5   9  175.45   22.09
   1   5   9  196.79   22.46
   1  -5   9  183.39   22.44
   1   5   9  180.69   22.77
   1  -5   9  179.69   16.71
   1  -5   9  231.22   23.30
  -1  -5  -9  174.73   23.72
   2  -6  -1   28.49    8.53
  -2  -6   1   20.59   10.05
  -2   6   1   28.72    7.37
  -2  -6   1   18.52   10.68
  -2  -6   1    9.25    9.89
  -2   6   1   26.61    9.71
  -2  -6   1   25.91   14.49
  -2  -6   1   28.36   13.21
   2  -6  -1   33.83   15.68
  -2  -6   1   26.17   14.47
   2  -6  -1   49.50   15.09
   2  -6  -1   21.89   14.19
   2  -6  -1   38.17   17.68
  -2  -6   1   43.84   15.84
  -2  -6   1   44.59   14.24
  -2  -6   1   37.55   11.63
   2  -6  -1   35.27   17.73
  -2   6   0 1315.33   36.57
   2  -6   0 1274.30   47.55
  -2  -6   0 1343.62   42.56
   2  -6   0 1285.86   46.68
   2  -6   0 1282.07   42.48
  -2  -6   0 1244.75   41.60
   2  -6   0 1286.06   47.39
  -2  -6   0 1315.71   42.54
  -2  -6   0 1325.57   42.47
  -2  -6   0 1296.38   42.00
  -2  -6   0 1303.87   41.31
  -2  -6   0 1238.27   40.97
  -2  -6   0 1342.85   42.88
   2  -6   0 1372.17   47.39
  -2  -6   0 1393.00   43.79
   2  -6   0 1219.37   37.33
   4   2  -4 1368.65   52.73
   4  -2  -4 1343.90   49.21
  -4  -2   4 1376.11   49.90
   4   2  -4 1341.12   47.88
  -4   2   4 1324.39   47.14
   4  -2  -4 1237.59   42.62
   4   2  -4 1325.67   50.10
   4  -2  -4 1330.82   41.09
   4   2  -4 1305.87   36.41
  -4   2   4 1290.45   40.47
  -4  -2   4 1319.19   48.79
   4  -2  -4 1355.40   46.12
   4   2  -4 1344.20   42.88
  -4  -2   4 1338.09   49.66
   4  -2  -4 1321.01   48.92
   0  -5  10  804.41   37.57
   0  -5 -10  856.22   36.56
   0  -5  10  831.49   39.64
   0   5 -10  898.19   56.81
   0   5  10  837.50   38.13
   0   5 -10  943.47   41.78
   0  -5 -10  825.96   39.69
   0  -5  10  834.05   40.38
   0   5  10  821.61   38.82
   0  -5 -10  808.48   33.11
   0  -5  10  810.42   37.70
   0  -5  10  787.09   33.86
   0   5  10  799.82   29.79
   0   6   7   96.24   23.37
   0  -6  -7   84.32   19.50
   0  -6  -7   81.09   12.15
   0  -6   7   74.09   18.41
   0  -6   7   99.91   13.86
   0  -6   7  100.61   19.82
   0  -6  -7   72.28   13.77
   0   6   7   74.53    9.87
   0  -6  -7   64.40   14.75
   0  -6   7  101.79   19.89
   0   6   7   83.78   17.72
   0  -6   7   79.86   18.78
   0   6  -7   74.69   17.83
   0  -6   7   91.51   16.68
   1   0  14   15.67    9.11
   1   0  14    0.95    9.32
   1   0  14    3.86    8.33
  -1   0 -14    5.05    6.86
   1   0  14    8.78   15.25
  -1   0 -14    6.82    4.97
  -1   0 -14    6.60   17.64
  -1   0 -14    4.91   11.78
   2  -6  -2 2076.95   58.71
  -2  -6   2 2096.64   55.15
   2  -6  -2 2100.09   60.51
  -2  -6   2 1950.21   51.47
   2  -6  -2 1973.01   44.25
  -2  -6   2 2119.53   55.26
  -2  -6   2 1945.82   51.03
  -2   6   2 1994.28   41.95
  -2  -6   2 2051.21   53.02
   2  -6  -2 2140.42   62.88
   2  -6  -2 2023.27   51.01
  -2  -6   2 1930.45   50.03
  -2   6   2 2070.67   51.41
  -2  -6   2 2044.58   52.13
   2  -6  -2 2064.03   57.96
  -2  -6   2 2061.93   54.24
  -2  -6   2 2116.67   55.54
  -4  -1   6 2404.69   67.69
   4  -1  -6 2487.91   66.76
  -4  -1   6 2505.89   65.67
  -4   1   6 2567.66   60.65
   4   1  -6 2558.31   67.88
   4  -1  -6 2481.20   67.90
   4   1  -6 2435.86   55.96
   4   1  -6 2620.62   69.07
   4  -1  -6 2532.88   63.59
  -4   1   6 2565.25   68.68
  -4  -1   6 2616.08   68.62
   4   1  -6 2503.80   63.50
   4  -1  -6 2411.12   62.55
   4   1  -6 2479.40   66.85
  -4   1   6 2579.35   67.37
   4  -1  -6 2441.08   57.24
  -3   4  -5  156.43   12.96
   3   4   5  167.43   17.34
   3  -4   5  176.45   17.08
   3  -4   5  144.41   19.01
   3   4   5  164.17   12.65
  -3  -4  -5  154.52   15.60
   3  -4   5  152.45   14.56
   3   4   5  153.84   20.35
   3  -4   5  169.22   19.48
   3   4   5  168.21   18.23
   3  -4   5  158.59   22.98
  -3   4  -5  159.17   17.02
  -3  -4  -5  204.04   24.65
   3  -4   5  169.60   19.26
  -3  -4  -5  157.78   22.21
  -1   2  14  547.72   38.08
  -1   2  14  407.22   19.33
  -1  -2  14  453.04   22.40
  -1  -2  14  517.83   28.75
  -1   2  14  503.40   32.32
  -1  -2  14  496.08   31.95
   1  -2 -14  467.87   22.54
   1   2 -14  536.67   34.26
   1  -2 -14  511.84   33.56
   1  -2 -14  474.75   28.58
   1   2 -14  549.75   26.69
   1  -2 -14  538.86   32.28
   1   2 -14  482.96   31.24
   1   2 -14  530.41   34.54
  -1  -2  14  506.34   30.31
  -1   2  14  471.53   28.16
  -1  -2  14  468.03   31.38
   3  -4  -7  111.95   19.53
   3   4  -7  123.37   16.34
   3   4  -7  112.73   20.87
   3  -4  -7   95.04   16.30
  -3   4   7   88.63   18.30
   3  -4  -7  126.40   19.86
  -3  -4   7   90.45   16.02
  -3  -4   7   99.44   20.75
  -3  -4   7  102.68   15.17
   3  -4  -7  119.56   13.56
  -3  -4   7  114.14   16.94
  -3   4   7   98.94   18.06
   3   4  -7   87.07   10.87
   3  -4  -7  113.45   16.60
   3  -4  -7   92.95   14.28
  -3  -4   7  116.07   21.70
  -2  -6  -110452.47  106.51
   2  -6   110281.86  105.87
  -2  -6  -110314.62  109.95
  -2  -6  -110347.31  108.13
  -2  -6  -110384.83  106.10
   2  -6   110120.72  121.81
   2  -6   110637.11  125.24
  -2  -6  -110220.75  103.67
  -2  -6  -110261.56  103.85
   2  -6   110551.22  125.13
  -2  -6  -110251.01  111.81
   2  -6   110535.74  117.21
  -2   6  -110554.51  165.01
  -2   6  -110304.20   88.27
  -2  -6  -110348.37  113.62
   2   5  -8 1684.00   51.69
  -2  -5   8 1808.29   56.09
  -2  -5   8 1652.95   51.06
   2  -5  -8 1767.76   55.96
   2   5  -8 1661.16   51.66
   2  -5  -8 1779.64   48.93
  -2  -5   8 1603.62   38.68
   2   5  -8 1727.81   45.32
  -2   5   8 1692.95   51.84
  -2   5   8 1737.77   49.46
   2  -5  -8 1716.75   50.21
   2  -5  -8 1672.94   34.47
  -2  -5   8 1731.07   43.87
  -2  -5   8 1785.51   55.17
  -2  -5   8 1699.62   53.75
   2  -5  -8 1795.24   56.13
   4   0   4 1267.30   39.84
   4   0   4 1234.10   44.51
   4   0   4 1284.33   49.52
  -4   0  -4 1220.12   42.55
   4   0   4 1246.30   46.02
  -4   0  -4 1258.73   43.80
   2  -3 -12 3721.33   49.73
   2   3 -12 3860.88   67.25
  -2  -3  12 3895.17   79.43
   2  -3 -12 3965.69   82.09
  -2  -3  12 3979.83   77.68
   2  -3 -12 3964.10   68.89
  -2  -3  12 3824.39   69.36
   2   3 -12 3942.11   79.90
  -2   3  12 3822.19   92.87
   2  -3 -12 4103.45   74.89
   2   3 -12 3882.88   80.90
  -2   3  12 3854.99   77.80
  -2  -3  12 3914.05   81.12
   2  -3 -12 3811.28   79.71
  -2   3  12 3914.63   64.90
  -2  -3  12 3808.24   62.23
   2   3 -12 4096.91   95.16
   0  -4  12 2939.13   43.62
   0   4  12 2898.40   68.39
   0  -4 -12 2870.30   62.27
   0   4  12 3016.57   69.79
   0  -4  12 3151.56   66.58
   0  -4  12 2951.60   65.55
   0   4 -12 3103.74   69.94
   0  -4  12 2997.86   69.56
   0  -4 -12 3185.05   74.16
   0   4 -12 3060.01   69.66
   0  -4 -12 2974.21   59.15
   0   4 -12 2946.64   70.60
   0   4  12 3056.16   59.45
   0  -4  12 2877.92   67.88
  -2  -2  13  828.82   38.92
  -2   2  13  801.81   32.58
   2  -2 -13  754.68   37.47
   2  -2 -13  786.26   39.59
  -2  -2  13  847.57   37.04
   2   2 -13  871.76   40.78
   2   2 -13  907.56   42.90
   2  -2 -13  834.35   35.21
  -2   2  13  821.15   39.20
  -2   2  13  855.34   40.04
  -2  -2  13  824.42   35.41
   2   2 -13  828.03   39.80
  -2   2  13  751.12   25.13
   2  -2 -13  743.08   26.24
  -2  -2  13  861.16   33.67
  -2  -2  13  834.42   36.73
   2   2 -13  768.77   32.62
   2  -2 -13  787.18   35.07
   1  -6   6 1992.86   57.43
   1  -6   6 1881.23   55.52
  -1  -6  -6 2004.31   50.42
  -1  -6  -6 1872.86   45.11
   1  -6   6 1911.11   57.22
  -1  -6  -6 1867.61   37.22
  -1  -6  -6 1850.30   54.20
   1   6   6 2013.75   54.12
   1   6   6 1887.96   44.29
   1  -6   6 1951.61   55.71
   1  -6   6 1903.34   38.60
   1  -6   6 1979.79   54.07
   1   6   6 2004.31   56.37
  -4  -2  -2  338.69   28.78
   4  -2   2  328.87   25.43
  -4   2  -2  280.12   22.73
   4   2   2  276.91   24.94
   4  -2   2  306.99   27.89
  -4   2  -2  285.91   20.81
   4  -2   2  292.06   27.20
   4   2   2  293.68   25.17
  -4   2  -2  235.35   14.24
   4  -2   2  304.69   22.08
  -4  -2  -2  313.84   26.59
   4   2   2  380.79   85.30
   4  -2   2  290.93   19.83
   4  -2   2  263.10   15.78
   4   2   2  303.02   22.83
   2  -6  -3   57.71   18.64
   2  -6  -3   32.73    7.88
  -2  -6   3   51.71   14.25
  -2  -6   3   16.79   10.45
   2  -6  -3   36.75   16.28
  -2  -6   3   29.45    9.37
   2   6  -3   43.19   12.46
   2  -6  -3   44.89   16.77
   2  -6  -3   25.37   13.20
   2  -6  -3   52.07   17.18
  -2  -6   3   36.90   11.14
  -2   6   3   30.35    8.92
  -2  -6   3   50.88   14.25
  -2   6   3   53.86   15.23
  -2  -6   3   29.38   10.79
  -2  -6   3   36.67   13.85
   1  -1  14  763.54   31.82
  -1   1 -14  719.30   38.12
   1   1  14  749.30   37.26
   1   1  14  742.57   25.66
  -1  -1 -14  785.83   39.81
   1  -1  14  723.74   31.36
   1   1  14  722.16   36.26
   1  -1  14  777.72   29.06
  -1   1 -14  682.84   28.43
  -1  -1 -14  719.25   28.38
   1  -1  14  784.35   38.60
   1  -1  14  764.65   27.35
  -1   1 -14  721.36   31.53
  -1  -1 -14  720.97   30.27
   1   1  14  740.41   29.80
   1  -1  14  797.14   34.94
   1   5 -10 1128.62   43.30
   1  -5 -10 1089.51   43.55
  -1   5  10 1116.18   44.01
  -1   5  10 1057.00   28.81
  -1  -5  10 1132.37   30.48
  -1   5  10 1202.75   44.28
  -1  -5  10 1162.97   48.52
  -1  -5  10 1070.28   40.66
   1  -5 -10 1131.91   34.47
   1   5 -10 1101.33   45.85
  -1  -5  10 1048.83   43.10
   1  -5 -10 1162.25   45.10
   1   5 -10 1050.32   43.26
  -1  -5  10 1151.98   44.38
   1  -5 -10 1133.89   41.66
  -2   6  -2 2717.71  109.90
   2  -6   2 2737.65   65.92
  -2  -6  -2 2613.92   52.92
   2  -6   2 2744.65   64.55
  -2  -6  -2 2692.99   54.77
  -2  -6  -2 2677.07   61.42
   2  -6   2 2768.49   64.26
   2   6   2 2686.68   54.34
   2   6   2 2676.97   76.69
   2  -6   2 2715.26   66.85
  -2  -6  -2 2554.28   52.99
  -2  -6  -2 2749.80   59.91
   2  -6   2 2606.93   60.04
  -2   6  -2 2644.75   43.38
   2   6   2 2768.09   70.02
  -2  -5  -7 1164.08   27.86
   2  -5   7 1271.65   45.32
   2   5   7 1222.91   32.85
   2  -5   7 1327.45   44.42
   2   5   7 1325.60   47.63
   2  -5   7 1299.69   35.57
   2   5   7 1187.94   75.60
   2  -5   7 1260.60   46.49
  -2   5  -7 1275.56   46.43
   2  -5   7 1340.64   47.91
  -2  -5  -7 1195.16   32.46
   2  -5   7 1284.17   47.98
  -2  -5  -7 1232.41   41.07
   2   5   7 1282.85   44.09
   4  -2  -5  128.75   19.27
   4  -2  -5  130.02   16.79
  -4  -2   5  111.90   21.04
   4  -2  -5   99.16   16.48
   4   2  -5  123.23   16.94
   4  -2  -5  123.19   23.40
   4   2  -5  128.90   22.88
  -4   2   5  110.03   14.70
   4   2  -5  133.78   17.25
  -4  -2   5  143.91   21.77
  -4   2   5  115.98   20.87
   4   2  -5  114.66   28.30
  -4  -2   5  122.48   21.01
   4  -2  -5  120.90   23.23
   4   2  -5  104.52   18.03
  -4   2   5  134.64   19.59
   1   4 -12 1338.16   48.68
  -1  -4  12 1482.89   50.64
  -1  -4  12 1393.37   37.87
   1  -4 -12 1402.90   50.37
  -1   4  12 1357.54   52.68
   1   4 -12 1368.46   45.67
   1  -4 -12 1425.77   49.94
   1  -4 -12 1384.02   36.51
  -1  -4  12 1366.88   48.06
  -1   4  12 1333.73   38.40
  -1  -4  12 1275.35   47.39
   1   4 -12 1473.56   50.96
  -1  -4  12 1361.20   51.93
  -1   4  12 1437.17   56.56
   1  -4 -12 1474.98   46.70
  -4   0   7  130.04   18.79
   4   0  -7  148.18   19.90
   4   0  -7  151.05   22.09
   4   0  -7  112.13   18.80
   4   0  -7  123.72   18.19
  -4   0   7  145.16   23.40
   4   0  -7  123.62   21.11
  -4   0   7  108.78   20.82
   4  -1   4 1999.16   37.73
   4  -1   4 2170.13   60.36
   4   1   4 2221.87   60.35
  -4  -1  -4 2266.20   61.44
   4   1   4 2164.17   59.34
   4  -1   4 2122.41   52.52
   4   1   4 2100.90   48.52
  -4   1  -4 2115.07   54.44
   4  -1   4 2172.75   62.38
  -4   1  -4 1998.43   38.35
   4  -1   4 2064.15   53.49
  -4   1  -4 2155.59   52.84
  -4  -1  -4 2130.42   58.01
   4   1   4 2181.20   61.21
   3   5  -1   95.63   17.98
   3  -5  -1   93.50   16.08
   3   5  -1  117.56   32.13
   3  -5  -1   95.86   19.20
   3   5  -1   81.88   12.72
  -3  -5   1  103.32   18.02
  -3   5   1  101.43   14.51
   3   5  -1   92.49   17.21
  -3  -5   1  114.56   20.22
   3   5  -1   89.84   14.11
   3  -5  -1  117.83   20.67
   3  -5  -1  110.28   21.20
  -3  -5   1   97.26   13.23
  -3   5   1  136.13   17.15
   3  -5  -1   84.88   14.15
  -3   5   1   80.22   10.53
  -3  -5   1  111.78   19.51
   1   6  -7  174.55   29.89
  -1  -6   7  154.27   18.15
   1   6  -7  148.64   18.85
  -1  -6   7  167.84   20.89
  -1  -6   7  166.73   22.26
  -1   6   7  158.54   20.12
  -1   6   7  175.98   17.91
  -1  -6   7  166.15   12.69
   1  -6  -7  158.28   21.46
   1  -6  -7  156.38   20.43
   1  -6  -7  209.56   23.63
  -1  -6   7  203.62   23.50
   1  -6  -7  181.14   16.75
  -1  -6   7  205.27   25.10
   3  -5   0  167.21   22.04
   3   5   0  164.37   16.69
  -3  -5   0  182.02   21.70
  -3   5   0  160.70   12.84
   3   5   0  218.36   18.61
  -3  -5   0  222.67   23.85
   3  -5   0  175.67   21.43
   3   5   0  170.68   33.55
   3   5   0  207.93   37.68
  -3   5   0  172.81   28.40
   3   5   0  172.01   18.53
   3  -5   0  177.63   19.03
  -3   5   0  167.14   16.37
  -3  -5   0  196.76   22.36
  -3  -5   0  171.53   15.12
   3  -5   0  178.30   19.81
   3  -5   0  163.77   17.75
  -3   5   2 1051.20   36.88
   3  -5  -2 1018.24   37.88
   3   5  -2  993.18   38.90
   3  -5  -2  999.78   36.21
   3   5  -2 1015.51   96.82
  -3  -5   2 1018.96   39.35
   3  -5  -2 1046.24   43.26
   3  -5  -2 1020.39   40.15
   3  -5  -2 1071.08   36.03
   3   5  -2 1003.11   34.13
   3   5  -2 1084.70   37.30
   3   5  -2  997.64   37.76
  -3  -5   2 1065.10   41.41
  -3   5   2 1023.68   31.66
  -3  -5   2 1050.09   43.47
   3  -5  -2 1028.26   41.48
   3   5  -2 1002.15   41.25
   0   0 -15  208.11   22.28
   0   0  15  198.67   20.87
   0   0  15  207.64   18.23
   0   0 -15  237.40   25.96
   0   0  15  192.84   19.07
   0   0 -15  212.32   20.26
   0   0 -15  214.82   16.96
   0   0  15  201.77   23.77
   0   0  15  230.18   18.04
  -3   2  -9 1299.08   43.03
  -3   2  -9 1167.97   29.47
   3  -2   9 1223.92   42.34
   3  -2   9 1217.61   38.12
   3   2   9 1224.17   38.22
  -3  -2  -9 1156.97   39.43
   3  -2   9 1259.29   45.83
  -3   2  -9 1183.67   34.26
  -3  -2  -9 1269.92   47.32
   3  -2   9 1198.31   30.53
   3   2   9 1314.16   48.82
   3  -2   9 1188.79   34.04
   3   2   9 1464.48  142.12
   3  -2   9 1304.56   47.57
   3   2   9 1228.05   42.18
   2  -3  11 1284.13   45.87
   2  -3  11 1268.67   47.07
  -2  -3 -11 1215.58   29.40
  -2   3 -11 1389.54   48.34
   2  -3  11 1295.67   40.96
  -2  -3 -11 1348.69   46.90
  -2   3 -11 1301.28   39.82
   2  -3  11 1336.16   44.50
   2   3  11 1307.61   47.21
   2   3  11 1406.17   50.25
   2  -3  11 1264.06   37.98
   2   3  11 1229.05   34.74
   2   3  11 1381.91   93.15
  -2   0  14 1258.45   45.57
   2   0 -14 1357.75   43.98
  -2   0  14 1300.32   44.08
   2   0 -14 1423.74   53.73
  -2   0  14 1305.40   40.43
   2   0 -14 1231.62   41.26
  -2   0  14 1331.10   49.41
  -2   0  14 1219.04   39.35
   2   0 -14 1372.56   55.33
  -2   2 -12  644.77   35.73
   2   2  12  613.81   28.38
  -2  -2 -12  564.90   21.50
  -2   2 -12  537.87   40.73
   2   2  12  608.81   34.97
   2  -2  12  584.41   26.34
   2  -2  12  573.33   30.55
   2   2  12  619.03   50.69
   2  -2  12  528.82   20.97
  -2   2 -12  587.63   25.88
   2  -2  12  516.46   23.11
   2  -2  12  550.86   32.20
   2   2  12  553.90   32.11
   2  -2  12  550.00   32.23
   2   2  12  564.10   22.30
  -2  -2 -12  605.06   33.04
  -3  -2  11  432.41   30.68
   3   2 -11  402.66   30.65
   3  -2 -11  466.61   34.95
   3  -2 -11  428.37   25.90
   3  -2 -11  432.14   30.95
   3   2 -11  409.85   31.38
   3   2 -11  436.80   30.13
  -3  -2  11  449.28   28.70
  -3   2  11  420.94   24.53
   3   2 -11  446.29   32.95
  -3  -2  11  457.94   30.58
  -3   2  11  409.79   31.56
   3  -2 -11  432.85   32.71
   3  -2 -11  390.45   21.67
  -3   2  11  435.03   37.68
  -3  -2  11  441.85   29.86
   3   2 -11  431.58   21.26
   3  -2 -11  402.07   23.30
  -2  -6   4 3871.44   63.99
   2  -6  -4 4157.53   78.10
   2  -6  -4 4061.55   63.88
  -2  -6   4 4046.27   77.12
   2  -6  -4 3894.69   50.47
  -2  -6   4 3933.92   72.07
   2   6  -4 3932.06   73.15
   2   6  -4 4163.58   71.14
   2  -6  -4 4106.93   78.50
  -2   6   4 3993.66   62.92
  -2  -6   4 4200.82   78.46
  -2  -6   4 3962.76   67.27
  -2   6   4 4078.02   71.09
  -2  -6   4 3955.59   75.48
   2  -6  -4 4065.80   80.62
  -2  -6   4 4023.80   74.62
  -1   0  15 1175.46   36.70
   1   0 -15 1253.47   45.94
   1   0 -15 1237.67   39.75
   1   0 -15 1224.45   47.60
  -1   0  15 1162.55   38.67
  -1   0  15 1182.70   40.80
  -1   0  15 1270.86   46.91
  -1   0  15 1228.77   45.05
  -4  -2  -3 1316.23   48.30
  -4   2  -3 1322.78   42.45
   4  -2   3 1368.20   51.85
   4   2   3 1299.46   46.06
  -4   2  -3 1266.22   32.28
   4   2   3 1263.22   46.78
   4  -2   3 1322.62   44.95
  -4   2  -3 1222.73   38.09
   4  -2   3 1279.56   51.59
   4  -2   3 1257.01   29.89
   4   2   3 1313.13   39.14
   4  -2   3 1230.12   39.30
   4   2   3 1390.21  108.99
   4  -2   3 1315.33   36.62
  -4  -2  -3 1344.13   48.27
   3   0  10  337.80   67.41
   3   0  10  298.55   26.68
   3   0  10  301.95   25.27
  -3   0 -10  317.82   22.36
   3   0  10  282.52   22.89
   3   0  10  289.54   16.17
  -3   0 -10  338.26   26.00
   3   5   1  891.87   38.06
   3   5   1  906.67   28.54
   3  -5   1  902.76   39.63
   3  -5   1  861.41   37.10
  -3  -5  -1  900.64   31.37
   3  -5   1  891.74   44.32
  -3  -5  -1  920.47   39.80
  -3   5  -1  934.98   32.45
   3   5   1  960.49   33.07
  -3  -5  -1 1015.44   41.77
  -3   5  -1  945.72   36.56
   3  -5   1  884.46   38.63
   3   5   1  927.63   36.26
   3  -5   1  882.69   35.04
   3   5   1  841.69   28.17
  -4  -1   7 7276.27  108.45
  -4   1   7 7330.67  111.46
   4   1  -7 7197.84  109.32
   4   1  -7 7267.14  104.16
   4   1  -7 7093.93  110.22
  -4  -1   7 7364.34  109.20
  -4   1   7 7140.64   95.74
   4  -1  -7 7179.91  104.42
  -4   1   7 7201.95  106.52
   4  -1  -7 7299.88   95.63
   4  -1  -7 7172.69  112.94
   4   1  -7 7041.75  105.57
   4  -1  -7 7063.30   97.53
  -4  -1   7 7395.26  110.24
   4   1  -7 7251.00   93.63
   4  -1  -7 7306.47  107.78
   3   5  -3 1411.26   46.29
  -3  -5   3 1471.17   51.23
   3  -5  -3 1342.29   47.41
   3   5  -3 1506.18   44.76
  -3  -5   3 1453.54   45.31
  -3   5   3 1422.41   43.59
   3  -5  -3 1391.98   46.95
   3   5  -3 1380.68   48.58
   3   5  -3 1318.56   46.91
   3   5  -3 1578.58   42.85
   3  -5  -3 1342.05   39.00
  -3   5   3 1385.25   38.57
   3  -5  -3 1442.04   42.91
  -3  -5   3 1456.75   49.64
   3  -5  -3 1471.00   46.09
   3  -5  -3 1354.42   48.43
  -3  -5   3 1452.71   47.79
   0  -7   0   48.91   24.87
   0   7   0    1.18    8.35
   0  -7   0   16.01   14.66
   0  -7   0   -3.72   11.17
   0   7   0  -11.07   17.20
   0  -7   0   16.98    8.45
   2   6   3 4188.76   77.43
   2   6   3 4256.55   80.41
   2  -6   3 4528.87   76.40
   2   6   3 4313.56   67.22
  -2  -6  -3 4167.94   61.93
  -2   6  -3 4519.32  103.80
   2  -6   3 4494.71   82.45
  -2  -6  -3 4465.55   68.75
   2  -6   3 4483.75   82.71
  -2  -6  -3 4384.36   74.32
   2   6   3 4475.59   94.77
  -2  -6  -3 4417.75   66.29
   2  -6   3 4428.00   83.28
  -2  -6  -3 4225.67   77.60
   2  -6   3 4490.27   85.89
   3   0 -12   43.97   17.86
  -3   0  12   42.31   17.68
   3   0 -12    1.15   17.03
   3   0 -12   72.00   25.52
   3   0 -12   38.79   11.45
   3   0 -12   37.86   12.29
  -3   0  12   36.60   13.52
  -3   0  12   37.50   11.67
  -3   0  12   36.87   11.62
   0  -7  -1 5091.45   66.30
   0   7  -1 4867.56   57.35
   0  -7   1 5011.67   73.18
   0   7   1 5078.99   65.79
   0  -7   1 4878.38   88.63
   0  -7   1 5090.11   79.70
   0  -7  -1 5108.03   87.89
   0   7  -1 5035.47   64.96
   0   7   1 5079.85   73.48
   0  -7  -1 4865.25   72.10
   0  -7   1 5026.17   84.26
   0  -7   1 4840.12   84.87
   0  -7  -1 4955.65   80.71
   0  -7  -1 5013.12   86.49
   0  -7  -1 5005.27   90.32
   0  -7   1 4861.65   87.19
  -2  -4  11 3932.48   79.61
  -2  -4  11 3892.22   79.67
   2   4 -11 4138.61   86.64
   2  -4 -11 3767.73   68.17
  -2   4  11 3855.61   78.84
   2   4 -11 3993.19   80.03
   2   4 -11 3822.16   67.77
   2  -4 -11 3926.69   81.33
  -2  -4  11 3899.75   83.08
  -2  -4  11 3816.57   67.12
   2   4 -11 3850.67   81.57
  -2   4  11 3781.38   76.15
   2  -4 -11 3726.15   78.88
   2  -4 -11 4058.04   76.23
  -2   4  11 3806.80   57.39
  -2  -4  11 3890.52   59.81
   3  -3   8 1876.82   41.44
   3  -3   8 1940.57   56.53
   3  -3   8 2022.45   59.89
   3  -3   8 1857.77   48.32
   3  -3   8 1850.81   49.72
   3   3   8 2184.98  173.82
  -3   3  -8 1827.06   38.57
   3  -3   8 1889.05   43.48
  -3   3  -8 1863.62   49.39
  -3  -3  -8 1878.45   56.60
   3   3   8 1972.22   51.68
   3   3   8 1919.93   59.46
  -3  -3  -8 2005.03   49.96
   3  -3   8 1718.52   41.88
   3   3   8 1967.01   46.08
   0   1  15 2263.98   61.30
   0   1 -15 2101.66   59.14
   0   1  15 2178.80   55.48
   0   1  15 2063.17   40.32
   0  -1  15 2170.72   53.85
   0  -1  15 2204.68   52.98
   0  -1 -15 2170.84   62.26
   0   1 -15 2367.84   64.30
   0   1  15 2109.93   45.65
   0  -1  15 2125.61   53.68
   0  -1 -15 2244.49   55.49
   0   1 -15 2214.31   55.01
   0  -1  15 2170.06   47.99
   0  -1 -15 2211.12   56.57
   0  -1 -15 2037.26   38.22
   0   1 -15 2135.82   59.41
   0  -1  15 2254.74   62.54
   0   1  15 2181.36   59.84
  -4   0  -5 1026.74   39.81
  -4   0  -5  960.16   27.93
  -4   0  -5  936.94   38.33
   4   0   5  992.33   35.91
   4   0   5 1070.38   45.28
   4   0   5  976.73   42.97
   4   0   5  957.69   40.27
   3   4   6 1319.93   39.21
  -3   4  -6 1242.73   31.22
   3   4   6 1326.34   42.25
  -3  -4  -6 1345.77   50.26
   3  -4   6 1276.19   46.77
   3  -4   6 1270.19   38.62
   3   4   6 1350.35   48.31
   3  -4   6 1265.11   35.96
   3  -4   6 1268.88   45.15
   3  -4   6 1347.19   49.43
  -3   4  -6 1303.67   42.90
  -3  -4  -6 1258.66   38.56
  -3  -4  -6 1286.37   48.18
   3  -4   6 1350.47   41.91
   3  -3 -10  263.38   26.85
   3  -3 -10  215.36   26.76
   3   3 -10  252.47   28.78
  -3  -3  10  261.45   26.78
   3  -3 -10  229.44   19.30
   3   3 -10  251.67   17.24
  -3   3  10  229.96   17.67
  -3  -3  10  219.18   25.21
  -3  -3  10  232.98   21.59
   3   3 -10  238.25   26.00
  -3   3  10  222.23   26.41
   3  -3 -10  225.48   24.58
  -3  -3  10  229.16   24.81
   3  -3 -10  255.19   21.13
   3  -3 -10  205.79   15.50
  -3   3  10  207.06   24.57
  -3  -3  10  273.47   25.18
   3   3 -10  235.10   27.56
  -2  -1  14 1565.54   52.15
   2   1 -14 1498.73   48.66
   2  -1 -14 1534.42   46.62
  -2  -1  14 1453.94   49.01
   2   1 -14 1607.81   55.91
   2   1 -14 1511.93   45.38
  -2  -1  14 1546.76   47.88
   2  -1 -14 1547.36   54.15
   2  -1 -14 1546.18   41.09
   2  -1 -14 1607.50   48.17
  -2  -1  14 1583.99   47.36
  -2   1  14 1519.37   40.36
  -2  -1  14 1412.02   44.08
  -2   1  14 1474.99   50.57
   2   1 -14 1618.03   55.23
  -2   1  14 1455.62   51.72
   2  -1 -14 1459.24   53.02
  -2   1  14 1461.57   46.60
   3   4  -8  376.54   32.93
   3  -4  -8  317.16   22.82
  -3  -4   8  309.78   27.95
  -3   4   8  315.20   27.60
  -3  -4   8  347.11   24.77
   3   4  -8  327.14   17.79
   3  -4  -8  353.82   23.11
  -3  -4   8  350.65   24.72
  -3   4   8  321.18   26.29
  -3  -4   8  395.54   32.00
  -3  -4   8  356.04   29.10
   3  -4  -8  319.65   17.84
   3  -4  -8  332.49   27.94
   3  -4  -8  324.30   29.85
   3   4  -8  388.33   25.52
   3  -4  -8  390.93   32.63
  -4   2   6  797.55   31.99
  -4  -2   6  795.95   39.87
   4   2  -6  779.62   40.20
   4  -2  -6  822.06   34.24
  -4  -2   6  873.22   43.94
  -4   2   6  851.24   38.41
   4  -2  -6  868.50   36.34
   4   2  -6  916.90  112.35
   4   2  -6  827.37   33.97
   4  -2  -6  841.62   38.58
   4   2  -6  811.28   35.63
  -4  -2   6  892.30   41.95
  -4   2   6  813.20   38.52
   4  -2  -6  870.19   39.61
   4  -2  -6  800.61   42.42
   4   2  -6  862.90   40.96
  -1  -3 -13  826.46   26.48
  -1   3 -13  827.16   34.05
   1   3  13  829.77   24.94
   1  -3  13  845.32   38.88
  -1  -3 -13  894.80   34.28
   1  -3  13  848.87   26.49
   1  -3  13  935.30   41.46
  -1   3 -13  996.41   43.53
   1   3  13  760.66   35.85
  -1  -3 -13  910.91   41.43
   1   3  13  855.87   40.02
   1  -3  13  953.89   40.60
   1  -3  13  907.07   35.04
  -1   3 -13  929.09   55.38
   0  -6   8 1146.19   46.54
   0   6   8 1069.87   41.57
   0  -6   8 1120.23   36.55
   0  -6  -8 1120.17   43.16
   0  -6   8 1095.92   45.10
   0  -6   8 1143.61   45.11
   0  -6  -8 1118.27   45.35
   0   6  -8 1173.92   45.69
   0   6   8 1089.09   30.06
   0  -6   8  988.89   42.34
   0  -6   8 1059.77   42.88
   0  -6  -8  988.91   28.91
   0  -6  -8 1137.18   39.85
   0   6   8 1092.79   44.88
   1  -1 -15 1080.98   45.16
  -1  -1  15 1063.25   39.43
  -1   1  15 1001.22   29.61
  -1  -1  15 1035.30   38.24
  -1  -1  15 1054.60   37.43
   1   1 -15 1053.55   43.55
  -1  -1  15 1000.58   42.37
   1  -1 -15 1043.40   35.49
   1  -1 -15 1004.10   43.80
   1   1 -15 1066.21   44.53
  -1   1  15  998.16   31.62
  -1  -1  15 1019.20   36.20
  -1   1  15 1025.97   42.74
   1   1 -15 1081.81   39.45
   1  -1 -15 1029.96   41.55
  -1   1  15 1044.82   42.46
   1   1 -15 1073.75   47.60
  -1   1  15 1041.57   41.19
  -3  -1 -10  223.62   19.87
   3  -1  10  233.93   24.97
   3  -1  10  238.37   57.40
   3   1  10  231.71   24.61
   3  -1  10  213.57   15.92
  -3   1 -10  230.90   20.52
  -3  -1 -10  206.48   20.22
   3  -1  10  221.01   22.83
   3  -1  10  256.90   25.71
   3   1  10  237.47   50.68
   3   1  10  251.84   21.09
   3   1  10  211.78   24.67
  -3   1 -10  226.39   20.46
   0  -7  -2  441.94   30.03
   0  -7  -2  389.52   27.81
   0  -7   2  378.93   22.79
   0  -7  -2  391.25   18.95
   0  -7   2  394.28   29.09
   0  -7   2  390.12   27.90
   0   7   2  367.92   21.72
   0  -7   2  402.21   25.38
   0   7  -2  385.52   19.11
   0   7   2  363.66   23.17
   0  -7   2  440.14   30.40
   0  -7  -2  403.21   24.34
   0  -7  -2  403.40   22.16
   0  -7  -2  370.67   28.48
  -4  -3   1 1675.95   55.66
   4   3  -1 1650.55   48.89
  -4  -3   1 1678.34   56.68
  -4   3   1 1476.13   35.35
   4   3  -1 1629.47   52.75
   4  -3  -1 1618.67   54.91
  -4   3   1 1555.86   47.67
   4   3  -1 1597.83   38.73
   4  -3  -1 1546.87   38.98
   4  -3  -1 1640.22   53.56
   4  -3  -1 1530.60   42.71
   4   3  -1 1598.87   53.31
   4  -3  -1 1479.84   44.86
   4  -3  -1 1599.82   50.37
  -4   3   1 1538.33   44.18
  -4  -3   1 1531.83   52.36
   3   5   2 3787.55   89.67
   3  -5   2 3634.90   76.83
  -3   5  -2 3587.84   57.57
   3   5   2 3526.74   51.81
   3   5   2 3500.95   58.72
   3  -5   2 3782.23   77.43
   3   5   2 3733.87   68.45
  -3  -5  -2 3580.70   59.29
  -3  -5  -2 3904.83   78.84
  -3  -5  -2 3665.18   76.72
   3   5   2 3509.75   57.51
  -3   5  -2 3673.59   69.96
   3   5   2 3808.97   70.45
   3  -5   2 3778.37   70.96
   3  -5   2 3766.41   71.32
   3  -5   2 3711.80   74.23
  -3  -5   4 1613.72   52.21
   3  -5  -4 1524.31   52.68
   3  -5  -4 1539.89   39.85
   3  -5  -4 1577.91   51.72
   3   5  -4 1504.29   36.62
   3   5  -4 1652.78   54.59
  -3   5   4 1628.43   49.50
  -3  -5   4 1541.77   47.88
   3  -5  -4 1650.28   46.37
   3   5  -4 1599.66   52.22
   3   5  -4 1650.41   45.27
  -3  -5   4 1578.90   46.67
   3  -5  -4 1580.24   45.90
   3   5  -4 1626.83   47.83
  -3  -5   4 1595.60   52.35
  -3   5   4 1568.79   42.57
   3  -5  -4 1556.30   51.75
   4   3  -2  477.55   24.23
  -4  -3   2  477.55   31.96
   4  -3  -2  442.64   31.42
   4   3  -2  484.11   33.79
  -4   3   2  460.13   21.34
  -4  -3   2  455.12   31.44
  -4   3   2  465.72   31.07
   4  -3  -2  482.64   32.95
   4   3  -2  476.23   28.62
   4  -3  -2  450.64   27.41
   4   3  -2  499.94   32.65
  -4  -3   2  458.07   31.46
   4  -3  -2  469.57   38.98
   4  -3  -2  469.82   28.01
  -4   3   2  458.64   27.52
   4  -3  -2  485.08   25.36
   4   3  -2  482.34   20.18
   1  -6   7  275.72   18.19
   1   6   7  341.23   25.65
   1  -6   7  286.19   29.10
  -1  -6  -7  307.78   22.83
   1   6   7  293.77   20.79
   1  -6   7  342.34   29.10
   1   6   7  315.93   26.57
   1  -6   7  364.63   28.28
  -1  -6  -7  314.74   20.94
   1  -6   7  340.67   28.64
   1  -6   7  304.53   26.22
  -1  -6  -7  306.04   25.54
  -1   6  -7  288.79   26.94
   3  -1 -12 1007.29   42.81
  -3  -1  12 1018.08   43.74
   3   1 -12  990.31   31.82
   3   1 -12  996.86   44.93
  -3   1  12 1005.94   43.28
  -3   1  12  990.91   38.69
   3  -1 -12  992.79   38.15
   3   1 -12 1029.26   45.73
  -3  -1  12 1054.15   44.60
   3  -1 -12  975.22   43.84
  -3  -1  12  976.27   40.96
   3   1 -12  997.27  158.16
   3  -1 -12 1047.22   34.39
   3  -1 -12  962.61   44.03
   3   1 -12 1022.19   46.64
  -3  -1  12 1060.06   42.13
  -3   1  12  994.14   42.07
   3  -1 -12 1011.99   73.35
   2   0  13   22.40   14.56
   2   0  13   38.52   12.96
  -2   0 -13   21.62    9.36
  -2   0 -13   32.26   13.50
   2   0  13   39.99   13.88
   2   0  13   20.73    9.34
   2   0  13   32.00   12.35
  -2   5   9 1517.77   49.88
  -2  -5   9 1467.45   51.66
   2  -5  -9 1524.48   55.72
  -2   5   9 1482.42   51.31
   2   5  -9 1486.79   50.73
   2   5  -9 1471.37   43.84
  -2  -5   9 1381.08   50.42
  -2  -5   9 1488.04   52.51
   2   5  -9 1471.29   50.61
   2  -5  -9 1457.27   51.21
  -2  -5   9 1509.31   51.90
  -2  -5   9 1447.17   41.50
   2  -5  -9 1402.27   43.58
  -2  -5   9 1406.99   36.77
   2  -5  -9 1420.90   47.72
  -4   3   0  404.01   26.05
   4   3   0  411.56   25.57
  -4  -3   0  396.66   30.57
   4  -3   0  376.51   29.15
   4  -3   0  397.85   22.82
   4   3   0  418.16   32.52
  -4   3   0  400.44   23.84
  -4  -3   0  457.55   32.62
  -4  -3   0  411.73   35.43
   4   3   0  420.77   19.76
   4  -3   0  410.89   21.80
   4  -3   0  405.72   30.16
   4  -3   0  442.38   25.88
   4  -3   0  437.45   31.00
   4   3   0  379.66   28.93
  -4   3   0  376.77   19.42
   2   6  -5 2543.25   56.74
   2  -6  -5 2537.74   65.78
   2  -6  -5 2335.01   47.78
   2  -6  -5 2698.29   65.53
  -2   6   5 2480.91   59.57
   2   6  -5 2473.70   59.48
  -2  -6   5 2595.68   64.95
  -2  -6   5 2413.26   61.69
  -2  -6   5 2460.62   52.82
   2  -6  -5 2547.07   62.07
  -2  -6   5 2414.32   57.70
   2  -6  -5 2492.16   65.50
   2   6  -5 2626.38   66.69
  -2   6   5 2430.26   52.02
  -2  -6   5 2446.21   63.26
  -2  -6   5 2436.92   50.12
   4   1   5 2817.77   54.79
  -4  -1  -5 3060.12   71.68
   4  -1   5 2924.80   60.92
   4   1   5 2839.78   68.60
   4  -1   5 2905.51   72.16
  -4  -1  -5 3015.87   69.87
  -4   1  -5 2714.20   48.19
  -4  -1  -5 2844.11   44.67
   4   1   5 2883.12   67.21
   4  -1   5 2866.53   69.45
  -4   1  -5 2929.22   64.50
   4   1   5 2850.40   67.88
   4  -1   5 2863.11   64.92
  -4   1  -5 2972.85   62.12
  -1  -5 -10  771.89   40.61
  -1   5 -10  710.77   38.26
  -1   5 -10  867.63  121.75
   1  -5  10  842.18   38.94
   1  -5  10  778.06   33.24
   1   5  10  751.20   32.51
   1  -5  10  824.82   38.70
  -1  -5 -10  745.76   27.74
   1   5  10  762.57   37.49
  -1  -5 -10  773.08   31.52
   1  -5  10  797.29   40.19
   1   5  10  763.95   39.45
   1  -5  10  726.64   38.88
  -4   3   3  209.00   19.91
  -4   3   3  220.76   21.91
  -4  -3   3  215.14   23.75
   4   3  -3  204.44   21.87
   4  -3  -3  238.87   27.39
   4   3  -3  181.71   14.78
   4  -3  -3  195.30   20.27
   4  -3  -3  231.61   20.36
   4  -3  -3  188.00   36.02
   4  -3  -3  178.35   23.33
   4  -3  -3  218.01   21.16
  -4  -3   3  216.42   24.53
   4   3  -3  227.21   20.56
  -4  -3   3  217.62   25.87
   4   3  -3  180.01   22.48
  -4   3   3  166.28   35.78
   4   3  -3  214.55   25.00
  -4   0   8 1499.27   54.90
  -4   0   8 1586.29   50.23
   4   0  -8 1621.23   48.60
   4   0  -8 1439.55   47.45
  -4   0   8 1555.77   54.88
   4   0  -8 1454.12   49.44
   4   0  -8 1459.80   51.76
   4   0  -8 1489.27   54.16
   2  -4  10  511.96   33.75
   2  -4  10  465.99   27.50
   2  -4  10  442.57   26.16
   2   4  10  486.63   32.24
   2   4  10  449.03   31.43
   2  -4  10  527.13   28.39
   2   4  10  482.71   77.93
  -2  -4 -10  503.40   32.21
  -2   4 -10  452.31   30.70
  -2   4 -10  514.26   51.66
  -2  -4 -10  441.98   19.66
   2  -4  10  466.38   31.61
   2   4  10  434.98   20.62
  -1   2 -14 1942.37   58.77
   1   2  14 1979.17   58.84
   1  -2  14 1830.77   50.98
   1  -2  14 1946.45   47.14
  -1  -2 -14 1980.72   59.00
   1  -2  14 1807.14   37.52
   1  -2  14 1894.89   58.07
  -1   2 -14 1804.76   49.50
  -1  -2 -14 1858.66   47.15
   1   2  14 1841.41   41.13
   1  -2  14 1921.01   55.87
   1   2  14 1927.11   56.84
   1  -2  14 1885.57   44.93
  -1   2 -14 1932.92   49.84
  -2   6  -4  360.97   31.88
  -2  -6  -4  335.66   24.80
   2   6   4  359.07   33.94
   2  -6   4  379.13   29.54
   2   6   4  335.98   25.62
  -2  -6  -4  324.21   18.21
   2  -6   4  339.97   29.30
  -2  -6  -4  355.10   20.53
   2   6   4  343.89   23.00
   2  -6   4  356.16   27.50
   2  -6   4  377.37   28.63
   2   6   4  367.21   21.97
   2  -6   4  388.01   26.19
   2   6   4  377.55   82.25
  -2  -6  -4  319.36   20.10
   4  -2   4 2255.01   63.94
  -4   2  -4 2168.06   51.10
  -4   2  -4 2275.51   54.51
  -4  -2  -4 2318.48   62.22
   4  -2   4 2256.14   55.75
   4   2   4 2271.72   49.43
   4   2   4 2221.36   57.27
   4   2   4 2260.39   62.85
   4  -2   4 2224.15   56.54
  -4   2  -4 2183.40   44.67
   4  -2   4 2191.33   61.62
   4   2   4 2155.40   61.40
   4  -2   4 2189.86   44.63
  -4  -2  -4 2343.57   64.10
   0  -7   3 1301.35   41.07
   0  -7   3 1488.39   52.12
   0  -7  -3 1339.20   46.69
   0  -7   3 1389.42   47.52
   0  -7  -3 1282.09   40.15
   0  -7   3 1267.76   30.93
   0  -7   3 1364.37   48.07
   0   7   3 1397.27   42.80
   0  -7  -3 1267.90   34.79
   0  -7   3 1322.81   43.51
   0   7  -3 1572.98  107.48
   0  -7  -3 1501.64   51.68
   0  -7  -3 1321.14   45.05
   0   7   3 1305.28   39.30
   0  -5 -11  143.58   18.73
   0  -5  11  118.50   28.04
   0   5  11  119.60   20.94
   0   5 -11  144.68   21.31
   0  -5 -11  160.65   24.77
   0   5  11  143.81   15.70
   0  -5  11  139.19   23.15
   0   5 -11  125.04   21.74
   0  -5 -11  136.15   19.31
   0  -5  11  147.19   21.84
   0   5  11   99.48   21.44
   0   5 -11  123.06   30.68
   0  -5  11  119.76   16.09
  -4   3  -1  217.18   16.20
   4  -3   1  185.41   15.91
   4   3   1  207.01   24.12
  -4  -3  -1  218.29   26.07
  -4   3  -1  183.42   17.00
   4  -3   1  220.28   24.13
   4  -3   1  197.00   17.16
   4  -3   1  180.42   23.03
   4   3   1  221.36   38.67
   4  -3   1  196.15   19.21
  -4  -3  -1  242.74   26.28
   4  -3   1  230.82   27.12
   4   3   1  223.72   25.41
  -4   3  -1  211.52   19.42
   4   3   1  201.33   20.79
   0  -3  14  886.14   42.08
   0   3 -14  859.69   38.90
   0  -3  14  955.93   38.73
   0  -3  14  904.79   40.88
   0  -3  14  936.37   39.48
   0  -3 -14  977.23   43.85
   0  -3 -14  840.37   35.80
   0   3 -14  968.45   42.36
   0  -3 -14  846.55   32.80
   0  -3  14  871.83   30.11
   0   3  14  924.95   43.61
   0   3  14  864.68   39.57
   0   3 -14  953.50   40.98
   0   3  14  954.12   39.52
  -1  -4 -12  697.51   31.14
  -1  -4 -12  674.75   24.42
  -1   4 -12  708.60   33.04
   1   4  12  712.22   34.84
   1  -4  12  735.33   33.75
  -1   4 -12  712.69   34.56
   1  -4  12  792.73   35.38
   1   4  12  731.21   39.04
   1  -4  12  734.06   38.75
   1  -4  12  703.04   36.14
  -1  -4 -12  766.11   40.41
  -1   4 -12  710.01   38.32
  -2  -1 -13 1310.50   32.97
  -2   1 -13 1307.54   36.96
  -2  -1 -13 1367.35   48.66
   2   1  13 1419.02   47.01
   2  -1  13 1325.28   37.58
   2   1  13 1464.18   53.86
   2  -1  13 1406.89   43.70
   2   1  13 1458.05   49.37
  -2   1 -13 1367.98   49.39
   2   1  13 1339.68   36.24
   2  -1  13 1377.16   49.52
   2  -1  13 1423.54   41.80
   2  -1  13 1364.10   46.24
   2  -1  13 1311.35   33.53
   2   1  13 1358.47   41.40
  -1  -6   8  943.57   42.98
  -1  -6   8 1006.33   46.04
   1  -6  -8  891.65   33.43
  -1   6   8  875.44   38.26
  -1  -6   8  926.59   41.15
  -1  -6   8  940.99   36.82
   1   6  -8  942.41   64.56
   1   6  -8  926.90   39.23
   1  -6  -8  891.15   41.46
  -1  -6   8  924.14   40.43
  -1   6   8  896.52   41.33
   1  -6  -8  885.94   38.71
   1  -6  -8  908.66   41.38
  -2  -5  -8  770.43   27.21
   2   5   8  816.65   40.58
   2  -5   8  860.72   40.12
   2  -5   8  801.61   30.73
   2  -5   8  799.18   40.53
  -2   5  -8  776.77   38.36
  -2  -5  -8  827.33   36.98
   2   5   8  805.90   48.61
   2  -5   8  778.68   36.05
   2  -5   8  725.11   34.58
   2   5   8  749.08   26.33
   2  -5   8  831.13   39.22
   2   5   8  847.49   37.67
   3   5   3 1069.69   43.94
   3   5   3 1262.31  101.72
   3  -5   3 1296.30   45.36
   3   5   3 1241.30   34.79
   3  -5   3 1280.03   44.73
  -3  -5  -3 1225.81   37.02
   3   5   3 1110.80   38.69
   3  -5   3 1258.26   46.91
   3  -5   3 1289.17   42.54
  -3   5  -3 1208.66   33.05
   3   5   3 1271.19   41.99
  -3  -5  -3 1249.20   46.66
  -3  -5  -3 1333.53   48.95
   3  -5   3 1254.28   46.99
  -3   5  -3 1319.45   43.58
   3   5   3 1342.44   42.24
   4   3  -4  157.35   13.87
  -4  -3   4  152.23   23.97
   4  -3  -4  180.89   23.30
  -4   3   4  195.35   19.79
   4  -3  -4  164.89   18.16
   4  -3  -4  224.61   21.34
  -4   3   4  140.39   30.66
  -4   3   4  164.23   14.14
  -4   3   4  172.93   21.89
  -4  -3   4  164.32   22.49
   4  -3  -4  152.41   21.50
   4   3  -4  193.53   23.53
   4   3  -4  193.99   20.79
   4  -3  -4  145.33   23.04
   4   3  -4  182.33   54.32
   4   3  -4  160.08   20.05
  -4  -3   4  188.38   23.71
  -3  -5   5  673.17   36.75
   3   5  -5  702.44   55.21
  -3  -5   5  738.10   37.14
  -3   5   5  694.66   33.68
   3  -5  -5  735.18   39.40
   3   5  -5  675.33   30.74
  -3   5   5  637.89   28.58
   3  -5  -5  680.59   38.44
   3  -5  -5  707.04   32.32
  -3  -5   5  653.47   31.76
   3   5  -5  697.87   36.11
  -3  -5   5  687.58   37.46
   3  -5  -5  699.03   32.28
   3  -5  -5  638.95   26.11
   3   5  -5  676.86   26.33
  -3  -5   5  751.61   34.46
   3  -5  -5  687.76   37.63
   4   1  -8 5881.42  101.75
   4  -1  -8 5990.59   89.90
   4  -1  -8 6081.52   92.36
   4  -1  -8 6316.74  107.15
  -4  -1   8 6239.67  105.86
   4   1  -8 6021.85   99.72
  -4   1   8 6018.98   99.35
   4  -1  -8 6245.31   98.98
   4   1  -8 5807.93  105.84
  -4   1   8 6041.15  103.05
  -4  -1   8 6051.44  100.04
   4   1  -8 6196.49   99.89
   4  -1  -8 6070.43  100.36
  -4   1   8 6106.23   90.12
  -4  -1   8 6385.16  102.43
   4   1  -8 6116.03   89.84
   1  -7   0 5503.49   73.39
   1   7   0 5640.59   79.77
  -1   7   0 5629.91   70.63
  -1  -7   0 5654.24   72.46
  -1  -7   0 5868.99   94.10
   1  -7   0 5741.74   98.32
  -1  -7   0 5543.98   84.48
   1  -7   0 5465.06   95.78
   1  -7   0 5615.88   82.02
  -1  -7   0 5483.86   87.84
  -1  -7   0 5552.29   89.22
  -1  -7   0 5524.26   78.73
   1   7   0 5674.89   76.80
   1  -7   0 5863.61   96.05
   1  -7   0 5666.56   96.62
  -1  -7   0 5711.55   81.79
   1  -7  -1 1989.63   59.46
  -1  -7   1 1973.79   57.33
   1  -7  -1 1951.11   58.68
  -1  -7   1 1890.96   51.92
   1  -7  -1 2031.96   57.13
   1  -7  -1 1898.17   42.47
  -1   7   1 1902.61   44.56
   1   7  -1 1954.84   47.35
  -1  -7   1 1887.70   43.98
  -1  -7   1 2018.76   56.22
   1   7  -1 1864.83   56.51
  -1  -7   1 1940.80   48.30
  -1  -7   1 1873.15   48.70
  -1  -7   1 2023.26   56.94
   1  -7  -1 1990.37   58.56
   1  -7  -1 1868.94   46.79
  -1   3  14 1608.07   55.34
  -1   3  14 1520.21   45.18
   1  -3 -14 1530.21   53.45
  -1  -3  14 1561.08   53.23
   1   3 -14 1596.94   53.51
   1   3 -14 1571.20   50.76
  -1  -3  14 1429.77   34.87
   1  -3 -14 1571.59   52.11
  -1  -3  14 1527.20   48.96
  -1   3  14 1490.62   51.97
  -1  -3  14 1495.98   43.08
  -1  -3  14 1495.58   52.11
  -1  -3  14 1485.18   50.72
   1  -3 -14 1436.12   46.94
   1  -3 -14 1494.07   36.95
  -4  -2   7 3010.55   72.58
   4  -2  -7 2895.18   61.93
  -4   2   7 3033.83   73.17
   4   2  -7 3050.46   73.15
  -4   2   7 2989.42   60.47
   4  -2  -7 2939.98   68.49
  -4  -2   7 3093.53   72.33
   4   2  -7 3167.88   77.31
   4  -2  -7 2947.52   75.89
  -4   2   7 2839.33   68.34
  -4  -2   7 2911.30   70.56
   4  -2  -7 2992.38   71.14
   4   2  -7 2935.71   66.93
   4   2  -7 2975.07   61.72
   4  -2  -7 2902.32   63.60
   4   2  -7 3021.66   73.16
  -1   7  -1  700.69   25.27
   1   7   1  727.22   31.20
  -1  -7  -1  728.64   33.80
   1   7   1  615.34   65.69
  -1  -7  -1  747.23   30.64
  -1  -7  -1  621.56   32.64
   1  -7   1  699.58   38.77
   1   7   1  717.92   30.61
   1  -7   1  737.33   38.63
  -1  -7  -1  719.46   38.44
   1  -7   1  665.45   29.21
   1  -7   1  733.71   38.54
  -1  -7  -1  639.19   29.78
   1  -7   1  641.83   36.29
   1  -7   1  652.20   31.05
  -1  -7  -1  709.73   30.40
  -2  -3  13  971.47   34.52
   2  -3 -13 1011.07   45.90
   2  -3 -13  909.20   43.96
  -2  -3  13  978.70   46.71
  -2  -3  13  964.38   44.68
   2   3 -13  935.08   35.98
   2   3 -13  901.97   47.25
  -2   3  13 1012.47   36.08
  -2  -3  13  929.28   41.59
   2   3 -13 1012.15   45.30
  -2   3  13  897.24   41.58
  -2   3  13  899.73   42.84
   2   3 -13  952.78   43.71
  -2  -3  13  925.57   38.53
   2  -3 -13  888.95   35.86
   2  -3 -13  973.49   39.77
   1   5 -11  727.59  112.30
   1  -5 -11  720.20   35.21
  -1   5  11  661.44   37.52
   1  -5 -11  708.17   37.48
  -1  -5  11  644.50   36.36
   1   5 -11  650.15   37.73
   1  -5 -11  653.25   27.56
  -1  -5  11  707.40   39.10
  -1  -5  11  648.71   37.16
  -1  -5  11  584.66   22.92
   1   5 -11  646.27   33.85
  -1   5  11  594.52   23.76
  -1   5  11  625.78   39.35
   1  -5 -11  672.95   36.73
  -1  -5  11  630.53   38.40
   1  -7  -2  847.92   39.59
  -1   7   2  771.00   32.14
   1  -7  -2  761.35   25.23
  -1  -7   2  827.40   39.34
   1  -7  -2  829.12   42.18
  -1  -7   2  885.88   39.10
   1  -7  -2  801.78   31.36
  -1  -7   2  841.47   35.36
   1   7  -2  712.97   79.09
  -1  -7   2  790.42   32.87
   1  -7  -2  889.67   38.86
  -1   7   2  810.32   27.36
  -1  -7   2  872.66   31.54
   1   7  -2  800.86   29.42
  -1  -7   2  803.41   39.05
  -1  -7   2  776.97   37.96
   1  -7  -2  780.06   40.02
   4  -3   2 1635.61   53.62
   4  -3   2 1613.16   53.86
  -4   3  -2 1525.70   44.44
  -4  -3  -2 1611.04   55.35
  -4   3  -2 1591.61   43.06
   4  -3   2 1689.08   46.61
   4   3   2 1778.77   58.21
   4  -3   2 1604.48   39.45
   4   3   2 1603.25   53.35
   4  -3   2 1679.80   54.11
   4  -3   2 1536.72   41.28
   4   3   2 1657.72   51.34
  -4  -3  -2 1639.70   54.81
   4   3   2 1522.45   43.80
  -4   3  -2 1620.35   39.72
   4   0   6   12.41   14.27
  -4   0  -6    3.14    7.29
   4   0   6   25.41   21.92
  -4   0  -6    9.20   11.35
   4   0   6    6.44   10.37
   4   0   6    3.64   14.24
  -4   0  -6   18.25   11.38
   0  -4  13 2058.93   57.23
   0   4  13 2217.66   53.76
   0  -4  13 2286.42   63.48
   0  -4 -13 2198.42   57.45
   0   4 -13 2049.08   60.90
   0   4  13 2151.99   64.21
   0  -4  13 2085.54   62.56
   0   4 -13 2260.80   62.04
   0  -4  13 2127.76   57.46
   0  -4 -13 2153.39   63.65
   0   4  13 2024.65   60.34
   0   4 -13 2245.38   59.84
   0  -4 -13 2113.98   52.04
   0  -2  15  143.23   13.57
   0  -2  15  164.90   18.25
   0   2 -15  209.18   27.87
   0  -2  15  196.76   19.84
   0  -2  15  181.22   19.66
   0   2  15  196.37   23.70
   0  -2  15  200.14   25.09
   0  -2 -15  156.68   25.25
   0   2 -15  219.06   23.13
   0  -2 -15  168.60   17.75
   0   2  15  153.89   20.25
   0   2  15  214.97   26.05
   0  -2 -15  180.02   20.51
   0   2  15  151.89   13.49
   0  -2  15  174.71   19.95
   0   2 -15  169.38   23.09
   2   6  -6 1772.62   55.08
  -2  -6   6 1686.75   50.25
  -2  -6   6 1667.29   42.36
  -2   6   6 1727.30   53.19
  -2  -6   6 1749.98   56.25
   2  -6  -6 1636.92   38.99
  -2  -6   6 1755.63   45.54
   2  -6  -6 1842.42   56.50
   2  -6  -6 1800.67   52.15
   2  -6  -6 1653.90   53.87
  -2   6   6 1712.33   46.89
  -2  -6   6 1658.76   53.78
   2  -6  -6 1779.26   56.93
   2   6  -6 1799.44   49.22
   2   6  -6 1767.15   53.71
  -2  -6   6 1756.99   57.73
   0  -7  -4   86.57   18.79
   0  -7  -4   62.78    9.88
   0   7  -4   81.84   16.57
   0   7   4   77.50   13.55
   0  -7   4   90.40   14.62
   0  -7   4   66.58   18.09
   0  -7   4   87.03   17.71
   0  -7   4   71.24   19.19
   0  -7  -4   89.24   17.26
   0  -7  -4   78.94   15.76
   0  -7  -4   59.45   14.19
   0  -7   4   85.62   19.30
   0   7   4   75.81   14.53
   0  -7   4   70.86   11.60
   2   2 -14  497.34   38.35
  -2   2  14  470.06   27.33
   2  -2 -14  484.24   22.57
  -2   2  14  431.72   21.27
   2  -2 -14  481.16   28.78
  -2  -2  14  471.69   27.96
  -2  -2  14  517.69   30.57
  -2   2  14  432.32   31.05
   2  -2 -14  490.91   33.94
   2   2 -14  514.07   34.43
  -2  -2  14  459.46   28.97
  -2  -2  14  474.09   33.76
   2  -2 -14  488.73   30.66
   2  -2 -14  484.91   33.25
   2   2 -14  438.36   26.53
   2   2 -14  488.53   33.54
  -2  -2  14  490.01   30.62
  -2   2  14  486.92   31.80
   3   4   7  413.63   72.22
   3  -4   7  319.90   27.06
   3   4   7  319.69   22.99
  -3   4  -7  367.20   25.00
   3  -4   7  325.78   22.36
   3  -4   7  386.24   28.65
  -3  -4  -7  350.32   23.97
   3   4   7  294.81   19.76
  -3  -4  -7  326.66   31.57
   3  -4   7  330.49   29.54
   3   4   7  311.56   26.44
   3  -4   7  323.03   21.57
   3  -4   7  328.02   23.05
   1  -7   2 2239.84   61.09
   1  -7   2 2174.10   51.60
  -1  -7  -2 2177.57   56.55
  -1  -7  -2 2163.60   47.85
  -1  -7  -2 2196.45   54.29
   1  -7   2 2347.48   64.74
  -1  -7  -2 2232.30   47.42
  -1  -7  -2 2365.87   61.80
   1  -7   2 2273.11   56.13
   1   7   2 2249.04   54.24
   1  -7   2 2231.41   64.60
  -1   7  -2 2397.68   83.23
   1   7   2 2208.12   51.35
  -1  -7  -2 2217.01   52.39
   1   7   2 2176.60   48.81
  -1  -2  15 1809.17   44.50
   1   2 -15 1971.62   59.44
  -1  -2  15 1975.21   55.26
  -1   2  15 2012.52   60.60
  -1  -2  15 1954.24   60.07
  -1  -2  15 1943.92   52.41
  -1   2  15 1950.04   54.53
   1  -2 -15 2070.82   60.11
   1   2 -15 2079.90   61.43
   1  -2 -15 1868.19   43.47
   1   2 -15 1942.37   83.52
   1   2 -15 1821.82   55.16
   1  -2 -15 2026.54   59.92
  -1  -2  15 1974.02   55.13
   1  -2 -15 2002.61   55.16
  -1   2  15 2018.03   60.36
   4  -3  -5  457.31   34.75
   4  -3  -5  460.85   29.50
  -4  -3   5  403.42   29.16
  -4  -3   5  466.82   33.91
   4  -3  -5  399.14   25.67
   4  -3  -5  435.78   30.03
  -4   3   5  432.43   31.04
   4   3  -5  446.04   26.35
   4  -3  -5  504.43   34.92
  -4  -3   5  407.04   29.75
   4  -3  -5  435.20   20.14
   4   3  -5  462.30   34.03
   4   3  -5  462.32   32.20
  -4   3   5  448.55   22.37
   4   3  -5  458.50   87.95
   4   3  -5  440.98   24.93
  -4   3   5  434.86   30.26
   3  -2  10  580.43   32.68
  -3  -2 -10  632.31   35.23
  -3   2 -10  602.57   25.27
   3   2  10  637.70   32.12
   3  -2  10  550.65   25.04
   3  -2  10  602.62   33.79
   3  -2  10  544.69   22.02
   3  -2  10  631.97   36.57
   3   2  10  551.38   35.96
   3   2  10  546.76   27.55
  -3  -2 -10  671.13   33.03
   3  -2  10  537.40   26.64
  -3   2 -10  553.17   21.91
   3   2  10  686.71  118.03
  -3   2 -10  579.76   34.38
   3  -4  -9   55.60   11.99
  -3  -4   9   99.70   16.01
   3  -4  -9   62.28   10.10
  -3   4   9   62.05    9.79
   3  -4  -9   78.15   20.26
   3   4  -9   83.37   20.93
   3  -4  -9   80.79   21.69
  -3   4   9  118.40   21.03
   3  -4  -9   77.45   13.64
  -3  -4   9  100.53   20.64
   3   4  -9  119.84   27.53
  -3  -4   9   79.12   17.16
  -3  -4   9   51.88   15.80
  -3  -4   9   69.45   13.82
   3   4  -9   85.43   11.47
   3  -4  -9   83.97   19.30
   3   4  -9   80.91   16.32
  -3   4   9   79.39   16.52
   1   0  15  939.07   37.38
  -1   0 -15  991.54   44.83
   1   0  15  939.85   36.00
  -1   0 -15 1027.99   35.34
   1   0  15  985.63   34.17
   1   0  15 1002.50   37.24
   1   0  15  966.08   46.84
  -1   0 -15  978.23   38.72
  -1  -4  13 5393.12   93.66
   1  -4 -13 5255.52   67.39
   1   4 -13 5018.91   92.04
   1  -4 -13 5252.02   93.26
  -1  -4  13 5110.05   93.77
  -1   4  13 5074.15   93.82
   1  -4 -13 5266.78   93.79
  -1  -4  13 5313.96   94.08
  -1   4  13 5225.93   96.30
  -1  -4  13 4911.38   70.32
   1  -4 -13 4985.52   85.00
   1   4 -13 5063.64   87.45
  -1   4  13 5098.21   76.58
   1   4 -13 4825.36   90.06
   2  -6   5  383.06   28.99
   2   6   5  386.56   68.71
   2  -6   5  395.18   31.99
   2   6   5  422.89   71.21
  -2  -6  -5  343.82   19.95
   2   6   5  395.01   25.95
   2   6   5  361.59   18.39
  -2  -6  -5  371.16   22.13
   2  -6   5  363.89   27.14
   2   6   5  392.96   21.75
   2  -6   5  364.77   27.83
  -2   6  -5  417.00   30.00
   2  -6   5  397.26   28.54
  -2  -6  -5  364.96   25.56
   2   6   5  354.65   19.86
   1  -7  -3  486.98   34.04
   1   7  -3  503.75   86.41
  -1   7   3  441.34   25.83
  -1  -7   3  478.50   28.97
   1  -7  -3  471.96   31.07
   1  -7  -3  462.81   23.72
   1   7  -3  396.01   20.12
  -1  -7   3  425.05   29.63
  -1  -7   3  421.18   26.17
   1   7  -3  376.90   53.41
  -1   7   3  423.07   21.80
   1  -7  -3  463.36   36.10
  -1  -7   3  456.89   32.40
   1  -7  -3  491.01   31.80
  -1  -7   3  441.76   29.97
  -1  -7   3  403.59   23.25
   3  -2 -12  246.54   27.68
   3  -2 -12  208.32   19.85
   3   2 -12  238.40   17.67
  -3  -2  12  277.57   29.16
  -3  -2  12  236.77   23.08
   3  -2 -12  209.67   20.67
   3   2 -12  261.75   27.12
   3  -2 -12  263.88   26.97
  -3   2  12  263.43   32.85
  -3  -2  12  219.91   24.48
   3   2 -12  207.23   25.42
   3   2 -12  186.07   24.04
   3  -2 -12  239.65   28.53
   3   2 -12  245.35   27.74
   3  -2 -12  179.15   17.14
  -3   2  12  239.11   25.60
  -3   2  12  225.92   20.79
  -3  -2  12  229.69   26.03
   4  -1   6 4646.09   92.40
   4  -1   6 4327.33   84.69
   4  -1   6 4395.77   73.53
   4   1   6 4348.83   86.33
  -4  -1  -6 4440.52   83.74
  -4   1  -6 4438.98   75.15
  -4  -1  -6 4429.22   85.51
   4   1   6 4339.33   85.03
   4   1   6 4423.39   82.02
  -4  -1  -6 4327.09   60.27
  -4   1  -6 4184.93   64.86
  -4   1  -6 4595.60   80.89
   4  -1   6 4372.93   81.62
   4   1   6 4433.60   66.37
   3  -5   4 5592.26   85.69
   3   5   4 5487.76   83.90
   3  -5   4 5519.86   94.01
   3  -5   4 5470.26   87.89
   3   5   4 5474.73   81.41
  -3  -5  -4 5279.77   75.58
  -3   5  -4 5650.41   90.41
   3  -5   4 5527.35   95.44
   3   5   4 5326.97   66.29
   3  -5   4 5616.03   92.75
  -3  -5  -4 5518.06   95.10
   3   5   4 5535.53   95.55
  -3  -5  -4 5762.84   99.57
  -3   5  -4 5482.34   65.89
   3  -3   9  780.70   24.93
   3  -3   9  784.60   34.02
   3  -3   9  835.18   35.43
   3   3   9  794.15   29.82
  -3  -3  -9  735.72   32.14
  -3   3  -9  812.32   36.07
   3  -3   9  792.29   40.52
  -3   3  -9  766.92   77.50
   3   3   9  884.72   76.17
  -3  -3  -9  777.34   38.62
   3  -3   9  832.25   41.47
   3   3   9  759.89   40.26
   3  -3   9  780.28   30.28
   3   3   9  837.01   35.41
  -3   3  -9  768.80   26.21
   4  -2   5 1241.15   48.10
  -4   2  -5 1191.27   39.09
   4   2   5 1309.53   36.55
  -4  -2  -5 1265.77   47.41
   4  -2   5 1266.19   43.57
   4  -2   5 1393.90   46.44
  -4   2  -5 1195.58   40.64
   4  -2   5 1231.51   33.48
   4   2   5 1297.99   48.56
  -4   2  -5 1254.19   36.85
   4   2   5 1256.49   47.87
   4   2   5 1301.32   46.79
   4  -2   5 1336.25   51.80
  -4  -2  -5 1285.19   49.57
   0  -6  -9 4926.97   79.60
   0  -6  -9 5115.97   88.69
   0   6   9 5005.53   91.95
   0  -6   9 4919.66   91.95
   0   6   9 4813.18   64.01
   0  -6   9 4945.48   92.63
   0   6  -9 5292.82   96.18
   0  -6   9 5066.61   80.39
   0  -6  -9 4671.16   88.11
   0  -6   9 5003.98   92.15
   0   6  -9 4695.56  100.54
   0  -6   9 4896.40   88.46
   0   6   9 4941.37   87.69
   3   5  -6 1342.58   35.68
  -3  -5   6 1382.00   51.15
   3  -5  -6 1362.07   50.39
   3  -5  -6 1340.42   41.35
  -3  -5   6 1333.11   49.26
  -3   5   6 1260.83   44.70
   3   5  -6 1345.79   49.96
  -3  -5   6 1440.61   45.26
   3   5  -6 1374.55   46.97
   3  -5  -6 1387.20   49.71
   3   5  -6 1394.10   44.60
   3  -5  -6 1251.44   40.98
   3  -5  -6 1282.53   33.83
  -3  -5   6 1266.06   48.34
  -3   5   6 1268.36   40.84
  -3  -5   6 1372.44   45.51
   3  -5  -6 1352.32   50.88
   1  -6   8  318.55   31.41
  -1  -6  -8  300.79   23.79
   1   6   8  292.86   26.37
  -1  -6  -8  289.46   25.84
   1  -6   8  342.44   28.00
  -1  -6  -8  295.17   20.34
  -1   6  -8  340.12   30.38
   1   6   8  309.17   22.31
   1  -6   8  257.88   18.43
   1   6   8  290.87   26.07
   1  -6   8  316.44   29.49
   1  -6   8  352.63   29.32
   1  -6   8  321.72   26.20
  -2  -3 -12  193.37   13.78
   2  -3  12  206.24   24.62
   2   3  12  216.48   23.46
   2   3  12  237.63   25.57
  -2   3 -12  225.13   25.43
   2   3  12  193.32   15.57
  -2  -3 -12  217.64   24.45
   2  -3  12  233.09   23.78
  -2   3 -12  207.26   20.10
   2   3  12  237.23   24.62
   2  -3  12  218.03   21.08
  -2   3 -12  205.09   40.84
   2  -3  12  233.60   20.64
  -3  -3  11 6686.75  106.14
   3  -3 -11 6352.24   86.98
  -3  -3  11 6522.66  100.97
  -3   3  11 6439.97   83.73
   3   3 -11 6428.74   76.35
  -3   3  11 6702.72  106.26
   3  -3 -11 6766.08  102.46
   3   3 -11 6844.43  110.44
   3  -3 -11 6587.51   83.89
   3  -3 -11 6671.06  108.83
  -3  -3  11 6939.87  109.19
   3   3 -11 6981.51  110.27
  -3  -3  11 6405.60   92.27
   3  -3 -11 6723.38  107.28
   3   3 -11 6727.18  105.46
  -3   3  11 6659.51  106.38
  -3  -3  11 6683.41  106.76
  -4   0   9  634.11   40.12
   4   0  -9  707.21   40.54
   4   0  -9  660.70   39.32
  -4   0   9  607.85   35.88
   4   0  -9  649.04   37.93
   4   0  -9  690.99   36.56
  -4   0   9  673.23   35.07
   4   0  -9  597.50   32.94
  -3   0 -11   58.38   13.00
  -3   0 -11   63.44   15.18
   3   0  11   80.33   14.27
   3   0  11   62.40   16.01
   3   0  11   67.34   13.43
   3   0  11   93.43   19.66
  -4   3  -3 1414.94   39.42
   4   3   3 1492.96   48.62
   4  -3   3 1438.62   49.57
  -4  -3  -3 1505.79   53.62
   4   3   3 1437.84   52.69
   4  -3   3 1335.38   35.98
   4  -3   3 1418.66   42.24
   4   3   3 1422.81   40.59
  -4  -3  -3 1491.64   55.37
  -4   3  -3 1448.15   39.39
   4   3   3 1469.42   50.91
  -4   3  -3 1391.32   43.41
   4  -3   3 1499.02   52.03
   4  -3   3 1442.75   40.81
   4  -3   3 1457.16   50.97
   2  -4 -12 2593.11   63.41
  -2  -4  12 2761.26   69.22
  -2   4  12 2817.81   72.28
  -2  -4  12 2552.25   50.31
  -2   4  12 2808.17   69.41
  -2  -4  12 2762.45   73.67
   2  -4 -12 2798.03   71.34
   2   4 -12 2780.70   71.30
   2   4 -12 2989.39   75.53
   2  -4 -12 2662.80   67.79
  -2   4  12 2782.07   53.20
  -2  -4  12 2758.66   67.96
   2   4 -12 2756.20   61.00
   2   4 -12 2913.33   73.88
  -2  -4  12 2863.13   59.88
   2  -4 -12 2821.79   60.10
  -1  -7  -3  581.76   27.80
   1   7   3  623.92   29.13
  -1  -7  -3  630.56   31.03
   1   7   3  608.82   25.67
   1  -7   3  628.14   35.15
  -1  -7  -3  657.72   33.18
   1  -7   3  605.24   36.79
   1  -7   3  604.11   29.77
   1  -7   3  636.22   32.71
  -1   7  -3  645.16   51.06
  -1  -7  -3  616.76   25.81
  -1  -7  -3  691.54   36.43
   1  -7   3  674.11   40.29
   1   7   3  640.62   32.54
  -1  -7  -3  564.56   24.49
   1  -1  15 1098.58   38.73
  -1   1 -15 1057.04   37.02
   1   1  15 1164.60   37.85
   1  -1  15 1196.15   44.58
  -1   1 -15 1085.63   46.88
   1   1  15 1217.47   48.42
  -1  -1 -15 1137.52   35.00
   1  -1  15 1192.57   40.33
   1   1  15 1090.07   31.49
  -1  -1 -15 1285.18   50.03
   1   1  15 1127.32   46.47
   1  -1  15 1129.87   45.84
   1  -1  15 1104.76   35.15
   1  -1  15 1098.03   32.75
  -1   1 -15 1118.34   41.19
  -1  -1 -15 1169.46   41.41
   2  -5 -10 1252.58   42.53
  -2  -5  10 1222.80   47.12
  -2  -5  10 1270.77   51.81
   2   5 -10 1224.19   47.09
   2  -5 -10 1222.60   48.38
  -2  -5  10 1247.87   48.72
  -2   5  10 1275.01   45.80
   2  -5 -10 1283.50   49.06
   2   5 -10 1254.86   41.51
   2  -5 -10 1237.74   46.04
  -2  -5  10 1199.61   48.32
  -2   5  10 1224.87   47.53
   2   5 -10 1268.30   49.75
  -2  -5  10 1252.21   39.16
  -2  -5  10 1202.95   33.90
  -3   0  13   -3.64   13.46
   3   0 -13  -34.76   18.60
  -3   0  13   -1.49   15.84
   3   0 -13  -10.13    9.69
  -3   0  13    8.72   12.65
  -3   0  13   19.18    8.58
   3   0 -13   -5.03    8.69
   3   0 -13    0.93   15.88
   3   0 -13   18.74   18.53
   2   2  13  774.47   25.87
   2  -2  13  783.13   25.97
   2  -2  13  804.11   36.51
  -2   2 -13  827.97   30.64
   2   2  13  854.61   41.96
   2  -2  13  851.90   40.11
   2  -2  13  732.32   29.16
  -2   2 -13  844.60   33.11
  -2  -2 -13  806.83   26.91
   2   2  13  814.48   32.04
   2  -2  13  817.39   38.80
   2   2  13  829.57   39.34
   2  -2  13  777.13   29.30
  -2   2 -13  868.14   42.33
  -2  -2 -13  869.16   40.57
   2   2  13  841.73   38.77
   0  -7  -5  174.28   18.74
   0  -7   5  178.02   21.16
   0  -7  -5  161.52   21.14
   0  -7   5  187.89   24.04
   0  -7  -5  137.20   18.15
   0   7  -5  162.84   23.49
   0  -7   5  159.12   24.17
   0  -7   5  176.69   14.99
   0   7   5  142.10   17.69
   0  -7   5  167.68   18.87
   0  -7  -5  152.48   20.59
   0  -7   5  147.63   21.03
   0   7   5  157.46   20.00
   2   0 -15   42.97   18.24
  -2   0  15   -3.23   11.04
  -2   0  15   35.35   14.85
  -2   0  15   21.20   14.28
   2   0 -15    3.11    9.88
  -2   0  15   30.16   19.72
   2   0 -15   86.09   26.15
   2   0 -15   38.57   19.49
  -2   0  15   12.73   19.41
   1   7  -4  801.49   56.67
  -1   7   4  769.95   30.72
  -1  -7   4  759.90   31.90
  -1  -7   4  837.19   40.58
  -1  -7   4  754.57   37.35
   1  -7  -4  712.28   38.33
   1   7  -4  745.44   27.18
  -1   7   4  791.76   34.48
   1  -7  -4  728.09   27.05
   1  -7  -4  754.26   38.08
   1   7  -4  644.68   67.16
   1  -7  -4  753.66   33.75
   1  -7  -4  745.78   37.37
  -1  -7   4  757.70   37.33
  -1  -7   4  758.37   33.96
  -1  -7   4  789.29   38.61
   4  -2  -8  987.12   46.25
   4   2  -8  945.80   37.40
  -4  -2   8  968.32   44.21
  -4   2   8  926.45   42.84
   4  -2  -8  993.50   37.83
   4  -2  -8 1022.96   40.99
   4   2  -8  986.38   44.11
   4   2  -8  956.05   47.12
   4   2  -8  991.20   81.49
  -4   2   8  944.89   35.66
  -4  -2   8  978.73   44.10
   4  -2  -8 1094.92   47.60
   4  -2  -8  986.90   40.78
  -4   2   8  973.92   44.18
   4   2  -8  944.20   41.21
  -4  -2   8  982.44   44.16
  -4  -1   9  116.25   23.37
   4  -1  -9  116.71   22.24
  -4   1   9  108.64   18.40
   4  -1  -9  117.03   22.45
   4   1  -9  108.69   21.27
   4  -1  -9  129.50   22.30
  -4   1   9   86.78   20.32
  -4   1   9  103.34   21.52
   4  -1  -9   97.18   15.61
   4   1  -9  131.04   31.38
   4  -1  -9  115.70   19.02
   4   1  -9   83.27   17.42
  -4  -1   9   97.28   17.11
  -4  -1   9  121.17   21.36
   4   1  -9   92.55   19.23
   4   1  -9  112.51   26.61
   4  -3  -6  805.55   27.19
   4   3  -6  814.46   32.81
   4   3  -6  843.06   40.63
  -4   3   6  841.08   30.06
  -4  -3   6  883.85   43.79
   4  -3  -6  830.88   39.48
   4   3  -6  817.11   35.67
  -4  -3   6  930.40   42.02
  -4   3   6  867.28   41.09
   4  -3  -6  842.44   38.79
  -4   3   6  807.97   37.36
   4  -3  -6  750.51   33.23
   4   3  -6  971.85  131.49
  -4  -3   6  836.50   39.54
   4   3  -6  898.57   46.22
   4  -3  -6  852.56   37.90
   4  -3  -6  850.87   42.50
   1  -6  -9 2014.68   59.49
   1   6  -9 1982.50   60.61
  -1   6   9 2106.80   57.54
   1  -6  -9 1924.03   46.64
   1   6  -9 2029.68   60.76
  -1  -6   9 2038.04   60.30
   1  -6  -9 2044.03   58.63
  -1   6   9 1983.89   57.96
   1  -6  -9 1991.18   58.00
  -1  -6   9 1966.09   58.72
   1   6  -9 2036.93   57.04
  -1  -6   9 1938.83   53.40
  -1  -6   9 2050.94   62.11
  -3  -1 -11  502.11   29.59
   3   1  11  546.47   34.90
  -3  -1 -11  481.44   28.66
  -3   1 -11  467.23   25.74
   3  -1  11  480.65   22.79
   3   1  11  459.53   28.83
   3  -1  11  509.68   32.09
   3  -1  11  540.79   28.32
   3  -1  11  484.92   31.19
   3   1  11  529.27   33.85
  -3   1 -11  593.26   33.47
   3   1  11  501.05   27.30
   3  -1  11  492.79   30.02
   2  -6  -7 1715.88   55.65
   2   6  -7 1614.14   51.39
  -2  -6   7 1776.20   57.33
   2  -6  -7 1740.97   55.20
   2   6  -7 1647.55   54.73
  -2  -6   7 1590.26   40.27
  -2   6   7 1701.46   54.70
   2  -6  -7 1526.18   53.87
  -2   6   7 1630.75   46.82
   2  -6  -7 1591.82   36.35
   2  -6  -7 1620.87   48.41
  -2  -6   7 1565.23   42.98
  -2  -6   7 1779.23   58.16
  -2  -6   7 1634.30   54.54
  -2  -6   7 1667.98   51.32
   2   6  -7 1605.01   47.70
   0   0 -16 4328.87   78.03
   0   0  16 4399.83   76.50
   0   0  16 4445.87   69.10
   0   0 -16 4524.86   92.30
   0   0  16 4468.44   82.46
   0   0  16 4309.00   72.38
   0   0 -16 4425.97   85.84
   0   0 -16 4189.65   63.33
   0   0  16 4433.64   88.82
   3   1 -13  374.21   66.42
   3  -1 -13  314.23   22.89
  -3  -1  13  316.40   27.44
  -3   1  13  304.10   27.83
   3   1 -13  352.98   36.74
   3   1 -13  291.98   27.94
   3  -1 -13  318.79   28.18
  -3  -1  13  363.98   28.70
  -3   1  13  304.53   24.93
   3  -1 -13  309.21   29.74
  -3  -1  13  318.79   26.65
   3   1 -13  375.70   35.02
   3   1 -13  326.41   20.84
  -3   1  13  338.45   28.36
  -3  -1  13  290.14   24.69
   3  -1 -13  296.60   23.44
   3  -1 -13  287.90   56.30
   3  -1 -13  283.42   30.75
   1  -5  11 1232.24   46.59
   1  -5  11 1236.23   48.37
  -1  -5 -11 1205.38   34.95
  -1  -5 -11 1247.86   47.78
  -1   5 -11 1157.52   48.76
   1   5  11 1166.78   47.48
   1  -5  11 1160.72   44.18
   1   5  11 1209.21   41.77
   1  -5  11 1190.71   47.54
  -1  -5 -11 1191.91   40.08
  -1   5 -11 1217.11   89.58
   1  -5  11 1220.83   41.51
   2   5   9 1492.20   48.14
   2  -5   9 1540.25   49.42
   2  -5   9 1516.47   47.40
   2  -5   9 1536.40   53.22
   2  -5   9 1500.93   52.57
   2  -5   9 1468.12   50.36
   2   5   9 1531.16   54.32
  -2  -5  -9 1363.81   35.85
   2   5   9 1447.53   35.53
   2  -5   9 1539.94   43.45
   2   5   9 1481.84   52.52
  -2   5  -9 1593.06   53.73
  -2  -5  -9 1550.29   50.21
  -1   0  16  323.07   26.82
  -1   0  16  314.43   22.04
  -1   0  16  323.12   27.97
  -1   0  16  297.39   23.16
   1   0 -16  352.65   30.48
   1   0 -16  275.10   21.16
  -1   0  16  310.64   27.47
   1   0 -16  306.66   27.79
   1   0 -16  327.92   27.98
   2   4  11 1164.35   49.04
   2  -4  11 1150.38   41.76
   2  -4  11 1155.18   43.31
  -2   4 -11 1150.74   48.18
  -2  -4 -11 1048.38   29.43
   2   4  11 1048.85   30.79
   2  -4  11 1140.86   47.04
   2   4  11 1117.90   45.01
   2  -4  11 1137.68   47.40
   2  -4  11 1045.01   37.48
   2   4  11 1100.71   45.21
  -2   4 -11 1094.31   45.21
  -2  -4 -11 1097.18   44.63
   2  -1 -15  590.08   31.85
   2  -1 -15  667.68   37.86
   2   1 -15  586.83   32.77
  -2  -1  15  587.35   34.50
  -2   1  15  560.05   26.74
   2  -1 -15  530.41   57.03
  -2  -1  15  532.18   30.31
  -2   1  15  509.15   32.43
  -2   1  15  549.95   31.76
  -2  -1  15  600.63   36.28
   2   1 -15  627.88   35.26
   2  -1 -15  549.43   30.27
   2   1 -15  681.19   44.04
  -2  -1  15  582.33   30.30
  -2   1  15  527.01   35.33
   2  -1 -15  631.13   38.18
  -2  -1  15  522.57   28.81
   2   1 -15  564.81   35.69
   1  -7   4  421.32   32.06
   1   7   4  454.30   28.90
  -1  -7  -4  418.97   25.71
   1  -7   4  456.53   35.76
   1   7   4  438.71   22.73
   1  -7   4  482.00   31.41
   1  -7   4  453.40   32.30
  -1  -7  -4  432.15   21.45
   1  -7   4  463.19   27.42
   1   7   4  390.86   24.60
  -1   7  -4  534.17   72.34
  -1  -7  -4  415.64   23.76
  -1  -7  -4  518.89   32.80
  -1  -7  -4  483.69   28.34
   1  -3  14 1011.95   37.89
  -1   3 -14  966.08   38.55
  -1  -3 -14 1048.03   37.35
   1  -3  14 1020.17   31.21
   1  -3  14 1042.98   42.36
   1   3  14 1088.54   45.35
  -1  -3 -14 1003.52   30.05
   1  -3  14 1003.12   43.71
  -1  -3 -14  950.61   41.92
  -1   3 -14 1052.57   39.41
  -1   3 -14 1163.73   50.37
   1   3  14 1104.77   44.85
   1  -3  14 1097.75   45.21
   4   0   7  957.02   42.22
  -4   0  -7  873.72   37.35
   4   0   7  992.39   44.89
   4   0   7  902.04   33.02
   4   0   7  957.05   43.22
  -4   0  -7  966.41   33.23
  -4   0  -7  888.71   39.45
  -3  -5  -5 4983.90   75.68
   3  -5   5 5139.53   92.22
   3   5   5 4931.24   75.07
   3  -5   5 5282.43   87.26
  -3  -5  -5 5411.74   96.36
  -3   5  -5 5356.77   88.89
   3  -5   5 5142.08   81.75
   3   5   5 5329.51   83.12
   3  -5   5 5354.60   94.06
  -3  -5  -5 5292.20   94.15
   3  -5   5 4985.64   63.52
   3  -5   5 5422.01   94.82
   3   5   5 5369.76   93.09
   2   6   6   29.79    8.12
  -2  -6  -6   23.65   12.28
   2  -6   6   36.67   13.55
   2   6   6   42.03   20.03
  -2  -6  -6   28.51    9.96
   2  -6   6   32.47   19.05
   2   6   6   32.62   11.53
  -2   6  -6   32.86   16.26
   2   6   6   13.75    9.16
   2  -6   6   34.51   13.89
   2  -6   6   51.97   19.03
   2  -6   6   24.73   13.09
   3  -5  -7  425.88   26.93
  -3  -5   7  452.89   27.86
  -3  -5   7  404.63   31.84
   3  -5  -7  440.79   25.54
   3   5  -7  476.76  109.33
  -3   5   7  489.55   31.51
   3   5  -7  455.03   31.17
  -3  -5   7  449.50   28.15
  -3  -5   7  435.51   33.07
  -3  -5   7  481.91   32.44
   3  -5  -7  474.25   32.80
   3  -5  -7  442.88   31.84
   3   5  -7  415.73   21.13
  -3   5   7  447.75   26.63
   3  -5  -7  525.87   36.03
   3   5  -7  461.15   31.96
   4   3   4  370.50   30.68
  -4   3  -4  357.12   21.29
   4   3   4  414.89   31.98
   4  -3   4  373.49   23.66
   4  -3   4  391.10   25.05
   4  -3   4  381.65   28.73
   4  -3   4  375.32   20.03
   4   3   4  429.44   31.98
   4  -3   4  433.86   33.34
  -4  -3  -4  402.76   34.65
  -4   3  -4  371.72   22.11
   4   3   4  371.93   21.39
  -4  -3  -4  348.70   30.26
  -4   3  -4  413.05   26.47
   4  -3   4  423.50   30.63
   0  -5 -12 4047.73   86.76
   0  -5 -12 3967.79   77.06
   0   5  12 3957.47   83.91
   0   5  12 4002.94   84.27
   0  -5  12 4048.24   77.22
   0   5 -12 3906.68   88.06
   0  -5  12 4077.53   83.24
   0   5 -12 4111.53   85.75
   0  -5 -12 3973.25   71.72
   0   5  12 3777.82   67.15
   0  -5  12 4093.57   86.19
   0   5 -12 3901.89   80.92
   0  -5  12 4029.41   84.96
   0  -1 -16 1285.46   44.09
   0   1  16 1359.11   49.92
   0  -1  16 1308.70   50.63
   0   1 -16 1144.93   77.24
   0   1 -16 1278.66   49.04
   0  -1 -16 1226.91   45.87
   0   1  16 1265.75   38.51
   0   1 -16 1329.04   53.40
   0  -1  16 1203.41   38.91
   0  -1 -16 1313.26   52.83
   0   1  16 1330.80   50.95
   0  -1  16 1300.39   44.45
   0  -1  16 1214.99   40.89
   0  -1  16 1234.97   43.71
   0   1  16 1343.25   45.79
   0   1 -16 1368.12   46.56
   3   4   8  719.67   32.03
   3   4   8  716.88   37.22
   3  -4   8  707.70   31.36
  -3  -4  -8  724.82   38.76
   3  -4   8  706.98   36.75
   3   4   8  767.82  139.53
  -3   4  -8  801.28   37.39
   3  -4   8  658.09   29.73
   3  -4   8  748.88   40.00
   3   4   8  737.27   28.37
  -3  -4  -8  722.41   32.70
   3  -4   8  691.75   30.81
   3  -4   8  752.32   35.89
  -1  -7   5  286.82   27.85
   1  -7  -5  202.97   23.72
   1  -7  -5  223.64   22.16
  -1  -7   5  232.05   25.15
  -1  -7   5  161.97   17.67
  -1  -7   5  233.73   25.56
  -1  -7   5  218.68   23.86
   1  -7  -5  257.88   16.24
   1  -7  -5  231.14   26.36
   1   7  -5  214.21   22.70
   1  -7  -5  215.63   24.40
  -1   7   5  218.38   21.35
  -1   7   5  204.18   19.38
  -1  -7   5  226.47   23.63
   2   0  14    6.04    8.64
   2   0  14   -2.49    8.73
   2   0  14    2.65   11.42
  -2   0 -14   -9.27    9.05
   2   0  14   10.75   13.70
   2   0  14    6.85    9.63
  -2   0 -14  -12.39   12.81
   4   2   6 1588.92   54.03
   4  -2   6 1586.21   37.13
  -4  -2  -6 1520.05   36.67
   4  -2   6 1638.83   54.70
   4   2   6 1676.53   52.07
  -4   2  -6 1541.67   43.45
  -4  -2  -6 1592.06   53.77
   4  -2   6 1567.10   54.65
  -4   2  -6 1587.51   43.10
   4   2   6 1581.20   38.60
   4   2   6 1579.67   55.38
   4  -2   6 1632.96   49.16
   4  -2   6 1617.65   48.76
  -4   2  -6 1688.05   47.66
  -4  -2  -6 1626.47   53.73
  -1   1  16  531.44   25.27
   1   1 -16  603.39   36.46
   1  -1 -16  609.43   36.85
  -1   1  16  566.17   36.33
   1  -1 -16  541.42   26.88
   1  -1 -16  616.66   35.71
  -1  -1  16  507.31   29.60
   1   1 -16  560.88   35.64
   1   1 -16  532.26   29.18
  -1   1  16  598.21   33.85
   1   1 -16  554.81   35.80
  -1  -1  16  551.29   29.00
  -1   1  16  494.01   22.63
  -1  -1  16  534.64   31.35
  -1   1  16  555.19   35.31
   1  -1 -16  591.25   39.61
  -1  -1  16  578.69   30.01
  -1  -1  16  588.42   36.88
   3  -4 -10 1056.74   35.02
  -3  -4  10 1126.83   48.74
  -3   4  10 1104.15   46.38
  -3  -4  10 1112.28   40.14
   3   4 -10 1202.90   49.74
   3  -4 -10 1115.19   46.67
  -3   4  10 1032.79   31.46
   3  -4 -10 1068.81   47.39
   3   4 -10 1108.39   48.86
   3   4 -10 1155.20   45.20
  -3  -4  10 1063.67   45.31
  -3   4  10 1148.99   45.66
   3  -4 -10 1030.50   44.03
  -3  -4  10 1142.90   49.82
   3   4 -10 1021.45   32.03
   3  -4 -10 1044.11   38.42
  -3  -4  10 1136.57   42.74
   4  -1   7  819.74   40.63
  -4  -1  -7  786.58   37.20
   4   1   7  818.30   38.87
  -4  -1  -7  777.46   37.57
   4  -1   7  770.89   38.32
  -4  -1  -7  727.66   28.86
   4  -1   7  758.67   32.51
   4   1   7  791.89   39.96
  -4   1  -7  758.27   31.64
  -4   1  -7  764.42   32.88
   4  -1   7  723.05   39.61
   4   1   7  756.12   38.41
   4   1   7  743.65   27.39
  -4   1  -7  792.01   35.54
   1  -4  13  197.52   22.83
   1  -4  13  198.89   22.48
   1  -4  13  183.46   21.05
   1  -4  13  193.75   22.07
   1   4  13  164.46   23.66
  -1   4 -13  216.79   23.29
   1   4  13  230.76   24.71
  -1  -4 -13  140.24   16.28
  -1  -4 -13  159.89   14.42
  -1   4 -13  184.58   28.71
  -1  -4 -13  226.50   25.52
  -1   4 -13  223.34   27.25
   0  -7  -6  352.92   24.69
   0  -7  -6  365.59   31.81
   0  -7  -6  345.78   22.25
   0  -7   6  323.99   21.28
   0  -7   6  336.95   26.42
   0  -7  -6  353.89   27.11
   0  -7   6  331.76   27.25
   0  -7   6  368.76   29.33
   0   7   6  349.12   25.76
   0  -7   6  338.14   27.04
   0   7  -6  359.19   32.89
   0   7   6  417.55   26.11
   0  -7   6  382.44   30.12
  -1  -5  12 1880.12   61.23
   1  -5 -12 1827.74   58.95
   1  -5 -12 1671.14   40.88
  -1   5  12 1721.95   41.67
  -1   5  12 1742.30   59.29
  -1   5  12 1749.76   56.18
   1  -5 -12 1662.50   51.65
  -1  -5  12 1769.32   57.23
  -1  -5  12 1759.44   57.98
  -1  -5  12 1681.62   38.36
   1   5 -12 1677.14   88.39
   1  -5 -12 1781.27   55.20
   1   5 -12 1737.22   54.15
  -1  -5  12 1747.39   56.59
   1   5 -12 1767.95   57.15
  -4   3   7  993.90   44.41
   4   3  -7  871.76   39.10
  -4  -3   7  967.20   43.89
   4   3  -7  919.48   37.32
   4  -3  -7  889.10   38.55
   4   3  -7  974.11   47.95
   4  -3  -7  915.08   42.09
  -4  -3   7  969.67   46.11
   4  -3  -7 1008.43   41.29
  -4   3   7  877.55   38.57
   4  -3  -7  885.81   28.55
  -4  -3   7  959.09   42.04
  -4   3   7  904.32   31.79
   4   3  -7 1019.28  108.02
   4  -3  -7  915.90   35.22
   4   3  -7  965.71   45.36
   4  -3  -7  986.50   44.96
  -4  -4   1  516.27   33.21
  -4   4   1  484.15   25.49
   4   4  -1  447.06   31.95
   4  -4  -1  475.77   27.87
   4  -4  -1  434.83   32.64
  -4  -4   1  483.92   31.50
   4  -4  -1  422.61   27.93
   4   4  -1  469.83   27.66
   4   4  -1  485.29   31.79
   4  -4  -1  432.91   27.07
  -4   4   1  471.97   27.31
  -4  -4   1  526.15   37.88
   4   4  -1  438.34   22.47
   4  -4  -1  461.98   34.24
  -4   4   1  462.31   28.01
  -1   2 -15 1019.14   39.41
   1  -2  15  899.68   34.05
  -1   2 -15 1155.27   52.38
   1  -2  15 1023.99   42.87
   1  -2  15 1000.75   35.82
   1   2  15  969.24   31.63
   1  -2  15  962.48   39.55
   1   2  15 1066.38   45.59
   1  -2  15 1018.91   43.67
   1   2  15  977.46   42.79
  -1  -2 -15  974.77   43.41
  -1  -2 -15  920.47   36.13
  -1  -2 -15  860.02   28.55
  -4  -4   2  209.37   24.41
  -4   4   2  193.12   19.90
   4   4  -2  179.09   20.43
  -4  -4   2  165.33   22.81
   4  -4  -2  190.08   20.06
  -4   4   2  186.97   20.58
   4   4  -2  164.03   25.47
   4  -4  -2  187.10   20.95
   4  -4  -2  192.98   26.73
   4   4  -2  173.51   21.87
  -4   4   2  165.51   36.27
   4  -4  -2  183.47   24.13
  -4  -4   2  191.78   23.07
   4  -4  -2  161.11   19.65
   4   4  -2  164.16   18.79
   4   0 -10   43.22    8.32
   4   0 -10   35.71   16.74
   4   0 -10   28.71   18.45
   4   0 -10   37.63   17.03
  -4   0  10   42.66   12.75
   4   0 -10   29.13   13.30
  -4   0  10   29.50   19.26
  -4   0  10   33.85   13.71
   4  -4   0  160.08   13.04
   4   4   0  167.28   14.06
  -4  -4   0  208.96   24.12
   4   4   0  183.29   18.12
  -4   4   0  162.24   19.14
   4  -4   0  168.93   20.32
   4  -4   0  162.95   16.83
   4  -4   0  195.06   25.97
  -4   4   0  198.63   18.42
   4   4   0  197.49   25.39
  -4   4   0  176.81   16.08
  -4  -4   0  249.71   26.57
  -4  -4   0  186.69   23.00
   4  -4   0  213.33   26.51
   4   4   0  193.69   21.56
   4  -4   0  239.07   27.64
   1  -6   9  360.08   31.16
   1  -6   9  331.57   29.80
   1   6   9  268.71   20.79
   1   6   9  334.44   27.43
   1  -6   9  311.90   26.42
  -1  -6  -9  302.32   22.98
   1  -6   9  291.31   25.82
   1  -6   9  283.55   21.31
   1   6   9  305.15   27.66
  -1  -6  -9  282.40   20.02
   1  -6   9  269.62   27.21
  -1  -6  -9  320.32   27.08
  -1   6  -9  314.36   28.76
   2   1  14  855.61   43.75
   2  -1  14  739.16   26.83
  -2  -1 -14  779.66   28.80
  -2   1 -14  818.22   42.58
   2  -1  14  820.51   40.84
   2   1  14  771.95   35.00
   2  -1  14  788.84   31.35
   2   1  14  805.36   29.99
   2  -1  14  743.48   32.41
   2  -1  14  816.49   35.56
  -2   1 -14  765.76   30.61
   2   1  14  792.13   38.68
   2   1  14  854.86   35.42
   2  -1  14  780.91   36.22
  -2  -1 -14  865.10   40.47
   0  -3  15  417.53   30.27
   0   3 -15  444.40   30.14
   0  -3  15  426.39   27.78
   0  -3  15  413.26   23.63
   0   3  15  406.82   30.36
   0  -3  15  440.59   30.60
   0   3 -15  457.91   38.17
   0  -3 -15  400.63   30.87
   0  -3  15  429.51   28.78
   0   3  15  429.13   31.12
   0  -3 -15  384.99   26.22
   0   3 -15  442.61   30.85
   0  -3 -15  339.36   23.42
   0   3  15  488.38   32.18
   0   6  10  615.05   25.39
   0  -6  10  602.73   35.93
   0  -6  10  632.79   38.46
   0  -6 -10  572.67   32.27
   0   6  10  704.98   44.48
   0  -6 -10  681.25   37.84
   0   6 -10  695.56   38.25
   0  -6  10  631.19   37.00
   0  -6  10  729.02   39.57
   0  -6  10  643.90   32.17
   0   6  10  658.12   36.03
   0   6 -10  630.85   44.06
   0  -6 -10  687.13   33.08
  -4   4   3 2536.87   58.95
   4  -4  -3 2569.59   64.63
  -4  -4   3 2641.72   70.48
   4   4  -3 2630.59   64.75
   4  -4  -3 2609.79   70.21
  -4   4   3 2381.67   71.33
   4   4  -3 2449.54   48.97
   4  -4  -3 2553.24   61.36
   4   4  -3 2665.79   74.69
  -4  -4   3 2566.53   66.90
   4   4  -3 2559.24   67.69
   4  -4  -3 2533.43   66.48
   4  -4  -3 2519.57   59.12
  -4   4   3 2683.86   66.76
   4   4  -3 2562.13   56.41
  -4  -4   3 2645.42   69.09
   2  -3 -14 1781.66   56.20
  -2   3  14 1910.01   60.59
  -2  -3  14 2022.85   55.24
   2   3 -14 1973.75   62.85
   2   3 -14 1919.53   52.61
   2  -3 -14 1956.63   56.93
  -2   3  14 1931.83   60.27
  -2  -3  14 1853.16   47.10
   2   3 -14 2030.75   62.80
  -2   3  14 1991.95   52.74
  -2  -3  14 1986.88   61.75
   2   3 -14 1961.16   59.66
   2  -3 -14 1805.92   49.19
   2  -3 -14 1988.12   60.65
  -2  -3  14 1877.37   57.13
  -2  -3  14 2042.45   60.69
   4  -2  -9  595.34   37.76
   4   2  -9  616.81   81.92
   4  -2  -9  575.65   30.13
   4  -2  -9  556.12   33.63
   4   2  -9  585.17   32.33
  -4   2   9  581.29   36.93
   4   2  -9  588.81   34.30
  -4   2   9  641.82   31.57
  -4  -2   9  576.19   36.00
  -4  -2   9  640.26   38.64
  -4   2   9  605.78   36.95
  -4  -2   9  562.77   34.21
   4   2  -9  582.05   38.57
   4  -2  -9  601.77   32.33
   4   2  -9  626.78   35.82
   4  -2  -9  596.55   35.44
  -1  -7  -5  959.27   37.50
   1  -7   5 1046.34   44.87
  -1  -7  -5  981.95   33.29
   1  -7   5  974.12   39.10
   1   7   5  932.04   39.08
  -1  -7  -5 1080.36   44.88
  -1   7  -5 1149.11   47.94
   1  -7   5 1129.57   47.34
   1   7   5 1018.31   42.01
  -1  -7  -5 1024.78   38.76
   1  -7   5 1007.56   44.47
   1  -7   5 1020.03   46.20
   1   7   5 1011.60   33.08
  -3   2 -11   87.79   10.69
   3  -2  11  108.36   15.38
   3   2  11  103.47   22.22
  -3   2 -11  105.00   13.47
   3  -2  11   90.04   17.93
  -3  -2 -11  105.36   18.94
   3   2  11   98.98   14.67
   3  -2  11   96.00   14.03
  -3  -2 -11  103.65   16.33
   3   2  11  103.20   20.94
   3  -2  11  117.07   22.21
  -3   2 -11  110.47   20.86
   3   2  11  123.42   16.78
   3  -2  11  119.28   22.86
   1  -3 -15  476.67   22.67
  -1   3  15  519.60   30.75
  -1  -3  15  481.24   31.23
   1   3 -15  510.75   34.98
   1  -3 -15  481.74   34.55
   1   3 -15  545.47   33.35
   1  -3 -15  532.13   35.02
   1  -3 -15  533.19   30.10
  -1  -3  15  457.73   21.95
   1   3 -15  541.06   33.70
  -1  -3  15  505.54   29.36
  -1  -3  15  518.70   33.03
  -1   3  15  489.31   33.15
  -1  -3  15  540.37   33.30
  -1   3  15  525.51   35.41
  -3  -3 -10  979.72   38.71
  -3   3 -10 1090.33   43.01
   3  -3  10 1045.48   39.34
   3  -3  10  998.53   39.65
  -3   3 -10  862.42   46.13
   3   3  10 1110.72   47.19
   3  -3  10 1027.37   34.07
   3  -3  10  979.10   43.94
   3   3  10 1087.17   59.32
  -3  -3 -10  981.51   42.69
   3  -3  10 1067.68   44.31
   3   3  10 1028.73   33.58
   3   3  10 1044.73   39.69
  -2  -6   8  354.29   27.77
   2  -6  -8  335.64   25.60
  -2  -6   8  330.40   28.91
   2  -6  -8  333.02   28.17
  -2  -6   8  334.98   28.33
  -2   6   8  352.85   28.32
   2   6  -8  313.75   52.85
  -2  -6   8  308.66   20.95
  -2  -6   8  338.45   23.53
  -2   6   8  357.62   25.55
   2  -6  -8  324.34   26.93
   2   6  -8  403.95   25.55
  -2  -6   8  319.57   27.73
   2  -6  -8  338.04   32.35
   2   6  -8  391.50   29.89
  -4   4  -1  150.22   17.12
   4  -4   1  147.63   21.22
   4  -4   1  152.24   22.87
  -4   4  -1  137.86   14.55
   4   4   1  152.90   22.54
  -4  -4  -1  128.37   20.27
  -4   4  -1  123.98   15.33
   4  -4   1  139.86   17.03
  -4  -4  -1  138.94   21.83
   4  -4   1  140.86   18.00
   4  -4   1  177.58   32.25
   4   4   1  133.99   18.51
   4  -4   1  105.64   11.69
   4   4   1  125.44   31.16
   4   4   1  132.50   20.47
  -3   2  13   35.17   22.64
  -3   2  13   14.86    9.64
  -3  -2  13   11.79   16.19
  -3  -2  13   30.97   15.69
   3   2 -13   53.45   17.93
   3  -2 -13   20.09   14.33
   3   2 -13   58.65   26.84
   3  -2 -13   28.15   17.10
   3  -2 -13   31.98   11.43
  -3  -2  13   38.76   13.27
   3   2 -13   35.99   18.18
  -3   2  13    8.18   13.69
   3   2 -13   45.62   13.52
  -3  -2  13    5.56   14.83
   3  -2 -13   26.03    8.90
   3  -2 -13   28.87   14.10
   3  -2 -13   17.07   16.23
   0   4  14  381.01   29.43
   0  -4 -14  390.12   30.98
   0  -4 -14  386.48   27.21
   0   4 -14  437.79   36.40
   0  -4  14  384.38   29.37
   0  -4  14  370.59   29.38
   0  -4 -14  355.00   24.53
   0  -4  14  419.72   32.44
   0   4  14  389.49   31.52
   0   4 -14  381.37   31.84
   0   4  14  404.26   27.48
   0  -4  14  416.35   28.70
   0   4 -14  415.61   30.04
   3   3 -12  748.55   46.34
  -3  -3  12  718.97   33.52
  -3   3  12  790.02   40.67
  -3   3  12  689.92   40.33
  -3  -3  12  770.20   40.04
   3  -3 -12  712.39   31.94
   3  -3 -12  624.23   24.88
   3  -3 -12  657.03   37.05
   3   3 -12  724.32   29.00
  -3  -3  12  711.70   38.96
   3  -3 -12  718.44   31.15
  -3  -3  12  756.94   40.23
  -3   3  12  675.90   30.39
   3  -3 -12  723.64   40.27
   3   3 -12  790.22   44.37
   3   3 -12  761.28   38.53
   3  -3 -12  763.47   41.40
  -3  -3  12  784.86   39.95
   4  -1 -10  199.53   21.61
   4   1 -10  183.72   23.12
   4   1 -10  197.23   25.91
   4  -1 -10  153.94   24.03
  -4  -1  10  157.30   21.14
   4   1 -10  148.68   23.15
  -4   1  10  178.93   22.01
   4  -1 -10  158.36   23.81
  -4  -1  10  193.30   25.55
  -4   1  10  190.77   24.72
   4   1 -10  196.07   36.17
  -4   1  10  138.00   19.52
   4   1 -10  178.47   22.72
   4  -1 -10  165.92   24.71
   4  -1 -10  192.49   22.08
  -4  -1  10  156.64   22.20
   2  -5 -11  223.58   21.14
  -2   5  11  206.25   25.78
   2  -5 -11  210.62   22.50
  -2  -5  11  194.79   26.38
   2  -5 -11  230.54   24.26
   2   5 -11  235.99   26.72
  -2  -5  11  172.19   14.07
  -2  -5  11  226.91   28.94
   2   5 -11  184.80   26.22
   2   5 -11  209.60   19.38
  -2  -5  11  232.25   26.51
  -2   5  11  227.51   24.54
  -2  -5  11  240.22   20.81
  -2  -5  11  255.93   25.06
   2  -5 -11  238.97   25.47
   4  -3   5   30.10   11.93
   4   3   5   15.20    6.81
   4   3   5   70.19   20.18
   4  -3   5   45.30   13.33
  -4  -3  -5   40.53   18.93
  -4   3  -5   53.52   14.54
   4  -3   5   51.47   14.14
   4  -3   5   37.73    9.76
  -4   3  -5   37.69   11.87
   4  -3   5   64.49   22.80
   4   3   5   56.52   17.56
  -4  -3  -5   46.63   18.79
   4   3   5   24.29   14.29
   4  -3   5   40.95   13.16
  -4   3  -5   53.92   11.14
   3   5   6 1397.44  126.78
   3  -5   6 1331.16   45.62
   3  -5   6 1188.74   34.51
  -3  -5  -6 1373.66   51.20
   3  -5   6 1347.43   49.55
   3  -5   6 1289.33   42.92
   3  -5   6 1211.42   46.77
   3   5   6 1252.61   38.65
  -3   5  -6 1282.85   46.51
   3   5   6 1236.57   41.99
  -3  -5  -6 1147.93   40.91
   3  -5   6 1263.89   49.40
   3   5   6 1331.24   51.76
   4   4  -4  725.95   29.07
  -4  -4   4  662.12   36.42
  -4  -4   4  719.40   38.78
   4  -4  -4  688.78   35.60
   4  -4  -4  786.78   41.34
   4   4  -4  678.58   37.17
   4  -4  -4  708.09   36.77
   4   4  -4  705.65   33.67
  -4   4   4  710.99   32.96
  -4  -4   4  731.55   40.44
   4   4  -4  708.58   36.29
   4  -4  -4  690.60   37.78
  -4   4   4  724.08   36.45
   4   4  -4  773.08  105.70
   4  -4  -4  712.06   32.79
   2  -2 -15  891.21   39.34
  -2  -2  15  899.54   40.27
  -2   2  15 1018.63   45.71
  -2  -2  15  920.89   39.95
  -2   2  15  909.64   42.28
  -2  -2  15  960.13   44.56
   2   2 -15 1016.45   47.59
   2   2 -15  948.31   40.96
  -2  -2  15  955.78   41.12
  -2   2  15  934.60   38.59
   2   2 -15 1032.01   46.73
   2  -2 -15  895.30   36.92
   2  -2 -15  880.87   44.42
   2  -2 -15  850.77   40.26
   2   2 -15  991.34   46.85
  -2  -2  15  938.74   37.60
  -1  -7   6   96.93   19.69
   1  -7  -6  117.63   22.42
  -1  -7   6   92.86   14.71
  -1   7   6   84.43   14.64
  -1   7   6   83.75   17.88
  -1  -7   6   78.39   17.36
   1  -7  -6   97.48   16.79
   1  -7  -6  122.71   19.23
  -1  -7   6   73.15   14.35
  -1  -7   6   78.78   17.30
   1  -7  -6   91.92   17.59
  -1  -7   6   93.23   18.98
   1   7  -6   96.90   18.58
   3  -5  -8  595.64   31.87
  -3  -5   8  594.58   35.70
   3  -5  -8  598.80   39.14
   3   5  -8  617.29   34.87
  -3   5   8  505.10   31.61
  -3  -5   8  518.09   29.24
  -3   5   8  551.40   32.62
   3   5  -8  515.08   23.86
   3   5  -8  636.10   36.16
   3  -5  -8  572.71   39.39
   3   5  -8  637.75   87.24
  -3  -5   8  522.91   32.49
   3  -5  -8  519.77   35.00
  -3  -5   8  567.49   30.32
  -3  -5   8  637.06   39.11
   3  -5  -8  535.28   27.15
   1  -6 -10  663.90   28.91
  -1   6  10  727.99   38.62
   1  -6 -10  709.91   41.99
   1  -6 -10  678.08   37.12
  -1   6  10  727.17   39.70
  -1  -6  10  703.68   38.12
   1   6 -10  769.47   85.74
  -1  -6  10  644.64   36.72
   1   6 -10  789.02   39.39
  -1  -6  10  669.09   37.32
   1  -6 -10  798.09   41.85
   1   6 -10  695.05   72.07
  -1  -6  10  734.55   35.71
   1  -4 -14  629.61   35.21
   1  -4 -14  689.57   39.26
   1   4 -14  646.60   35.26
   1  -4 -14  623.91   35.71
  -1  -4  14  662.32   37.47
  -1   4  14  628.02   38.04
  -1  -4  14  605.02   27.06
  -1  -4  14  748.99   40.34
  -1  -4  14  636.78   34.96
  -1  -4  14  678.20   39.43
   1   4 -14  655.91   36.49
   1   4 -14  653.68   36.98
  -1   4  14  692.81   33.82
  -1   4  14  680.48   40.27
   2  -6   7   95.88   19.90
  -2  -6  -7   79.51   16.55
   2   6   7   87.91   15.68
  -2  -6  -7   89.82   14.17
  -2  -6  -7   66.83   10.20
   2  -6   7  102.64   19.68
   2  -6   7  121.87   18.68
   2   6   7  111.32   33.04
   2  -6   7   73.41   10.93
   2  -6   7  120.74   21.66
   2   6   7   79.13   17.30
  -2   6  -7  134.89   20.82
   2  -6   7  119.92   19.93
   2   6   7   77.13   12.03
   0  -2  16 1607.20   40.81
   0  -2 -16 1693.84   52.35
   0   2 -16 1787.57   60.59
   0  -2  16 1659.81   52.13
   0   2  16 1664.49   54.67
   0   2  16 1793.40   57.58
   0   2 -16 1737.32   54.19
   0  -2  16 1760.64   57.57
   0  -2  16 1640.75   47.09
   0  -2 -16 1553.61   46.97
   0   2 -16 1768.08   57.07
   0  -2  16 1667.48   48.26
   0  -2 -16 1795.35   59.47
   0   2  16 1692.36   57.48
   0  -2  16 1675.27   51.73
   3  -6  -1 1026.83   44.59
   3  -6  -1  936.67   41.64
  -3  -6   1  972.47   41.86
   3  -6  -1  938.89   37.37
   3  -6  -1  965.96   39.60
  -3   6   1  892.94   77.95
  -3   6   1  965.42   36.15
  -3  -6   1  975.46   40.95
   3  -6  -1 1033.52   46.48
   3   6  -1  978.46   46.83
   3   6  -1  980.04   41.19
   3   6  -1  930.83   34.89
  -3  -6   1  939.87   33.44
   3   6  -1  944.64   43.41
  -3  -6   1 1034.74   44.16
   3   6  -1  993.55   38.29
   2  -4 -13  515.88   28.08
   2   4 -13  518.28   34.70
  -2  -4  13  541.16   30.01
   2  -4 -13  593.62   33.96
  -2   4  13  516.04   26.55
   2  -4 -13  557.94   34.95
  -2  -4  13  542.78   35.11
  -2   4  13  556.50   36.51
   2  -4 -13  559.42   36.07
  -2  -4  13  505.32   24.36
   2   4 -13  601.86   31.36
  -2  -4  13  517.91   34.85
  -2  -4  13  534.92   33.46
   2   4 -13  581.34  116.77
  -2   4  13  531.62   33.68
   3   0  12    9.84   11.41
   3   0  12    7.59    9.67
  -3   0 -12   22.92   12.28
   3   0  12   12.10   10.22
  -3   0 -12    3.51   10.24
   3   0  12    5.12   12.60
  -4   4  -2  831.95   35.35
  -4  -4  -2  832.74   44.08
  -4   4  -2  828.50   30.10
   4  -4   2  874.15   42.95
   4   4   2  867.70   40.08
   4  -4   2  833.43   44.49
   4   4   2  828.62   40.43
   4  -4   2  825.03   33.31
   4   4   2  839.94   34.49
   4   4   2  863.61  100.72
   4  -4   2  858.39   36.38
  -4  -4  -2  858.56   41.71
   4  -4   2  827.30   40.93
  -4   4  -2  804.63   33.06
   4  -4   2  751.64   27.54
  -3   6   0  154.51   17.16
   3  -6   0  131.54   21.47
   3  -6   0  172.35   25.34
   3   6   0  166.08   25.86
   3   6   0  107.94   26.68
   3   6   0  110.67   14.64
  -3  -6   0  113.40   22.55
   3   6   0  116.12   30.32
  -3  -6   0  162.18   25.65
  -3  -6   0  133.43   18.85
   3   6   0  151.10   30.49
  -3  -6   0  131.31   21.09
   3  -6   0  155.26   18.29
   3  -6   0  159.23   20.37
  -3   6   0  172.39   22.98
   3  -6   0  129.96   21.91
   2  -3  13  434.21   26.12
  -2   3 -13  456.23   32.75
  -2  -3 -13  430.26   30.88
  -2   3 -13  429.28   26.27
   2  -3  13  437.83   32.78
   2   3  13  413.89   30.28
   2   3  13  428.52   29.67
   2   3  13  409.05   22.29
  -2   3 -13  378.23   70.39
   2   3  13  418.19   30.73
   2  -3  13  430.99   35.23
  -3  -6   2 2316.94   62.12
   3  -6  -2 2057.31   56.36
   3  -6  -2 2185.96   51.67
   3  -6  -2 2286.91   64.07
   3  -6  -2 2306.09   66.78
  -3   6   2 2146.38   53.53
   3  -6  -2 2214.08   57.14
  -3   6   2 2024.79   43.37
   3  -6  -2 2235.60   63.07
   3   6  -2 2159.24   66.14
   3   6  -2 2225.64   60.23
  -3  -6   2 2321.06   64.85
   3   6  -2 2289.44   59.98
  -3  -6   2 2199.61   57.83
   3   6  -2 2124.40   55.99
   3   6  -2 2178.31   51.83
  -2  -7   1 2251.15   54.78
  -2  -7   1 2393.13   59.49
  -2  -7   1 2322.02   56.56
  -2   7   1 2188.24   49.61
  -2  -7   1 2241.94   57.55
   2  -7  -1 2290.49   65.25
   2  -7  -1 2440.12   58.13
   2  -7  -1 2450.61   66.27
   2  -7  -1 2264.94   49.71
  -2  -7   1 2364.61   58.64
  -2  -7   1 2283.84   56.99
   2  -7  -1 2350.86   66.08
   2  -7  -1 2365.65   65.19
  -2  -7   1 2447.59   59.97
  -2  -7   1 2288.89   54.98
  -2  -7   1 2262.40   57.49
  -2  -7   0 1406.82   44.70
  -2   7   0 1460.95   38.63
  -2  -7   0 1421.53   44.97
   2  -7   0 1433.98   51.22
  -2  -7   0 1465.78   45.57
  -2  -7   0 1447.51   45.95
   2  -7   0 1440.69   42.91
   2  -7   0 1489.11   53.57
  -2  -7   0 1439.14   45.23
   2  -7   0 1403.69   52.87
  -2  -7   0 1470.11   46.44
   2  -7   0 1523.22   47.84
  -2  -7   0 1350.39   44.18
  -2  -7   0 1448.61   48.07
   1  -2 -16  171.68   16.42
   1   2 -16  194.12   23.61
   1  -2 -16  147.71   23.57
   1  -2 -16  224.36   26.35
  -1   2  16  207.28   25.38
  -1  -2  16  152.32   17.94
  -1  -2  16  188.78   23.44
   1   2 -16  223.81   26.30
  -1   2  16  212.55   25.50
  -1  -2  16  166.95   24.44
  -1   2  16  201.71   25.41
   1   2 -16  203.02   25.75
   1   2 -16  168.22   34.13
   1  -2 -16  189.37   23.53
  -1  -2  16  175.75   17.88
  -1  -2  16  202.56   24.02
   4   0   8   -3.44   11.48
  -4   0  -8   20.51   16.09
   4   0   8   27.74   17.35
  -4   0  -8    1.55   11.09
  -4   0  -8   13.77    9.05
   4   0   8    4.53    7.11
   4   0   8    1.46   14.47
  -3   0  14    3.89   11.33
   3   0 -14   12.65   17.57
   3   0 -14    7.58    9.51
   3   0 -14   13.11   10.60
  -3   0  14   19.58   14.39
  -3   0  14   -5.66   11.81
  -3   0  14   26.60   14.23
   3   0 -14   22.53   18.15
   3   0 -14   15.01   17.46
   4  -3  -8 1137.46   50.00
   4   3  -8 1120.47   41.76
  -4  -3   8 1039.72   44.15
   4  -3  -8 1216.91   46.78
  -4   3   8 1094.90   45.75
  -4  -3   8 1205.04   52.08
  -4   3   8 1138.21   36.58
   4  -3  -8 1071.71   38.33
   4   3  -8 1184.24   51.62
   4   3  -8 1114.13   44.28
  -4  -3   8 1217.05   49.15
  -4   3   8 1092.60   47.34
   4  -3  -8 1136.62   42.89
   4   3  -8 1188.33   51.45
   4   3  -8 1165.08   50.66
   4  -3  -8 1063.80   32.39
   4  -3  -8 1112.82   47.18
   0   7   7  315.68   24.88
   0   7  -7  292.12   27.77
   0  -7   7  327.48   27.29
   0  -7  -7  357.93   28.56
   0  -7   7  326.06   28.46
   0  -7   7  322.90   20.95
   0  -7  -7  274.75   19.50
   0  -7   7  308.30   26.17
   0   7   7  351.35   27.63
   0  -7  -7  306.57   26.42
   0  -7   7  351.97   31.98
   0  -7  -7  357.72   26.13
   0  -7   7  318.43   30.59
  -2  -5 -10  430.08   35.16
  -2   5 -10  387.73   31.64
   2  -5  10  383.04   24.49
   2  -5  10  385.84   26.86
   2  -5  10  409.14   30.80
  -2   5 -10  371.33   48.18
   2   5  10  356.35   28.22
  -2  -5 -10  334.73   19.44
   2  -5  10  349.55   27.13
   2   5  10  389.37   30.77
   2   5  10  330.46   29.45
  -2  -7   2  672.24   31.25
   2  -7  -2  689.56   28.55
   2  -7  -2  707.57   41.36
  -2  -7   2  610.22   30.68
  -2   7   2  699.55   32.06
  -2  -7   2  625.73   31.57
  -2  -7   2  700.67   33.77
   2  -7  -2  656.07   31.09
   2  -7  -2  774.40   39.23
   2  -7  -2  741.93   39.23
  -2  -7   2  700.37   35.38
  -2  -7   2  755.39   35.85
  -2  -7   2  682.96   33.19
   2  -7  -2  764.35   38.69
  -2  -7   2  675.82   33.48
  -4  -2  -7 1081.01   34.42
   4  -2   7 1139.28   50.41
   4  -2   7 1111.62   40.90
   4  -2   7 1123.04   41.75
  -4   2  -7 1074.17   38.42
  -4  -2  -7 1109.69   45.84
   4   2   7 1202.75   51.26
   4   2   7 1091.35   42.79
  -4   2  -7 1092.48   38.63
  -4  -2  -7 1161.16   46.68
   4  -2   7 1086.98   46.57
   4   2   7 1077.89   44.83
  -4   2  -7 1100.47   38.58
   1   0  16  943.48   36.02
   1   0  16  885.42   37.23
  -1   0 -16  969.43   35.17
   1   0  16 1077.23   46.67
  -1   0 -16  990.39   39.30
   1   0  16  968.59   37.86
  -1   0 -16 1082.45   48.50
   1   0  16  988.48   34.58
   2  -7   1  212.92   19.25
  -2  -7  -1  254.25   23.09
  -2  -7  -1  258.26   21.45
   2   7   1  194.23   45.74
   2  -7   1  250.96   26.83
   2   7   1  220.64   35.05
   2  -7   1  201.39   21.20
  -2  -7  -1  212.87   20.38
  -2  -7  -1  206.42   20.96
  -2   7  -1  271.09   46.73
  -2  -7  -1  192.90   19.38
   2  -7   1  227.36   25.96
  -2  -7  -1  216.94   19.30
   2  -7   1  250.82   27.45
   2   7   1  203.20   21.97
  -4   4   5  314.31   26.04
   4  -4  -5  302.66   27.92
  -4   4   5  282.40   25.62
   4   4  -5  308.54   22.93
   4  -4  -5  286.62   19.38
   4  -4  -5  270.77   25.31
   4   4  -5  312.16   27.50
  -4  -4   5  307.37   26.98
   4  -4  -5  331.69   31.50
   4   4  -5  301.96   22.71
   4  -4  -5  277.18   24.14
   4   4  -5  303.60   61.27
   4   4  -5  313.79   29.34
   4  -4  -5  292.73   23.54
  -4  -4   5  303.16   27.93
  -4  -4   5  308.03   26.99
  -3  -6  -1 2505.70   55.14
   3   6   1 2537.87   69.43
   3   6   1 2389.80   51.64
  -3  -6  -1 2391.09   63.38
   3   6   1 2464.65   64.70
   3   6   1 2501.12   56.10
   3   6   1 2564.21   95.72
   3   6   1 2578.31   59.85
   3  -6   1 2577.28   60.14
   3  -6   1 2630.93   67.42
   3  -6   1 2575.06   68.90
   3  -6   1 2505.64   66.46
   3  -6   1 2606.82   68.32
  -3   6  -1 2758.28  118.06
  -3   6  -1 2494.05   51.71
  -3  -6  -1 2480.78   66.11
   3  -6  -3   52.77   14.92
  -3  -6   3   48.44   14.29
   3   6  -3   30.95   10.77
  -3  -6   3   60.64   13.60
   3   6  -3   50.76   12.36
  -3  -6   3   66.76   18.70
   3   6  -3   50.55    8.35
   3   6  -3   56.61   10.19
   3   6  -3   60.94   16.90
  -3  -6   3   35.55   13.77
  -3   6   3   41.19   11.19
  -3   6   3   51.03   13.41
   3  -6  -3   37.23   12.32
   3  -6  -3   47.85   16.10
   3  -6  -3   50.33   17.92
   3  -6  -3   41.24   12.35
   3  -6  -3   34.74   12.48
   3   1  12   25.95   12.61
  -3  -1 -12   26.46   16.86
   3   1  12    8.35   13.07
  -3   1 -12   10.90   14.01
   3  -1  12    7.77    7.53
   3  -1  12   -1.05    9.06
   3   1  12   -3.12   12.27
   3  -1  12    4.30   10.61
   3   1  12    8.54    9.10
   3   1  12   15.95   14.51
  -3   1 -12   14.07    9.88
   3  -1  12   20.26   12.85
   3  -1  12    1.41   12.49
   1   7   6  319.17   20.89
  -1  -7  -6  303.28   25.64
  -1   7  -6  355.24   30.16
   1  -7   6  343.84   29.47
   1  -7   6  320.96   27.79
  -1  -7  -6  312.79   19.36
   1  -7   6  317.33   26.84
   1   7   6  372.08   27.28
   1  -7   6  369.50   33.04
  -1  -7  -6  321.32   23.02
  -1  -7  -6  371.39   25.30
   1   7   6  343.20   27.91
   1  -7   6  356.34   28.32
  -1  -5 -12 2061.81   45.69
   1  -5  12 2171.71   60.33
   1  -5  12 2252.61   65.61
   1  -5  12 2082.96   59.90
  -1   5 -12 2321.02   67.16
   1   5  12 2205.08   65.50
  -1  -5 -12 2102.42   53.84
  -1   5 -12 2421.89  142.98
  -1  -5 -12 2341.41   65.98
   1  -5  12 2333.81   59.26
   1  -5  12 2328.63   66.18
   1   5  12 2195.97   57.10
  -2   2 -14  580.26   36.13
   2  -2  14  570.17   26.30
   2  -2  14  608.05   33.73
   2   2  14  610.41   38.08
   2   2  14  592.37   29.13
  -2   2 -14  558.05   28.24
   2  -2  14  609.49   28.30
   2  -2  14  641.87   35.27
  -2   2 -14  568.90   27.32
   2   2  14  601.20   34.60
   2   2  14  661.79   36.17
  -2  -2 -14  582.96   34.75
   3  -4   9  312.71   26.11
   3   4   9  300.57   27.37
   3   4   9  382.17   61.81
   3   4   9  300.62   22.60
  -3  -4  -9  327.92   29.25
   3  -4   9  306.11   24.26
  -3  -4  -9  314.78   25.36
  -3   4  -9  308.75   26.23
   3  -4   9  318.66   29.45
   3  -4   9  310.41   23.16
   3  -4   9  285.56   26.58
   3   4   9  292.49   17.97
   4   1   8  745.19   36.96
   4  -1   8  748.12   39.81
  -4   1  -8  710.68   34.35
  -4  -1  -8  692.37   36.54
   4   1   8  700.13   37.47
   4  -1   8  751.61   41.26
   4   1   8  748.76   39.49
  -4   1  -8  687.20   32.48
   4  -1   8  718.72   31.94
  -4  -1  -8  685.42   36.26
   4  -1   8  700.71   40.45
  -4  -1  -8  690.39   30.19
  -4   1  -8  731.77   32.43
   2  -7  -3 1130.82   39.16
   2  -7  -3 1141.74   46.05
  -2   7   3 1073.97   32.14
  -2  -7   3 1103.92   42.16
   2  -7  -3 1228.28   49.23
  -2  -7   3 1054.13   39.84
  -2  -7   3 1161.58   44.47
   2  -7  -3 1228.98   49.12
  -2  -7   3 1172.35   44.58
  -2   7   3 1098.52   39.10
  -2  -7   3 1182.75   44.31
   2  -7  -3 1073.69   44.56
  -2  -7   3 1163.21   44.40
  -2  -7   3 1131.40   38.74
   2   7  -3 1121.37   43.24
  -2  -7   3 1070.87   37.87
  -3  -1  14  161.08   20.09
  -3  -1  14  150.84   19.81
   3   1 -14  158.96   17.88
  -3  -1  14  147.12   21.40
  -3   1  14  157.42   23.51
   3   1 -14  175.28   27.22
  -3   1  14  177.68   20.81
   3   1 -14  167.74   23.70
   3  -1 -14  169.48   25.41
   3  -1 -14  247.32   26.12
   3  -1 -14  157.60   18.29
   3   1 -14  161.67   27.36
   3  -1 -14  193.71   21.26
  -3  -1  14  168.51   22.10
  -3   1  14  189.64   22.74
   3  -1 -14  146.32   18.50
   3  -1 -14  158.38   26.21
   3   1 -14  192.92   28.69
   2   4  12   23.09   16.40
   2  -4  12   42.84   14.10
  -2   4 -12   39.27   13.28
   2  -4  12   18.35   11.51
  -2  -4 -12   37.29   15.98
   2  -4  12   56.34   19.90
   2   4  12   21.56    8.25
   2  -4  12   28.49   12.55
  -2   4 -12   42.82   19.95
   2   4  12   38.79   15.66
   2   4  12    5.56   13.79
  -3  -4  11  124.77   25.60
   3   4 -11  112.87   23.14
  -3  -4  11  110.68   16.31
  -3   4  11  123.62   28.53
   3  -4 -11  116.76   15.45
   3  -4 -11  114.45   19.36
   3   4 -11  133.46   15.27
  -3  -4  11  149.62   23.00
   3  -4 -11  110.80   17.02
   3   4 -11  116.35   20.48
   3  -4 -11  130.74   23.57
  -3  -4  11  138.78   25.09
   3   4 -11   68.81   19.47
  -3  -4  11  128.16   18.17
   3  -4 -11  115.00   22.22
  -3   4  11  104.94   12.98
  -3   4  11  136.18   20.90
   2   7   2 1020.62   40.54
   2  -7   2 1073.61   40.06
   2  -7   2 1058.40   47.76
   2   7   2  975.01   49.45
   2  -7   2 1110.66   47.31
  -2  -7  -2 1030.45   38.43
  -2  -7  -2 1071.55   38.04
  -2  -7  -2 1025.74   38.42
   2   7   2  999.72   48.19
  -2  -7  -2  983.53   39.74
   2  -7   2 1103.10   44.60
   2  -7   2 1029.39   44.58
  -2   7  -2 1088.87   63.09
   2   7   2 1018.85   40.87
  -1   1 -16  867.86   43.64
   1  -1  16  772.26   36.80
  -1  -1 -16  792.52   36.63
   1  -1  16  816.30   40.89
   1  -1  16  802.88   34.54
   1  -1  16  812.18   35.16
  -1   1 -16  827.31   36.73
  -1  -1 -16  706.79   29.22
  -1  -1 -16  816.16   43.75
   1  -1  16  731.94   28.24
   1   1  16  807.15   43.54
   1   1  16  733.69   31.70
   1   1  16  725.29   38.70
  -1   1 -16  816.92   33.07
   1  -1  16  729.83   30.72
   1   1  16  788.60   35.46
   4  -4   3  168.91   22.79
   4  -4   3  162.15   21.08
   4   4   3  166.39   32.51
  -4  -4  -3  152.79   22.69
  -4   4  -3  117.37   17.02
   4  -4   3  110.45   19.21
   4   4   3  149.95   20.61
   4   4   3  122.92   19.95
  -4   4  -3  124.58   13.82
   4  -4   3  134.06   17.08
   4  -4   3  143.54   21.02
   4   4   3  123.45   14.31
  -4   4  -3  133.28   18.04
   4  -4   3  110.39   15.30
  -4  -4  -3  138.30   21.71
  -2   0  16  159.56   19.33
   2   0 -16  138.07   18.19
   2   0 -16  168.47   21.03
  -2   0  16  172.80   20.10
   2   0 -16  145.35   23.23
  -2   0  16  191.19   25.63
  -2   0  16  158.64   18.94
  -2   0  16  161.26   21.89
   2   0 -16  220.33   28.37
   3  -6   2 1098.11   43.97
  -3   6  -2 1049.61   33.27
   3  -6   2 1120.52   46.64
   3   6   2 1045.89   84.84
  -3   6  -2 1176.81   49.84
   3  -6   2 1085.42   46.47
   3  -6   2 1101.35   44.94
  -3  -6  -2 1078.42   47.31
   3   6   2 1104.55   37.75
   3   6   2  984.35  103.02
  -3  -6  -2 1075.51   38.35
   3   6   2 1063.87   38.80
   3   6   2 1111.59   41.70
   3   6   2 1042.70   33.76
  -3  -6  -2 1111.12   45.87
   3  -6   2 1081.02   41.40
   3  -6  -4  499.21   32.83
  -3  -6   4  505.67   33.66
  -3   6   4  461.25   24.77
   3   6  -4  515.47   26.28
   3   6  -4  511.43   32.43
  -3  -6   4  466.62   28.53
  -3  -6   4  561.35   34.84
  -3  -6   4  510.56   33.26
   3   6  -4  566.12   30.06
  -3  -6   4  511.26   30.96
   3  -6  -4  475.84   24.17
   3  -6  -4  563.34   29.80
   3  -6  -4  547.08   34.54
  -3   6   4  517.68   31.36
   3   6  -4  515.95  109.12
   3  -6  -4  513.26   35.33
   3  -6  -4  484.09   32.20
   4   0 -11  549.21   36.87
   4   0 -11  549.15   35.54
  -4   0  11  596.72   36.67
   4   0 -11  551.86   35.80
  -4   0  11  534.14   32.29
   4   0 -11  502.86   32.19
  -4   0  11  581.49   36.16
   4   0 -11  526.03   31.58
   1   7  -7 1058.42   44.49
   1  -7  -7 1117.73   45.44
  -1  -7   7 1157.13   40.79
  -1  -7   7 1133.30   48.43
   1  -7  -7 1147.76   40.88
  -1   7   7 1129.41   40.75
  -1  -7   7 1046.15   43.38
   1   7  -7 1115.74   65.48
   1  -7  -7 1024.89   45.79
  -1   7   7 1138.25   44.50
   1  -7  -7 1131.41   45.51
  -1  -7   7 1211.02   50.12
  -1  -7   7 1216.80   48.00
  -4  -2  10  528.71   35.55
   4   2 -10  484.15   35.18
   4   2 -10  465.44   31.12
  -4  -2  10  478.36   32.22
  -4   2  10  437.26   32.78
   4  -2 -10  494.43   29.38
   4   2 -10  483.86   33.13
   4  -2 -10  451.53   31.23
   4  -2 -10  426.71   32.17
   4  -2 -10  490.53   38.44
  -4   2  10  495.94   29.75
   4   2 -10  450.95   32.08
  -4  -2  10  464.11   32.01
  -4   2  10  431.92   31.82
   4  -2 -10  407.19   27.89
   4   2 -10  444.80   31.78
   2   6  -9   23.13   12.89
  -2  -6   9   23.27   18.53
   2  -6  -9   52.04   18.80
   2   6  -9   24.61   16.44
   2  -6  -9   10.96   11.78
   2  -6  -9   23.89   13.46
   2   6  -9   13.12    7.73
  -2  -6   9   12.06    9.54
  -2  -6   9   14.50   13.46
   2  -6  -9   29.93   12.35
  -2  -6   9   23.79   13.73
  -2  -6   9   31.57   15.34
  -2   6   9    6.11   12.46
  -2   6   9   31.38   18.57
  -4  -3  -6  231.82   26.28
   4  -3   6  248.09   26.48
   4  -3   6  226.77   18.59
   4   3   6  237.07   24.94
   4  -3   6  224.87   26.08
   4   3   6  229.16   23.26
  -4   3  -6  241.71   21.30
  -4   3  -6  224.74   19.51
  -4  -3  -6  240.27   27.13
  -4  -3  -6  189.68   15.89
  -4   3  -6  216.81   17.45
   4  -3   6  222.10   22.37
   4  -3   6  219.28   21.58
   4   3   6  185.84   24.32
   0  -5 -13  240.42   24.63
   0   5  13  304.14   30.77
   0  -5  13  268.14   27.74
   0   5  13  226.27   20.20
   0  -5  13  294.21   36.33
   0   5 -13  267.65   25.55
   0  -5  13  271.59   25.49
   0  -5 -13  264.40   30.98
   0   5 -13  248.39   33.09
   0  -5  13  225.30   23.90
   0   5 -13  232.98   27.19
   0  -5 -13  243.32   23.24
   0   5  13  259.81   28.09
   1  -6  10 1385.83   51.58
  -1  -6 -10 1291.54   43.11
   1   6  10 1338.32   42.79
  -1   6 -10 1334.01   51.69
   1  -6  10 1321.12   48.55
   1   6  10 1357.37   50.79
   1  -6  10 1400.61   51.74
  -1  -6 -10 1224.62   37.52
  -1   6 -10 1418.29   83.03
   1  -6  10 1434.15   53.58
   1  -6  10 1350.03   42.58
  -1  -6 -10 1348.69   50.17
   3   5   7  272.57   25.51
   3  -5   7  247.18   19.00
   3  -5   7  273.37   24.60
   3  -5   7  270.43   23.13
   3   5   7  258.72   22.43
   3  -5   7  258.88   24.45
   3   5   7  280.59   64.77
  -3  -5  -7  270.73   26.38
   3  -5   7  335.86   28.49
   3   5   7  246.29   18.55
  -3   5  -7  306.46   27.39
   3  -5   7  260.67   24.27
  -3  -5  -7  231.83   21.25
   4   4  -6  151.25   24.30
   4  -4  -6  113.34   14.63
   4  -4  -6  131.44   23.97
   4   4  -6  128.29   17.54
   4  -4  -6  118.52   19.92
   4   4  -6  144.92   20.99
   4   4  -6  150.60   19.28
   4  -4  -6  131.34   16.38
  -4  -4   6  135.68   22.85
  -4   4   6  133.68   19.07
   4   4  -6  178.30   34.80
   4  -4  -6  158.84   24.92
  -4  -4   6  127.11   18.08
  -4   4   6  130.21   19.70
  -4  -4   6  137.41   20.95
   4  -4  -6  155.88   19.73
   2   7  -4  313.20   63.68
   2  -7  -4  296.80   28.71
  -2  -7   4  290.26   24.48
  -2  -7   4  260.87   26.04
   2  -7  -4  288.08   26.48
   2  -7  -4  251.66   19.41
  -2  -7   4  296.92   21.24
  -2  -7   4  252.66   20.48
  -2   7   4  293.00   20.19
  -2  -7   4  329.21   27.32
  -2   7   4  304.41   24.18
   2  -7  -4  273.44   25.68
  -2  -7   4  294.77   31.42
   2  -7  -4  268.94   26.64
   2   7  -4  282.42   55.36
  -2  -7   4  333.13   27.42
   2   1 -16  224.03   26.51
  -2  -1  16  246.92   25.71
  -2   1  16  200.85   21.53
  -2   1  16  220.18   17.72
  -2  -1  16  242.92   23.36
   2  -1 -16  202.97   27.12
   2   1 -16  272.32   29.10
   2  -1 -16  254.03   23.43
   2  -1 -16  181.80   36.07
   2   1 -16  261.96   26.12
  -2  -1  16  274.85   28.84
  -2   1  16  205.61   22.97
   2  -1 -16  207.33   25.31
  -2  -1  16  227.75   22.04
   2   1 -16  245.90   24.15
   2  -1 -16  268.05   24.35
  -2   1  16  230.48   26.78
  -2  -1  16  206.22   21.83
  -3  -5   9   42.00   14.37
   3   5  -9    6.94   10.73
   3  -5  -9   33.70   15.33
  -3  -5   9   44.18   12.98
   3   5  -9    3.88   11.98
   3  -5  -9   23.33   14.47
   3  -5  -9   21.08   11.44
  -3  -5   9   18.41   17.90
   3  -5  -9   36.61   18.34
  -3   5   9   18.60   10.25
   3   5  -9   47.06   17.92
   3   5  -9   13.47   10.22
  -3  -5   9   29.71   15.84
  -3   5   9    6.18   11.88
  -3  -5   9   29.81   18.03
   3  -5  -9   29.41   19.54
   1  -3  15  384.11   28.73
  -1   3 -15  378.51   26.84
   1  -3  15  426.52   31.66
  -1   3 -15  334.90   24.40
   1  -3  15  363.99   25.28
   1  -3  15  389.78   22.16
   1   3  15  379.08   29.33
   1   3  15  415.74   31.75
   1  -3  15  390.32   29.16
  -1  -3 -15  369.97   25.78
  -1   3 -15  384.92   32.65
  -1  -3 -15  414.95   30.86
   0   6  11  889.21   41.46
   0  -6 -11  906.64   37.19
   0  -6 -11  896.01   40.47
   0  -6 -11  882.14   42.61
   0   6  11  985.16   46.28
   0  -6  11  831.23   42.12
   0  -6  11  883.65   41.76
   0   6 -11  918.84  130.94
   0   6 -11  856.22   45.35
   0  -6  11  902.13   43.68
   0  -6  11  894.55   43.47
   0  -6  11  919.06   38.37
   0   6  11  822.66   30.66
   0   0 -17  310.86   24.69
   0   0  17  331.38   21.94
   0   0  17  339.50   25.71
   0   0 -17  302.31   30.31
   0   0  17  289.55   21.92
   0   0 -17  356.15   29.65
   0   0 -17  278.58   19.73
   0   0  17  346.38   30.73
   1  -5 -13  159.94   19.47
   1  -5 -13  197.02   24.90
   1   5 -13  194.11   24.16
  -1  -5  13  123.35   28.63
   1  -5 -13  222.20   24.51
   1   5 -13  201.96   23.85
  -1  -5  13  165.92   25.45
  -1  -5  13  142.90   19.09
  -1   5  13  154.91   15.53
  -1   5  13  186.37   24.31
   1   5 -13  168.37   22.69
  -1  -5  13  142.42   22.96
  -1   5  13  227.13   26.90
   2   7   3  250.01   53.53
   2   7   3  252.92   21.60
   2   7   3  199.42   36.13
  -2   7  -3  249.38   30.45
  -2  -7  -3  295.84   25.84
   2   7   3  191.30   35.95
   2   7   3  247.78   57.51
   2  -7   3  224.03   25.75
  -2  -7  -3  217.27   20.16
   2  -7   3  241.59   25.59
  -2  -7  -3  231.22   19.47
   2  -7   3  240.52   27.38
  -2  -7  -3  218.08   20.90
   2  -7   3  233.95   22.35
  -4  -1  11  235.97   29.99
   4  -1 -11  213.31   22.33
   4   1 -11  206.37   31.72
  -4   1  11  165.35   23.56
   4  -1 -11  195.08   27.47
   4   1 -11  196.85   23.83
  -4   1  11  184.98   24.29
   4   1 -11  204.46   24.42
   4  -1 -11  185.02   21.23
   4  -1 -11  136.82   23.84
  -4  -1  11  169.73   22.21
   4   1 -11  181.68   27.10
   4  -1 -11  162.38   30.06
  -4   1  11  169.52   19.87
  -4  -1  11  171.29   21.90
   4   1 -11  171.18   25.47
  -2  -6  -8   71.55   13.35
   2   6   8  101.64   19.61
   2  -6   8   66.31   16.79
  -2   6  -8   99.76   19.39
   2   6   8  103.25   22.76
   2  -6   8   66.13   17.73
   2   6   8   76.53   15.38
   2  -6   8   74.07   12.77
   2  -6   8   81.10   19.73
   2  -6   8   60.99   17.56
  -2  -6  -8  106.27   20.42
   1   0 -17   41.67   22.40
  -1   0  17   34.10   13.76
   1   0 -17   12.62    9.77
   1   0 -17   31.41   13.32
  -1   0  17   36.95   12.19
  -1   0  17   49.77   18.85
  -1   0  17   42.45   13.45
   1   0 -17   42.39   16.92
  -1   0  17   23.51   12.49
  -3  -6  -3  166.00   15.56
   3   6   3  219.08   20.54
   3  -6   3  221.69   22.53
   3   6   3  192.91   18.68
  -3  -6  -3  205.87   21.22
   3   6   3  194.85   31.65
   3  -6   3  222.29   23.32
  -3  -6  -3  187.60   20.11
   3   6   3  170.82   16.08
  -3   6  -3  193.24   25.84
  -3  -6  -3  211.66   23.62
   3  -6   3  198.01   23.51
   3  -6   3  219.56   21.91
   3  -6   3  188.95   23.91
   3  -6  -5  181.37   20.86
   3  -6  -5  158.62   20.23
  -3  -6   5  172.16   19.32
  -3  -6   5  142.70   18.27
  -3   6   5  139.00   20.22
   3  -6  -5  168.38   24.11
   3  -6  -5  182.10   22.82
  -3  -6   5  182.22   23.03
   3  -6  -5  146.87   14.40
   3  -6  -5  131.50   22.14
   3   6  -5  179.00   37.88
  -3  -6   5  170.29   19.82
   3   6  -5  156.43   20.16
  -3   6   5  145.21   17.87
   3   6  -5  132.24   14.80
   3   6  -5  169.24   20.99
  -3  -6   5  129.52   21.32
   1  -4  14  226.99   23.03
  -1  -4 -14  257.23   26.21
   1  -4  14  272.18   26.89
  -1  -4 -14  283.69   24.02
  -1   4 -14  232.78   39.72
   1  -4  14  315.75   30.57
   1   4  14  289.69   27.19
  -1   4 -14  264.41   28.20
   1   4  14  224.18   22.57
   1  -4  14  257.06   24.82
  -1   4 -14  274.18   25.68
   4  -3  -9  226.74   25.84
   4   3  -9  220.25   27.84
   4  -3  -9  183.56   24.70
  -4  -3   9  213.54   28.33
  -4   3   9  207.86   26.98
   4   3  -9  195.04   23.62
  -4   3   9  193.19   22.44
   4  -3  -9  196.10   20.55
   4   3  -9  198.17   25.20
   4   3  -9  212.34   25.30
   4  -3  -9  181.91   25.81
  -4  -3   9  249.71   27.50
   4  -3  -9  211.31   17.99
   4  -3  -9  195.63   20.35
  -4   3   9  194.99   18.26
   4   3  -9  209.15   25.12
  -4  -3   9  225.73   24.33
  -3   3 -11   98.73   20.40
   3  -3  11   99.88   16.73
   3  -3  11  106.51   13.64
   3  -3  11   94.44   19.13
  -3   3 -11   96.86   13.15
   3   3  11  101.67   15.10
   3  -3  11   82.55   16.51
   3   3  11  102.41   19.22
   3   3  11  111.97   22.89
   3   3  11   82.82   11.44
   3  -3  11  103.11   15.73
  -3  -3 -11  120.47   17.50
   3   3  11  135.27   22.31
   0  -7   8  378.48   30.29
   0  -7   8  333.70   28.50
   0  -7  -8  352.59   20.82
   0  -7   8  365.00   29.81
   0   7  -8  395.86   31.66
   0  -7  -8  348.55   29.25
   0  -7  -8  339.88   31.70
   0  -7   8  360.94   28.44
   0   7   8  348.53   29.05
   0   7   8  331.74   28.84
   0  -7   8  328.51   23.24
   0  -7  -8  381.76   27.01
   0  -7   8  358.18   28.94
  -2   0 -15   51.99   18.08
   2   0  15   31.48   12.32
   2   0  15   35.83   13.51
  -2   0 -15   31.86   13.35
   2   0  15   52.18   15.34
   2   0  15   19.48   14.85
   4   4   4 1050.99   42.52
  -4   4  -4 1177.86   40.63
   4  -4   4 1130.56   40.47
  -4   4  -4 1084.99   38.60
   4   4   4 1144.57   49.47
  -4  -4  -4 1065.10   46.61
   4  -4   4 1053.18   44.69
  -4  -4  -4 1172.90   50.01
   4  -4   4 1160.99   46.74
   4   4   4 1004.26   32.20
   4  -4   4 1053.56   36.55
   4   4   4 1072.82   43.87
   4  -4   4 1042.77   34.10
   4  -4   4 1138.86   47.41
   2   5 -12  295.95   28.57
   2   5 -12  359.33   26.41
  -2   5  12  393.75   30.00
   2  -5 -12  375.79   30.47
  -2   5  12  359.79   31.84
   2  -5 -12  357.04   28.99
   2  -5 -12  315.83   24.61
  -2  -5  12  354.29   30.51
   2   5 -12  392.10   31.74
   2  -5 -12  390.28   31.17
  -2  -5  12  377.57   25.41
  -2  -5  12  355.65   30.01
   2   5 -12  331.70   28.86
  -2  -5  12  405.26   36.14
   1  -6 -11  568.40   34.42
   1  -6 -11  611.76   35.47
  -1   6  11  592.74   35.58
  -1  -6  11  517.14   32.18
   1  -6 -11  578.16   38.33
  -1  -6  11  577.28   35.89
  -1   6  11  675.81   43.00
  -1  -6  11  618.98   37.48
   1   6 -11  555.60   34.88
   1   6 -11  537.01   33.56
  -1  -6  11  567.65   33.50
   1  -6 -11  547.12   26.37
   1   6 -11  613.83  103.58
   0  -1  17 1217.82   40.71
   0   1 -17 1094.43   85.56
   0  -1 -17 1162.56   49.39
   0  -1  17 1274.52   45.00
   0  -1 -17 1234.61   44.16
   0   1 -17 1208.17   44.34
   0   1  17 1193.94   48.74
   0  -1  17 1403.77   54.79
   0   1 -17 1318.83   52.44
   0   1 -17 1254.64   52.11
   0  -1  17 1210.57   44.91
   0   1  17 1263.79   39.71
   0   1  17 1330.66   51.06
   0  -1 -17 1259.62   47.71
   0  -1  17 1295.80   43.67
   0   1  17 1319.33   47.38
   3   3 -13  100.80   14.14
   3  -3 -13  110.12   15.52
   3  -3 -13   89.88   13.66
  -3  -3  13  111.20   20.97
   3  -3 -13  112.40   18.15
  -3   3  13  108.26   19.11
  -3  -3  13  143.50   21.54
  -3  -3  13  121.01   21.05
   3  -3 -13  130.51   23.23
   3   3 -13  139.46   19.47
   3  -3 -13  133.68   23.29
   3   3 -13   98.73   22.58
  -3  -3  13  136.69   22.30
  -3   3  13  104.81   16.88
   3   3 -13  133.07   23.53
  -3  -3  13  113.56   17.18
  -3   3  13   97.44   18.34
   1   7   7  253.71   26.51
   1  -7   7  263.42   26.83
   1  -7   7  244.19   28.47
  -1  -7  -7  244.43   21.49
   1   7   7  212.11   18.27
   1   7   7  259.86   23.74
   1  -7   7  222.38   26.38
   1  -7   7  244.93   25.79
  -1  -7  -7  202.47   18.66
  -1   7  -7  260.67   27.37
  -1  -7  -7  278.28   25.41
   1  -7   7  255.70   26.17
   3   2  12 1561.92   49.41
   3   2  12 1460.96   41.42
   3   2  12 1442.51   52.65
   3   2  12 1572.06   55.87
   3   2  12 1492.43   53.35
   3  -2  12 1366.79   39.45
   3  -2  12 1522.34   56.07
   3  -2  12 1499.58   51.89
   3  -2  12 1504.50   43.60
   3  -2  12 1454.67   51.74
   3  -2  12 1372.72   39.54
  -3  -2 -12 1516.80   50.30
  -3   2 -12 1471.18   52.59
  -1   1  17  555.56   26.74
   1   1 -17  581.52   36.40
   1  -1 -17  540.67   26.77
   1  -1 -17  586.74   36.62
  -1  -1  17  648.06   33.74
  -1  -1  17  580.93   32.55
  -1   1  17  591.75   35.03
  -1  -1  17  542.34   30.26
   1   1 -17  624.99   38.03
   1   1 -17  543.69   31.23
  -1  -1  17  624.70   37.57
  -1   1  17  583.02   36.02
   1  -1 -17  593.25   34.58
   1   1 -17  557.64   36.19
  -1   1  17  622.04   35.77
   1  -1 -17  666.73   37.56
  -1  -1  17  617.87   31.23
   2  -7  -5  155.50   21.90
  -2  -7   5  135.28   18.32
   2  -7  -5  118.59   20.58
  -2   7   5  133.04   18.11
  -2   7   5  104.27   14.97
  -2  -7   5  130.80   16.74
   2   7  -5  126.50   18.23
  -2  -7   5  151.45   16.99
   2  -7  -5  121.45   15.60
  -2  -7   5  121.91   21.66
   2  -7  -5  159.50   23.67
   2   7  -5  149.35   33.34
  -2  -7   5  164.27   22.23
   2  -7  -5  146.55   20.78
  -2  -7   5  131.95   21.31
   4  -2   8 1246.39   49.77
  -4  -2  -8 1184.38   47.83
   4   2   8 1262.23   51.88
   4  -2   8 1220.45   49.61
  -4  -2  -8 1212.58   38.21
  -4   2  -8 1296.17   42.78
   4  -2   8 1179.35   42.29
  -4   2  -8 1201.94   39.70
   4   2   8 1217.49   45.12
  -4  -2  -8 1336.50   52.75
   4  -2   8 1150.15   44.42
   4   2   8 1217.84   49.53
  -4   2  -8 1229.68   42.15
  -3   2  14  432.99   32.20
   3   2 -14  397.00   25.41
   3   2 -14  451.54   33.22
  -3  -2  14  482.31   38.49
   3  -2 -14  421.81   25.52
   3  -2 -14  537.98   33.18
  -3   2  14  428.28   28.77
   3  -2 -14  370.74   31.55
  -3  -2  14  417.10   28.03
   3  -2 -14  419.04   27.58
  -3   2  14  447.05   32.73
  -3  -2  14  414.78   33.71
   3   2 -14  514.31   36.67
  -3  -2  14  367.87   27.97
   3   2 -14  492.78   37.15
   3  -2 -14  427.43   33.95
   3  -2 -14  432.38   36.46
  -2  -3  15  297.62   27.55
   2  -3 -15  285.78   24.41
   2  -3 -15  311.33   26.91
   2   3 -15  371.93   32.46
   2   3 -15  307.39   29.22
  -2   3  15  298.14   28.92
   2   3 -15  294.10   28.06
  -2   3  15  300.33   28.90
  -2  -3  15  284.77   21.80
   2  -3 -15  327.71   29.22
  -2   3  15  303.68   23.40
  -2  -3  15  295.14   28.77
   2  -3 -15  253.93   26.60
  -2  -3  15  262.08   26.48
  -2  -3  15  297.31   23.64
   2   3 -15  313.93   26.75
   4   0   9  157.92   20.17
   4   0   9  174.95   25.37
   4   0   9  113.60   13.42
  -4   0  -9  163.82   23.76
   4   0   9  123.24   21.21
  -4   0  -9  146.56   17.18
  -4   0  -9  148.72   19.46
  -1   2 -16 3077.44   78.27
   1  -2  16 3002.67   70.48
   1   2  16 2875.27   72.32
  -1   2 -16 2811.39   62.73
   1  -2  16 2766.19   58.73
   1   2  16 2969.70   74.11
   1   2  16 2793.78   72.07
   1  -2  16 2929.75   61.96
   1  -2  16 3037.03   77.35
   1  -2  16 2974.39   72.95
   1   2  16 2851.39   54.53
  -1  -2 -16 2742.48   62.86
  -1   2 -16 2921.31   66.45
  -1  -2 -16 3030.58   77.29
  -2   1 -15  476.05   33.67
   2   1  15  460.66   31.96
  -2   1 -15  408.12   24.04
  -2  -1 -15  422.72   23.33
   2   1  15  509.24   34.24
   2  -1  15  453.35   31.73
   2   1  15  429.40   25.69
   2  -1  15  464.04   28.14
   2   1  15  448.32   28.41
  -2  -1 -15  493.17   32.63
   2  -1  15  490.20   31.81
   2  -7   4  232.70   25.77
  -2  -7  -4  175.98   16.57
  -2  -7  -4  185.82   18.33
   2   7   4  189.18   17.06
   2  -7   4  200.72   20.80
   2   7   4  227.21   35.87
  -2  -7  -4  203.59   19.28
  -2  -7  -4  185.91   23.21
   2  -7   4  214.39   25.95
   2   7   4  144.79   20.68
   2   7   4  177.51   17.79
   2   7   4  201.17   41.61
  -2   7  -4  264.65   27.70
   2  -7   4  169.17   23.12
  -4  -4   7  198.60   22.75
   4  -4  -7  178.39   19.59
   4   4  -7  190.65   24.44
   4  -4  -7  197.95   25.24
   4  -4  -7  185.03   24.81
   4  -4  -7  168.34   19.11
   4  -4  -7  187.73   23.60
   4  -4  -7  159.24   16.35
   4   4  -7  223.93   21.12
   4   4  -7  206.93   25.41
  -4  -4   7  195.69   24.83
  -4   4   7  230.52   23.79
   4   4  -7  190.65   41.33
  -4   4   7  177.53   20.31
  -4  -4   7  230.35   26.85
   4   4  -7  189.69   24.81
   5   0  -2 1060.11   47.55
   5   0  -2 1007.67   44.67
   5   0  -2 1006.10   37.45
  -5   0   2 1063.63   48.26
   5   0  -2  986.27   45.14
  -5   0   2 1027.46   46.73
   5   0  -2  969.07   44.34
   5   0  -1 1585.69   55.03
   5   0  -1 1681.20  125.60
   5   0  -1 1623.12   57.15
  -5   0   1 1640.40   58.37
  -5   0   1 1677.55   56.01
   5   0  -1 1588.43   56.13
   5   0  -1 1668.37   44.46
   0  -3 -16  897.98   39.41
   0  -3  16  912.39   42.67
   0   3  16  938.19   41.20
   0  -3 -16  932.87   37.71
   0  -3 -16  935.54   43.99
   0  -3  16  907.22   41.61
   0   3  16  942.90   42.97
   0  -3  16 1024.81   43.16
   0   3  16  974.94   45.60
   0  -3  16  978.40   36.15
   0   3 -16  936.66   46.51
   0  -3  16  968.10   43.67
   0   3 -16  992.47   44.08
   0  -8   0 2600.35   65.94
   0   8   0 2527.31   53.10
   0  -8   0 2697.70   70.87
   0  -8   0 2624.00   69.38
   0  -8   0 2339.43   51.39
   0  -8   0 2523.11   69.39
   0  -8   0 2596.47   59.42
   1  -7  -8 3305.96   65.54
  -1  -7   8 3506.50   81.34
  -1  -7   8 3695.68   85.24
  -1  -7   8 3224.39   67.31
  -1   7   8 3330.77   71.82
  -1  -7   8 3479.70   79.37
  -1   7   8 3322.52   75.89
   1  -7  -8 3418.95   78.97
  -1  -7   8 3417.90   77.96
   1  -7  -8 3365.88   77.52
   1   7  -8 3256.09   76.38
   1   7  -8 3362.60   82.80
   1  -7  -8 3491.87   81.00
   0   8  -1  329.96   19.73
   0  -8   1  353.43   28.75
   0  -8  -1  375.66   29.94
   0  -8   1  361.98   26.28
   0  -8   1  363.12   29.37
   0  -8  -1  348.36   27.60
   0  -8  -1  321.91   22.74
   0   8   1  320.29   23.02
   0  -8   1  345.79   22.77
   0  -8  -1  379.63   27.99
   0  -8   1  325.88   26.85
   0  -8  -1  324.97   20.49
   0  -8   1  371.02   29.50
   0  -8  -1  378.26   30.77
   0   8   1  342.64   19.85
   5   0  -3  293.53   27.42
   5   0  -3  353.00   31.10
   5   0  -3  302.24   22.28
  -5   0   3  298.67   25.70
   5   0  -3  375.63   31.60
  -5   0   3  298.40   28.87
  -5   0   3  388.91   32.42
  -3  -6  -4  153.76   19.53
   3   6   4  199.03   19.71
   3  -6   4  176.51   23.32
   3   6   4  172.74   20.96
   3   6   4  173.20   19.39
  -3  -6  -4  181.26   22.48
   3  -6   4  145.96   21.47
  -3  -6  -4  159.77   21.70
   3  -6   4  177.68   24.68
   3  -6   4  174.14   19.93
   3  -6   4  213.44   23.74
  -3   6  -4  242.80   29.64
   0   4  15  477.65   30.95
   0  -4  15  468.41   32.62
   0  -4 -15  489.40   29.35
   0   4 -15  568.88   37.70
   0   4  15  503.43   33.19
   0  -4 -15  510.15   32.06
   0  -4  15  490.50   33.18
   0  -4 -15  510.30   35.15
   0   4 -15  514.84   35.21
   0   4  15  530.66   36.48
   0   4 -15  535.03   33.59
   0  -4  15  494.69   31.53
   0  -4  15  549.85   36.21
  -1  -3  16   40.25   16.94
   1   3 -16   16.27   13.19
  -1  -3  16   -1.60   13.58
   1   3 -16   19.56   13.95
  -1   3  16  -16.37   12.22
   1   3 -16    0.94   14.02
  -1  -3  16   20.37   14.84
  -1   3  16    4.36   10.54
   1   3 -16    9.95    6.63
   1  -3 -16    0.30   13.26
   1  -3 -16    7.16   13.19
   1  -3 -16   37.91   21.01
  -1  -3  16   23.90   14.32
  -1   3  16   22.65   14.77
  -2  -5 -11  432.15   23.03
   2  -5  11  436.38   32.34
   2   5  11  518.34   34.60
  -2   5 -11  551.32   34.91
   2  -5  11  449.29   29.49
   2   5  11  479.62   33.83
  -2   5 -11  446.48   70.94
   2  -5  11  465.69   28.30
   2   5  11  519.09   33.24
   2  -5  11  458.56   30.82
  -2  -5 -11  541.76   34.79
  -5   0   0   -1.10   12.28
  -5   0   0    4.69   13.11
   5   0   0   11.54   14.05
   5   0   0   25.93    6.73
   5   0   0   -4.10    5.95
   5   0   0   15.82   15.11
   5   0   0   24.01   17.60
   3   6  -6 2993.26   71.77
   3  -6  -6 2851.24   62.01
   3  -6  -6 3012.63   75.72
   3   6  -6 2940.37   81.81
  -3  -6   6 2970.12   74.59
   3  -6  -6 3129.07   71.65
   3   6  -6 2841.59   57.84
  -3  -6   6 3060.79   74.41
   3  -6  -6 3109.00   76.77
   3   6  -6 2956.84   68.64
  -3   6   6 2918.12   61.97
  -3  -6   6 2775.29   71.19
  -3   6   6 2883.32   68.54
   3  -6  -6 3094.09   75.25
  -3  -6   6 2909.74   66.53
  -3  -6   6 3010.63   65.69
   2  -4 -14  879.70   37.05
  -2  -4  14  899.95   44.25
   2  -4 -14  909.36   43.23
   2   4 -14  844.58  121.41
  -2  -4  14  761.11   35.33
  -2   4  14  848.74   34.35
  -2  -4  14  916.74   43.51
  -2   4  14  851.64   44.16
  -2  -4  14  769.17   30.26
   2   4 -14  865.50   39.18
  -2   4  14  926.38   45.02
  -2  -4  14  858.11   42.85
   2  -4 -14  907.45   44.37
   2   4 -14  889.69   43.44
   2  -4 -14  899.96   42.60
   4   1   9  467.24   31.59
   4  -1   9  430.67   31.00
  -4   1  -9  448.82   29.46
  -4  -1  -9  446.99   33.21
   4   1   9  481.43   34.86
   4  -1   9  425.51   25.06
   4  -1   9  415.42   32.25
  -4  -1  -9  384.51   29.46
  -4   1  -9  397.13   26.73
  -4  -1  -9  426.17   26.00
  -4   1  -9  393.90   25.23
   4  -1   9  432.60   30.81
   4   1   9  428.95   34.40
   4   3   7  545.18   34.83
  -4  -3  -7  594.35   36.08
  -4  -3  -7  643.62   39.41
  -4   3  -7  614.41   29.88
   4  -3   7  660.01   40.31
   4  -3   7  576.31   26.12
   4   3   7  602.26   31.95
  -4  -3  -7  544.01   26.36
  -4   3  -7  562.86   29.18
   4  -3   7  550.65   31.34
   4  -3   7  613.74   37.92
  -4   3  -7  616.73   27.58
   4   3   7  616.08   35.02
   4  -3   7  603.15   31.51
   1   4 -15  203.27   25.84
  -1  -4  15  175.77   22.81
  -1   4  15  178.60   24.49
   1  -4 -15  142.61   19.67
  -1   4  15  198.02   20.88
   1   4 -15  216.75   27.52
  -1  -4  15  172.86   23.00
  -1  -4  15  157.28   16.95
   1   4 -15  148.88   23.76
   1  -4 -15  198.44   26.15
   1  -4 -15  175.48   24.24
  -1  -4  15  173.99   25.09
  -1   4  15  200.59   24.86
  -1  -4  15  182.75   26.78
   3   4  10   48.10   19.37
   3  -4  10   30.43    9.35
   3  -4  10   25.64   13.45
   3  -4  10   36.25   12.85
  -3  -4 -10   33.88   14.00
   3  -4  10   22.08   12.78
   3   4  10   58.97   20.87
  -3   4 -10    5.83   14.09
  -3   4 -10   46.52   10.18
   3  -4  10   49.06   17.14
   3   4  10   32.54   18.97
  -2  -2  16  366.82   28.24
   2   2 -16  344.30   31.43
  -2   2  16  369.84   28.14
   2  -2 -16  325.05   29.15
  -2  -2  16  366.46   28.11
  -2   2  16  380.13   31.05
  -2  -2  16  381.08   31.17
  -2   2  16  390.98   32.37
   2   2 -16  323.09   31.04
   2  -2 -16  347.89   31.44
   2  -2 -16  360.56   26.67
  -2  -2  16  338.64   24.75
  -2  -2  16  378.12   29.48
   2   2 -16  377.09   30.95
   2   2 -16  374.96   28.30
   2  -2 -16  362.74   28.08
   0   8   2  252.99   21.94
   0  -8   2  244.40   24.34
   0  -8  -2  233.80   28.06
   0  -8  -2  271.02   25.94
   0  -8   2  266.29   21.55
   0  -8   2  273.23   25.32
   0  -8  -2  255.28   20.53
   0  -8   2  214.56   24.09
   0  -8  -2  241.98   21.98
   0   8   2  239.81   18.09
   0  -8   2  234.29   23.85
   0   8  -2  241.41   52.44
   0  -8  -2  217.85   23.37
  -5   1   2 3609.07   79.62
   5   1  -2 3592.85   64.62
   5   1  -2 3625.63   84.88
   5   1  -2 3626.46   81.99
   5  -1  -2 3641.54   69.30
  -5  -1   2 3563.89   81.92
   5  -1  -2 3687.37   81.35
   5  -1  -2 3735.76   84.49
  -5  -1   2 3640.56   83.87
  -5   1   2 3599.25   83.11
  -5  -1   2 3688.52   83.03
   5   1  -2 3703.60   87.50
   5  -1  -2 3692.22   86.08
   5  -1  -2 3623.97   79.64
   3   0  13  410.55   30.00
   3   0  13  440.67   29.24
   3   0  13  405.99   34.10
   3   0  13  459.70   32.85
   3   0  13  426.62   26.85
  -3   0 -13  470.89   32.13
   5  -1  -1 1068.77   48.08
  -5   1   1 1051.42   46.26
   5   1  -1 1069.33   51.16
  -5  -1   1 1075.87   49.27
   5  -1  -1 1120.30   87.17
   5   1  -1  992.15   54.77
   5  -1  -1  980.66   37.21
   5   1  -1  957.95   33.09
  -5  -1   1  970.98   45.50
   5   1  -1 1003.75   43.13
  -5   1   1  953.75   42.45
   5  -1  -1 1062.21   48.57
   5  -1  -1  981.29   44.51
   5   1  -1 1018.00   46.58
   2  -6 -10  142.72   19.75
   2  -6 -10  120.09   21.49
   2  -6 -10  146.99   21.92
  -2  -6  10  121.52   21.62
   2   6 -10  163.79   22.45
  -2  -6  10  118.44   21.93
  -2   6  10  136.01   19.98
  -2  -6  10  142.86   17.63
   2   6 -10  108.74   26.09
  -2  -6  10  137.81   23.74
   2  -6 -10  129.43   20.96
  -2  -6  10  133.88   21.63
   2   6 -10  121.63   21.02
  -2   6  10  147.27   23.44
   5   0  -4  517.77   34.69
  -5   0   4  450.52   32.83
  -5   0   4  473.32   33.70
   5   0  -4  492.64   28.98
  -5   0   4  531.35   33.19
   5   0  -4  532.49   35.35
   5   0  -4  506.67   35.12
   5   0  -4  427.05   22.35
   4   2 -11 1526.25   55.29
   4  -2 -11 1593.43   47.74
   4  -2 -11 1621.19   52.83
   4  -2 -11 1555.70   56.54
  -4  -2  11 1508.20   54.86
   4  -2 -11 1593.14   56.89
   4   2 -11 1567.24   58.31
   4  -2 -11 1719.46   60.70
   4   2 -11 1644.71   55.43
   4   2 -11 1646.37   58.13
  -4   2  11 1568.83   55.93
  -4  -2  11 1644.00   56.81
  -4  -2  11 1664.36   57.81
   4   2 -11 1574.46   55.60
  -4   2  11 1572.85   56.51
  -4   2  11 1440.08   45.81
   3   4 -12 2725.02   71.73
  -3  -4  12 2590.65   72.07
   3  -4 -12 2497.17   60.61
   3  -4 -12 2710.87   73.18
   3   4 -12 2439.02   53.71
  -3  -4  12 2714.49   73.28
  -3  -4  12 2603.66   65.17
  -3   4  12 2655.01   70.99
  -3   4  12 2630.82   72.81
  -3   4  12 2438.25   50.39
  -3  -4  12 2654.87   72.25
   3   4 -12 2708.66   75.78
  -3  -4  12 2650.03   61.88
   3   4 -12 2485.93   70.94
   3  -4 -12 2672.79   67.00
   3  -4 -12 2507.43   70.78
  -5  -1   3  431.38   32.17
   5  -1  -3  459.70   37.85
  -5  -1   3  372.97   33.35
  -5   1   3  367.66   29.82
   5  -1  -3  358.30   29.56
   5   1  -3  441.32   36.48
  -5  -1   3  427.09   32.08
   5   1  -3  380.77   25.58
   5   1  -3  431.94   33.10
   5  -1  -3  357.92   20.93
   5   1  -3  394.35   31.61
   5  -1  -3  384.53   31.45
  -5   1   3  422.59   36.61
   5  -1  -3  368.01   24.70
   3   5   8  136.17   23.81
   3  -5   8  115.04   17.25
  -3  -5  -8  152.08   22.41
   3  -5   8  105.78   16.83
   3   5   8  154.49   33.19
   3  -5   8  151.01   21.89
   3   5   8  137.92   18.47
   3  -5   8  119.67   16.09
  -3  -5  -8  127.90   16.59
   3  -5   8  141.73   20.58
  -3   5  -8   96.00   20.75
   3  -5   8  133.30   22.24
  -3   0  15  124.74   26.19
  -3   0  15   98.92   23.51
   3   0 -15   51.98   16.91
   3   0 -15   67.91   14.69
  -3   0  15   76.06   18.99
   3   0 -15   76.82   14.87
  -3   0  15   78.59   16.34
   3   0 -15   77.37   21.60
   3   0 -15  107.30   23.20
   2   3  14  506.41   33.90
   2   3  14  500.99   34.55
  -2  -3 -14  430.54   30.56
   2   3  14  460.59   31.15
   2  -3  14  429.54   25.73
  -2   3 -14  439.45   34.40
  -2   3 -14  492.66   30.08
   2   3  14  444.58   23.18
  -2   3 -14  463.78   33.29
   2  -3  14  565.90   40.11
   2  -3  14  446.12   36.41
   5   0   1  391.30   50.91
  -5   0  -1  393.85   30.12
   5   0   1  427.56   33.54
   5   0   1  404.59   32.68
   5   0   1  411.10   31.32
  -5   0  -1  382.21   29.75
  -4   4  -5  126.21   15.68
  -4  -4  -5  107.87   17.57
   4  -4   5  134.34   21.33
   4  -4   5  147.74   23.40
   4   4   5  132.55   23.11
   4   4   5  145.15   20.30
   4  -4   5  106.11   14.20
   4  -4   5   96.42   13.54
   4  -4   5  121.87   16.76
   4   4   5  117.15   18.75
  -4   4  -5  118.36   16.83
  -4  -4  -5  178.04   26.17
   4  -4   5  103.56   20.58
   2   7  -6  183.37   38.99
  -2  -7   6  184.57   23.68
   2  -7  -6  167.35   16.17
  -2  -7   6  186.84   23.48
   2   7  -6  207.79   46.71
  -2  -7   6  200.98   18.76
  -2   7   6  169.77   19.31
   2  -7  -6  240.70   28.40
   2  -7  -6  168.42   21.03
   2   7  -6  178.37   21.08
  -2   7   6  196.24   22.54
  -2  -7   6  194.31   18.22
   2  -7  -6  182.48   24.08
   2  -7  -6  178.99   22.10
  -2  -7   6  185.60   19.85
  -2  -7   6  220.03   24.74
  -5   1   0  343.29   27.87
  -5  -1   0  351.98   31.42
   5   1   0  325.00   56.47
   5  -1   0  283.05   22.24
   5  -1   0  302.33   59.21
   5   1   0  294.47   26.53
   5   1   0  320.27   29.92
   5  -1   0  290.74   28.25
   5   1   0  337.25   34.25
  -5   1   0  285.11   28.40
   5  -1   0  295.58   28.24
   5  -1   0  309.54   30.06
  -5  -1   0  329.76   30.05
   4   0 -12  322.48   77.10
  -4   0  12  333.37   31.98
   4   0 -12  311.87   32.55
   4   0 -12  338.39   29.47
  -4   0  12  316.79   27.42
   4   0 -12  285.28   28.42
  -4   0  12  285.20   27.00
   4   0 -12  329.27   30.40
  -3  -5  10  511.88   30.60
   3  -5 -10  527.64   30.94
   3  -5 -10  491.62   24.69
  -3  -5  10  575.98   36.10
  -3   5  10  517.38   33.03
  -3  -5  10  554.37   36.41
  -3  -5  10  490.87   29.19
  -3   5  10  502.00   37.51
   3  -5 -10  506.65   34.61
   3   5 -10  528.58   86.88
   3  -5 -10  539.67   36.59
  -3  -5  10  586.21   38.35
   3   5 -10  513.48   33.68
   3  -5 -10  546.88   34.88
   3   5 -10  500.79   25.45
   1  -5  13 1676.67   59.48
  -1   5 -13 1513.92   54.72
   1  -5  13 1542.44   56.63
  -1  -5 -13 1587.10   48.14
   1  -5  13 1708.24   53.63
  -1   5 -13 1635.16   54.94
   1  -5  13 1605.52   54.55
   1   5  13 1538.20   50.95
  -1   5 -13 1522.13   67.54
   1   5  13 1633.09   58.30
  -1  -5 -13 1685.13   57.82
   3  -1  13 1776.48   59.71
  -3   1 -13 1770.23   57.89
   3   1  13 1549.24   45.14
   3   1  13 1653.93   54.76
   3  -1  13 1622.88   49.34
  -3  -1 -13 1713.56   54.21
   3   1  13 1636.15   57.54
   3   1  13 1650.18   54.06
   3  -1  13 1702.27   54.43
   3  -1  13 1717.62   57.10
   3   1  13 1428.66  104.78
   3  -1  13 1521.97   83.83
  -4   5   1   64.41   13.23
   4  -5  -1   67.29   14.89
   4   5  -1   86.68   19.32
   4  -5  -1   79.87   18.73
   4   5  -1   75.98   22.05
   4  -5  -1   80.86   20.38
   4   5  -1   79.46   17.23
  -4   5   1   65.91   14.57
   4  -5  -1   90.55   20.42
  -4   5   1   74.02   14.74
  -4  -5   1   38.97   16.35
   4   5  -1   54.33   12.56
   4  -5  -1   71.50   18.23
  -4  -5   1   79.79   19.63
  -4  -5   1   52.99   17.37
   0   8   3  208.78   19.19
   0  -8  -3  191.81   17.53
   0  -8  -3  190.94   19.20
   0  -8  -3  194.20   22.14
   0  -8  -3  213.74   24.72
   0  -8   3  246.79   28.21
   0  -8   3  207.73   21.68
   0  -8  -3  228.93   24.82
   0   8   3  212.80   19.84
   0  -8   3  217.46   23.10
   0  -8   3  253.01   26.20
   0  -8   3  178.64   18.76
   0   8  -3  198.86   35.59
  -4  -5   2  216.72   25.02
  -4   5   2  205.78   19.18
   4  -5  -2  198.97   19.56
   4  -5  -2  235.62   27.06
   4   5  -2  216.52   54.21
   4  -5  -2  220.51   26.07
   4  -5  -2  228.17   24.93
   4   5  -2  198.04   20.11
  -4  -5   2  213.92   23.26
  -4   5   2  191.69   20.76
   4   5  -2  232.42   24.10
   4   5  -2  218.44   25.48
  -4   5   2  183.87   54.31
   4  -5  -2  250.29   26.72
  -4  -5   2  233.93   25.18
   0   2  17  346.14   30.17
   0  -2  17  282.19   28.43
   0  -2 -17  288.42   23.24
   0  -2 -17  327.97   31.59
   0  -2  17  319.30   26.65
   0   2 -17  304.45   30.63
   0   2  17  342.01   31.69
   0   2 -17  290.89   28.47
   0   2 -17  283.76   27.11
   0   2  17  321.98   30.27
   0  -2 -17  239.83   23.70
   0   2 -17  318.39   24.99
   0  -2  17  327.57   27.00
   0  -2  17  312.86   25.47
   5  -1  -4  656.01   37.84
  -5   1   4  642.09   39.06
   5   1  -4  609.44   31.64
  -5   1   4  618.96   34.48
   5  -1  -4  599.17   40.62
   5   1  -4  707.24   40.06
  -5  -1   4  644.18   37.23
  -5  -1   4  613.10   37.49
  -5  -1   4  624.49   38.45
  -5   1   4  677.59   43.37
   5  -1  -4  655.43   39.03
   5   1  -4  587.97   39.57
   5  -1  -4  600.63   31.79
   5  -1  -4  599.39   27.83
   5   1  -4  629.26   37.70
   2   7   5  614.71   36.95
   2  -7   5  583.71   35.72
  -2  -7  -5  560.71   27.20
   2  -7   5  609.93   37.45
  -2  -7  -5  587.46   30.01
   2  -7   5  624.09   37.44
   2   7   5  584.77   29.80
   2   7   5  574.69   69.87
   2  -7   5  601.40   34.62
  -2   7  -5  638.63   37.46
  -2  -7  -5  629.45   37.94
  -1  -6 -11    9.07    7.27
  -1  -6 -11   -4.26   10.60
  -1   6 -11   -2.21    9.12
   1  -6  11   20.11   14.61
   1  -6  11    7.82   13.61
   1   6  11   13.16   13.62
  -1   6 -11   22.94   14.13
  -1  -6 -11   16.49   17.22
   1  -6  11  -11.06   12.89
   1   6  11   23.76   14.13
   1  -6  11    3.24    9.74
   1  -6  11  -12.98   12.03
  -4   3  10  721.80   40.33
  -4   3  10  790.11   40.99
   4  -3 -10  741.35   29.79
   4   3 -10  794.86   42.01
  -4  -3  10  763.99   40.77
   4   3 -10  747.22   42.38
   4  -3 -10  724.14   39.57
  -4  -3  10  749.85   41.52
  -4  -3  10  730.21   41.41
  -4  -3  10  781.72   40.75
   4  -3 -10  830.49   44.35
   4  -3 -10  699.26   37.82
   4  -3 -10  723.23   35.21
  -4   3  10  720.31   31.19
   4   3 -10  790.46   70.52
   4   3 -10  828.63   41.63
   4  -3 -10  733.80   31.98
   2   6   9   46.97   14.63
  -2  -6  -9   49.55   19.40
  -2   6  -9   66.78   18.53
   2  -6   9   52.59   12.61
   2  -6   9   61.18   18.66
   2   6   9   57.92   16.26
   2  -6   9   49.12   16.92
   2  -6   9   30.87   18.34
  -2  -6  -9   51.98   13.16
   2   6   9   59.22   19.93
   2  -6   9   46.29   18.25
  -2  -4 -13   29.72   12.33
  -2   4 -13   54.52   13.52
   2  -4  13   55.59   21.09
   2   4  13   36.32   14.19
   2   4  13   51.02   19.74
   2  -4  13   35.88   14.40
  -2   4 -13   53.71   14.32
   2  -4  13   62.42   18.53
   2   4  13   68.05   18.27
   2  -4  13   68.42   15.98
   4  -5   0  538.33   31.80
   4  -5   0  576.52   36.36
   4  -5   0  557.27   33.64
  -4  -5   0  511.40   33.77
   4   5   0  526.99   28.98
  -4   5   0  534.46   29.90
   4   5   0  531.72   32.91
   4  -5   0  549.42   33.85
  -4  -5   0  569.60   35.87
  -4   5   0  518.07   29.31
  -4   5   0  511.70   25.21
   4  -5   0  495.39   30.46
   4   5   0  567.34   36.65
   3   1 -15   51.88   16.51
  -3  -1  15   52.13   17.28
   3  -1 -15   68.13   20.95
  -3   1  15   68.51   19.70
   3   1 -15   75.29   23.46
   3   1 -15   38.82   18.20
  -3  -1  15   39.45   14.25
   3   1 -15   47.84   13.10
   3  -1 -15   76.67   15.72
  -3   1  15   47.09   14.50
  -3  -1  15   46.15   16.10
   3   1 -15   95.24   24.04
  -3  -1  15   46.97   16.91
   3  -1 -15   77.33   21.84
  -3   1  15   51.81   18.07
   3  -1 -15   67.20   20.49
   3  -1 -15   37.34   13.05
   1   2 -17  284.01   28.07
   1  -2 -17  253.48   26.30
  -1  -2  17  212.40   21.55
  -1   2  17  207.34   25.62
   1  -2 -17  255.29   23.75
  -1   2  17  221.79   24.95
  -1   2  17  242.82   26.84
  -1  -2  17  291.25   26.00
   1  -2 -17  246.33   26.71
   1   2 -17  248.57   23.02
  -1  -2  17  224.48   25.29
   1   2 -17  223.69   26.40
  -1  -2  17  227.28   19.87
   1   2 -17  255.44   28.31
  -1  -2  17  274.75   24.57
   5   0  -5  202.84   27.12
   5   0  -5  213.52   26.19
   5   0  -5  177.02   17.62
  -5   0   5  210.55   23.67
   5   0  -5  182.10   20.63
   5   0  -5  188.14   26.34
  -5   0   5  188.34   24.34
  -5   0   5  180.07   25.87
  -5  -1  -1  230.24   30.26
   5   1   1  215.39   28.93
  -5  -1  -1  210.70   23.97
   5  -1   1  180.98   22.86
   5   1   1  174.35   21.55
  -5   1  -1  212.42   24.67
   5  -1   1  189.69   25.88
   5  -1   1  184.21   25.23
   5   1   1  216.77   25.68
   5  -1   1  183.46   16.71
   5   1   1  185.06   26.02
   5  -1   1  217.05   26.29
  -5   1  -1  200.04   24.02
   0  -7   9  161.23   23.78
   0   7  -9  148.43   25.10
   0   7   9  155.59   20.88
   0   7  -9  150.10   28.95
   0   7   9  186.79   23.24
   0  -7  -9  144.77   17.69
   0  -7   9  116.78   21.09
   0  -7  -9  150.91   22.71
   0  -7   9  163.31   17.67
   0  -7   9  135.95   22.37
   0  -7  -9  175.75   23.14
   0  -7   9  140.30   21.20
   1  -7   8  280.67   29.06
   1  -7   8  286.08   26.99
   1  -7   8  288.61   29.17
   1  -7   8  257.24   26.05
  -1  -7  -8  250.01   20.62
   1  -7   8  330.01   28.83
   1   7   8  296.54   27.71
   1   7   8  229.55   18.99
  -1   7  -8  304.21   29.50
  -1  -7  -8  257.68   25.79
  -1  -7  -8  280.91   23.91
  -4   1  12  455.39   31.11
   4   1 -12  489.65   33.32
  -4   1  12  528.43   37.57
   4  -1 -12  494.32   30.82
  -4   1  12  499.89   35.22
  -4  -1  12  531.71   37.72
   4   1 -12  466.12   36.90
   4  -1 -12  513.80   36.63
  -4  -1  12  462.54   33.36
  -4  -1  12  455.30   31.62
   4   1 -12  545.78   40.57
   4  -1 -12  514.11   35.45
   4   1 -12  484.71   34.83
   4   1 -12  464.21  107.82
   4  -1 -12  478.69   29.99
   4  -1 -12  506.37   34.96
   4   5  -3  568.52  112.05
  -4  -5   3  617.03   36.53
   4   5  -3  554.27   26.87
   4  -5  -3  565.75   31.08
   4  -5  -3  588.17   35.21
  -4  -5   3  578.52   37.38
  -4   5   3  545.80   29.06
   4  -5  -3  579.98   36.77
   4  -5  -3  558.27   35.90
  -4  -5   3  564.47   36.84
   4   5  -3  547.78   29.18
   4   5  -3  547.41   33.25
   4  -5  -3  558.77   36.54
  -4   5   3  580.36   33.39
   4   5  -3  562.78   35.38
  -4   5   3  525.97   96.91
   4  -4  -8   54.71   14.76
  -4   4   8   40.24   15.12
   4  -4  -8   61.46   14.12
   4   4  -8   69.04   20.61
   4  -4  -8   75.85   17.26
  -4  -4   8   52.88   17.46
  -4  -4   8   71.63   19.91
   4  -4  -8   44.80   18.98
  -4  -4   8   22.24   12.68
   4   4  -8   53.59   13.79
   4   4  -8   36.17   19.51
  -4   4   8   46.55   16.45
   4   4  -8   54.62   15.21
   4  -4  -8   60.63   11.79
   4  -4  -8   42.72   19.06
   1  -8   0  567.70   35.51
   1  -8   0  558.48   30.18
  -1  -8   0  568.00   30.63
   1   8   0  525.41   26.50
  -1  -8   0  557.32   29.36
   1  -8   0  543.67   26.71
  -1  -8   0  545.51   34.59
   1  -8   0  547.34   35.21
  -1  -8   0  573.72   33.40
   1  -8   0  560.55   34.27
  -1  -8   0  604.44   35.21
   1  -8   0  534.88   34.57
   1   8   0  577.36   30.20
  -1  -8   0  579.63   35.86
   3  -6   5 1377.37   52.12
   3  -6   5 1372.01   47.79
   3  -6   5 1334.34   53.27
   3  -6   5 1407.26   51.75
   3   6   5 1394.35   45.69
   3  -6   5 1490.47   51.85
  -3  -6  -5 1422.35   52.55
   3   6   5 1273.74   49.63
  -3   6  -5 1335.85   52.47
   3   6   5 1359.34   41.38
   3   6   5 1398.11   51.49
  -3  -6  -5 1314.46   44.83
   5   0   2  652.17   35.20
  -5   0  -2  628.16   36.71
   5   0   2  608.56   38.91
   5   0   2  689.56   39.47
  -5   0  -2  715.85   41.30
   5   0   2  655.37   38.93
  -1  -8   1 1316.68   51.35
   1  -8  -1 1303.01   51.39
  -1  -8   1 1292.35   49.72
  -1  -8   1 1164.37   37.05
   1  -8  -1 1375.61   51.94
  -1  -8   1 1219.44   46.14
  -1  -8   1 1341.88   50.97
   1  -8  -1 1103.46   34.99
  -1  -8   1 1189.25   42.86
   1   8  -1 1186.30   36.94
  -1  -8   1 1221.51   43.47
   1  -8  -1 1188.60   41.41
   1  -8  -1 1324.37   52.85
  -1   8   1 1231.14   38.28
   1  -8  -1 1234.32   50.56
   1   8  -1 1237.51   39.61
   2   2  15  213.17   24.65
  -2   2 -15  191.67   17.14
   2   2  15  234.47   26.78
   2  -2  15  245.23   19.86
   2   2  15  257.58   26.17
   2  -2  15  211.22   25.46
   2   2  15  226.50   20.10
  -2   2 -15  181.11   19.05
   2  -2  15  247.20   25.33
  -2  -2 -15  234.33   25.72
  -2   2 -15  269.17   31.27
   2  -2  15  226.37   24.52
   2  -2  15  233.01   19.29
  -3   6   7  406.45   26.81
   3  -6  -7  424.99   26.37
   3  -6  -7  406.42   29.19
  -3  -6   7  379.34   31.08
   3  -6  -7  389.89   35.26
   3   6  -7  379.46   27.65
   3  -6  -7  454.80   32.97
  -3  -6   7  370.36   27.32
   3   6  -7  402.21   23.94
  -3  -6   7  459.99   33.45
  -3   6   7  433.41   30.49
  -3  -6   7  356.46   24.63
   3   6  -7  358.81   29.14
   3  -6  -7  428.22   32.03
  -3  -6   7  439.32   32.06
   3   6  -7  447.12   74.93
   0  -6  12  413.03   32.43
   0   6  12  432.35   31.35
   0  -6 -12  444.44   33.12
   0  -6  12  444.01   33.42
   0   6  12  425.94   32.34
   0   6 -12  466.45   96.21
   0  -6 -12  433.44   28.69
   0   6  12  405.06   23.58
   0  -6  12  421.01   28.74
   0  -6  12  430.59   32.79
   0   6 -12  400.51   37.71
   0  -6 -12  442.52   30.46
   0   6 -12  416.29   32.73
   1   8   1  430.02   25.72
   1  -8   1  447.40   32.78
  -1  -8  -1  427.90   26.16
   1  -8   1  438.70   33.36
  -1  -8  -1  424.72   26.88
   1   8   1  425.12   26.45
  -1  -8  -1  454.54   32.94
  -1  -8  -1  411.99   33.41
   1  -8   1  429.31   27.12
  -1  -8  -1  408.99   24.33
   1  -8   1  449.68   35.00
   1  -8   1  412.13   24.94
  -1  -8  -1  381.20   28.46
  -1   8  -1  475.59   34.69
   1   0  17  133.49   14.75
  -1   0 -17  138.15   19.14
   1   0  17  162.17   23.80
   1   0  17  104.20   17.50
  -1   0 -17  153.56   23.74
   1   0  17  146.24   22.54
  -1   0 -17  130.30   17.01
   1   0  17  133.03   17.31
   4   5   1  228.35   24.17
   4  -5   1  233.72   24.84
  -4   5  -1  197.44   19.90
  -4  -5  -1  220.59   28.93
   4  -5   1  209.41   22.82
  -4   5  -1  201.61   19.93
   4   5   1  212.09   20.09
   4  -5   1  206.12   24.55
  -4  -5  -1  237.32   27.44
   4  -5   1  187.45   22.13
   4   5   1  188.46   38.96
   4   5   1  210.30   26.94
   4  -5   1  202.69   20.36
   0   5 -14   53.30   14.85
   0  -5  14   93.42   23.48
   0  -5  14   63.75   18.93
   0   5  14   96.73   21.42
   0   5  14  107.39   22.14
   0  -5 -14   62.28   15.90
   0   5 -14   66.15   19.96
   0  -5 -14   97.30   21.45
   0  -5  14   59.42   15.12
   0  -5 -14   79.65   17.13
   0   5 -14   96.55   19.71
   0  -5  14   73.72   18.70
   0   5  14   59.33   12.80
   1  -8  -2  465.64   26.51
   1   8  -2  500.82   97.06
  -1  -8   2  457.20   27.65
   1  -8  -2  531.57   35.74
  -1  -8   2  499.45   34.69
   1  -8  -2  548.61   35.86
  -1   8   2  466.05   26.58
   1   8  -2  457.91   24.10
  -1  -8   2  514.17   30.02
  -1  -8   2  513.20   33.46
   1  -8  -2  457.60   32.54
   1  -8  -2  423.39   32.20
  -1  -8   2  415.13   24.21
  -1  -8   2  508.54   33.14
   5   1  -5 1057.66   34.47
  -5   1   5 1050.83   42.35
   5   1  -5 1071.56   49.23
  -5  -1   5 1073.04   47.61
   5  -1  -5 1106.67   49.21
  -5   1   5 1106.83   49.19
   5  -1  -5 1054.73   37.72
   5   1  -5 1128.99   48.87
   5  -1  -5 1133.85   47.27
   5   1  -5 1143.50   51.27
   5  -1  -5 1089.16   48.28
  -5  -1   5 1175.57   51.64
  -5   1   5 1097.66   46.79
   5   1  -5 1137.46   42.98
   5  -1  -5 1103.08   44.62
  -5  -1   5 1100.17   48.25
   4   5  -4  718.85   32.97
   4  -5  -4  763.60   39.36
   4  -5  -4  751.41   35.42
  -4   5   4  728.10   38.00
   4   5  -4  755.77  116.76
   4  -5  -4  643.32   35.25
   4   5  -4  749.11   33.35
   4   5  -4  718.33   39.09
   4  -5  -4  799.31   42.52
   4   5  -4  716.38   36.93
  -4   5   4  745.14   34.21
  -4  -5   4  745.13   39.75
   4  -5  -4  752.13   40.21
  -4  -5   4  745.58   42.57
  -4  -5   4  722.42   42.96
   0  -8  -4   61.52   14.28
   0  -8   4   69.84   18.13
   0  -8  -4   61.40   14.00
   0  -8   4  101.72   19.99
   0   8   4   86.70   15.48
   0  -8   4   95.29   18.96
   0   8  -4   70.21   17.62
   0  -8  -4  119.52   24.85
   0  -8   4   73.58   19.41
   0  -8  -4  106.14   24.67
   0   8   4   79.64   16.73
   0  -8   4   61.34   13.93
  -4  -2  -9  739.23   31.79
   4   2   9  783.83   37.64
   4  -2   9  821.02   40.54
   4   2   9  821.46   43.32
   4  -2   9  743.82   33.68
   4  -2   9  736.16   71.59
  -4   2  -9  732.83   34.08
   4  -2   9  702.03   39.59
   4   2   9  760.95   39.80
  -4  -2  -9  778.11   39.55
   4   2   9  783.38   40.99
   4  -2   9  792.90   38.81
  -4   2  -9  703.55   34.44
   5   1   2  366.50   40.66
  -5  -1  -2  434.19   36.61
  -5   1  -2  414.65   32.33
   5  -1   2  385.08   32.07
  -5  -1  -2  394.07   30.24
  -5   1  -2  401.64   29.38
   5  -1   2  457.81   34.92
   5   1   2  505.63   35.64
   5  -1   2  429.01   30.03
   5   1   2  390.25   26.73
   5   1   2  408.09   33.46
   5  -1   2  395.52   29.96
   2   0 -17    8.29   15.03
  -2   0  17    3.43   11.76
  -2   0  17   31.93   17.21
  -2   0  17    2.78    9.12
   2   0 -17   16.50   14.35
  -2   0  17   14.92   13.67
   2   0 -17   11.01   11.55
  -2   0  17   14.93   13.76
   2   0 -17    5.65   10.11
   1  -8   2  274.44   27.42
  -1  -8  -2  235.51   21.56
  -1  -8  -2  290.24   26.83
   1   8   2  246.25   21.49
   1  -8   2  252.46   23.01
  -1  -8  -2  233.26   24.47
  -1  -8  -2  230.20   18.53
   1  -8   2  248.72   22.35
  -1  -8  -2  213.77   18.38
   1   8   2  258.85   21.76
   1  -8   2  258.36   25.52
  -1   8  -2  255.86   39.38
   1  -8   2  318.80   33.04
  -1  -8  -2  292.29   27.29
  -1  -5  14  289.09   31.12
  -1  -5  14  287.10   28.79
  -1   5  14  246.32   27.59
   1  -5 -14  277.41   28.29
  -1  -5  14  256.17   27.27
  -1   5  14  249.46   20.10
   1   5 -14  270.58   27.67
  -1   5  14  271.07   32.45
   1  -5 -14  232.08   23.27
   1   5 -14  307.91   31.17
   1   5 -14  216.22   25.51
  -1  -5  14  307.09   29.44
   1  -5 -14  311.04   28.48
  -1  -7   9 1010.80   39.72
   1  -7  -9 1071.65   38.32
  -1  -7   9 1030.77   46.46
   1   7  -9 1120.26   93.69
  -1  -7   9 1078.79   46.98
   1  -7  -9 1114.44   49.02
  -1  -7   9 1260.02   51.26
   1   7  -9  967.80   45.21
   1  -7  -9 1063.09   47.47
   1  -7  -9 1057.47   46.36
  -1  -7   9 1043.41   45.97
  -1   7   9 1068.20   44.49
  -1   7   9 1036.53   47.17
   1   6 -12   75.12   19.76
  -1   6  12  154.31   26.34
  -1  -6  12   85.34   21.29
   1   6 -12  116.88   21.76
  -1   6  12  104.22   17.86
  -1  -6  12  134.97   22.50
  -1  -6  12  137.06   20.20
   1  -6 -12  104.17   18.81
   1   6 -12  118.07   24.73
  -1  -6  12  114.23   21.80
   1  -6 -12  122.75   22.29
   1  -6 -12  106.57   20.04
  -5  -2   2 1559.65   56.17
   5   2  -2 1498.43   52.36
  -5  -2   2 1585.55   57.69
   5  -2  -2 1540.18   53.16
   5  -2  -2 1540.03   48.15
   5   2  -2 1385.56   39.99
  -5  -2   2 1530.27   58.59
  -5   2   2 1551.69   56.16
   5  -2  -2 1576.84   59.14
   5  -2  -2 1533.85   54.87
   5   2  -2 1558.46   57.99
  -5   2   2 1502.93   51.40
   5   2  -2 1603.37   58.99
   5  -2  -2 1479.85   40.93
   5  -2  -2 1542.62   57.51
  -2  -7   7 1160.13   49.25
   2  -7  -7 1042.75   46.67
  -2  -7   7 1252.44   46.07
   2  -7  -7 1155.63   50.20
   2  -7  -7 1148.18   45.72
  -2  -7   7 1127.89   47.54
  -2   7   7 1113.66   40.97
   2  -7  -7 1015.14   45.93
  -2   7   7 1175.88   46.55
   2   7  -7 1120.76   62.78
  -2  -7   7 1196.04   49.60
   2   7  -7 1112.32   46.88
  -2  -7   7 1053.40   36.72
   2   7  -7 1101.01   43.77
   5   2  -1  510.42   39.09
   5  -2  -1  450.32   33.86
   5   2  -1  461.38   31.73
   5   2  -1  499.56   35.24
   5  -2  -1  525.28   35.53
  -5  -2   1  554.27   36.80
   5  -2  -1  492.55   28.28
  -5   2   1  482.49   33.58
   5   2  -1  457.94   32.92
  -5  -2   1  495.66   34.70
  -5   2   1  499.05   31.70
   5  -2  -1  473.70   33.66
   5  -2  -1  433.33   83.06
   5   0  -6 1124.87   39.97
   5   0  -6 1127.66   49.41
  -5   0   6 1116.43   49.02
   5   0  -6 1096.94   44.82
  -5   0   6 1108.57   45.98
  -5   0   6 1053.14   49.69
   5   0  -6 1129.94   50.43
   5   0  -6 1123.35   48.94
   1   1  17 2191.82   58.78
   1  -1  17 2129.45   50.33
  -1   1 -17 2298.39   55.24
   1   1  17 2264.84   67.78
   1  -1  17 2244.01   67.77
  -1  -1 -17 2186.29   57.78
  -1   1 -17 2310.71   71.36
  -1  -1 -17 2340.08   70.30
   1  -1  17 2215.89   62.15
   1   1  17 2147.59   53.22
   1   1  17 2307.79   66.52
   1  -1  17 2196.34   58.54
  -1   1 -17 2217.22   59.68
   1  -1  17 2152.85   56.19
  -2   5  13   12.48   13.16
  -2  -5  13   10.61   13.64
   2  -5 -13   34.74   20.42
  -2  -5  13   29.02   12.64
   2   5 -13    5.98   13.66
   2   5 -13   40.54   16.89
   2  -5 -13   31.41   13.84
  -2  -5  13   17.92   12.24
   2   5 -13   21.84   14.77
   2   5 -13   26.45   12.65
   2  -5 -13   27.71   11.55
  -2  -5  13   39.95   22.28
  -2   5  13   13.24   15.47
   2  -5 -13   25.55   13.82
   3   3  12  528.68   34.53
  -3   3 -12  603.84   37.38
   3  -3  12  451.53   23.67
  -3  -3 -12  506.17   32.10
   3  -3  12  518.18   33.67
   3   3  12  536.46   74.84
   3   3  12  567.40   37.35
   3  -3  12  527.09   34.51
   3   3  12  501.51   27.97
   3  -3  12  500.40   28.64
  -3   3 -12  482.39   24.93
   3  -3  12  501.19   33.97
   1  -8  -3   62.85   17.74
   1  -8  -3   22.44   14.04
   1  -8  -3   55.72   17.68
   1   8  -3   51.05   14.54
  -1  -8   3   48.53   16.37
  -1  -8   3   29.11   12.14
  -1  -8   3   21.91   12.29
  -1  -8   3   31.71   13.98
   1  -8  -3   21.88   13.87
   1  -8  -3   11.75    8.07
  -1   8   3   45.27   15.76
  -4  -5  -2 1980.03   63.47
   4  -5   2 1819.44   56.67
  -4   5  -2 1972.20   55.06
   4   5   2 2021.85   66.58
   4  -5   2 1814.06   60.96
   4   5   2 1927.29   59.70
  -4  -5  -2 1971.68   62.49
   4  -5   2 1831.48   57.97
  -4   5  -2 1827.34   49.66
   4  -5   2 1884.96   60.56
   4   5   2 1972.65   58.83
   4   5   2 1864.24   49.71
   4  -5   2 1804.51   51.70
   4   0  10  431.13   31.26
   4   0  10  398.48   44.03
   4   0  10  451.96   29.59
   4   0  10  416.64   33.07
  -4   0 -10  432.45   28.05
  -4   0 -10  413.87   31.02
   5  -2  -3  479.40   35.20
  -5  -2   3  471.85   34.25
  -5   2   3  435.18   31.85
   5   2  -3  463.59   36.10
   5  -2  -3  431.67   32.09
   5   2  -3  465.29   34.05
   5   2  -3  444.40   26.12
   5  -2  -3  467.84   49.72
   5  -2  -3  454.15   29.03
   5   2  -3  418.90   32.49
   5  -2  -3  423.15   24.83
  -5  -2   3  489.41   38.08
  -5  -2   3  485.93   34.90
   5  -2  -3  468.55   33.74
  -5   2   3  466.86   33.23
   4  -4   6  963.77   35.22
  -4  -4  -6  999.94   47.54
   4  -4   6  991.74   44.76
  -4   4  -6  928.03   33.70
   4  -4   6 1055.09   46.77
   4   4   6 1011.40   44.98
   4   4   6  968.80   46.24
   4   4   6  925.34   38.48
   4  -4   6  996.88   36.47
   4  -4   6 1058.45   39.82
  -4  -4  -6 1115.37   48.99
   4  -4   6  992.52   45.85
  -4   4  -6  962.60   39.43
   4  -3   8  784.65   37.19
  -4   3  -8  714.85   30.56
  -4  -3  -8  753.21   41.01
   4  -3   8  765.72   45.23
   4   3   8  769.64   39.66
   4   3   8  782.30   42.14
   4  -3   8  751.23   35.33
  -4  -3  -8  761.45   41.46
   4   3   8  743.41   35.03
  -4  -3  -8  752.85   31.31
  -4   3  -8  746.60   35.56
   4  -3   8  769.48   41.76
   5  -2   0  121.40   20.24
   5  -2   0   70.04   16.81
   5   2   0  118.88   24.38
   5  -2   0  120.72   21.97
  -5   2   0  119.09   19.12
   5   2   0  157.31   26.37
   5  -2   0  118.68   16.83
  -5   2   0  124.79   22.54
  -5  -2   0  130.56   21.59
   5   2   0  154.50   28.14
   5   2   0  145.79   33.75
   5  -2   0  122.79   21.63
  -5  -2   0  119.86   22.52
   5   0   3   98.15   22.74
   5   0   3   69.52   17.52
   5   0   3   52.86   17.53
  -5   0  -3   74.72   18.65
  -5   0  -3   64.48   18.97
   5   0   3   99.94   23.90
   3  -3 -14   33.50   12.03
   3   3 -14   64.65   13.02
  -3  -3  14   32.35   14.96
   3  -3 -14   50.39   15.14
  -3   3  14   48.44   12.49
  -3  -3  14   46.75   15.14
   3   3 -14   71.60   22.30
  -3  -3  14   76.40   20.25
   3   3 -14   33.62   15.71
   3  -3 -14   73.55   16.21
   3  -3 -14  107.96   22.51
  -3   3  14   81.52   23.79
   3  -3 -14   73.81   14.42
  -3   3  14   46.59   20.46
  -3  -3  14   86.33   18.95
  -3  -3  14   59.43   14.75
   3   3 -14   56.88   19.41
  -2  -1  17  298.55   28.66
  -2   1  17  368.65   34.08
   2  -1 -17  219.30   53.39
  -2  -1  17  389.73   28.16
   2   1 -17  305.51   33.79
   2   1 -17  317.93   28.70
  -2   1  17  332.32   22.35
  -2   1  17  396.62   31.40
   2  -1 -17  314.42   26.81
  -2  -1  17  328.71   26.41
   2   1 -17  322.71   30.05
  -2  -1  17  332.51   31.47
   2   1 -17  326.66   26.51
   2  -1 -17  357.00   27.37
   2  -1 -17  304.81   29.45
  -2  -1  17  316.02   26.15
   2  -1 -17  321.98   31.49
  -2   1  17  359.10   30.16
   2  -7   6  195.46   23.32
   2  -7   6  227.06   26.47
   2   7   6  195.43   23.75
   2  -7   6  221.69   27.05
  -2  -7  -6  171.53   24.63
   2  -7   6  246.56   27.23
   2   7   6  213.70   22.61
  -2  -7  -6  176.59   16.93
  -2   7  -6  211.68   24.66
   2   7   6  211.21   47.32
  -2  -7  -6  207.13   20.13
   2  -7   6  179.06   23.53
  -1  -3 -16  203.87   25.74
  -1   3 -16  186.64   20.93
   1  -3  16  262.20   27.10
   1  -3  16  246.47   26.06
  -1   3 -16  196.47   20.14
   1  -3  16  231.37   26.20
   1  -3  16  200.20   20.49
   1   3  16  240.15   26.23
  -1  -3 -16  174.80   18.84
   1   3  16  238.87   26.82
  -1   3 -16  200.61   26.24
   1   3  16  189.31   24.61
   4  -5  -5 4615.02   96.02
   4   5  -5 4360.59   76.75
  -4  -5   5 4623.83   96.85
  -4   5   5 4337.96   78.46
   4   5  -5 4414.42   97.30
   4  -5  -5 4503.94   89.37
   4  -5  -5 4436.92   92.31
   4  -5  -5 4305.02   74.44
  -4  -5   5 4348.01   88.54
   4   5  -5 4498.40   83.49
   4   5  -5 4412.04   91.40
  -4  -5   5 4407.64   89.76
  -4   5   5 4368.43   86.70
   4  -5  -5 4176.90   81.43
   4   5  -5 4343.10   92.41
   4  -5  -5 4321.48   74.96
  -3   2 -13  604.82   40.06
   3  -2  13  605.90   35.01
   3  -2  13  559.29   27.01
   3   2  13  668.18   37.69
   3  -2  13  634.40   37.05
   3   2  13  588.11   31.35
   3  -2  13  580.61   28.06
   3  -2  13  647.69   41.10
   3   2  13  635.32   38.61
   3  -2  13  509.95   47.71
   3   2  13  680.23   56.59
   3   2  13  584.99   26.42
  -3  -2 -13  627.89   35.02
   1   8   3  392.11   27.56
  -1  -8  -3  402.89   28.94
   1  -8   3  440.65   37.19
  -1   8  -3  408.42   88.65
  -1  -8  -3  410.87   29.59
   1  -8   3  391.20   31.67
   1  -8   3  406.10   31.37
   1  -8   3  362.73   25.27
   1   8   3  420.01   26.50
  -1  -8  -3  319.18   20.66
   1  -8   3  423.96   31.14
  -1  -8  -3  405.59   30.82
  -1  -8  -3  387.40   25.44
   1  -4  15  457.89   34.09
  -1   4 -15  397.91   31.48
  -1  -4 -15  453.87   34.27
   1  -4  15  463.74   33.02
   1   4  15  402.04   32.84
  -1   4 -15  461.32   36.43
  -1  -4 -15  401.19   27.57
   1   4  15  469.82   31.62
   1  -4  15  427.36   32.70
   1  -4  15  477.46   31.31
  -1   4 -15  393.22   55.61
   5   1  -6  209.88   28.23
   5   1  -6  220.07   19.45
   5   1  -6  256.76   27.02
   5  -1  -6  243.00   26.30
  -5   1   6  211.37   25.11
  -5  -1   6  203.50   25.14
   5  -1  -6  246.07   26.55
   5   1  -6  244.69   32.08
  -5   1   6  211.75   22.22
   5  -1  -6  227.51   20.93
   5  -1  -6  209.18   27.93
  -5   1   6  275.90   30.39
   5   1  -6  229.99   22.79
   5  -1  -6  211.59   22.81
  -5  -1   6  274.68   30.68
  -5  -1   6  204.48   23.52
  -5  -2   4   19.12   13.57
   5  -2  -4   22.24   13.39
   5   2  -4    8.95    8.82
  -5  -2   4   11.54   14.33
  -5   2   4   -7.43   12.14
   5  -2  -4   20.24   14.26
  -5  -2   4   -9.24   13.74
  -5   2   4    6.22   12.73
   5   2  -4    5.19   13.75
   5  -2  -4   20.97    9.99
   5  -2  -4   12.07   14.93
   5   2  -4   -3.21   14.82
   5   2  -4    3.31   12.17
   5  -2  -4    5.27   14.03
   4   1  10  868.26   44.98
   4   1  10  867.88   39.87
   4  -1  10  824.91   41.76
   4  -1  10  809.55   32.58
   4   1  10  848.30   43.43
   4  -1  10  827.69   43.35
   4  -1  10  788.97   73.77
   4   1  10  828.96   76.58
  -4   1 -10  849.36   36.90
  -4  -1 -10  845.94   35.38
   4  -1  10  784.08   40.28
  -4   1 -10  820.74   36.04
  -4  -1 -10  815.93   41.73
   2   6 -11  334.81   30.39
  -2   6  11  275.18   29.80
   2  -6 -11  323.41   29.08
   2   6 -11  290.46   25.42
  -2   6  11  280.94   26.86
  -2  -6  11  314.23   31.86
   2  -6 -11  289.93   28.53
   2   6 -11  347.71   31.63
  -2  -6  11  294.13   29.33
   2  -6 -11  291.50   24.73
  -2  -6  11  315.52   29.55
   2  -6 -11  341.89   29.99
  -2  -6  11  271.46   28.75
  -2  -6  11  278.77   20.78
   3   2 -15  183.91   17.91
  -3  -2  15  241.96   26.78
   3   2 -15  181.12   26.58
  -3  -2  15  172.15   20.70
  -3   2  15  181.02   25.56
   3  -2 -15  149.29   17.19
  -3  -2  15  179.01   27.21
   3  -2 -15  178.01   22.51
  -3   2  15  186.01   21.05
  -3  -2  15  170.41   23.23
   3  -2 -15  107.56   28.52
  -3  -2  15  199.99   25.09
   3   2 -15  195.61   25.41
   3  -2 -15  184.49   22.33
   3   2 -15  201.29   27.86
  -3   2  15  145.95   22.93
   3  -2 -15  223.28   27.64
   3  -2 -15  161.34   19.49
   5  -2   1  230.85   27.29
  -5  -2  -1  348.25   32.89
  -5   2  -1  290.78   25.96
   5  -2   1  316.73   31.33
  -5  -2  -1  281.60   28.55
  -5   2  -1  305.59   26.70
   5  -2   1  303.06   29.74
   5  -2   1  290.14   22.02
   5   2   1  300.40   25.26
   5  -2   1  248.86   22.43
   5   2   1  333.65   41.96
   5   2   1  375.16   36.30
   5   2   1  283.76   28.84
  -3  -5  -9  220.80   22.59
   3   5   9  209.28   25.02
   3  -5   9  249.68   26.80
   3   5   9  223.94   20.03
   3   5   9  226.64   20.96
   3  -5   9  224.10   21.79
   3  -5   9  186.04   19.85
   3  -5   9  220.19   24.88
  -3   5  -9  249.38   26.33
   3   5   9  225.60   27.36
   3  -5   9  233.62   21.02
   3  -5   9  203.29   25.31
   0  -8  -5   74.67   18.04
   0  -8   5   64.43   19.28
   0  -8   5   93.99   17.81
   0  -8  -5   86.23   22.95
   0  -8   5   86.54   19.33
   0  -8   5   93.58   21.05
   0   8   5   64.16   17.35
   0   8   5   57.01   13.52
   0  -8  -5   92.50   21.89
   0   8  -5   75.01   17.22
   0  -8  -5   85.06   14.51
   0  -8   5   51.76   14.81
   5  -1   3  708.03   41.27
   5  -1   3  780.44   37.69
  -5  -1  -3  748.03   43.62
  -5   1  -3  765.77   38.00
   5   1   3  752.94   41.20
  -5  -1  -3  748.49   39.85
   5  -1   3  804.71   46.30
   5  -1   3  783.90   39.69
  -5   1  -3  745.18   39.09
   5   1   3  754.47   42.04
   5   1   3  736.03   35.15
   5   1   3  724.67   39.20
  -3   6  -6  159.87   23.59
   3  -6   6  124.15   22.29
   3   6   6  103.69   14.02
   3   6   6  155.39   30.44
   3  -6   6  107.50   20.89
   3   6   6  112.42   16.10
   3  -6   6  118.96   19.68
   3   6   6  163.98   21.67
   3  -6   6  119.99   21.44
   3  -6   6  142.86   22.92
  -3  -6  -6  119.97   18.69
  -3  -6  -6  147.70   23.41
  -1  -8   4   96.62   16.65
  -1  -8   4  101.77   20.23
   1  -8  -4   97.52   17.47
   1  -8  -4  105.92   17.09
  -1   8   4   89.05   16.95
  -1  -8   4   96.11   22.35
   1  -8  -4   75.07   18.47
  -1   8   4   95.57   14.27
  -1  -8   4  138.39   21.66
  -1  -8   4   94.75   19.45
   1   8  -4  117.17   18.17
  -1  -8   4   60.56   11.58
   1  -8  -4  110.29   20.40
   4  -2 -12  820.15   42.13
  -4  -2  12  853.70   45.02
  -4   2  12  803.28   42.93
   4  -2 -12  771.20   34.05
   4  -2 -12  798.05   47.65
  -4  -2  12  807.34   43.18
   4   2 -12  746.61   43.57
  -4  -2  12  827.87   42.44
   4  -2 -12  824.02   43.15
   4   2 -12  762.18   43.75
  -4   2  12  762.75   34.69
   4   2 -12  857.90   44.61
   4   2 -12  852.47   45.15
   4  -2 -12  739.85   37.09
  -4   2  12  807.77   42.60
  -4  -2  12  816.41   44.72
  -2  -5 -12  160.53   23.21
   2   5  12  149.71   23.99
   2   5  12  160.24   23.69
  -2   5 -12  132.23   26.05
   2  -5  12  159.87   24.03
   2   5  12  174.85   24.84
  -2   5 -12  133.08   21.84
   2  -5  12  149.82   20.85
   2  -5  12  126.48   20.37
   2  -5  12  151.11   19.24
   2  -5  12  171.58   24.98
   0   0  18   23.89   14.00
   0   0  18   21.00   18.43
   0   0 -18   -5.28   13.68
   0   0 -18   -9.69   12.91
   0   0  18   -0.33    7.25
   0   0  18    2.89   11.83
   0   0 -18   19.26   11.82
   0   0  18   -6.23    8.52
   3  -5 -11  947.67   41.20
   3  -5 -11 1031.08   48.33
  -3  -5  11 1134.97   48.66
   3   5 -11 1055.10   49.59
   3  -5 -11 1121.26   46.75
   3   5 -11 1079.23   48.37
  -3  -5  11 1030.76   38.03
  -3  -5  11 1082.15   49.91
   3   5 -11  951.83   35.22
  -3   5  11 1069.48   49.71
  -3   5  11 1082.51   49.28
  -3  -5  11 1079.52   49.61
   3  -5 -11  981.87   45.53
  -3  -5  11  939.93   40.02
  -3  -6   8 1180.80   50.50
   3  -6  -8 1064.96   50.10
   3   6  -8 1158.39   46.76
   3  -6  -8 1082.60   48.17
  -3   6   8 1101.27   42.39
   3  -6  -8 1086.68   46.40
   3  -6  -8 1005.00   35.47
  -3  -6   8 1075.56   48.99
  -3   6   8  999.15   45.42
  -3  -6   8 1012.99   38.91
   3  -6  -8 1062.91   50.09
   3   6  -8 1081.22   48.36
  -3  -6   8 1052.10   46.48
   3   6  -8  960.09   35.44
  -3  -6   8 1042.26   42.14
   3   6  -8 1079.27  104.54
   4  -4  -9  144.84   22.16
   4  -4  -9  180.49   18.05
   4  -4  -9  194.83   17.71
  -4  -4   9  205.50   26.40
   4   4  -9  234.10   64.00
  -4   4   9  167.77   23.90
   4  -4  -9  173.75   20.02
   4   4  -9  199.24   24.04
   4  -4  -9  185.72   25.60
  -4  -4   9  183.03   23.19
  -4   4   9  199.31   27.14
   4   4  -9  201.49   28.12
  -4  -4   9  239.04   27.31
   4  -4  -9  192.61   24.74
   4   4  -9  205.36   25.86
  -4  -4   9  197.38   21.62
   1   0 -18   10.22   14.51
  -1   0  18   11.25    9.64
   1   0 -18   17.24   18.33
   1   0 -18    3.13    8.16
  -1   0  18   14.51    8.61
  -1   0  18   22.83   13.46
  -1   0  18    6.18   16.49
   1   0 -18   14.86   14.42
  -1   0  18   19.46   11.29
   2   0  16   94.71   15.75
  -2   0 -16   95.91   20.83
   2   0  16   79.40   21.08
   2   0  16   66.61   13.15
   2   0  16   62.29   16.60
  -2   0 -16   74.14   13.31
   3   4  11  362.47   30.41
  -3  -4 -11  387.04   29.00
  -3   4 -11  343.69   29.85
   3   4  11  367.30   62.74
   3  -4  11  353.63   27.48
   3  -4  11  357.12   24.43
   3  -4  11  398.58   31.57
   3   4  11  427.37   35.60
   3  -4  11  405.09   31.56
   3   4  11  345.03   23.98
   3  -4  11  334.33   25.31
  -3   4 -11  291.36   27.68
   4   5   3  399.62   68.02
   4   5   3  445.24   30.61
  -4   5  -3  406.65   27.39
  -4  -5  -3  468.14   35.28
   4  -5   3  375.68   32.83
   4  -5   3  399.81   26.46
   4  -5   3  349.55   30.44
   4  -5   3  369.74   32.00
  -4  -5  -3  388.23   31.31
   4   5   3  402.35   23.70
  -4   5  -3  356.33   22.87
   4  -5   3  367.65   31.08
   4   5   3  366.15   28.48
   2  -3 -16  195.37   27.21
  -2  -3  16  194.41   26.20
  -2  -3  16  197.64   25.04
   2  -3 -16  249.00   29.89
  -2   3  16  179.28   19.77
   2   3 -16  158.34   22.54
  -2  -3  16  184.88   25.06
  -2   3  16  185.61   24.70
   2  -3 -16  169.33   25.85
   2   3 -16  209.75   25.58
  -2  -3  16  202.48   25.98
  -2   3  16  162.07   24.57
  -2  -3  16  155.09   17.65
   2   3 -16  203.49   26.30
   2  -3 -16  170.85   19.36
   2   3 -16  219.44   26.83
   3  -4 -13  529.07   35.33
  -3   4  13  490.90   35.96
  -3  -4  13  433.27   27.61
   3   4 -13  474.85   35.76
   3   4 -13  460.44   26.05
  -3   4  13  413.51   23.62
  -3  -4  13  485.14   35.71
   3   4 -13  525.01   35.60
   3  -4 -13  465.94   37.81
   3  -4 -13  482.11   31.99
   3   4 -13  457.55   35.67
  -3  -4  13  476.77   34.56
  -3  -4  13  474.46   34.97
   3  -4 -13  458.70   30.93
  -3   4  13  538.02   40.26
  -3  -4  13  412.80   28.76
  -5   0   7 1312.62   54.14
   5   0  -7 1311.59   53.69
  -5   0   7 1346.11   55.12
   5   0  -7 1240.96   48.76
  -5   0   7 1332.82   50.12
   5   0  -7 1295.41   53.56
   5   0  -7 1269.41   42.94
   5   0  -7 1306.45   54.85
   4  -3 -11 1190.98   51.37
  -4  -3  11 1160.84   48.40
  -4  -3  11 1288.97   52.77
   4   3 -11 1265.42   55.73
  -4   3  11 1138.81   39.35
  -4   3  11 1203.85   52.99
  -4  -3  11 1151.04   49.90
   4  -3 -11 1126.49   43.29
   4   3 -11 1251.15  141.43
   4  -3 -11 1023.71   34.10
  -4   3  11 1206.83   51.42
   4  -3 -11 1122.52   38.67
   4  -3 -11 1196.02   50.53
   4   3 -11 1258.43   49.85
  -4  -3  11 1230.89   52.36
   4   3 -11 1169.27   50.88
   4  -3 -11 1187.98   52.32
   1  -7   9    8.30   14.80
   1   7   9   28.69   15.23
   1  -7   9   36.09   20.84
  -1  -7  -9   36.03   15.70
  -1  -7  -9   26.37   12.09
   1  -7   9    8.67   14.29
  -1   7  -9   12.15   12.68
  -1  -7  -9   24.65   13.57
   1  -7   9   54.94   23.87
   1  -7   9   13.54    7.71
   1   7   9    1.85    9.01
   1  -7   9   16.61   14.41
  -4   0  13  260.03   27.44
   4   0 -13  302.86   30.01
   4   0 -13  309.26   30.90
   4   0 -13  280.39   30.67
   4   0 -13  265.81   27.91
  -4   0  13  277.05   25.75
  -4   0  13  293.38   27.59
   4   0 -13  283.56   52.37
   5   2  -5  169.92   25.09
   5  -2  -5  183.10   24.42
   5  -2  -5  143.75   18.39
   5  -2  -5  166.90   24.08
  -5   2   5  183.84   25.52
  -5  -2   5  193.18   25.35
  -5  -2   5  217.99   28.40
  -5   2   5  205.89   21.32
  -5  -2   5  189.99   26.62
   5  -2  -5  129.74   22.58
   5  -2  -5  163.29   20.88
   5   2  -5  177.00   25.75
   5   2  -5  179.93   30.37
  -5   2   5  152.62   23.85
   5   2  -5  181.03   19.43
  -2   4  15  323.29   30.01
   2  -4 -15  368.81   32.57
   2  -4 -15  310.13   28.93
  -2  -4  15  281.41   28.77
   2   4 -15  333.89   30.06
   2  -4 -15  342.55   24.38
   2   4 -15  348.83   27.77
   2   4 -15  327.82   87.27
  -2  -4  15  319.50   29.24
  -2   4  15  282.59   21.19
   2   4 -15  373.74   32.87
  -2   4  15  317.65   31.84
  -2  -4  15  335.09   26.57
  -2  -4  15  334.93   29.97
   2  -4 -15  326.36   30.25
   0  -7 -10  265.28   29.21
   0   7 -10  216.94   34.24
   0  -7  10  236.21   27.15
   0  -7 -10  216.88   21.58
   0  -7  10  249.39   27.15
   0   7 -10  198.12   26.45
   0  -7 -10  199.20   25.48
   0  -7  10  227.47   27.09
   0   7  10  220.44   25.91
   0  -7  10  196.42   19.12
   0   7  10  236.18   25.57
   0  -7  10  236.34   26.56
   2   6  10  329.26   30.26
  -2   6 -10  379.25   31.68
   2   6  10  344.70   30.80
   2  -6  10  381.78   31.28
   2  -6  10  307.91   29.12
   2  -6  10  355.59   33.59
  -2  -6 -10  285.72   20.13
   2   6  10  372.28   31.19
   2  -6  10  306.97   27.64
   2  -6  10  303.94   22.11
  -2  -6 -10  305.48   31.84
   0   1  18 1310.83   41.55
   0  -1 -18 1284.19   45.51
   0   1  18 1418.44   56.54
   0   1 -18 1261.41   51.50
   0  -1  18 1346.47   55.75
   0   1 -18 1258.47   40.49
   0  -1  18 1315.66   47.87
   0   1 -18 1432.65   58.28
   0  -1  18 1338.12   43.58
   0   1  18 1326.79   51.85
   0  -1  18 1456.72   49.95
   0  -1 -18 1406.67   52.72
   0   1  18 1481.47   51.32
   0  -1 -18 1505.95   58.13
   0   1 -18 1437.17   50.62
   0  -1  18 1453.81   48.48
  -1  -8  -4   13.71   12.16
  -1  -8  -4   14.72   11.99
   1  -8   4   31.32   12.85
   1  -8   4   55.35   21.56
   1   8   4   23.28    8.64
   1  -8   4   54.62   19.61
  -1   8  -4    6.14   12.73
  -1  -8  -4   22.69    9.87
   1  -8   4   27.90   15.16
  -1  -8  -4   40.08   15.84
   1  -8   4   37.12   12.64
  -5   0  -4    9.13   12.16
   5   0   4    8.21   14.00
   5   0   4   16.98   15.94
   5   0   4   -0.25    9.43
  -5   0  -4   41.55   19.52
   5   0   4  -12.29   13.18
  -4   5   6  265.19   30.07
   4   5  -6  252.48   70.33
  -4  -5   6  309.33   30.82
   4   5  -6  246.34   27.53
   4   5  -6  262.07   32.75
  -4   5   6  248.61   22.18
   4  -5  -6  281.61   29.60
   4  -5  -6  246.81   21.84
  -4  -5   6  291.29   28.94
  -4  -5   6  315.76   30.32
   4   5  -6  277.34   26.39
   4  -5  -6  277.23   27.97
   4  -5  -6  289.22   29.25
   4  -5  -6  227.17   20.68
   4   5  -6  311.94   35.07
   4  -5  -6  246.76   25.39
   5   2   2  397.51   31.88
   5   2   2  394.74   85.66
   5  -2   2  375.85   26.97
   5  -2   2  404.84   32.17
  -5   2  -2  365.12   27.94
   5  -2   2  386.00   33.59
   5   2   2  380.13   32.35
  -5  -2  -2  395.50   35.77
   5  -2   2  436.93   37.85
  -5   2  -2  364.18   27.73
  -5  -2  -2  401.27   32.20
   5  -2   2  358.77   22.46
   5   2   2  377.88   27.65
  -1   1  18  294.26   21.11
   1  -1 -18  306.30   29.25
   1   1 -18  327.23   29.95
  -1   1  18  312.22   30.19
  -1  -1  18  279.45   26.10
   1  -1 -18  290.77   26.90
  -1   1  18  295.33   28.53
  -1   1  18  301.84   28.45
  -1  -1  18  281.88   24.74
  -1  -1  18  301.36   25.33
  -1  -1  18  305.21   25.08
  -1  -1  18  321.48   29.71
   1   1 -18  278.73   23.87
   1  -1 -18  269.47   20.46
   1   1 -18  328.40   31.07
   1  -1 -18  309.18   29.65
   1   1 -18  301.76   33.15
  -2  -1 -16  634.80   37.99
  -2   1 -16  649.24   39.71
  -2   1 -16  624.05   30.09
   2  -1  16  695.38   40.73
   2   1  16  688.81   33.25
   2  -1  16  631.64   37.32
   2  -1  16  657.01   32.38
   2   1  16  663.07   36.53
   2  -1  16  635.63   32.95
   2   1  16  674.15   39.62
  -2  -7   8 2567.66   75.81
   2   7  -8 2548.34   69.97
   2  -7  -8 2638.32   73.64
   2   7  -8 2401.87   65.69
  -2  -7   8 2549.44   71.56
  -2   7   8 2542.38   65.04
   2  -7  -8 2497.39   70.39
  -2  -7   8 2344.97   52.17
  -2  -7   8 2418.45   64.28
   2  -7  -8 2529.41   71.17
   2   7  -8 2512.83   74.61
  -2  -7   8 2462.18   70.76
  -2   7   8 2537.81   69.22
   2  -7  -8 2354.89   62.08
   0   4 -16  277.68   28.12
   0   4 -16  303.96   27.87
   0  -4 -16  284.52   26.93
   0  -4  16  271.60   29.23
   0   4  16  313.61   29.97
   0  -4 -16  235.28   26.51
   0  -4  16  285.71   28.28
   0   4  16  309.12   30.52
   0   4 -16  291.38   30.33
   0  -4 -16  243.10   20.94
   0  -4  16  247.03   25.99
   0  -4  16  283.20   26.68
   0   4  16  262.28   27.72
  -1   2 -17 2468.13   64.06
  -1   2 -17 2444.52   59.88
   1  -2  17 2487.80   64.34
  -1  -2 -17 2701.66   75.80
  -1   2 -17 2675.85   75.60
   1  -2  17 2484.03   58.32
   1   2  17 2489.60   70.20
   1  -2  17 2494.80   68.23
   1   2  17 2388.44   70.84
   1  -2  17 2616.03   74.49
   1   2  17 2461.51   66.84
  -1  -2 -17 2499.11   61.96
   1  -2  17 2337.31   54.93
   0  -3 -17   47.09   16.26
   0  -3 -17   10.24   13.45
   0  -3  17   60.08   15.15
   0  -3  17   44.89   14.28
   0  -3  17   59.01   16.42
   0   3 -17   60.97   19.11
   0   3 -17   40.34   19.56
   0  -3  17   29.33   12.92
   0   3  17   67.97   21.19
   0   3  17   54.60   18.67
   0  -3 -17   31.97   11.92
   0   3  17   31.69   16.31
   0  -3  17   67.29   18.93
  -5   1   7 1223.93   48.65
   5   1  -7 1165.12   49.50
   5   1  -7 1224.24   48.20
  -5   1   7 1233.43   54.61
   5  -1  -7 1153.90   48.58
   5  -1  -7 1166.12   41.68
   5  -1  -7 1244.01   54.37
   5   1  -7 1158.45   40.66
  -5  -1   7 1181.59   50.19
  -5   1   7 1218.79   53.20
   5  -1  -7 1159.53   46.79
   5   1  -7 1298.94   57.32
  -5  -1   7 1261.55   53.39
   5   1  -7 1239.16   54.23
  -5  -1   7 1229.12   52.36
   5  -1  -7 1178.64   50.58
   3   0  14   56.94   14.48
   3   0  14   52.44   19.65
   3   0  14   52.62   12.53
   3   0  14   63.57   13.06
   3   0  14   54.04   16.76
  -3   0 -14   48.85   18.65
  -1   6 -12  154.68   42.47
  -1   6 -12  158.75   23.99
  -1  -6 -12  224.53   27.04
   1  -6  12  178.09   23.27
  -1  -6 -12  162.24   16.53
   1  -6  12  163.00   25.05
   1   6  12  186.86   25.42
   1  -6  12  186.53   25.06
   1  -6  12  189.40   26.57
   1   6  12  152.07   18.63
   1  -6  12  182.46   19.77
  -1  -6 -12  216.70   22.89
  -1  -8   5  120.46   19.07
  -1  -8   5  139.00   22.69
   1  -8  -5  181.39   27.53
  -1  -8   5  147.22   23.91
  -1  -8   5  148.24   22.96
   1  -8  -5  153.28   22.62
   1  -8  -5  120.99   17.39
  -1  -8   5  126.64   24.11
  -1  -8   5   99.54   13.79
   1  -8  -5  151.19   22.75
   1   8  -5  139.01   23.48
  -1   8   5  120.95   17.79
  -1   8   5  133.72   16.75
  -1   3  17  141.93   25.17
  -1   3  17   94.83   17.61
  -1  -3  17   81.47   15.99
   1  -3 -17  120.50   22.76
   1  -3 -17  104.58   21.10
   1   3 -17  137.72   25.89
  -1  -3  17   78.10   17.37
   1   3 -17  104.38   21.45
   1   3 -17  117.72   34.83
   1  -3 -17  102.92   21.67
  -1  -3  17  115.52   22.14
   1   3 -17   86.84   21.32
  -1   3  17  100.85   21.10
  -1  -3  17  115.51   24.12
   4   1 -13  146.90   26.29
  -4  -1  13  201.15   26.63
  -4   1  13  222.66   27.04
   4   1 -13  170.94   27.19
   4  -1 -13  175.74   23.42
   4  -1 -13  207.50   27.01
  -4  -1  13  187.43   24.76
   4   1 -13  184.83   26.67
   4  -1 -13  171.47   25.47
   4   1 -13  175.12   26.45
   4  -1 -13  187.48   25.70
   4   1 -13  168.81   36.46
   4  -1 -13  171.84   22.53
  -4   1  13  186.95   22.80
  -4  -1  13  203.03   27.84
  -4   1  13  183.55   22.17
  -1   4  16  923.73   45.55
  -1  -4  16  934.12   45.07
  -1   4  16  876.34   37.66
   1   4 -16  921.07   44.84
  -1  -4  16  857.87   34.58
  -1  -4  16  960.91   47.26
   1  -4 -16  937.61   45.12
   1   4 -16  905.86   45.53
  -1  -4  16  952.36   45.54
  -1   4  16  905.70   45.68
   1  -4 -16  945.78   41.90
   1  -4 -16  913.00   47.47
  -1  -4  16  912.44   44.91
  -3   0  16   41.00   18.31
   3   0 -16   44.82   14.86
   3   0 -16   75.40   15.57
   3   0 -16   39.90   13.13
  -3   0  16   47.19   13.78
  -3   0  16   51.84   19.23
   3   0 -16   50.15   22.09
   3   0 -16   45.50   19.23
  -1  -5 -14  299.32   24.66
  -1   5 -14  292.82   30.31
   1   5  14  260.64   27.78
   1  -5  14  333.56   30.39
   1  -5  14  305.25   30.00
  -1   5 -14  289.60   69.20
   1  -5  14  314.10   27.51
   1   5  14  268.62   25.01
  -1  -5 -14  307.28   29.82
  -1   5 -14  281.81   28.28
   1  -5  14  324.21   26.70
   5   1   4  189.46   19.01
   5  -1   4  200.93   25.88
   5  -1   4  150.81   20.74
   5   1   4  181.30   25.09
   5  -1   4  173.85   26.38
  -5   1  -4  129.16   20.05
   5   1   4  172.12   23.87
  -5  -1  -4  157.44   23.35
   5  -1   4  138.22   20.49
   5   1   4  159.19   23.54
  -5  -1  -4  177.69   25.97
  -5   1  -4  161.34   21.86
   4  -4   7   50.70   14.99
  -4  -4  -7   50.58   18.21
   4   4   7   35.60   12.39
   4   4   7   43.25   17.06
   4  -4   7   49.30   15.12
   4   4   7   46.27   18.71
  -4   4  -7   43.74   16.44
  -4  -4  -7   20.10   14.69
   4  -4   7   33.26   10.99
   4  -4   7   42.52   10.38
   4  -4   7   20.24   17.09
   4  -4   7   48.60   11.81
   2  -2 -17  184.00   20.52
   2   2 -17  228.63   28.68
  -2  -2  17  189.97   22.44
   2  -2 -17  208.64   26.87
  -2   2  17  201.71   25.64
   2   2 -17  214.46   26.92
   2  -2 -17  284.98   29.71
  -2  -2  17  217.14   29.40
   2   2 -17  270.85   30.78
  -2   2  17  220.25   27.02
   2  -2 -17  216.72   26.67
  -2   2  17  223.72   23.79
  -2  -2  17  237.73   22.94
  -2  -2  17  197.79   23.01
  -2  -2  17  222.69   25.59
   2   2 -17  229.36   25.50
  -1   7  10  146.01   24.77
   1  -7 -10  174.06   24.33
   1   7 -10  133.82   33.23
  -1  -7  10  153.46   24.57
  -1   7  10  144.14   24.54
   1   7 -10  179.77   36.03
  -1  -7  10  138.63   23.25
  -1  -7  10  158.80   19.79
   1  -7 -10  123.62   15.36
   1  -7 -10  176.53   24.04
   1   7 -10  155.34   23.66
  -1  -7  10  154.51   21.09
   1  -7 -10  197.44   25.23
   0   8   6  191.89   21.19
   0  -8  -6  203.85   29.09
   0  -8  -6  158.70   20.50
   0   8  -6  205.21   26.27
   0   8   6  185.35   22.62
   0  -8   6  196.49   25.88
   0  -8  -6  167.52   18.01
   0  -8   6  185.10   23.02
   0  -8   6  190.67   25.61
   0  -8   6  215.35   26.58
   0  -8   6  205.17   24.75
   0  -8  -6  179.72   23.26
  -2  -7  -7 1655.09   56.18
   2  -7   7 1646.42   58.42
   2   7   7 1605.38   56.95
   2  -7   7 1686.77   57.75
  -2  -7  -7 1491.85   44.07
   2   7   7 1595.68   50.44
   2  -7   7 1632.43   58.14
  -2   7  -7 1752.63   61.70
   2   7   7 1715.07   59.20
   2  -7   7 1740.69   60.21
   2  -7   7 1548.49   57.19
  -2   3 -15   68.30   15.67
   2  -3  15   53.07   15.93
   2   3  15   77.24   19.21
   2  -3  15   43.40   13.60
  -2   3 -15   76.25   14.93
   2   3  15  102.65   21.45
  -2  -3 -15   92.07   21.79
  -2   3 -15   56.95   20.23
   2   3  15  101.10   21.28
   2  -3  15   82.34   20.36
   2  -3  15   71.90   15.76
  -4  -5  -4  125.58   23.75
   4   5   4   74.63   15.00
   4  -5   4  110.69   15.89
  -4  -5  -4  115.24   23.22
   4  -5   4  148.58   24.87
   4  -5   4   81.34   20.23
   4  -5   4  130.51   22.97
  -4   5  -4   78.39   13.00
   4  -5   4   91.01   17.09
   4   5   4   98.44   21.71
  -4   5  -4  118.15   20.68
   4   5   4  117.65   21.92
  -5   2   6 1415.93   46.52
   5  -2  -6 1428.22   56.40
   5  -2  -6 1451.42   52.76
   5   2  -6 1541.73   60.28
   5  -2  -6 1431.03   47.26
   5   2  -6 1446.72   57.42
   5   2  -6 1410.85   48.96
  -5  -2   6 1482.21   57.33
  -5   2   6 1509.30   58.33
   5  -2  -6 1441.73   54.42
   5   2  -6 1551.51   60.94
  -5   2   6 1442.24   54.48
  -5  -2   6 1613.77   60.12
   5  -2  -6 1432.54   51.88
  -5  -2   6 1569.28   58.28
   3  -7  -1  396.42   35.74
   3  -7  -1  412.82   31.92
   3   7  -1  346.07   65.96
  -3   7   1  356.32   23.39
   3  -7  -1  385.19   30.25
  -3  -7   1  407.62   29.11
   3   7  -1  362.51   71.70
   3  -7  -1  397.90   31.86
   3   7  -1  354.55   59.27
  -3   7   1  375.15   66.46
   3   7  -1  322.14   81.16
   3  -7  -1  368.30   24.47
   3   7  -1  334.74   84.41
  -3  -7   1  405.31   26.19
  -3  -7   1  368.20   27.55
  -3  -7   1  372.76   28.63
  -3  -1 -14 1047.93   45.54
   3   1  14 1025.15   37.43
   3  -1  14  958.09   41.35
   3  -1  14  938.32   79.36
   3   1  14  965.39   74.82
   3   1  14 1075.87   46.16
   3  -1  14  961.38   44.78
   3   1  14 1131.13   47.63
   3  -1  14  998.26   39.40
   3   1  14 1013.82   47.80
   3  -1  14 1065.39   46.78
  -3   1 -14 1060.63   47.25
  -3  -7   0  125.51   17.91
   3   7   0   93.49   19.41
  -3  -7   0  156.41   25.01
   3  -7   0  118.26   17.11
   3   7   0   80.63   26.68
   3   7   0  131.99   37.58
   3  -7   0  135.49   21.80
   3   7   0  104.66   24.62
   3   7   0  132.17   20.15
   3  -7   0   88.50   17.27
   3   7   0  107.16   19.68
  -3  -7   0  120.54   22.71
  -3   7   0   90.42   13.25
   3  -7   0  117.98   20.00
   3  -7   0  133.12   23.85
  -3   7   0  107.20   26.54
   3  -7  -2   22.06   18.13
   3   7  -2   11.25    5.51
  -3   7   2   13.78    8.94
  -3  -7   2   10.41   11.45
   3  -7  -2   26.83   12.75
  -3  -7   2   12.01    9.97
   3   7  -2   18.89    5.80
  -3  -7   2   28.88   19.05
   3  -7  -2   -2.67    7.64
   3  -7  -2   -2.09   11.90
   3   7  -2   15.43   10.08
   3  -7  -2   23.50   13.74
   3   7  -2    7.78    3.75
   3   7  -2    7.89    4.41
   3  -7  -2   10.70   19.43
  -4   2 -10 2120.42   54.27
   4   2  10 2071.30  225.14
   4  -2  10 2083.35   61.92
   4  -2  10 1967.87   52.25
  -4  -2 -10 2106.51   65.30
   4   2  10 2014.65   65.74
   4   2  10 2093.06   61.97
   4  -2  10 2029.90   65.67
   4  -2  10 1842.07   57.47
   4  -2  10 2064.92   65.10
  -4  -2 -10 2097.07   54.82
   4   2  10 2113.70   56.59
  -4   2 -10 2079.76   56.81
  -2   4 -14  596.04   33.09
   2   4  14  649.04   40.10
   2  -4  14  629.14   40.04
   2  -4  14  616.95   35.08
   2   4  14  644.75   40.33
  -2   4 -14  573.32   38.46
   2   4  14  633.45   39.25
   2  -4  14  652.77   42.43
  -2  -4 -14  714.61   41.55
  -2   4 -14  567.87   36.62
   2  -4  14  576.71   32.92
   0  -6  13  140.86   20.78
   0   6 -13  189.97   29.91
   0   6  13  122.25   14.49
   0  -6 -13  130.43   20.02
   0  -6  13  169.25   26.18
   0   6  13  137.18   23.37
   0  -6  13  139.47   23.76
   0   6  13  218.37   29.20
   0  -6 -13  180.12   22.32
   0  -6 -13  184.11   28.18
   0   6 -13  134.04   25.62
   0   6 -13  159.06   27.87
   0  -6  13  146.67   26.79
   5  -2   3  322.17   30.04
  -5  -2  -3  296.24   30.17
   5  -2   3  296.88   26.68
   5   2   3  343.56   31.38
   5   2   3  341.71   30.03
   5  -2   3  334.15   28.11
   5  -2   3  310.57   31.28
   5   2   3  291.18   22.46
   5   2   3  372.31   32.16
  -5   2  -3  347.09   28.03
  -5  -2  -3  392.69   35.33
  -5   2  -3  296.75   23.98
  -3  -1  16   85.48   18.70
  -3   1  16   70.27   16.45
   3   1 -16   75.98   21.65
   3  -1 -16   71.14   21.34
  -3  -1  16   69.82   21.28
  -3   1  16   91.30   18.70
   3  -1 -16   78.30   22.80
   3   1 -16   59.96   17.73
   3  -1 -16   64.62   13.43
  -3  -1  16   77.65   19.94
  -3  -1  16   65.18   19.43
  -3   1  16   65.21   19.75
   3   1 -16   75.97   16.19
   3  -1 -16   47.36   14.33
   3   1 -16   68.80   12.84
   3   1 -16   43.71   15.28
  -3   1  16   64.92   20.88
   3  -1 -16   71.73   23.56
  -5   0   8  439.33   33.37
   5   0  -8  388.54   33.29
   5   0  -8  431.13   31.19
  -5   0   8  435.52   31.71
  -5   0   8  434.06   37.26
   5   0  -8  385.86   30.69
   5   0  -8  380.37   25.85
   5   0  -8  448.51   36.48
   4  -3   9  215.00   29.01
   4   3   9  312.48   30.88
   4   3   9  227.02   24.67
   4  -3   9  258.96   25.70
   4  -3   9  221.90   21.86
  -4  -3  -9  233.09   27.02
   4   3   9  255.84   64.62
  -4   3  -9  189.59   20.45
  -4  -3  -9  236.61   19.95
   4   3   9  238.15   21.24
   4  -3   9  275.03   29.37
  -4   3  -9  220.65   19.15
   3   6   7  236.66   59.16
   3  -6   7  237.24   26.78
  -3   6  -7  265.43   28.34
   3  -6   7  245.37   28.11
   3   6   7  233.69   24.74
   3  -6   7  207.15   23.25
   3   6   7  207.86   19.52
   3  -6   7  248.69   28.72
   3  -6   7  185.64   21.48
   3   6   7  232.95   27.01
  -3  -6  -7  202.41   22.88
  -1  -8  -5  746.84   37.75
   1  -8   5  710.80   41.72
   1  -8   5  671.99   39.40
  -1  -8  -5  593.02   27.76
   1  -8   5  677.83   41.02
  -1  -8  -5  774.12   41.48
   1   8   5  662.75   34.60
  -1  -8  -5  690.00   35.03
   1  -8   5  693.40   35.51
   1  -8   5  614.57   38.19
  -1   8  -5  669.90   43.04
  -3  -7  -1  340.62   29.19
   3  -7   1  353.26   29.34
   3   7   1  297.92   30.54
  -3  -7  -1  296.56   22.84
   3  -7   1  367.19   30.65
   3   7   1  273.65   78.94
   3  -7   1  337.99   32.15
   3   7   1  271.08   55.44
   3   7   1  236.82   56.59
  -3  -7  -1  323.86   31.41
   3   7   1  264.66   41.46
   3   7   1  311.77   55.09
   3  -7   1  370.68   28.39
   3  -7   1  360.94   31.64
  -3   7  -1  319.92   71.95
   3  -6  -9  327.14   29.63
   3  -6  -9  357.89   29.43
  -3  -6   9  331.42   34.28
  -3   6   9  328.11   26.51
  -3  -6   9  350.07   29.85
   3  -6  -9  308.07   30.59
   3   6  -9  275.71   26.53
   3   6  -9  305.39   22.29
   3  -6  -9  349.30   31.94
  -3  -6   9  324.84   27.67
   3   6  -9  308.20   30.05
  -3   6   9  304.94   28.59
  -3  -6   9  323.78   23.92
   3   6  -9  340.73   56.93
  -3  -6   9  383.11   36.82
   4  -5  -7 2028.96   49.30
  -4  -5   7 2194.97   62.94
  -4   5   7 2227.17   66.04
   4   5  -7 2163.04   67.98
   4  -5  -7 2201.71   60.03
  -4   5   7 2076.55   59.23
   4  -5  -7 2144.65   55.39
   4   5  -7 2301.33   66.83
   4  -5  -7 2232.75   67.50
   4  -5  -7 2340.25   69.99
  -4  -5   7 2383.37   72.84
  -4  -5   7 2379.71   69.74
   4   5  -7 2311.45   70.74
   4  -5  -7 2224.42   68.11
   4   5  -7 2198.65   59.42
  -5  -3   2  196.85   26.41
   5  -3  -2  223.07   31.59
   5  -3  -2  209.53   19.95
   5   3  -2  264.46   29.15
  -5  -3   2  254.51   28.64
  -5   3   2  205.47   25.30
  -5  -3   2  165.19   24.43
  -5   3   2  227.54   27.33
   5  -3  -2  220.07   26.48
   5   3  -2  202.68   27.22
   5   3  -2  219.60   23.99
   5  -3  -2  194.74   18.41
   5  -3  -2  177.05   25.74
   5  -3  -2  216.57   25.25
   3  -7  -3  309.53   26.97
   3   7  -3  253.87   55.06
   3  -7  -3  285.31   28.15
   3  -7  -3  292.27   29.43
  -3  -7   3  288.78   27.48
  -3  -7   3  279.58   26.01
  -3  -7   3  314.31   31.81
   3   7  -3  249.61   72.23
  -3   7   3  272.46   23.05
   3  -7  -3  274.35   25.84
  -3  -7   3  279.96   23.68
   3  -7  -3  305.03   28.80
   3   7  -3  258.71   59.63
   3   7  -3  244.51   42.57
  -5  -3   1    5.70   13.20
  -5   3   1   20.55   12.69
   5   3  -1   21.95   16.95
  -5  -3   1   18.77   14.66
   5  -3  -1   82.83   22.14
   5   3  -1   28.79   14.21
   5  -3  -1    6.16   13.78
   5   3  -1   22.88   14.99
   5  -3  -1   -0.03   16.00
  -5   3   1   26.14   14.08
   5  -3  -1    8.05    9.98
   5  -3  -1   18.19    8.70
   5  -3  -1   19.56   10.87
   1   6 -13  504.51   35.16
  -1  -6  13  500.57   35.59
   1  -6 -13  500.87   34.32
   1   6 -13  523.65   38.54
   1   6 -13  517.74  129.42
  -1  -6  13  492.75   35.13
  -1   6  13  531.93   36.36
  -1  -6  13  551.70   37.39
   1  -6 -13  496.36   33.57
   1  -6 -13  493.03   35.89
  -1   6  13  517.42   37.14
  -1  -6  13  517.42   35.06
   4  -4 -10   80.98   15.61
   4   4 -10   81.90   21.61
  -4  -4  10   84.15   19.53
  -4   4  10   74.41   16.39
  -4  -4  10   54.56   20.55
   4   4 -10  114.84   22.29
   4   4 -10  100.77   22.92
   4  -4 -10   74.40   12.94
   4  -4 -10  124.72   22.13
   4  -4 -10   89.14   20.97
   4   4 -10   79.56   18.31
  -4  -4  10  101.74   21.34
   4  -4 -10   75.52   19.22
  -4   4  10  109.44   25.53
  -4  -4  10   87.55   24.38
  -5   0  -5  859.87   46.79
   5   0   5  901.76   43.67
  -5   0  -5  932.67   43.72
   5   0   5  978.64   47.63
   5   0   5  941.64   48.06
   5   0   5  906.26   38.59
   5   3  -3 1205.41   52.03
   5  -3  -3 1054.66   81.26
   5   3  -3 1330.50   55.57
   5  -3  -3 1201.94   41.37
  -5   3   3 1237.19   47.82
  -5  -3   3 1216.73   52.58
   5   3  -3 1331.20   51.90
  -5  -3   3 1222.79   52.52
  -5  -3   3 1320.72   54.47
   5   3  -3 1264.23   41.17
   5  -3  -3 1296.12   54.89
   5  -3  -3 1295.05   48.89
   5  -3  -3 1230.66   49.54
  -5   3   3 1227.04   53.42
   5  -3  -3 1233.38   53.05
   4   0  11  173.99   47.32
   4   0  11  184.16   25.00
  -4   0 -11  224.27   23.05
   4   0  11  183.42   23.87
  -4   0 -11  166.83   24.24
   4   0  11  226.94   26.65
   0   5  15  108.82   15.93
   0  -5  15  132.37   22.66
   0  -5  15  174.06   24.73
   0   5  15  167.11   24.92
   0  -5  15  197.34   27.80
   0   5 -15  168.09   26.09
   0  -5 -15  151.11   23.49
   0   5  15  143.01   26.33
   0  -5 -15  129.26   18.94
   0   5 -15  201.32   25.36
   0   5 -15  120.01   21.89
   0  -5  15  197.29   24.44
   0  -5 -15  141.69   17.03
  -5   3   0  234.27   27.08
   5   3   0  226.75   24.47
  -5   3   0  279.62   25.78
   5   3   0  276.41   32.44
  -5  -3   0  215.77   29.40
   5  -3   0  265.95   29.98
   5  -3   0  265.75   29.14
   5   3   0  232.88   27.25
  -5  -3   0  300.96   29.80
   5  -3   0  240.68   23.15
   5   3   0  236.39   35.64
   5  -3   0  225.59   19.59
   5  -3   0  263.92   30.13
  -1  -8   6  476.35   32.38
  -1   8   6  480.09   29.14
   1  -8  -6  564.60   33.56
  -1  -8   6  509.65   35.30
   1  -8  -6  496.37   33.37
   1  -8  -6  476.81   33.76
   1  -8  -6  514.69   38.34
  -1  -8   6  492.26   35.75
  -1  -8   6  524.01   35.07
  -1  -8   6  502.23   35.40
   1   8  -6  533.76   36.74
  -1   8   6  514.37   33.56
  -1  -8   6  466.89   26.66
  -2   5  14  101.83   21.79
  -2  -5  14  133.03   23.80
  -2  -5  14  119.44   17.37
  -2  -5  14  148.27   22.85
   2  -5 -14  107.93   18.32
   2   5 -14  101.81   19.18
  -2   5  14  148.74   24.07
  -2  -5  14  163.31   23.31
   2   5 -14  128.74   24.89
   2   5 -14  122.85   26.15
   2  -5 -14  147.34   24.38
   2  -5 -14  133.99   17.72
   2   5 -14  201.37   27.49
   2  -5 -14  123.68   22.77
   0  -2  18  574.84   41.03
   0   2  18  602.45   38.04
   0  -2 -18  595.59   31.60
   0   2 -18  636.24   36.01
   0   2  18  646.51   38.32
   0  -2  18  549.58   35.51
   0  -2 -18  641.25   41.91
   0   2 -18  534.60   53.79
   0   2 -18  594.28   38.25
   0  -2 -18  582.12   35.97
   0  -2  18  606.26   35.81
   0   2  18  575.00   37.85
   0  -2  18  627.14   33.68
   0   2 -18  628.64   39.77
   5  -1  -8   57.67   18.91
   5  -1  -8  103.81   24.75
  -5  -1   8   81.09   18.37
   5  -1  -8   86.48   20.95
   5   1  -8   76.82   14.32
  -5   1   8   96.04   21.06
   5   1  -8   87.81   23.01
   5   1  -8   63.06   18.76
  -5  -1   8   72.24   20.17
  -5   1   8   76.81   17.35
   5   1  -8   56.41   17.80
  -5  -1   8   58.42   20.81
   5   1  -8   74.42   21.26
  -5   1   8   86.81   22.32
   5  -1  -8   68.81   15.49
   5  -1  -8   70.32   19.95
   1   2 -18   25.63   21.94
   1   2 -18   42.15   22.29
   1   2 -18   49.03   17.13
   1  -2 -18   35.33   19.03
  -1  -2  18   15.12   12.34
  -1  -2  18   23.63   19.22
  -1  -2  18   44.99   19.15
  -1   2  18   57.87   20.34
  -1  -2  18   41.78   12.92
   1  -2 -18   63.83   20.43
  -1  -2  18   21.56   11.50
  -1   2  18   57.58   20.39
   1  -2 -18   29.94   15.38
  -1   2  18   55.51   18.83
   1   2 -18   49.82   15.75
  -2  -2 -16 2375.43   71.34
   2   2  16 2223.93   54.19
   2   2  16 2223.61   67.60
  -2   2 -16 2259.80   70.67
   2  -2  16 2250.42   68.05
  -2   2 -16 2126.13   53.75
   2   2  16 2257.51   69.34
   2  -2  16 2311.89   68.86
   2  -2  16 2254.75   62.31
   1  -5 -15   28.90   15.82
   1   5 -15    4.07   13.90
  -1  -5  15   38.09   19.72
  -1  -5  15    4.06   13.87
   1  -5 -15   31.04   16.03
  -1   5  15   14.34    8.74
  -1  -5  15   13.22   13.91
  -1  -5  15   36.16   14.73
   1  -5 -15   16.26   12.40
   1   5 -15   32.85   19.51
  -1   5  15   35.89   20.93
  -1   5  15   20.00   14.55
   1   5 -15   33.06   19.88
   3  -5  10 1564.49   47.55
   3  -5  10 1460.20   53.41
  -3   5 -10 1414.19   48.27
   3  -5  10 1458.26   56.09
  -3  -5 -10 1604.93   52.76
   3  -5  10 1494.98   49.10
   3   5  10 1571.70   57.81
  -3   5 -10 1589.02   57.87
   3  -5  10 1590.09   58.19
   3   5  10 1542.49  125.58
   3   5  10 1514.51   57.24
   3   3  13  138.04   23.72
  -3  -3 -13  112.28   19.30
  -3   3 -13  137.53   23.42
   3   3  13  144.20   23.02
   3  -3  13  155.31   22.40
   3   3  13  157.80   35.21
   3  -3  13  137.91   23.05
   3  -3  13  124.19   15.86
  -3   3 -13  105.06   14.22
   3   3  13  129.04   16.56
   3  -3  13  116.26   18.35
  -3  -7  -2 1452.93   54.58
   3  -7   2 1535.04   51.41
   3   7   2 1566.67   57.95
   3  -7   2 1486.51   55.83
   3  -7   2 1578.80   57.94
  -3  -7  -2 1448.48   43.61
   3   7   2 1480.10   46.92
  -3  -7  -2 1410.63   46.46
  -3   7  -2 1547.99   57.31
   3   7   2 1469.40   45.09
   3   7   2 1551.74   51.03
  -3  -7  -2 1481.63   55.79
   3  -7   2 1541.24   56.32
   3   7   2 1395.49  123.94
   3  -7   2 1574.10   57.33
   2  -6 -12 1116.17   50.07
  -2  -6  12 1106.14   52.76
  -2   6  12 1152.52   51.24
   2  -6 -12 1036.76   46.52
   2   6 -12 1197.22   52.30
  -2  -6  12 1183.73   52.67
  -2   6  12 1163.91   52.18
   2   6 -12 1069.18   44.81
   2  -6 -12 1079.29   41.04
  -2  -6  12 1120.14   50.78
   2  -6 -12 1138.58   49.34
  -2  -6  12 1136.91   50.08
   2   6 -12 1097.31   48.79
  -2  -6  12 1062.07   37.24
   3  -7  -4   71.80   18.17
   3  -7  -4   39.97   19.72
  -3  -7   4   79.63   22.06
  -3   7   4   76.70   17.27
  -3  -7   4  105.82   20.21
   3  -7  -4   59.23   19.01
  -3  -7   4   71.44   18.06
  -3  -7   4   53.64   19.27
   3   7  -4   79.38   13.53
   3  -7  -4   71.23   18.87
   3   7  -4   56.74   13.72
   3   7  -4   74.64   16.98
  -3  -7   4   42.23   11.77
   3   7  -4   45.29   14.59
  -5  -3   4   79.13   21.85
   5  -3  -4   86.32   19.59
  -5  -3   4   19.84   13.25
  -5   3   4   82.83   24.29
   5  -3  -4   55.09   23.41
   5   3  -4   48.54   12.53
   5   3  -4   27.45   13.85
   5   3  -4   77.33   20.83
   5  -3  -4   74.44   16.99
   5  -3  -4   80.08   16.90
   5   3  -4   71.51   19.89
  -5  -3   4   44.71   15.11
   5  -3  -4   43.52   10.93
   5  -3  -4   55.48   13.47
  -5   3   4   72.74   17.28
   5   2  -7 2095.19   69.92
   5  -2  -7 2107.25   58.56
  -5  -2   7 2094.08   67.46
   5  -2  -7 1950.58   63.42
  -5  -2   7 2132.44   69.49
   5   2  -7 2011.11   67.63
  -5   2   7 2003.22   66.05
   5  -2  -7 1995.41   60.63
  -5  -2   7 2038.45   66.88
  -5   2   7 1922.65   54.37
   5   2  -7 2055.57   65.96
   5   2  -7 1939.22   51.66
   5   2  -7 1918.64   59.59
  -5   2   7 1987.06   65.83
   5  -2  -7 1936.39   63.45
   5  -2  -7 2065.49   67.66
  -3  -5  12   59.94   14.29
  -3  -5  12   45.77   15.60
   3   5 -12   49.06   20.45
   3  -5 -12   53.14   17.09
  -3   5  12   16.04   15.65
   3  -5 -12   24.55   13.88
  -3  -5  12   37.82   15.27
  -3  -5  12   46.96   18.12
   3  -5 -12   43.58   18.60
  -3  -5  12   17.43   13.33
   3  -5 -12   21.07   11.73
  -3   5  12   31.10   15.22
   3   5 -12   53.23   11.40
   3   5 -12   53.42   22.11
  -2  -7   9 2380.95   71.03
  -2   7   9 2369.36   64.05
   2  -7  -9 2508.60   73.37
   2   7  -9 2283.65   64.33
  -2  -7   9 2379.43   71.13
   2   7  -9 2432.74   71.22
  -2   7   9 2260.66   67.73
   2   7  -9 2365.24   70.68
   2  -7  -9 2424.60   72.33
  -2  -7   9 2332.48   63.96
   2  -7  -9 2333.90   62.60
  -2  -7   9 2399.08   72.49
   2  -7  -9 2375.75   70.89
   5   1   5 2679.50   61.79
  -5   1  -5 2625.14   68.04
   5  -1   5 2613.57   65.73
  -5  -1  -5 2676.41   74.75
   5   1   5 2748.35   77.10
   5  -1   5 2787.85   79.95
  -5  -1  -5 2762.88   75.34
   5   1   5 2590.68   72.44
   5  -1   5 2776.68   78.94
  -5   1  -5 2741.50   71.07
   5   1   5 2647.92   72.68
   5  -1   5 2755.59   71.07
   2  -8  -1  519.53   35.85
  -2  -8   1  502.08   31.24
  -2  -8   1  504.32   32.84
   2   8  -1  439.20   77.80
   2  -8  -1  539.17   32.86
   2  -8  -1  509.86   33.92
   2   8  -1  422.45   87.31
  -2  -8   1  603.80   36.48
   2  -8  -1  482.79   34.86
  -2  -8   1  478.12   29.88
   2  -8  -1  482.82   34.65
  -2  -8   1  486.68   32.15
  -2  -8   1  492.77   31.74
  -2  -8   1  462.83   28.58
   3   3 -15  117.34   23.90
   3  -3 -15   71.51   16.65
   3  -3 -15   97.78   22.75
   3   3 -15  121.11   23.91
  -3   3  15   94.58   20.33
  -3  -3  15  141.37   24.03
  -3  -3  15   87.49   21.37
  -3   3  15   99.21   22.36
   3   3 -15  119.12   16.00
  -3  -3  15  110.52   20.60
   3  -3 -15  115.37   18.58
   3   3 -15  112.79   23.34
  -3  -3  15   97.56   23.05
  -3   3  15   88.73   14.78
  -3  -3  15  118.01   22.22
   3  -3 -15  110.62   22.82
   4   1  11  252.63   28.96
   4  -1  11  256.77   27.01
  -4   1 -11  256.14   25.42
  -4  -1 -11  271.99   26.50
   4   1  11  251.11   26.59
   4  -1  11  274.20   31.75
   4  -1  11  234.32   46.28
   4  -1  11  252.05   28.62
   4   1  11  244.83   39.03
   4   1  11  242.81   25.33
  -4   1 -11  248.39   23.18
  -4  -1 -11  252.57   23.24
  -4   2  13  388.30   31.83
   4   2 -13  346.42   32.95
   4  -2 -13  337.61   32.03
  -4   2  13  371.05   32.66
   4  -2 -13  369.45   28.48
  -4  -2  13  368.71   33.95
   4   2 -13  335.64   30.98
  -4   2  13  350.09   27.13
   4  -2 -13  331.51   25.50
   4   2 -13  353.26   33.97
   4  -2 -13  374.97   33.17
   4  -2 -13  382.06   33.86
  -4  -2  13  352.17   31.42
   4   2 -13  437.29   39.42
  -4  -2  13  363.66   31.96
  -4  -2  13  364.94   32.15
   5  -3   1   12.85   14.07
  -5  -3  -1   13.41   14.45
   5  -3   1    7.40   13.61
  -5  -3  -1   36.70   19.20
   5   3   1   33.40   22.39
  -5   3  -1   36.79   15.43
  -5   3  -1   27.07   15.47
   5   3   1   12.89    6.11
   5  -3   1    3.14    9.44
   5  -3   1   26.42   17.69
   5   3   1   -7.59   13.50
  -2  -8   0  174.64   20.38
  -2  -8   0  169.56   20.29
   2  -8   0  171.78   17.96
   2  -8   0  189.97   24.15
   2  -8   0  144.84   22.83
  -2  -8   0  181.70   20.44
   2   8   0  164.94   43.58
   2  -8   0  172.91   21.13
  -2  -8   0  180.97   19.74
  -2  -8   0  199.72   22.34
   2   8   0  152.06   31.79
   2  -8   0  182.41   24.65
   2   8   0  141.45   26.28
  -2   8   0  202.31   28.43
  -2  -8   0  176.04   23.00
  -4  -5  -5 1326.58   55.03
   4  -5   5 1269.04   53.23
   4   5   5 1250.60   44.53
  -4   5  -5 1276.79   47.71
  -4  -5  -5 1367.73   56.77
   4  -5   5 1361.78   52.60
   4   5   5 1276.91   49.32
   4  -5   5 1240.45   42.94
   4  -5   5 1314.71   47.62
   4  -5   5 1240.18   51.35
   4   5   5 1242.25   53.05
   1  -7  10  738.22   32.17
   1  -7  10  827.43   44.10
  -1   7 -10  829.35   63.37
   1  -7  10  891.81   48.36
   1  -7  10  781.42   44.48
  -1  -7 -10  784.47   38.29
   1   7  10  777.36   42.16
   1   7  10  729.62   32.08
  -1  -7 -10  766.49   42.45
   1  -7  10  790.19   43.66
  -1  -7 -10  761.47   32.79
  -1   7 -10  696.84   41.27
   4  -3 -12  710.53   40.69
   4  -3 -12  700.01   31.10
   4   3 -12  760.82   44.72
  -4  -3  12  759.83   45.70
   4   3 -12  767.41   74.43
  -4   3  12  737.13   43.37
   4  -3 -12  726.21   41.72
  -4   3  12  758.45   43.05
  -4  -3  12  726.77   40.83
   4  -3 -12  763.01   36.68
  -4  -3  12  808.65   42.41
  -4   3  12  756.03   34.04
   4   3 -12  753.52   44.09
  -4  -3  12  719.88   42.04
   4  -3 -12  743.78   43.40
   4   3 -12  694.32   42.31
   0  -8   7   34.48   13.51
   0   8   7   23.17   12.88
   0  -8   7   34.25   20.15
   0  -8  -7   24.54   18.36
   0  -8  -7   27.63    9.44
   0  -8   7   64.24   19.68
   0  -8  -7   51.08   15.28
   0   8   7   15.83   12.50
   0  -8   7   24.83   19.83
   0  -8  -7   19.59   15.67
   0   8  -7   43.39   19.00
   0  -8   7   -2.58   13.62
   5   2   4  244.42   31.62
   5  -2   4  196.37   27.14
  -5   2  -4  213.17   23.05
  -5  -2  -4  201.12   26.08
   5  -2   4  209.59   25.31
  -5   2  -4  194.38   24.49
  -5  -2  -4  246.52   33.64
   5  -2   4  161.22   23.69
   5   2   4  201.67   26.16
   5   2   4  199.13   18.33
   5  -2   4  222.63   24.53
   5   2   4  224.65   27.80
   2   8  -2  115.85   25.51
  -2  -8   2  128.13   21.50
  -2  -8   2  136.28   24.34
   2  -8  -2  142.01   25.62
  -2  -8   2  161.08   20.61
   2  -8  -2  167.65   24.90
  -2   8   2  149.03   16.50
  -2  -8   2  141.60   19.01
   2  -8  -2  140.23   19.44
   2  -8  -2  174.71   25.93
   2   8  -2  142.85   25.46
  -2  -8   2  126.93   19.95
   2   8  -2  106.11   24.86
  -2  -8   2  130.33   18.44
   2  -8  -2  137.61   22.69
   1   0  18  168.54   24.37
   1   0  18  175.72   21.62
  -1   0 -18  141.26   16.89
   1   0  18  193.02   22.01
  -1   0 -18  196.80   22.58
   1   0  18  149.89   15.55
   1   0  18  140.63   22.83
  -1   0 -18  212.70   27.41
  -2  -8  -1  545.13   34.02
  -2  -8  -1  481.31   29.94
   2  -8   1  538.61   29.89
  -2  -8  -1  501.16   28.33
  -2  -8  -1  538.59   33.65
   2   8   1  509.05   85.52
   2  -8   1  544.27   36.24
  -2   8  -1  519.12  135.64
   2  -8   1  542.88   36.58
  -2  -8  -1  582.22   33.60
   2  -8   1  581.47   38.18
   2   8   1  428.37   77.17
   2   8   1  428.30   88.64
   2  -8   1  489.57   31.42
   2   0 -18   30.00   14.26
  -2   0  18   52.20   13.47
  -2   0  18   48.35   19.05
   2   0 -18   31.25   15.33
   2   0 -18   32.47   17.43
  -2   0  18   59.07   14.65
  -2   0  18   60.68   16.62
   2   0 -18   25.08   16.96
  -2   0  18   49.62   15.34
   0  -7 -11  454.09   31.22
   0  -7  11  466.51   36.55
   0   7 -11  441.89   83.55
   0  -7  11  395.13   31.84
   0  -7 -11  422.15   33.79
   0   7  11  425.83   34.96
   0  -7  11  354.10   25.51
   0   7 -11  456.01   34.77
   0  -7 -11  381.12   29.41
   0  -7  11  447.40   33.46
   0  -7  11  481.31   35.29
   0   7  11  431.76   32.45
   3   2  14  148.20   21.73
   3   2  14  156.47   24.95
   3  -2  14  127.27   21.00
   3  -2  14  121.53   14.98
   3   2  14  235.49   27.74
   3  -2  14  146.94   23.21
   3   2  14  154.42   18.83
  -3   2 -14  147.85   27.19
  -3  -2 -14  137.02   24.24
   3  -2  14  130.36   21.75
   3  -4  12  465.96   35.28
  -3   4 -12  507.33   38.64
   3   4  12  484.14   39.32
   3  -4  12  445.39   26.93
   3   4  12  407.94   25.24
  -3  -4 -12  507.98   34.91
   3  -4  12  533.52   42.41
   3  -4  12  471.85   31.46
   3  -4  12  465.25   30.44
  -3   4 -12  408.71   25.04
   3   4  12  451.35   36.41
   3   4  12  406.68   98.89
   1  -8   6  411.38   33.16
  -1   8  -6  383.71   32.86
   1  -8   6  439.63   36.64
   1  -8   6  392.81   32.54
  -1  -8  -6  372.27   30.92
  -1  -8  -6  361.37   27.63
   1   8   6  364.42   29.89
   1  -8   6  346.17   27.30
  -1  -8  -6  370.59   29.43
   1  -8   6  414.35   33.01
   2   5  13  445.64   34.80
  -2   5 -13  495.67   36.20
   2  -5  13  474.99   35.15
  -2  -5 -13  465.49   34.26
   2   5  13  480.65   36.48
   2  -5  13  509.07   35.17
   2   5  13  448.86   32.18
   2  -5  13  495.97   32.01
   2  -5  13  478.56   31.83
  -2   5 -13  440.81   29.69
   2  -5  13  534.56   37.53
   2  -7   8   29.31   14.50
   2  -7   8   33.89   14.73
  -2  -7  -8   27.34   19.25
   2  -7   8   44.60   14.84
  -2   7  -8   38.03   15.65
   2  -7   8   54.66   17.51
  -2  -7  -8   40.85   12.50
   2   7   8   41.38   18.48
   2   7   8   41.14   14.35
   2  -7   8   88.78   25.19
   2   7   8   53.47   22.39
   5  -3  -5   36.09   10.79
  -5   3   5   29.77   20.05
  -5  -3   5   33.23   13.52
   5  -3  -5   35.61    7.50
   5  -3  -5   15.53   14.44
   5   3  -5   23.90   18.16
   5   3  -5   33.04   14.21
  -5  -3   5   34.05   15.56
   5  -3  -5    3.36   12.43
  -5  -3   5   34.05   20.34
  -5   3   5   24.64   12.87
   5  -3  -5   28.62   15.40
   5   3  -5   19.90   17.17
   5  -3  -5   18.36   15.69
   5   3  -5   27.22   15.65
   2   6  11   85.06   20.17
   2   6  11   69.12   17.54
   2  -6  11   99.35   19.31
  -2   6 -11   90.38   19.11
  -2   6 -11   89.16   17.63
  -2  -6 -11   87.28   20.84
   2   6  11  101.53   20.90
   2  -6  11   88.59   21.93
   2  -6  11   86.29   13.87
   2  -6  11   64.50   19.19
   2  -6  11   84.21   19.85
   3   7   3   91.63   16.00
   3  -7   3   69.52   16.17
  -3  -7  -3   63.62   12.94
   3  -7   3   88.18   18.01
   3  -7   3  106.41   21.24
   3  -7   3  116.03   20.73
  -3   7  -3   89.45   25.95
  -3  -7  -3   45.95   13.67
   3  -7   3   61.99   19.01
   3   7   3   49.79   12.20
  -3  -7  -3   95.58   22.01
   3   7   3  107.48   17.59
   3   7   3   52.90   24.34
   4  -4   8    5.98   13.55
  -4  -4  -8   28.16   14.39
   4  -4   8   23.87   12.91
   4  -4   8    9.32   11.97
  -4   4  -8   25.67   15.13
  -4  -4  -8   18.57    9.25
   4   4   8    4.01   12.29
   4  -4   8   -2.51    9.27
   4   4   8   10.40   12.33
   4  -4   8    8.02   15.91
   4   4   8   14.42    7.42
   4   4   8   34.29   13.13
   2   8  -3  173.13   44.37
  -2   8   3  260.50   22.00
   2  -8  -3  290.67   29.03
  -2  -8   3  250.42   26.78
   2  -8  -3  273.30   27.88
  -2  -8   3  241.97   25.10
  -2  -8   3  232.24   22.51
  -2  -8   3  228.20   28.31
   2   8  -3  249.12   60.95
   2  -8  -3  246.65   27.30
   2  -8  -3  256.16   21.16
  -2  -8   3  278.66   24.98
  -2  -8   3  271.83   24.72
   2  -8  -3  232.15   26.73
   3   4 -14   76.26   14.74
  -3  -4  14   49.61   20.85
  -3   4  14   78.31   22.89
  -3  -4  14   57.24   15.62
   3  -4 -14   72.15   17.06
  -3  -4  14   52.10   20.73
   3  -4 -14   39.42   14.48
   3  -4 -14   35.73   14.85
   3   4 -14   51.37   21.13
   3   4 -14   42.67   21.72
   3  -4 -14   62.63   16.88
  -3  -4  14   61.01   22.06
  -3   4  14   73.71   22.31
  -3  -4  14   71.30   16.09
   3   4 -14   25.00   13.43
  -3   4  14   70.10   12.79
   3  -7  -5  398.56   32.71
  -3  -7   5  414.38   33.55
   3   7  -5  429.92  106.50
   3  -7  -5  478.90   37.07
   3   7  -5  406.37   30.34
   3   7  -5  423.76   89.01
  -3  -7   5  477.08   35.47
   3  -7  -5  422.17   33.34
  -3  -7   5  445.92   31.19
   3  -7  -5  389.14   25.39
  -3  -7   5  499.02   35.98
  -3   7   5  437.02   31.99
   3  -7  -5  466.89   32.34
  -3  -7   5  459.38   29.88
  -3   7   5  423.74   24.77
   3   7  -5  393.23   25.41
   3  -2 -16  170.14   25.56
   3  -2 -16  141.93   15.94
   3  -2 -16  188.31   22.87
  -3   2  16  177.51   26.80
  -3  -2  16  217.68   26.88
  -3   2  16  198.93   24.88
   3  -2 -16  220.32   22.40
   3   2 -16  250.33   32.84
  -3  -2  16  190.00   24.85
  -3  -2  16  190.98   26.38
   3  -2 -16  221.14   28.97
   3   2 -16  232.64   29.98
  -3  -2  16  197.75   22.48
  -3   2  16  158.19   21.44
   3   2 -16  186.67   19.56
  -3  -2  16  208.45   24.78
   3   2 -16  166.76   24.36
   4  -5  -8  335.28   30.37
   4   5  -8  312.17   29.12
   4  -5  -8  322.38   24.59
  -4  -5   8  355.85   35.72
   4  -5  -8  323.72   31.38
   4   5  -8  256.46   27.04
   4   5  -8  284.98   55.40
   4  -5  -8  359.69   32.27
  -4  -5   8  334.52   31.92
  -4   5   8  298.08   28.39
  -4  -5   8  302.77   28.10
  -4   5   8  302.31   28.71
  -4  -5   8  337.48   28.14
   4   5  -8  237.87   30.08
   4  -5  -8  317.41   28.03
   4   0 -14  224.79   24.06
   4   0 -14  259.87   31.72
  -4   0  14  302.24   30.25
   4   0 -14  246.79   29.99
   4   0 -14  243.66   29.25
  -4   0  14  266.42   29.36
  -4   0  14  240.64   26.07
   4   0 -14  198.09   27.13
   5   0  -9   -4.27   10.57
  -5   0   9   16.66   15.49
  -5   0   9   10.93   13.15
   5   0  -9   15.17   14.28
   5   0  -9   13.95   12.97
   5   0  -9   19.90   15.44
   5   0  -9    8.01   14.06
  -5   0   9   -8.15   11.78
   1   1  18  170.22   24.60
  -1   1 -18  106.29   16.71
   1   1  18  118.91   18.19
   1  -1  18  132.06   17.64
  -1  -1 -18  161.33   27.71
  -1   1 -18  140.06   25.67
   1  -1  18  122.82   22.81
   1  -1  18  106.93   15.78
  -1   1 -18  128.32   20.52
   1   1  18  134.28   15.95
  -1  -1 -18  108.51   17.45
   1  -1  18  131.56   24.20
   1  -1  18  112.24   17.97
   1   1  18  150.17   23.57
  -5   3  -2  809.01   36.49
   5  -3   2  783.14   34.21
   5   3   2  772.72   35.85
   5  -3   2  713.70   32.77
  -5  -3  -2  843.17   45.22
  -5   3  -2  804.71   40.44
   5  -3   2  846.31   49.53
  -5  -3  -2  848.56   45.72
   5  -3   2  807.22   42.34
   5   3   2  839.50   46.89
   5   3   2  805.84   45.03
   5   3   2  847.24  129.06
   5  -3   2  752.91   44.37
   2   8   2  201.13   52.17
   2  -8   2  230.18   22.01
  -2  -8  -2  177.31   22.04
   2  -8   2  250.65   27.71
  -2  -8  -2  215.20   23.95
   2   8   2  173.02   40.70
  -2   8  -2  244.78   53.51
  -2  -8  -2  216.00   20.13
   2  -8   2  236.52   26.83
  -2  -8  -2  212.98   25.25
   2  -8   2  189.03   26.34
   2   8   2  236.98   23.86
   2  -8   2  246.26   26.94
   2   8   2  170.84   28.39
   1  -4  16 1340.10   54.61
   1  -4  16 1237.21   47.51
  -1   4 -16 1240.72   49.47
   1   4  16 1350.02   53.81
   1  -4  16 1446.42   56.04
   1   4  16 1309.50   55.09
  -1  -4 -16 1214.55   44.54
  -1   4 -16 1376.21   56.27
  -1  -4 -16 1384.92   58.35
   1  -4  16 1273.58   54.24
  -1   4 -16 1185.70   46.33
   1   4  16 1344.52   55.47
   2  -1 -18  110.85   19.10
   2   1 -18  100.16   23.66
  -2   1  18   75.63   19.96
  -2  -1  18   88.86   22.65
   2   1 -18   91.97   18.13
   2  -1 -18  112.62   23.71
  -2  -1  18   53.38   12.97
  -2   1  18   70.65   20.38
  -2  -1  18   70.73   16.36
   2  -1 -18  105.63   25.12
   2   1 -18   78.67   18.31
   2  -1 -18   56.62   22.53
  -2  -1  18   74.88   14.53
  -2   1  18   67.80   13.50
  -2   1  18   84.52   21.05
  -2  -1  18   84.56   20.64
   1  -3  17  640.90   39.26
  -1   3 -17  586.68   34.11
   1   3  17  602.31   40.39
   1   3  17  595.19   38.12
  -1  -3 -17  607.62   39.25
   1   3  17  588.54   37.42
   1  -3  17  621.60   38.84
  -1  -3 -17  617.89   32.69
  -1   3 -17  562.39   35.15
   1  -3  17  590.96   31.54
   1  -3  17  659.62   41.24
  -1   3 -17  580.44   39.39
  -1  -7  11  460.57   37.88
   1   7 -11  475.12   34.91
   1  -7 -11  449.93   35.94
   1  -7 -11  427.93   33.07
   1   7 -11  502.00   34.84
  -1   7  11  487.89   36.69
   1  -7 -11  478.20   33.67
  -1   7  11  473.19   40.57
   1   7 -11  428.15  102.17
  -1  -7  11  408.42   34.16
  -1  -7  11  504.04   37.59
  -1  -7  11  506.49   33.23
   1  -8  -7   89.06   24.32
  -1  -8   7   75.93   13.52
   1   8  -7   97.60   22.10
  -1   8   7   84.74   16.71
   1  -8  -7   45.51   13.64
  -1   8   7   67.65   18.95
   1   8  -7   91.23   12.36
  -1  -8   7   72.72   20.61
   1  -8  -7   43.69   14.78
  -1  -8   7   72.96   19.21
  -1  -8   7   94.15   22.65
   1  -8  -7   90.67   20.55
  -1  -8   7   91.21   23.08
   3   6   8  428.00   83.02
   3  -6   8  437.96   33.53
   3  -6   8  447.60   35.90
   3  -6   8  421.29   31.02
   3  -6   8  472.64   37.15
  -3  -6  -8  454.45   29.95
  -3   6  -8  428.72   35.50
   3   6   8  525.54   36.94
   3   6   8  453.10   92.53
   3  -6   8  520.55   34.41
   5   0   6  199.20   27.03
  -5   0  -6  146.05   23.16
  -5   0  -6  168.60   22.36
   5   0   6  207.51   27.15
   5   0   6  150.72   18.31
   5   0   6  180.23   24.29
   3   6 -10    0.26    7.95
  -3   6  10   61.01   23.21
  -3  -6  10   51.23   18.36
   3   6 -10   32.55    9.15
   3  -6 -10   46.40   16.80
  -3  -6  10   40.66   20.24
  -3   6  10   44.52   17.32
  -3  -6  10   34.81   14.15
   3  -6 -10    7.03   15.00
  -3  -6  10   57.17   22.92
  -3  -6  10   39.36   13.34
   3   6 -10   56.45   23.14
   3   6 -10   29.47   14.13
   3  -6 -10   21.46   12.73
   3  -6 -10  104.99   27.86
  -4   1  14  883.61   42.43
  -4   1  14  944.66   49.60
   4  -1 -14  935.19   42.55
  -4  -1  14 1025.30   52.78
  -4   1  14  986.68   48.84
   4  -1 -14  954.46   44.27
   4  -1 -14 1017.84   52.22
   4   1 -14  934.36   45.65
  -4  -1  14  977.91   49.88
   4  -1 -14  985.02   52.70
   4   1 -14 1056.82   52.37
   4  -1 -14 1001.02   47.82
   4   1 -14  958.57   46.51
  -4  -1  14  909.18   47.01
   4   1 -14  960.50   48.18
   4   1 -14 1041.86   53.24
  -5  -1   9   -5.20   13.65
  -5   1   9    1.52   14.40
   5  -1  -9    2.68   11.98
   5   1  -9    9.60   13.15
   5   1  -9   -1.68   10.36
   5  -1  -9   -3.21   13.96
   5   1  -9   -6.87   13.09
  -5  -1   9   21.14   20.09
   5  -1  -9   14.58   13.09
  -5   1   9   27.04   16.28
   5  -1  -9    1.14   14.22
   5  -1  -9   16.74   15.04
   5   1  -9   -7.50   14.62
  -5  -1   9    2.58   14.30
  -5   1   9   17.19   15.73
   5   1  -9    4.84   13.98
   5  -2  -8  508.45   39.25
  -5  -2   8  508.20   37.92
  -5  -2   8  523.57   37.14
  -5   2   8  489.50   35.79
  -5   2   8  553.83   37.42
   5  -2  -8  471.14   35.44
  -5  -2   8  533.01   38.71
   5  -2  -8  545.28   33.47
   5   2  -8  480.42   29.89
   5  -2  -8  523.84   35.36
   5   2  -8  542.63   43.52
   5   2  -8  522.54   40.94
   5   2  -8  550.99   35.93
   5  -2  -8  521.28   36.19
  -5   2   8  507.86   30.44
   5   2  -8  522.71   39.09
   2  -8  -4  843.52   45.17
  -2  -8   4  742.43   39.65
   2   8  -4  833.56   81.31
   2  -8  -4  834.61   44.68
   2  -8  -4  871.08   47.17
  -2  -8   4  771.34   40.63
  -2  -8   4  738.86   36.90
   2  -8  -4  797.14   42.87
   2   8  -4  715.80  126.04
  -2  -8   4  880.22   44.89
  -2  -8   4  812.54   34.42
  -2  -8   4  853.85   41.24
  -2   8   4  773.26   36.23
   2  -8  -4  751.19   32.45
  -2  -3  17  312.88   30.03
  -2   3  17  309.34   31.22
  -2  -3  17  247.58   21.39
   2   3 -17  237.12   28.60
  -2   3  17  261.50   24.84
  -2  -3  17  230.75   28.41
   2   3 -17  267.86   29.33
  -2   3  17  293.45   30.70
   2  -3 -17  325.60   31.73
  -2  -3  17  244.09   30.17
  -2  -3  17  283.83   25.92
   2   3 -17  270.29   30.98
   2  -3 -17  231.11   28.06
   2  -3 -17  272.32   22.66
   2   3 -17  278.59   28.55
   2  -3 -17  260.10   28.16
   1  -6  13  223.19   26.66
   1   6  13  248.33   22.81
   1  -6  13  234.62   26.57
  -1   6 -13  231.25   34.54
   1  -6  13  284.18   25.10
  -1   6 -13  216.07   27.12
  -1  -6 -13  276.48   30.05
  -1  -6 -13  238.21   23.10
   1  -6  13  239.69   29.32
   1   6  13  255.39   28.86
   1  -6  13  287.99   31.42
  -2   4  16  194.17   27.91
   2   4 -16  175.64   29.49
   2  -4 -16  190.31   26.58
  -2   4  16  155.18   17.50
  -2  -4  16  148.09   20.80
  -2  -4  16  183.38   27.25
   2  -4 -16  154.10   19.15
   2   4 -16  189.03   25.88
   2   4 -16  147.53   20.80
   2  -4 -16  220.99   35.00
  -2   4  16  159.47   26.59
   2  -4 -16  176.04   24.40
  -2  -4  16  169.50   25.69
  -2  -4  16  182.74   27.14
   2   4 -16  200.58   28.51
   4  -6  -1   80.17   21.49
  -4  -6   1   38.36   17.41
  -4  -6   1   75.37   19.83
   4   6  -1   58.86   14.80
  -4  -6   1   97.70   22.67
  -4   6   1   54.94   18.08
   4  -6  -1   73.24   17.24
  -4   6   1   37.77   10.03
   4   6  -1   43.04   15.22
   4  -6  -1   61.51   16.19
   4  -6  -1   62.38   18.82
   4  -6  -1   83.22   21.92
   4   6  -1   57.80   17.07
  -4  -6   2  427.31   35.81
  -4   6   2  423.10   29.76
   4  -6  -2  431.49   33.85
   4   6  -2  470.38   80.77
   4  -6  -2  461.40   36.60
  -4  -6   2  450.42   34.46
  -4  -6   2  436.22   32.95
   4   6  -2  457.20   33.89
   4  -6  -2  472.18   34.18
   4   6  -2  402.57   30.14
   4  -6  -2  497.59   36.70
   4  -6  -2  412.97   28.79
  -4   6   2  363.63   82.38
  -5   3   6  451.05   26.43
  -5   3   6  479.92   37.18
   5  -3  -6  503.00   34.79
  -5  -3   6  445.56   35.30
   5   3  -6  462.01   34.81
   5   3  -6  492.64   37.40
   5  -3  -6  521.21   38.06
  -5  -3   6  497.17   36.03
   5  -3  -6  448.78   31.32
   5   3  -6  533.01   32.75
   5  -3  -6  492.28   38.91
  -5   3   6  456.24   36.15
   5  -3  -6  433.90   30.38
   5   3  -6  509.09   37.86
  -5  -3   6  512.73   36.37
  -2   0 -17   50.12   20.44
   2   0  17   35.56   14.72
   2   0  17    8.43   12.88
   2   0  17    6.04   14.48
   2   0  17    7.11    8.15
  -2  -8  -3  723.11   34.89
   2   8   3  715.57   36.73
  -2  -8  -3  786.49   40.98
  -2   8  -3  748.83   46.52
   2  -8   3  787.76   39.12
   2  -8   3  793.82   44.93
   2  -8   3  741.85   42.42
  -2  -8  -3  691.80   32.48
   2  -8   3  741.57   44.11
   2   8   3  705.57   33.26
   2  -8   3  843.04   44.57
   2   8   3  819.55   40.21
  -2  -8  -3  778.31   37.65
  -4  -4  11   54.60   15.66
  -4  -4  11   66.98   16.95
   4  -4 -11   93.35   15.14
   4   4 -11   82.24   18.68
   4  -4 -11   73.93   14.20
  -4   4  11   92.40   21.87
   4  -4 -11   96.85   22.41
   4   4 -11   91.34   19.39
   4  -4 -11   64.34   19.63
   4   4 -11   63.55   21.83
  -4  -4  11   83.71   21.56
   4  -4 -11   84.01   19.81
  -4  -4  11   68.05   21.29
   4   4 -11   93.19   19.17
  -4   4  11   76.06   20.05
  -4   6   0  514.34   33.70
   4   6   0  517.80   95.28
   4  -6   0  559.93   34.61
  -4  -6   0  577.37   37.15
   4   6   0  468.30   33.25
   4  -6   0  609.91   39.56
   4  -6   0  527.66   32.90
   4   6   0  555.23   31.70
   4  -6   0  515.60   36.86
  -4   6   0  538.79   30.10
  -4  -6   0  490.93   35.03
   4  -6   0  561.60   39.03
   4   6   0  543.14   36.23
   5   2   5   82.72   22.87
  -5  -2  -5   48.56   15.90
   5  -2   5   53.83   16.19
   5   2   5   53.33   16.34
  -5  -2  -5  108.20   23.64
  -5   2  -5   70.54   16.11
   5  -2   5   64.56   21.76
   5   2   5   86.01   23.18
   5  -2   5   65.39   18.59
   5  -2   5   65.63   22.61
  -5   2  -5   61.22   18.11
   4   3  10  864.31   45.66
   4  -3  10  839.64   40.65
   4   3  10  876.30   41.47
  -4   3 -10  877.56   41.32
   4  -3  10  854.65   39.42
  -4  -3 -10  810.77   35.54
   4  -3  10  805.65   43.96
   4   3  10  871.83   67.11
   4   3  10  876.95   36.53
   4  -3  10  854.44   45.76
  -4  -3 -10  826.38   44.46
   4   5   6  752.48   36.21
   4  -5   6  815.10   44.76
  -4  -5  -6  786.19   43.77
   4  -5   6  785.45   44.33
   4   5   6  746.08   38.16
   4  -5   6  751.88   34.44
  -4   5  -6  822.66   40.50
   4  -5   6  760.93   41.99
  -4  -5  -6  771.08   46.83
   4  -5   6  770.37   40.06
   4   5   6  738.84   42.49
  -5  -1  -6 1624.53   58.38
   5  -1   6 1631.77   60.59
   5   1   6 1570.13   57.69
   5   1   6 1690.94   63.87
   5  -1   6 1601.56   51.76
   5   1   6 1432.69   43.73
   5   1   6 1585.04   58.09
  -5  -1  -6 1545.02   57.70
  -5   1  -6 1600.92   54.99
   5  -1   6 1571.76   60.44
  -5   1  -6 1518.04   53.49
   5  -1   6 1607.17   58.93
  -3  -7  -4   40.53   11.35
   3   7   4   52.37   11.43
   3  -7   4   53.15   15.50
  -3  -7  -4   68.07   19.93
   3  -7   4   28.47   17.32
   3  -7   4   35.51   15.26
   3  -7   4   33.81   13.79
   3   7   4   53.04   16.53
  -3   7  -4   88.33   21.06
   3   7   4   43.80   13.82
   3  -7   4   77.20   20.90
   3   7   4   40.06   15.52
  -4  -2 -11  133.49   23.23
   4   2  11  111.49   19.77
   4   2  11  104.87   21.05
   4  -2  11  141.65   18.20
   4  -2  11  131.32   17.18
   4  -2  11  131.84   22.49
   4  -2  11  145.00   22.29
   4   2  11  165.05   30.30
   4  -2  11  142.57   22.64
   4   2  11  124.81   18.43
  -4  -2 -11  146.06   19.58
  -4   2 -11  112.53   22.61
  -4   2 -11  116.28   16.65
   5  -3   3  192.10   26.28
  -5  -3  -3  185.10   25.22
  -5   3  -3  161.70   20.52
  -5   3  -3  184.51   20.18
  -5  -3  -3  197.29   25.15
   5   3   3  199.05   28.23
   5  -3   3  203.74   20.76
   5   3   3  191.95   25.79
   5  -3   3  207.04   30.48
   5   3   3  227.94   30.92
   5   3   3  198.87   19.39
   5  -3   3  192.62   19.12
   5  -3   3  221.30   28.50
   3  -7  -6 1515.15   57.79
  -3  -7   6 1327.54   47.96
   3   7  -6 1443.00   45.79
   3   7  -6 1457.26   51.39
  -3  -7   6 1465.43   57.21
   3  -7  -6 1449.07   45.05
   3  -7  -6 1478.98   58.94
   3   7  -6 1508.13   55.65
  -3  -7   6 1509.51   49.43
  -3   7   6 1426.48   45.36
  -3  -7   6 1529.22   58.40
   3  -7  -6 1553.27   56.28
   3   7  -6 1593.55   62.26
  -3  -7   6 1463.39   54.90
   3  -7  -6 1444.80   57.36
  -3   7   6 1393.83   50.48
   1   0 -19  278.52   23.33
   1   0 -19  345.46   36.52
  -1   0  19  312.52   30.72
   1   0 -19  338.08   32.27
  -1   0  19  329.31   27.95
   1   0 -19  305.70   30.63
  -1   0  19  328.88   30.95
  -1   0  19  274.28   22.32
  -4   6   3  639.48   34.55
  -4  -6   3  609.98   41.31
  -4   6   3  528.75   91.14
   4  -6  -3  688.46   44.32
   4  -6  -3  602.98   31.73
   4   6  -3  625.89  149.49
   4  -6  -3  668.20   40.74
   4   6  -3  640.52   38.67
  -4  -6   3  609.70   38.10
  -4  -6   3  638.59   39.48
   4  -6  -3  637.65   44.34
   4  -6  -3  572.83   33.94
   4   6  -3  619.77   36.63
   4   6  -3  567.74   28.81
   0   0  19    4.83    9.25
   0   0 -19   25.35   17.65
   0   0 -19   18.02   13.82
   0   0  19  -20.10   13.69
   0   0  19   -7.01   11.16
   0   0 -19  -12.06   13.24
   0   0  19  -13.05   12.98
   3   0  15  465.58   30.83
  -3   0 -15  439.08   34.01
   3   0  15  457.91   30.87
   3   0  15  404.00   27.46
   3   0  15  417.79   30.22
   3   0  15  477.62   36.44
   0  -8  -8  486.91   37.25
   0  -8   8  455.63   34.30
   0  -8   8  476.15   35.78
   0   8   8  484.57   34.97
   0  -8   8  448.42   34.78
   0  -8  -8  432.10   29.85
   0  -8   8  467.05   35.96
   0   8   8  482.80   33.19
   0   8  -8  435.21   34.94
   0  -8  -8  452.15   34.13
   0  -8   8  484.20   38.54
   1  -5  15   49.32   17.31
   1  -5  15   32.38   17.03
  -1   5 -15   23.35   14.74
  -1  -5 -15   30.52   17.31
  -1  -5 -15   35.39   12.62
  -1   5 -15   21.74   14.50
   1  -5  15   43.57   17.89
  -1   5 -15   11.34    5.99
   1  -5  15   26.39   11.77
   1   5  15   34.33   17.38
   1   5  15    6.83   13.26
   4   6   1  352.06   28.89
   4   6   1  247.94   64.09
   4  -6   1  281.72   28.61
   4  -6   1  302.61   29.12
   4   6   1  301.26   23.64
   4  -6   1  290.37   25.53
  -4   6  -1  312.45   26.91
  -4  -6  -1  302.44   29.61
   4  -6   1  301.10   29.68
   4   6   1  318.29   30.22
   4  -6   1  307.74   26.50
  -4   6  -1  283.26   21.76
  -4  -6  -1  336.26   30.70
   2   7 -10  892.00  109.32
  -2  -7  10  951.97   48.47
  -2  -7  10  919.85   44.21
   2  -7 -10  830.74   43.75
   2   7 -10  865.65   47.53
   2  -7 -10  829.15   39.62
   2   7 -10  862.71   42.01
   2  -7 -10 1007.53   49.42
  -2   7  10  906.17   44.53
  -2   7  10  917.99   45.64
  -2  -7  10  957.03   50.31
  -2  -7  10  897.35   46.74
   2  -7 -10  819.94   43.85
   0   4 -17 1239.71   52.13
   0   4 -17 1201.08   53.44
   0  -4  17 1249.53   53.03
   0   4  17 1230.14   53.41
   0   4 -17 1371.82   54.98
   0  -4 -17 1233.89   44.29
   0   4  17 1240.19   49.47
   0  -4  17 1139.01   51.94
   0  -4 -17 1279.87   54.66
   0  -4 -17 1125.05   46.70
   0   4  17 1156.22   53.96
   0  -4  17 1235.05   48.90
   0  -4  17 1274.64   54.00
  -2   1 -17  333.93   24.18
  -2  -1 -17  398.44   35.04
   2  -1  17  396.98   34.63
   2   1  17  386.11   33.05
   2  -1  17  323.45   24.74
   2   1  17  386.02   30.24
   2  -1  17  350.60   25.18
   2  -1  17  402.94   32.27
  -2   1 -17  372.90   38.34
   2   1  17  368.98   26.75
   1   8   7 1358.28   50.29
  -1  -8  -7 1353.04   51.81
   1  -8   7 1527.34   55.34
   1  -8   7 1418.05   55.92
   1  -8   7 1427.56   56.50
  -1  -8  -7 1338.57   46.67
   1  -8   7 1506.40   58.77
   1  -8   7 1396.77   55.43
  -1  -8  -7 1455.58   56.64
  -1   8  -7 1516.74   60.06
   0  -6  14   20.54   12.23
   0   6  14   16.65   14.94
   0   6  14   30.31   11.76
   0   6 -14   17.76   15.27
   0  -6 -14   26.02   16.29
   0  -6  14   23.52   16.16
   0  -6  14   22.23   15.55
   0   6 -14   24.35   14.93
   0  -6 -14    0.72   11.53
   0  -6 -14   44.70   21.41
   0  -6  14   16.79   13.39
   0   6 -14   20.48   10.46
   0   6  14   26.88   19.69
   3   0 -17  262.38   30.79
   3   0 -17  245.15   31.02
  -3   0  17  297.60   30.33
   3   0 -17  219.59   25.95
  -3   0  17  206.52   25.81
   3   0 -17  243.17   25.46
   3   0 -17  263.40   25.39
  -3   0  17  226.90   22.19
  -3   0  17  261.91   28.41
   1   4 -17  330.41   31.87
  -1   4  17  323.54   31.14
  -1  -4  17  303.39   31.38
  -1  -4  17  284.89   24.25
  -1   4  17  298.71   27.37
  -1  -4  17  359.90   32.35
  -1   4  17  293.48   31.18
   1   4 -17  311.89   30.98
   1  -4 -17  301.49   31.84
   1   4 -17  308.64   29.81
   1  -4 -17  308.95   32.72
   1  -4 -17  287.81   25.70
  -1  -4  17  331.66   30.98
   2  -8  -5   88.57   21.14
  -2  -8   5   75.45   17.36
   2   8  -5   64.30   14.93
  -2  -8   5   77.91   18.13
  -2   8   5   47.97   16.00
  -2  -8   5   85.87   21.03
   2  -8  -5   81.64   25.93
   2   8  -5   75.56   16.65
   2  -8  -5   42.33   15.13
   2  -8  -5   79.40   25.58
  -2  -8   5   81.85   22.98
  -2  -8   5   76.44   16.61
   4  -6  -4   30.62   21.29
  -4  -6   4   20.50   12.71
   4  -6  -4   10.63    9.25
  -4   6   4   28.01   17.31
  -4  -6   4    1.48   11.97
  -4  -6   4   24.65   13.48
   4   6  -4    5.75    5.73
   4  -6  -4   31.16   14.07
  -4   6   4   14.46   12.40
   4   6  -4   -2.58    7.93
   4  -6  -4   13.63   13.91
   4  -6  -4   20.04   19.86
   4   6  -4   10.37   13.49
   1   1 -19   -0.85   14.23
  -1   1  19    7.96   14.73
  -1   1  19   13.31   14.65
  -1   1  19   15.44   17.74
   1  -1 -19   13.46   15.67
  -1  -1  19   31.21   12.91
  -1  -1  19   -3.88    9.72
   1   1 -19   20.88   15.61
   1  -1 -19   -5.97   12.45
   1  -1 -19   29.49   16.00
  -1  -1  19   14.08   13.67
  -1  -1  19   12.05   11.53
   1   1 -19   -5.47    8.61
  -1  -1  19    5.90    9.45
   1   1 -19   33.00   15.51
   0   1  19  443.33   33.29
   0   1 -19  527.99   42.98
   0  -1  19  425.81   35.05
   0   1  19  458.96   36.01
   0  -1 -19  416.96   28.26
   0  -1  19  375.59   26.15
   0  -1  19  418.48   27.79
   0  -1 -19  441.77   34.39
   0  -1  19  399.67   29.28
   0   1 -19  408.89   33.63
   0  -1 -19  461.21   33.83
   0  -1  19  406.87   30.28
   0   1  19  501.69   37.12
   0   1 -19  348.71   29.15
   0   3  18  308.23   31.14
   0   3 -18  288.83   27.76
   0  -3 -18  243.78   22.99
   0   3  18  243.05   27.82
   0  -3  18  314.44   31.45
   0  -3  18  248.68   23.34
   0  -3  18  246.60   25.43
   0  -3 -18  303.71   30.35
   0  -3  18  274.50   28.43
   0  -3  18  238.99   21.66
   0   3 -18  274.64   31.69
   0   3  18  272.65   29.63
   0  -3 -18  276.86   28.02
   0   3 -18  237.23   26.73
   4   5  -9   71.36   20.79
   4  -5  -9  127.24   23.14
   4  -5  -9   59.63   16.36
   4  -5  -9   84.12   22.35
   4  -5  -9  103.22   16.10
  -4  -5   9   74.54   22.15
   4   5  -9   67.78   17.81
   4   5  -9   82.36   19.02
  -4  -5   9  120.51   23.73
   4  -5  -9   65.47   14.07
  -4   5   9   87.11   17.98
  -4  -5   9   89.71   20.18
  -4   5   9   74.04   20.30
  -4  -5   9  106.67   18.22
   4   5  -9   81.30   19.06
  -1   2 -18   11.72   12.45
   1  -2  18   23.28   11.70
   1  -2  18   -0.33   11.91
  -1   2 -18   29.58   16.82
  -1  -2 -18   48.84   24.90
   1   2  18   42.84   16.20
   1   2  18    1.66   11.78
   1   2  18   46.61   21.21
   1  -2  18   41.23   21.12
  -1  -2 -18   11.00   11.17
  -1   2 -18   33.02   13.87
   1  -2  18   26.16   16.30
   1  -2  18   29.79   11.46
  -1   3  18  208.15   22.89
  -1   3  18  185.23   28.18
  -1  -3  18  188.18   21.18
  -1  -3  18  203.02   24.54
   1   3 -18  187.14   28.32
   1   3 -18  269.12   30.09
   1  -3 -18  196.32   23.05
   1  -3 -18  247.64   29.03
   1   3 -18  170.03   53.86
   1  -3 -18  193.64   26.55
   1   3 -18  178.48   25.63
  -1  -3  18  225.74   28.35
  -1  -3  18  236.32   26.11
  -1   3  18  248.22   27.89
   2  -3  16  314.92   33.10
   2  -3  16  252.66   21.44
  -2  -3 -16  310.41   34.87
  -2   3 -16  265.50   22.07
  -2   3 -16  257.05   22.71
  -2   3 -16  270.61   32.52
   2  -3  16  260.54   27.24
   2  -3  16  275.42   28.60
   2   3  16  222.63   28.76
   2   3  16  336.10   34.56
  -1  -6  14  276.67   29.02
  -1   6  14  251.45   30.39
  -1   6  14  315.22   32.02
  -1  -6  14  252.27   27.89
   1   6 -14  272.61   28.45
   1   6 -14  264.16   29.66
   1  -6 -14  274.75   28.64
   1  -6 -14  270.36   26.50
  -1  -6  14  283.20   27.00
  -1  -6  14  253.92   26.85
   1  -6 -14  217.38   26.55
   1   6 -14  274.83   30.44
   3   1  15  114.13   25.27
   3   1  15  139.67   20.65
   3  -1  15  154.76   22.72
   3  -1  15  154.57   24.60
  -3  -1 -15  129.78   22.04
   3  -1  15  124.24   17.44
   3   1  15  137.47   19.92
   3  -1  15  127.25   17.31
   3   1  15  116.13   20.30
  -3   1 -15  177.09   25.47
   3   1  15  119.64   14.70
   3  -1  15  135.03   22.20
   3   5  11   64.18   25.01
  -3   5 -11   73.17   20.81
   3  -5  11   60.00   23.67
   3   5  11   62.47   20.78
   3  -5  11   46.07   15.05
   3   5  11   61.73   22.93
   3  -5  11   66.19   19.09
  -3   5 -11   51.56   12.00
   3  -5  11   74.02   16.78
  -2   4 -15  403.91   34.70
   2   4  15  353.31   32.53
   2  -4  15  292.19   28.85
  -2   4 -15  319.11   25.97
   2  -4  15  339.93   28.27
   2  -4  15  375.81   31.06
  -2  -4 -15  335.08   32.72
   2  -4  15  322.12   29.89
   2   4  15  321.57   31.79
   2   4  15  377.37   32.75
  -2   4 -15  242.98   63.81
   4   0  12   12.07   13.99
   4   0  12   26.60   14.92
  -4   0 -12    1.81   11.01
  -4   0 -12    3.86   11.23
   4   0  12   -5.70    9.97
   4   0  12   -5.09   10.96
   2  -8   4 1330.20   54.42
   2  -8   4 1360.13   55.38
   2  -8   4 1394.26   56.48
   2  -8   4 1420.18   51.09
   2   8   4 1285.54   48.50
  -2  -8  -4 1291.60   51.85
   2  -8   4 1483.45   59.27
  -2  -8  -4 1232.23   42.53
   2   8   4 1375.80   46.10
   2   8   4 1381.30   52.98
  -2   8  -4 1394.48   57.28
  -2  -8  -4 1274.71   46.33
  -2   2  18  980.17   45.29
   2  -2 -18  874.12   37.76
   2   2 -18 1138.28   54.31
  -2  -2  18 1013.36   45.94
  -2  -2  18  983.14   48.35
   2   2 -18 1039.62   47.99
  -2  -2  18  985.47   46.37
  -2   2  18 1045.93   50.55
  -2  -2  18 1012.97   42.34
   2   2 -18  949.81   50.19
   2  -2 -18 1067.31   51.30
   2   2 -18  984.93   45.05
   2  -2 -18 1002.87   48.40
  -2  -2  18 1014.54   44.68
  -2   2  18 1027.29   50.02
   2  -2 -18 1017.92   49.54
  -5   0  10  327.30   32.34
  -5   0  10  291.20   30.10
   5   0 -10  364.38   34.29
   5   0 -10  303.70   30.04
  -5   0  10  324.82   29.28
   5   0 -10  288.53   29.90
   5   0 -10  318.47   31.67
   5   0 -10  302.05   30.50
  -2  -6  13   62.65   16.84
   2   6 -13   46.18   17.89
   2   6 -13   47.96   15.46
  -2  -6  13   40.54   14.71
   2  -6 -13   -0.15    8.91
  -2  -6  13   51.02   19.39
   2  -6 -13   54.19   21.52
  -2   6  13   51.25   20.25
   2  -6 -13   31.86   14.86
   2  -6 -13   48.82   18.08
  -2  -6  13   30.08   15.41
  -2   6  13   47.04   20.60
   2   6 -13   30.67   14.05
   3  -5 -13  706.02   38.83
   3   5 -13  730.96   46.38
   3  -5 -13  702.12   37.61
  -3   5  13  740.88   45.43
  -3  -5  13  761.40   44.76
  -3  -5  13  698.89   42.09
  -3  -5  13  646.99   31.35
   3  -5 -13  728.99   45.18
   3   5 -13  804.24   46.55
  -3  -5  13  693.61   39.50
   3   5 -13  678.87   32.09
  -3   5  13  687.61   41.73
   3   5 -13  775.31   46.31
   3  -5 -13  750.74   44.72
  -3  -5  13  810.25   45.96
  -5  -3   7  380.02   34.07
  -5   3   7  346.18   31.88
   5  -3  -7  351.40   28.60
  -5   3   7  378.09   35.84
   5   3  -7  321.03   32.10
   5  -3  -7  300.08   26.40
   5  -3  -7  298.54   31.43
   5   3  -7  333.33   33.68
  -5  -3   7  335.79   31.61
   5  -3  -7  344.83   30.82
   5   3  -7  318.59   30.17
  -5  -3   7  384.53   34.27
   5   3  -7  348.14   32.45
   5   3  -7  297.81   22.34
   5  -3  -7  327.02   30.20
   1  -7  11  168.72   23.16
  -1  -7 -11  202.27   21.26
  -1   7 -11  223.89   39.64
   1  -7  11  257.16   33.46
   1  -7  11  214.29   22.25
   1  -7  11  187.81   25.16
   1   7  11  177.65   17.44
  -1  -7 -11  193.74   18.86
  -1   7 -11  238.14   28.18
   1   7  11  209.37   27.24
   1  -7  11  207.77   26.88
  -1  -7 -11  229.51   27.51
  -3   1  17  126.76   25.46
   3  -1 -17  175.12   27.21
   3  -1 -17  121.39   18.63
   3  -1 -17  137.67   20.78
   3   1 -17  115.73   17.37
   3   1 -17  179.29   29.03
  -3  -1  17  140.07   20.14
   3  -1 -17  153.30   27.08
  -3  -1  17  150.47   22.29
  -3   1  17  126.03   21.33
   3   1 -17  185.95   27.11
  -3   1  17  121.47   18.30
   3  -1 -17  161.41   23.11
   3   1 -17  184.46   27.50
   3   1 -17  112.58   30.20
  -3  -1  17  138.53   25.29
  -3  -1  17  140.67   23.32
  -3   1  17  155.04   25.04
   4  -6   2   77.76   20.18
   4   6   2   81.52   17.98
  -4   6  -2   65.87   17.32
  -4  -6  -2   62.32   19.19
   4  -6   2   52.25   18.67
   4  -6   2   75.33   17.97
   4   6   2   63.24   12.05
   4  -6   2   67.73   20.06
   4   6   2   58.92   16.56
  -4  -6  -2   59.21   19.21
   4  -6   2   62.02   19.04
  -2  -7  -9   83.67   14.82
   2  -7   9   65.22   16.18
   2   7   9   92.81   21.86
  -2  -7  -9  115.81   21.88
   2   7   9  100.43   23.20
   2  -7   9   90.67   22.64
   2  -7   9   79.95   16.43
  -2   7  -9   70.26   17.50
   2  -7   9   76.89   19.25
   2  -7   9  105.32   23.22
   2   7   9   86.27   20.12
  -1  -8   8  123.32   23.58
   1  -8  -8  120.84   16.48
   1   8  -8  127.86   20.73
   1  -8  -8  122.33   22.44
  -1  -8   8  134.33   24.09
  -1   8   8  138.22   22.60
   1  -8  -8  151.65   24.06
   1  -8  -8  154.44   25.00
   1   8  -8  124.00   22.94
  -1   8   8  115.06   19.24
  -1  -8   8  120.60   17.83
  -1  -8   8  112.70   19.42
  -1  -8   8  135.45   23.11
  -4  -3  13  153.65   23.65
  -4  -3  13  156.42   30.99
   4   3 -13  172.97   28.91
   4  -3 -13  166.44   27.19
   4  -3 -13  148.99   25.78
   4   3 -13  169.15   26.29
   4   3 -13  136.15   26.98
   4  -3 -13  113.55   16.51
  -4  -3  13  127.89   20.06
   4   3 -13  177.02   30.52
  -4  -3  13  116.80   19.20
  -4   3  13  134.41   24.57
   4  -3 -13   96.41   23.22
  -4   3  13  139.96   18.53
  -4   3  13  116.97   25.12
   2   5 -15  196.96   26.26
   2  -5 -15  160.83   26.18
  -2   5  15  180.31   26.08
  -2   5  15  217.52   29.54
  -2  -5  15  186.65   29.85
   2   5 -15  229.12   26.91
   2   5 -15  177.58   39.90
   2  -5 -15  146.58   17.61
   2  -5 -15  200.09   25.44
  -2  -5  15  172.89   25.51
  -2  -5  15  159.72   21.16
  -2  -5  15  227.74   25.64
   2  -5 -15  202.57   28.83
   4  -2 -14  230.91   22.00
  -4   2  14  251.15   26.28
   4   2 -14  279.85   32.50
  -4  -2  14  256.38   32.96
  -4  -2  14  283.34   30.45
  -4  -2  14  248.47   28.03
   4  -2 -14  229.79   28.60
   4   2 -14  228.70   32.97
   4  -2 -14  257.21   31.69
   4  -2 -14  222.38   23.85
   4   2 -14  241.91   28.23
   4   2 -14  225.18   28.98
   4  -2 -14  259.17   29.76
  -4   2  14  263.46   29.99
  -4  -2  14  226.94   26.78
  -4   2  14  233.27   30.18
   5  -2  -9  762.23   44.28
   5   2  -9  831.60   39.50
   5   2  -9  823.88   46.52
  -5   2   9  750.64   36.40
  -5   2   9  802.73   45.89
   5  -2  -9  750.35   38.32
   5  -2  -9  827.32   52.79
  -5  -2   9  790.81   45.23
   5   2  -9  752.43   41.42
   5  -2  -9  869.95   44.07
   5   2  -9  818.32   45.59
   5   2  -9  774.69   45.45
   5  -2  -9  784.65   45.30
  -5   2   9  742.32   44.80
  -5  -2   9  804.71   49.70
  -5  -2   9  849.36   47.92
   4   4   9  425.59   37.45
   4  -4   9  365.33   28.71
   4  -4   9  395.05   33.21
   4  -4   9  336.35   30.53
   4   4   9  311.94   60.35
  -4  -4  -9  353.06   31.20
   4   4   9  313.80   22.77
  -4   4  -9  360.47   27.66
  -4  -4  -9  343.63   25.77
   4   4   9  332.25   27.81
   4  -4   9  304.40   24.45
   3   7   5   40.10   11.34
  -3   7  -5   41.06   14.38
   3  -7   5   65.34   18.18
   3   7   5   57.79   22.12
   3   7   5   45.60   19.02
   3  -7   5   69.57   19.35
   3   7   5   95.08   21.06
   3  -7   5  100.91   21.81
  -3  -7  -5   56.76   15.39
   3  -7   5   56.28   14.47
   3  -7   5   58.29   19.14
  -5   0  -7 2280.23   66.02
   5   0   7 2102.32   67.21
  -5   0  -7 2162.05   65.90
   5   0   7 2324.25   72.97
   5   0   7 2234.03   71.90
   5   0   7 2109.67   54.33
   4  -1  12  488.99   35.96
  -4  -1 -12  527.58   32.53
  -4   1 -12  467.51   33.91
   4   1  12  504.94   38.57
   4   1  12  479.32   37.57
   4   1  12  475.09   53.45
   4   1  12  497.91   31.58
   4  -1  12  472.60   34.96
   4  -1  12  523.86   34.36
  -4  -1 -12  486.02   32.39
  -4   1 -12  431.02   27.87
   4  -1  12  477.72   30.19
   3  -7  -7  235.85   29.33
   3  -7  -7  240.38   27.66
   3   7  -7  265.69   28.61
  -3  -7   7  257.53   23.85
   3  -7  -7  248.76   28.47
  -3  -7   7  276.44   28.79
   3  -7  -7  278.70   28.79
   3   7  -7  248.53   27.60
  -3  -7   7  236.14   27.58
  -3  -7   7  229.07   22.28
   3   7  -7  199.04   20.38
   3   7  -7  202.95   48.86
  -3   7   7  262.44   25.62
  -3   7   7  242.64   22.63
  -3  -7   7  186.82   25.91
   4   6  -5  115.94   22.84
  -4  -6   5  146.90   24.21
   4  -6  -5  148.88   25.44
  -4   6   5  112.94   18.43
   4   6  -5  100.13   35.33
   4  -6  -5  103.97   18.89
   4  -6  -5  126.64   19.15
  -4  -6   5  132.63   20.23
  -4   6   5  115.83   19.39
  -4  -6   5  100.52   20.45
   4   6  -5   98.68   21.29
   4  -6  -5  115.41   22.22
   4   6  -5  148.14   20.37
   4  -6  -5   96.76   18.96
   5   4  -2   66.76   17.64
   5  -4  -2   84.08   21.43
   5  -4  -2   98.84   17.87
   5   4  -2   80.22   18.55
  -5   4   2   52.81   16.89
  -5  -4   2   68.93   21.67
   5  -4  -2   74.82   20.68
  -5  -4   2   75.35   21.64
   5  -4  -2   79.02   17.97
  -5  -4   2   86.68   23.33
  -5   4   2   82.18   18.53
   5  -4  -2   75.60   18.58
   5   4  -2   95.90   26.88
  -5   4   1  189.56   20.00
  -5  -4   1  233.19   28.34
   5   4  -1  205.23   27.22
   5  -4  -1  208.63   26.59
   5   4  -1  186.59   26.74
   5  -4  -1  193.30   19.28
   5  -4  -1  206.29   24.91
   5  -4  -1  242.12   25.64
  -5  -4   1  207.38   27.94
   5  -4  -1  208.61   22.39
   5   4  -1  238.94   30.54
   5   4  -1  217.42   23.40
  -5   4   1  250.94   24.94
   0   7 -12  127.51   31.42
   0  -7 -12  123.60   24.05
   0  -7  12  119.83   18.51
   0  -7  12  170.40   24.83
   0  -7  12  165.88   27.34
   0   7  12  159.98   25.53
   0  -7  12  167.84   26.25
   0  -7 -12  141.73   19.64
   0  -7 -12  134.86   24.51
   0   7 -12  152.44   27.11
   0   7  12  177.51   27.35
  -5   1  10  445.02   36.11
   5  -1 -10  446.31   36.39
  -5  -1  10  472.85   37.14
   5   1 -10  474.80   36.32
   5  -1 -10  428.54   36.82
   5  -1 -10  411.46   37.39
  -5  -1  10  437.43   36.58
   5   1 -10  417.08   35.06
  -5  -1  10  428.67   35.24
   5  -1 -10  439.44   31.20
   5   1 -10  450.80   38.92
   5   1 -10  432.43   34.02
   5  -1 -10  446.12   33.53
   5   1 -10  437.48   32.14
  -5   1  10  428.36   35.06
  -5   1  10  381.39   29.09
   0   5 -16  304.49   31.06
   0  -5 -16  425.07   38.26
   0  -5  16  370.56   39.33
   0   5 -16  387.36   31.64
   0  -5 -16  304.81   27.17
   0   5  16  346.45   33.08
   0   5  16  379.62   32.51
   0   5 -16  326.61   30.35
   0  -5  16  343.79   30.95
   0   5  16  315.48   26.03
   0  -5  16  331.92   30.64
   0  -5  16  336.16   31.33
   0  -5 -16  310.62   26.23
   3  -3  14  264.81   29.94
   3   3  14  260.08   27.97
   3  -3  14  222.99   26.32
   3   3  14  248.51   22.10
   3  -3  14  297.04   30.82
   3   3  14  293.32   30.13
  -3  -3 -14  290.22   29.73
  -3   3 -14  268.37   32.75
   3   3  14  263.44   67.59
   3  -3  14  235.45   21.80
   5   4  -3   42.48   15.47
   5  -4  -3   36.54   18.25
  -5  -4   3   64.62   23.87
  -5   4   3   56.94   21.69
   5   4  -3   36.90   23.25
   5  -4  -3   55.21   17.01
   5   4  -3   55.52   17.23
   5  -4  -3   63.81   20.19
  -5   4   3   30.20   17.57
  -5  -4   3   90.06   26.16
   5  -4  -3   61.86   17.99
   5  -4  -3   46.80   14.25
  -5  -4   3   25.73   15.30
  -5   2  -6  428.06   31.57
   5  -2   6  423.08   31.67
   5   2   6  405.73   40.79
   5  -2   6  412.39   34.80
  -5   2  -6  397.84   28.99
  -5  -2  -6  462.25   36.65
   5  -2   6  467.82   36.19
  -5  -2  -6  466.29   36.76
   5  -2   6  423.77   34.78
   5   2   6  453.08   35.87
   5   2   6  409.32   34.14
   3  -6   9  348.38   33.35
   3   6   9  349.93   66.78
   3  -6   9  360.73   32.58
  -3  -6  -9  273.67   24.65
  -3   6  -9  340.66   31.80
   3  -6   9  402.09   29.62
   3   6   9  329.77   30.54
   3  -6   9  352.04   30.40
   3  -6   9  377.88   32.44
   3   6   9  310.02   29.45
   1   5 -16   25.07   19.66
  -1   5  16   -4.02   15.53
  -1  -5  16   43.10   19.76
   1  -5 -16    9.78   14.98
  -1  -5  16    5.81   13.01
  -1   5  16   12.89   14.15
  -1  -5  16   32.13   22.42
   1   5 -16   27.33   20.01
   1   5 -16    3.38   13.28
   1  -5 -16   39.68   19.28
  -1   5  16   33.10   13.09
  -1  -5  16   44.50   21.18
   1  -5 -16   21.63   16.19
   2   8  -6  356.54   67.40
  -5   4   0   73.10   14.29
   5  -4   0   65.81   19.91
  -5  -4   0  103.65   23.40
  -5   4   0  108.71   22.49
   5  -4   0   89.31   21.75
   5   4   0   94.82   21.13
   5  -4   0   57.90   16.70
   5   4   0  137.83   28.88
   5  -4   0   60.93   14.15
  -5  -4   0   87.78   18.04
   5   4   0   75.84   13.32
   5  -4   0   96.73   23.27
   5   4   0   49.53   15.85
  -3   3  16   17.76   16.51
   3   3 -16    0.94    9.03
  -3   3  16   13.44   14.41
   3  -3 -16   34.89   22.33
   3   3 -16   12.58   15.22
   3   3 -16   30.76   15.28
  -3  -3  16   46.15   20.81
  -3  -3  16    1.62   10.43
  -3  -3  16   22.97   18.54
  -3  -3  16   18.74   15.73
   3   3 -16    2.22   13.86
   3  -3 -16   13.22   12.38
  -3  -3  16   -0.80   13.33
   3  -3 -16   20.52   11.97
  -2   6 -12   63.51   21.10
   2   6  12   62.25   16.20
   2  -6  12   55.37   18.99
   2  -6  12   19.41   12.78
   2   6  12   70.07   17.69
   2  -6  12   54.33   13.08
  -2   6 -12   35.01   13.64
   2   6  12   17.79   12.87
  -2  -6 -12   45.89   15.40
   2  -6  12   44.39   18.61
   2  -6  12   37.88   16.92
  -3  -6  11  164.35   24.60
  -3   6  11  184.52   23.35
   3  -6 -11  208.60   28.70
  -3  -6  11  154.61   19.06
   3   6 -11  171.32   19.06
   3  -6 -11  147.82   21.82
   3  -6 -11  171.43   22.33
  -3  -6  11  172.89   26.61
  -3  -6  11  206.20   29.46
   3   6 -11  169.47   28.57
   3  -6 -11  197.56   26.17
   3   6 -11  185.59   24.10
  -3   6  11  193.98   28.52
   3   6 -11  182.79   32.28
   4  -5   7   62.77   18.84
   4   5   7   83.86   19.18
   4  -5   7   79.55   14.30
   4  -5   7   72.96   18.85
   4   5   7   46.17   21.02
   4  -5   7   89.44   16.53
  -4  -5  -7   94.85   22.34
   4  -5   7   81.40   21.61
   4   5   7   69.20   15.05
  -4   5  -7   64.95   17.10
   4   5   7   98.84   21.93
  -5   1  -7  444.51   31.02
   5   1   7  419.80   36.93
   5  -1   7  392.59   33.22
   5   1   7  426.53   37.25
  -5  -1  -7  433.80   33.63
   5  -1   7  445.71   35.35
  -5   1  -7  407.37   32.44
  -5  -1  -7  395.60   34.30
   5  -1   7  449.57   40.53
   5  -1   7  473.55   31.01
   5   1   7  347.00   31.43
  -4   6  -3  265.06   26.75
  -4  -6  -3  270.52   29.36
   4   6   3  298.35   57.09
  -4  -6  -3  257.95   28.31
   4  -6   3  266.22   26.66
   4  -6   3  278.22   28.16
   4  -6   3  226.78   25.77
   4   6   3  297.26   27.02
   4  -6   3  289.65   30.12
   4   6   3  313.10   27.58
   4  -6   3  278.95   28.38
   1  -7 -12  679.60   38.99
   1   7 -12  761.60   42.99
  -1  -7  12  736.72   44.42
  -1   7  12  765.70   48.72
   1  -7 -12  812.72   44.79
  -1   7  12  689.19   40.53
   1   7 -12  742.43  118.72
  -1  -7  12  656.96   36.96
   1  -7 -12  699.35   40.64
  -1  -7  12  777.27   44.69
   1   7 -12  746.36   41.60
  -1  -7  12  765.80   47.16
  -3   4 -13  182.91   28.28
   3   4  13  155.58   27.31
   3  -4  13  141.74   20.39
   3  -4  13  177.39   26.23
   3   4  13  143.51   34.92
   0  -9   0   -7.03    8.46
   0  -9   0    8.51   14.81
   0  -9   0    1.68   12.16
   0  -9   0   14.88   14.01
   0  -9   0   20.85   12.78
  -5  -4   4   49.97   15.77
  -5  -4   4   31.44   15.83
   5   4  -4   90.67   27.65
   5  -4  -4   52.18   20.46
  -5   4   4   45.63   19.03
   5   4  -4   41.81   12.21
   5  -4  -4   86.92   21.49
  -5  -4   4   48.49   24.68
   5   4  -4   62.03   21.49
   5  -4  -4   62.58   22.86
   5  -4  -4   25.56   14.17
   5   4  -4   38.44   18.65
   5  -4  -4   43.70   12.50
  -5   4   4   53.89   23.22
   2   8   5  107.11   19.75
  -2  -8  -5   92.20   20.58
   2  -8   5   79.42   21.36
  -2   8  -5  118.32   25.32
   2   8   5  108.88   22.32
   2  -8   5  105.79   21.35
   2  -8   5  100.76   23.47
  -2  -8  -5   89.48   14.54
   2  -8   5   85.22   20.19
   2   8   5   87.24   14.44
  -2  -8  -5   93.81   16.76
   2  -8   5  115.16   24.17
   2  -2  17 2032.86   66.11
   2   2  17 1955.25   64.95
  -2   2 -17 2117.96   70.45
  -2   2 -17 1938.58   54.09
   2   2  17 2014.30   53.29
   2  -2  17 2108.85   62.34
  -2  -2 -17 2093.77   70.51
   2  -2  17 2043.05   66.71
   2   2  17 2069.60   68.87
   4   0 -15  174.21   25.39
  -4   0  15  122.14   20.50
  -4   0  15  161.00   24.26
   4   0 -15  149.82   28.51
   4   0 -15  176.90   26.82
  -4   0  15  157.50   26.33
   4   0 -15  136.59   34.12
   4   0 -15  133.59   24.92
   0  -9   1   31.64   14.07
   0  -9  -1   70.82   20.07
   0  -9   1   30.72   13.70
   0  -9   1   45.54   19.47
   0  -9  -1   51.31   14.47
   0  -9  -1   83.14   22.96
   0   9  -1   75.60   20.08
   0  -9   1   56.89   18.85
   0  -9  -1   50.07   18.10
   0  -9   1   30.32   11.45
   0  -9  -1   38.95   12.58
   3   4 -15  232.35   28.66
  -3  -4  15  218.17   29.32
  -3   4  15  174.72   26.44
   3   4 -15  204.46   20.82
   3  -4 -15  216.52   27.97
   3   4 -15  226.34   29.78
  -3  -4  15  162.90   28.26
  -3   4  15  227.08   28.43
   3  -4 -15  227.15   31.39
   3  -4 -15  187.45   22.25
  -3  -4  15  204.01   25.11
  -3  -4  15  217.11   23.98
   3   4 -15  181.27   23.68
   3  -4 -15  204.56   26.48
  -3  -4  15  202.45   29.90
  -2  -5 -14  326.00   31.66
   2  -5  14  284.59   27.52
   2   5  14  330.85   31.23
   2  -5  14  237.90   28.90
   2  -5  14  269.65   29.47
   2   5  14  261.14   30.55
   2   5  14  334.08   32.11
  -2   5 -14  274.33   25.21
  -2   5 -14  219.67   65.32
   2  -5  14  279.51   26.74
  -2   5 -14  301.74   35.56
  -5   4  -1  433.86   27.13
  -5  -4  -1  503.61   38.34
   5   4   1  436.56   35.19
   5  -4   1  440.61   39.79
  -5   4  -1  461.75   32.81
   5  -4   1  421.98   28.68
   5   4   1  447.35   30.33
   5  -4   1  482.66   37.71
  -5  -4  -1  496.15   38.22
   5  -4   1  465.17   34.84
   5   4   1  510.30   91.49
   5   4   1  443.82   36.01
   0   8  -9   88.67   18.77
   0  -8  -9   52.96   19.21
   0  -8   9   51.45   15.47
   0   8   9   78.76   17.23
   0  -8   9   53.33   17.35
   0   8  -9   52.50   15.97
   0  -8  -9   63.77   21.08
   0  -8   9   82.16   21.70
   0  -8   9   65.49   21.17
   0   8   9   60.99   18.45
   0  -8  -9   35.29   12.08
  -1  -8  -8   22.38   13.55
   1  -8   8    6.26   15.25
  -1  -8  -8    9.33   11.26
   1  -8   8   50.82   20.82
  -1   8  -8   41.97   21.24
   1   8   8   24.98   17.41
   1  -8   8    8.16   14.49
  -1  -8  -8   23.38   15.48
   1  -8   8    6.74   13.98
   1  -8   8   16.68   13.88
   1   2 -19  236.81   28.54
  -1  -2  19  277.30   29.57
   1   2 -19  244.24   29.09
   1  -2 -19  252.40   29.24
  -1   2  19  237.50   27.47
   1   2 -19  254.07   26.63
   1  -2 -19  231.85   30.68
  -1  -2  19  235.94   24.74
  -1   2  19  232.32   29.13
  -1   2  19  289.96   29.06
  -1  -2  19  231.68   23.89
   1   2 -19  260.47   29.63
   1  -2 -19  206.73   23.27
  -1  -2  19  267.35   25.98
   4   4 -12  688.34   43.58
  -4  -4  12  594.06   35.82
  -4  -4  12  631.97   41.95
  -4   4  12  576.30   38.43
   4  -4 -12  579.13   33.09
   4  -4 -12  617.86   40.94
   4  -4 -12  625.66   40.89
  -4  -4  12  616.55   39.92
  -4   4  12  586.98   40.34
  -4  -4  12  659.21   41.76
   4   4 -12  632.30   46.94
   4  -4 -12  564.49   30.11
   4  -4 -12  658.60   45.37
   4   4 -12  629.43   40.69
   4   4 -12  631.42   45.40
   0   2 -19  111.65   24.57
   0  -2  19   98.55   17.15
   0   2  19  102.97   27.10
   0  -2  19  124.28   19.42
   0  -2 -19   82.63   18.55
   0   2 -19   58.68   14.70
   0  -2  19   93.17   23.13
   0   2 -19   73.98   18.29
   0   2  19  145.17   23.59
   0   2  19  100.97   21.19
   0  -2 -19   89.49   16.16
   0   2 -19  107.43   22.84
   0  -2  19   76.40   17.76
   0  -2 -19   91.74   21.56
  -5  -3   8    6.46   14.67
  -5   3   8   59.74   23.04
   5   3  -8   42.17   15.88
   5   3  -8   26.91   16.41
  -5   3   8   29.07   17.72
   5  -3  -8   70.79   17.19
   5   3  -8   18.50   14.15
   5  -3  -8   16.84   14.65
  -5  -3   8   28.46   17.63
   5   3  -8    6.41   18.25
   5  -3  -8   28.46   16.36
   5   3  -8   47.80   16.21
   5  -3  -8   43.87   16.06
   5  -3  -8   30.85   13.24
  -5  -3   8   86.23   23.19
  -4  -6   6  772.99   44.18
  -4   6   6  779.27   37.37
   4   6  -6  736.09  122.05
   4  -6  -6  824.48   45.12
   4   6  -6  767.59   36.88
   4  -6  -6  805.13   39.28
  -4  -6   6  872.37   48.54
   4  -6  -6  807.75   42.93
   4   6  -6  776.92   45.47
  -4   6   6  766.18   40.60
  -4  -6   6  783.65   40.97
   4   6  -6  829.71   46.67
   4  -6  -6  767.20   37.83
   4  -6  -6  776.24   45.42
   4   6  -6  852.07   44.78
   3  -2  15  101.33   23.77
   3   2  15  124.55   23.84
  -3  -2 -15  110.10   21.44
   3   2  15   70.88   16.31
  -3   2 -15  105.93   26.83
   3  -2  15   64.10   18.08
   3  -2  15   95.32   24.86
   3   2  15   91.79   18.78
   3   2  15  100.04   23.05
   0  -9   2  727.73   45.56
   0  -9   2  703.17   37.44
   0   9   2  641.73   32.49
   0  -9   2  792.13   44.86
   0   9  -2  650.31  119.12
   0  -9  -2  732.27   45.23
   0  -9  -2  728.22   41.83
   0  -9   2  610.81   31.80
   0  -9  -2  728.88   41.60
   0  -9   2  687.39   40.41
   0  -9  -2  708.76   37.36
  -4  -5  10   33.73   22.19
  -4  -5  10   23.21   13.04
   4  -5 -10   -0.48   14.72
   4   5 -10   10.54   13.05
   4  -5 -10   16.60    9.76
   4   5 -10   62.00   21.32
   4  -5 -10   16.78   12.86
   4  -5 -10   47.66   23.92
  -4   5  10    0.92   15.82
  -4  -5  10   10.01   11.96
   4   5 -10   20.32   15.09
   4   5 -10    8.00   12.18
  -4  -5  10   59.18   25.15
  -4   5  10   26.86   13.72
  -3  -2  17  193.50   27.52
   3  -2 -17  171.35   24.32
   3   2 -17  161.72   21.42
  -3   2  17  158.19   24.22
  -3  -2  17  181.52   26.40
   3   2 -17  166.23   30.25
  -3  -2  17  157.14   21.79
   3   2 -17  186.28   28.52
   3  -2 -17  215.16   28.60
  -3   2  17  176.49   22.68
   3  -2 -17  172.97   25.41
   3   2 -17  184.65   27.34
   3  -2 -17  126.38   25.61
  -3  -2  17  204.61   28.34
  -3   2  17  194.00   30.86
   4   1 -15  729.58   44.77
  -4  -1  15  717.90   42.31
   4   1 -15  739.53   45.36
  -4   1  15  784.83   40.47
   4  -1 -15  849.85   50.06
   4   1 -15  831.70   49.50
   4   1 -15  818.87   43.96
   4  -1 -15  725.56   43.02
  -4   1  15  788.19   46.71
  -4   1  15  789.18   45.25
   4   1 -15  723.97   40.53
  -4  -1  15  842.67   49.44
   4  -1 -15  801.14   47.72
   4  -1 -15  765.22   40.76
   4  -1 -15  663.21   67.28
  -4  -1  15  800.07   47.46
   5  -3   5  469.22   36.21
  -5   3  -5  492.81   28.76
  -5  -3  -5  562.21   39.50
  -5  -3  -5  462.19   37.76
   5  -3   5  515.25   35.04
   5   3   5  538.00   39.63
   5  -3   5  445.12   29.43
   5   3   5  529.05   41.36
   5   3   5  492.28   36.48
   5  -3   5  489.78   40.31
  -5   3  -5  503.76   32.26
  -2   7  11  334.05   32.33
  -2  -7  11  363.38   30.79
   2   7 -11  310.98   77.17
   2  -7 -11  300.01   30.39
  -2   7  11  328.11   29.04
  -2  -7  11  357.00   33.77
  -2  -7  11  306.49   31.66
  -2  -7  11  286.49   32.01
   2   7 -11  351.57   30.32
   2  -7 -11  303.29   31.90
   2  -7 -11  327.51   30.97
   2  -7 -11  333.90   26.87
   2   7 -11  359.13   33.93
   4   3  11  898.18   45.19
  -4  -3 -11  906.03   49.66
   4   3  11  991.82   45.28
   4   3  11  985.79   50.47
   4  -3  11  892.09   45.89
  -4   3 -11  880.20   43.36
   4  -3  11  853.29   38.81
   4  -3  11  850.40   46.46
   4  -3  11  909.01   42.94
  -4  -3 -11  902.52   39.61
  -5  -4   5  281.23   31.26
   5  -4  -5  293.94   26.81
   5   4  -5  316.43   30.84
   5   4  -5  263.93   29.81
   5   4  -5  266.60   30.50
  -5  -4   5  328.99   33.15
  -5   4   5  286.79   26.35
   5  -4  -5  300.37   29.99
   5  -4  -5  268.03   31.79
  -5   4   5  333.00   30.23
  -5  -4   5  327.16   31.34
   5   4  -5  249.80   23.47
   5  -4  -5  266.93   27.25
   5  -4  -5  297.04   29.05
   3  -7   6  213.01   27.03
  -3   7  -6  164.98   24.73
   3   7   6  150.98   21.29
   3   7   6  169.31   35.52
   3  -7   6  203.16   26.18
   3  -7   6  232.41   26.32
   3   7   6  157.53   30.54
  -3  -7  -6  157.70   21.81
   3  -7   6  202.91   30.11
   3  -7   6  173.61   26.38
   2   0 -19   91.63   24.32
   2   0 -19   21.10   11.16
   2   0 -19   24.12   18.01
  -2   0  19   50.28   19.88
  -2   0  19   43.32   21.46
  -2   0  19   52.62   18.30
  -2   0  19   42.36   19.62
   2   0 -19   36.47   14.59
   1  -6  14  187.96   22.71
  -1   6 -14  188.62   26.87
  -1  -6 -14  238.39   30.74
   1  -6  14  175.93   22.65
   1  -6  14  202.55   25.03
   1  -6  14  199.04   27.74
   1   6  14  179.05   26.87
  -1   6 -14  146.44   29.49
   1   6  14  189.11   21.72
  -1   6 -14  156.52   23.91
  -1  -6 -14  158.10   19.14
  -3   7   8 2114.90   66.68
   3  -7  -8 2004.22   67.16
  -3  -7   8 2124.12   67.48
   3  -7  -8 2261.79   68.16
   3   7  -8 2279.47   67.72
   3   7  -8 2134.67   68.09
  -3  -7   8 2187.78   70.38
   3  -7  -8 2246.65   68.75
   3   7  -8 2261.50   78.16
   3  -7  -8 2226.03   72.11
   3   7  -8 2177.92   57.57
  -3  -7   8 2087.82   67.79
  -3  -7   8 1986.10   56.93
  -3   7   8 2121.10   59.76
   5   4   2  186.67   20.03
  -5  -4  -2  196.14   27.32
   5  -4   2  171.32   22.51
   5   4   2  195.81   38.99
   5  -4   2  206.00   28.95
  -5  -4  -2  191.52   23.77
   5   4   2  197.72   26.50
   5  -4   2  212.44   32.33
  -5   4  -2  206.20   23.37
   5   4   2  221.88   32.08
   5  -4   2  201.32   26.47
  -1   0 -19   51.35   15.69
   1   0  19   54.55   16.53
   1   0  19   64.57   17.10
  -1   0 -19   91.81   29.05
   1   0  19   33.48   14.99
   1   0  19   47.64   18.45
  -1  -8   9  427.12   29.21
   1  -8  -9  501.29   36.29
   1  -8  -9  475.41   37.19
   1   8  -9  559.72   39.53
  -1  -8   9  455.97   34.08
  -1  -8   9  459.16   36.21
   1  -8  -9  423.63   28.18
  -1   8   9  482.65   39.74
  -1   8   9  433.48   31.64
   1  -8  -9  424.83   33.97
   1   8  -9  429.23   76.22
  -1  -8   9  425.71   34.38
  -1  -8   9  406.28   34.90
   5   0 -11   97.97   25.25
   5   0 -11   62.95   14.45
  -5   0  11   76.21   20.60
   5   0 -11   98.58   28.60
   5   0 -11  101.91   20.37
   5   0 -11   71.90   22.20
  -5   0  11   83.79   20.56
  -5   0  11   58.15   17.26
  -4   2 -12    9.69   13.43
  -4  -2 -12   34.16   15.90
   4   2  12   28.74   14.08
   4  -2  12   38.08   12.86
   4   2  12   44.35   16.26
   4  -2  12   35.53   18.37
  -4  -2 -12   21.78   14.68
   4  -2  12   66.77   19.52
   4   2  12    2.42   14.83
   4  -2  12   21.36    8.70
   4  -2  12   47.72   18.77
   4   2  12   39.13   16.61
   4  -6   4  427.68   33.20
   4   6   4  422.88   34.56
   4  -6   4  487.82   33.22
   4  -6   4  434.66   34.74
   4   6   4  459.84   35.84
  -4  -6  -4  441.43   35.64
   4  -6   4  431.63   35.48
  -4   6  -4  421.94   31.01
   4  -6   4  469.75   32.64
  -4  -6  -4  424.65   34.74
   4   6   4  435.67   30.45
  -2  -8   7  244.98   28.91
   2  -8  -7  222.15   29.11
   2  -8  -7  263.91   26.61
  -2  -8   7  144.84   25.17
   2   8  -7  194.43   45.39
   2  -8  -7  239.91   29.70
  -2  -8   7  233.08   29.17
  -2   8   7  174.85   18.38
  -2   8   7  210.80   24.22
  -2  -8   7  231.51   27.09
   2   8  -7  215.48   23.55
   2  -8  -7  258.20   35.25
   2   8  -7  230.16   52.03
  -5  -2  10  516.08   37.86
   5  -2 -10  570.64   41.71
  -5   2  10  495.10   42.31
  -5  -2  10  548.69   40.65
   5   2 -10  495.96   37.38
  -5   2  10  514.56   32.10
   5  -2 -10  512.19   34.92
  -5  -2  10  565.03   39.98
   5   2 -10  511.38   37.46
   5  -2 -10  504.96   32.33
   5  -2 -10  515.19   38.04
   5   2 -10  574.74   42.07
   5  -2 -10  546.79   37.97
  -5   2  10  502.61   37.19
   5   2 -10  526.95   39.25
   5   2 -10  564.39   37.11
   0  -9   3   23.55   12.37
   0   9   3    0.00   10.66
   0  -9  -3   31.22   15.10
   0  -9  -3   44.64   16.64
   0  -9   3   55.70   20.23
   0  -9  -3   35.17   15.04
   0  -9   3   20.74   15.00
   0   9  -3   56.01   18.92
   0  -9   3   46.43   13.93
   0  -9  -3   68.15   20.06
   0  -9   3   55.59   19.39
   1  -4  17 1012.72   50.30
  -1   4 -17  943.27   49.46
  -1   4 -17  898.62   44.23
  -1   4 -17  891.61   43.43
   1  -4  17  884.83   42.66
   1  -4  17  928.87   48.31
   1   4  17  975.44   47.89
   1   4  17  972.30   48.54
  -1  -4 -17  868.83   48.16
   1  -4  17  925.23   45.61
   1   4  17  940.37   48.98
  -1  -4 -17  900.85   40.08
  -2  -1  19  476.02   32.98
   2  -1 -19  478.16   37.61
  -2   1  19  487.97   36.03
   2   1 -19  395.36   31.98
  -2  -1  19  404.29   32.01
   2  -1 -19  470.07   38.39
   2   1 -19  548.29   47.54
  -2  -1  19  452.15   32.29
   2  -1 -19  417.95   30.01
   2   1 -19  552.48   40.40
  -2  -1  19  487.35   40.14
   2   1 -19  425.89   32.88
   2  -1 -19  460.12   37.32
  -2   1  19  501.89   37.12
  -2   1  19  501.44   37.37
  -2  -1  19  480.19   39.10
   2  -7  10  118.75   24.61
   2  -7  10  122.55   25.13
   2   7  10  108.30   21.89
   2   7  10  123.61   23.88
   2  -7  10  120.68   22.30
  -2  -7 -10  100.56   22.70
   2  -7  10  115.86   25.36
   2   7  10  141.96   26.14
   2  -7  10  115.12   20.69
  -2   7 -10  123.60   24.30
   1  -9   0  263.06   30.90
   1  -9   0  256.06   28.95
   1  -9   0  227.98   26.78
  -1  -9   0  212.78   26.06
  -1  -9   0  239.14   32.64
   1  -9   0  206.01   21.17
  -1  -9   0  245.93   24.44
  -1  -9   0  217.09   23.81
  -1  -9   0  243.33   26.94
   1   3  18  314.02   30.16
   1   3  18  384.36   36.85
  -1   3 -18  334.42   28.16
   1  -3  18  340.18   31.85
  -1  -3 -18  311.53   26.90
   1  -3  18  380.08   32.42
   1  -3  18  315.49   27.74
   1   3  18  351.46   31.39
   1  -3  18  348.61   28.44
  -1  -3 -18  336.51   33.06
  -1   3 -18  335.73   33.60
  -2   4  17  480.65   39.92
   2  -4 -17  457.34   36.57
  -2  -4  17  444.32   30.73
   2   4 -17  448.27   40.05
  -2  -4  17  454.66   38.83
   2   4 -17  438.65   35.39
  -2   4  17  465.29   38.33
   2   4 -17  380.55   61.31
  -2  -4  17  469.08   40.43
  -2   4  17  383.50   26.85
   2  -4 -17  464.42   35.96
  -2  -4  17  430.44   37.13
   2  -4 -17  406.86   33.34
   2   4 -17  411.99   30.66
  -1  -9   1  494.46   31.29
  -1  -9   1  476.85   37.49
   1  -9  -1  492.16   35.42
  -1  -9   1  517.85   33.73
  -1  -9   1  461.48   29.30
   1  -9  -1  570.19   41.65
   1  -9  -1  489.49   36.60
  -1  -9   1  495.86   36.35
   1  -9  -1  483.17   29.85
   1  -9  -1  457.39   35.15
   5   0   8   -9.90   14.38
  -5   0  -8   51.39   16.95
   5   0   8   23.32   15.76
  -5   0  -8  -10.39   12.14
   5   0   8    0.80   12.90
   2  -8   6 1150.39   57.41
   2  -8   6 1242.36   54.27
   2   8   6 1133.68   49.89
  -2  -8  -6 1093.15   49.55
  -2   8  -6 1144.30   53.90
  -2  -8  -6  996.76   40.88
   2  -8   6 1055.10   50.03
   2  -8   6 1156.24   54.42
   2  -8   6 1122.04   47.66
   2   8   6 1104.41   48.98
   2   8   6 1087.11   43.52
  -1   1 -19   15.80   14.13
   1   1  19    2.51   13.38
   1  -1  19   75.86   17.41
   1   1  19    6.60    8.46
  -1   1 -19   30.74   17.05
   1  -1  19   43.67   21.83
  -1  -1 -19    0.24   10.68
  -1  -1 -19   -0.66   15.07
  -1   1 -19   19.16   16.21
   1  -1  19   15.76   10.64
   1   1  19   44.16   18.40
   1  -1  19   14.18   11.41
   1   1  19   24.78   15.20
  -5  -1  11  192.17   25.87
  -5   1  11  194.43   26.58
   5  -1 -11  257.62   31.96
   5   1 -11  175.75   25.78
   5   1 -11  199.94   27.06
   5  -1 -11  199.71   26.28
  -5   1  11  208.41   26.52
   5  -1 -11  208.16   26.51
   5   1 -11  186.74   26.22
   5  -1 -11  140.52   21.33
   5   1 -11  227.47   30.15
   5  -1 -11  258.99   33.48
   5   1 -11  200.82   30.36
  -5   1  11  214.54   26.55
  -5  -1  11  192.09   26.72
  -5  -1  11  222.00   29.23
  -5   2  -7  188.47   25.47
  -5  -2  -7  167.21   31.64
   5  -2   7  131.94   19.76
   5  -2   7  187.77   22.36
   5   2   7  204.19   28.10
   5  -2   7  200.34   27.63
  -5   2  -7  204.72   21.30
  -5  -2  -7  192.27   27.47
   5   2   7  181.78   24.01
   5   2   7  210.61   33.31
   5  -2   7  194.45   28.26
  -4   6   7 1713.24   54.64
   4  -6  -7 1513.60   60.64
   4  -6  -7 1481.30   49.91
   4  -6  -7 1495.25   51.31
   4   6  -7 1593.53   62.60
  -4  -6   7 1557.67   60.66
   4   6  -7 1667.28   55.96
  -4  -6   7 1522.30   57.19
  -4  -6   7 1502.55   55.75
   4  -6  -7 1628.27   61.48
   4   6  -7 1644.38   62.48
  -4  -6   7 1709.16   64.60
   4  -6  -7 1712.90   62.92
   4   6  -7 1591.56   57.53
  -4   6   7 1665.71   61.47
  -2  -3  18  132.87   21.39
  -2   3  18  161.95   26.12
   2  -3 -18  178.91   25.21
  -2  -3  18  142.10   25.62
  -2  -3  18  174.09   25.15
  -2  -3  18  130.30   22.13
   2  -3 -18  125.05   24.68
   2   3 -18  179.38   29.74
  -2   3  18  159.17   27.32
  -2   3  18  123.01   19.88
   2   3 -18  154.22   22.25
   2   3 -18  118.50   25.28
   2   3 -18  150.93   24.79
   2  -3 -18  138.68   25.75
  -1  -9  -1 1370.27   53.04
  -1  -9  -1 1375.41   46.20
  -1  -9  -1 1463.38   57.37
   1  -9   1 1566.52   61.96
  -1   9  -1 1570.80  125.69
   1  -9   1 1493.07   52.42
  -1  -9  -1 1429.35   52.13
   1  -9   1 1466.12   58.60
   1  -9   1 1467.84   59.64
  -1  -9  -1 1665.90   62.01
  -5  -4   6 2744.47   78.21
  -5   4   6 2765.58   72.38
   5   4  -6 2771.53   80.70
  -5  -4   6 3057.67   84.91
   5  -4  -6 2894.14   79.29
  -5  -4   6 2854.93   84.11
   5   4  -6 3006.75   81.93
   5   4  -6 2735.22   71.47
   5  -4  -6 2858.51   83.28
  -5   4   6 2883.88   80.20
   5  -4  -6 2712.54   71.32
   5  -4  -6 2644.50   67.99
   5  -4  -6 2823.30   76.09
   5   4  -6 2894.78   82.34
   3   5  12  173.74   52.97
  -3   5 -12  127.82   28.29
   3   5  12  167.25   24.42
  -3   5 -12  141.17   23.52
   3  -5  12  175.80   24.94
   3  -5  12  161.17   22.87
  -3  -5 -12  165.64   22.22
   3   5  12  159.37   24.72
   3  -5  12  147.01   19.31
   3  -5  12  168.64   26.79
   3  -5  12  132.31   19.31
   1  -7  12   12.98   16.55
   1  -7  12  -12.84   14.13
   1   7  12    2.19   15.55
   1  -7  12   -2.16   13.97
   1  -7  12   23.16   13.70
   1  -7  12    5.15   14.75
  -1   7 -12   -6.70   11.36
  -1   7 -12    8.53   13.74
  -1  -7 -12  -11.55    9.85
   1   7  12   17.32   11.64
   1   9  -2  132.70   23.75
   1  -9  -2  140.28   23.41
   1  -9  -2  112.94   19.57
   1  -9  -2  187.36   26.39
  -1  -9   2  157.65   19.81
  -1  -9   2  148.17   24.02
  -1  -9   2  180.34   28.18
  -1  -9   2  135.37   24.01
  -1  -9   2  181.66   22.09
   1  -9  -2  140.94   24.21
   4   4  10  329.33   28.12
   4  -4  10  434.78   35.90
   4   4  10  306.42   53.22
   4  -4  10  304.78   24.82
  -4   4 -10  343.27   31.08
  -4  -4 -10  327.28   26.74
   4  -4  10  348.69   32.46
   4   4  10  364.06   35.74
   4  -4  10  292.58   26.33
  -4  -4 -10  337.88   35.24
   0  -6  15  423.88   40.64
   0   6  15  348.73   35.60
   0  -6  15  376.59   34.08
   0  -6 -15  365.79   28.84
   0  -6  15  344.20   29.32
   0  -6  15  365.76   37.38
   0   6  15  294.11   23.42
   0   6  15  336.00   35.06
   0   6 -15  355.59   46.97
   0  -6 -15  357.46   33.39
   0  -6 -15  344.43   29.59
   0   6 -15  381.66   33.49
   0   6 -15  330.21   33.07
  -4   5  -8   56.05   16.50
   4  -5   8  106.15   18.03
  -4  -5  -8   76.32   15.70
   4  -5   8   67.47   20.88
   4  -5   8   69.65   16.03
   4  -5   8   72.73   21.90
   4   5   8   59.34   17.58
   4   5   8   72.22   23.54
   4   5   8   64.70   14.09
   4  -5   8   91.84   22.82
  -4  -5  -8   73.70   21.19
  -5  -4  -3   86.29   17.91
  -5   4  -3   95.30   17.66
   5  -4   3   85.41   21.01
   5   4   3   94.17   21.22
  -5  -4  -3   99.22   22.73
   5  -4   3   77.27   17.43
   5  -4   3  111.15   23.83
   5   4   3   76.96   17.30
   5   4   3   91.79   20.13
   5  -4   3   86.94   23.55
   0  -9  -4  333.20   29.97
   0  -9   4  384.94   34.75
   0  -9   4  355.00   37.84
   0  -9   4  340.70   27.13
   0   9  -4  304.98   65.39
   0  -9  -4  355.83   32.80
   0  -9  -4  366.21   31.33
   0  -9  -4  307.57   24.91
   0  -9   4  349.85   31.09
   0  -9   4  328.44   27.99
   0   9   4  350.42   29.67
   3  -5 -14  149.27   23.66
   3   5 -14  178.54   26.10
  -3  -5  14  112.08   18.69
   3   5 -14  132.03   26.53
  -3   5  14  171.40   26.79
  -3  -5  14  132.48   24.88
   3  -5 -14  132.38   25.11
  -3  -5  14  147.87   25.39
   3   5 -14  118.19   26.16
   3  -5 -14  159.75   29.25
   3   5 -14  132.71   18.28
   3  -5 -14  139.54   20.06
  -3  -5  14  148.93   25.24
  -3   5  14  148.21   21.43
  -2  -6  14  114.67   22.31
   2   6 -14  119.16   25.29
   2  -6 -14   79.48   18.71
   2   6 -14  158.15   25.18
  -2   6  14   87.76   18.77
   2   6 -14  107.59   21.60
  -2  -6  14  107.96   23.34
   2  -6 -14  130.09   23.74
   2  -6 -14  119.31   21.96
  -2  -6  14  132.00   24.29
  -2   6  14  142.94   25.34
   2   6 -14  130.36   22.61
  -4   3  14   -0.15   14.43
  -4  -3  14   54.34   24.83
  -4   3  14   11.25    9.28
   4  -3 -14    0.12   16.71
  -4  -3  14   15.93   19.41
   4   3 -14   38.33   18.32
   4  -3 -14   44.82   21.21
   4   3 -14   52.30   19.30
   4  -3 -14   33.84   13.13
   4   3 -14   40.69   16.80
   4   3 -14   56.32   23.86
  -4   3  14    8.12   14.68
  -4  -3  14    4.30   12.84
   4  -3 -14   31.49   22.28
  -4  -3  14   33.57   15.60
   5  -3  -9  151.78   19.97
   5  -3  -9  165.02   25.54
   5   3  -9  177.23   28.03
   5   3  -9  173.70   23.44
  -5   3   9  135.85   22.04
   5   3  -9  218.05   30.68
   5   3  -9  195.80   29.46
  -5  -3   9  121.61   24.54
   5  -3  -9  164.50   22.47
   5  -3  -9  159.44   24.33
   5   3  -9  148.79   20.95
   5  -3  -9  181.69   26.47
  -5   3   9  196.61   27.74
  -5  -3   9  189.88   27.34
  -5  -3   9  169.85   25.38
   5   1   8  210.98   29.14
  -5   1  -8  215.38   23.61
   5  -1   8  198.82   26.90
  -5   1  -8  224.33   26.48
   5   1   8  266.15   32.42
   5  -1   8  178.08   20.34
   5  -1   8  202.62   27.94
   5   1   8  184.14   26.86
  -5  -1  -8  232.49   27.96
  -5  -1  -8  225.79   27.22
   5  -1   8  240.34   31.64
   4   0  13   54.10   18.68
   4   0  13   44.36   15.21
  -4   0 -13   28.86   17.14
   4   0  13   89.06   22.07
  -4   0 -13   64.97   20.21
   4   0  13   78.37   18.62
   1  -9   2  138.51   19.19
  -1   9  -2  214.42   40.74
  -1  -9  -2  184.71   29.75
   1  -9   2  186.80   26.70
  -1  -9  -2  163.30   21.64
   1  -9   2  167.42   24.36
  -1  -9  -2  146.49   19.46
   1  -9   2  226.66   30.71
  -1  -9  -2  178.92   24.36
   1  -9   2  160.78   24.39
   1   5  16   86.89   23.30
   1  -5  16   55.81   18.55
   1  -5  16   52.88   14.96
   1  -5  16   49.05   17.89
  -1   5 -16   51.09   19.05
  -1   5 -16   80.15   21.44
   1   5  16   86.22   24.54
  -1   5 -16   27.02   12.58
  -1  -5 -16   73.02   22.18
   1   5  16   44.75   15.97
   1  -5  16   97.29   23.35
   3   0  16   14.95   10.77
   3   0  16    3.95   10.54
  -3   0 -16   11.90   13.50
   3   0  16   17.57   12.07
   3   0  16  -11.01   10.75
   3   0  16   -5.88   14.11
   1   6 -15   92.29   21.41
  -1  -6  15  113.67   23.59
  -1  -6  15   58.24   22.14
   1  -6 -15   95.30   19.73
   1   6 -15   15.81   15.38
  -1   6  15   65.32   21.98
  -1  -6  15   85.82   21.85
  -1   6  15   84.16   26.31
   1  -6 -15   52.60   17.26
   1   6 -15   62.85   17.22
   1  -6 -15   75.23   21.91
  -1  -6  15   83.58   24.73
  -3   6 -10  136.12   24.77
   3  -6  10   81.98   19.64
  -3  -6 -10   81.79   18.39
   3   6  10  108.21   27.32
   3  -6  10   87.21   22.64
   3   6  10  103.37   19.23
   3  -6  10   71.69   20.96
   3  -6  10  123.92   23.37
   3   6  10  117.80   22.80
   3  -6  10  114.80   22.11
  -2   0 -18   32.56   17.25
   2   0  18    7.11   10.51
   2   0  18   28.49   20.38
   2   0  18   40.63   18.25
  -1  -9   3  521.45   34.23
  -1  -9   3  489.48   30.91
   1  -9  -3  533.60   38.43
   1  -9  -3  440.13   34.10
  -1  -9   3  532.90   36.88
   1  -9  -3  527.46   38.80
   1   9  -3  448.90  105.77
  -1   9   3  475.90   28.67
  -1  -9   3  545.08   37.96
   1  -9  -3  511.92   34.59
  -1  -9   3  539.28   38.11
   3  -6 -12   89.78   23.21
  -3  -6  12   89.79   24.32
   3  -6 -12   62.89   17.83
   3  -6 -12   95.36   24.44
  -3  -6  12   82.86   22.45
   3   6 -12   44.74   12.85
  -3   6  12   50.84   15.83
   3   6 -12   69.15   20.47
   3  -6 -12   68.10   18.55
  -3   6  12   75.88   29.18
   3   6 -12   75.09   24.16
  -3  -6  12   53.75   17.20
   3   6 -12   44.42    8.82
  -3  -6  12   84.66   23.37
  -4  -2  15  105.13   22.80
  -4   2  15  106.89   21.91
  -4  -2  15   59.23   19.59
  -4  -2  15   92.41   16.93
   4  -2 -15   47.15   18.05
  -4   2  15  111.61   24.38
   4  -2 -15  114.04   18.63
   4   2 -15   85.17   23.23
   4   2 -15  112.32   25.53
   4  -2 -15   67.68   17.41
   4   2 -15  136.78   26.08
   4  -2 -15  102.40   24.68
  -4  -2  15   85.45   23.55
  -4   2  15  138.99   24.09
   4   2 -15  123.11   28.00
   1   8   9  415.03   33.49
   1  -8   9  544.93   38.67
  -1  -8  -9  401.38   29.66
  -1  -8  -9  456.28   34.79
   1  -8   9  516.06   37.20
  -1   8  -9  433.56   35.71
  -1  -8  -9  370.89   27.06
   1  -8   9  477.60   38.10
   1  -8   9  454.90   35.57
   1  -8   9  431.84   35.53
   3   0 -18   63.18   25.49
   3   0 -18   82.16   19.26
   3   0 -18  134.16   22.99
  -3   0  18  104.86   21.22
  -3   0  18   92.18   17.88
  -3   0  18  122.14   22.85
   3   0 -18   79.60   18.17
   3   0 -18   82.96   16.66
  -3   0  18   67.15   19.28
   5  -3   6  153.05   22.06
   5   3   6  215.32   26.41
   5   3   6  179.36   26.88
   5   3   6  195.06   26.09
  -5  -3  -6  181.28   27.36
   5  -3   6  209.07   26.39
  -5   3  -6  225.72   24.36
  -5  -3  -6  196.45   27.50
   5  -3   6  165.54   21.68
   5  -3   6  167.99   23.33
   0  -7  13  194.15   28.82
   0  -7 -13  149.36   22.32
   0   7 -13  137.97   25.72
   0  -7  13  168.27   27.73
   0  -7 -13  184.29   27.55
   0   7  13  172.49   29.24
   0   7 -13  154.21   28.20
   0  -7  13  103.47   18.81
   0  -7 -13  147.10   19.16
   0  -7  13  144.66   24.38
   0   7  13  155.36   24.89
   0   7 -13  183.51   27.51
   4  -6   5 1190.44   57.29
   4   6   5 1263.74   46.88
   4  -6   5 1221.11   52.42
   4   6   5 1205.82   50.07
  -4  -6  -5 1311.53   57.79
  -4   6  -5 1197.92   49.67
   4  -6   5 1179.41   48.29
   4  -6   5 1219.23   49.94
  -4  -6  -5 1140.89   52.16
   4  -6   5 1170.43   53.54
   4   6   5 1133.32   51.85
   0  -8  10  -11.51   13.62
   0   8 -10   -7.43   15.40
   0  -8 -10   25.08   15.24
   0  -8  10   -1.32   14.87
   0  -8 -10    9.67   11.53
   0   8  10   -4.74   13.64
   0   8  10   14.67   12.47
   0  -8  10    7.63   14.58
   0  -8 -10   -1.92   13.55
   0   8 -10   18.52    9.02
   0  -8  10    6.80   14.36
   0  -4  18  377.71   33.39
   0  -4  18  346.33   30.14
   0   4 -18  331.91   32.99
   0  -4  18  363.75   35.65
   0  -4 -18  355.98   32.67
   0  -4  18  325.86   31.11
   0   4  18  421.84   35.72
   0   4 -18  372.64   33.96
   0   4  18  356.18   31.32
   0   4  18  345.74   35.53
   0  -4 -18  321.14   26.62
   0  -4 -18  349.09   29.59
   3   7   7   10.17   10.83
   3  -7   7   46.26   21.19
  -3   7  -7   12.04   14.52
   3  -7   7   18.33   15.25
   3   7   7   23.49   16.21
   3  -7   7   29.30   14.22
   3  -7   7    2.39   13.42
   3   7   7   23.60   17.41
  -3  -7  -7   11.39   11.51
   3  -7   7   12.10   14.89
   1  -4 -18  675.39   38.80
  -1  -4  18  678.29   43.41
   1  -4 -18  776.57   44.81
   1   4 -18  769.25   45.10
  -1   4  18  823.77   47.02
   1  -4 -18  737.32   46.50
  -1   4  18  713.49   40.34
  -1  -4  18  799.41   45.45
  -1  -4  18  787.72   46.09
  -1   4  18  809.93   50.22
   1   4 -18  800.43   45.61
   1   4 -18  654.57   63.08
   1   4 -18  693.25   42.53
   1   0 -20   27.71   18.16
   1   0 -20    6.76   14.15
   1   0 -20   69.62   19.99
  -1   0  20   46.63   16.42
  -1   0  20   55.15   17.83
  -1   0  20   63.30   22.30
  -1   0  20   55.72   15.57
   2  -4  16  418.57   30.53
   2  -4  16  404.12   32.93
   2   4  16  391.16   34.50
  -2   4 -16  365.61   32.46
   2   4  16  398.27   33.14
   2  -4  16  400.38   33.02
  -2   4 -16  382.97   28.42
   2  -4  16  495.54   43.74
  -2   4 -16  436.58   36.98
  -2  -4 -16  392.07   33.41
   4  -1  13  153.03   19.72
   4   1  13  215.99   28.27
  -4  -1 -13  163.32   21.30
   4   1  13  198.76   28.09
   4  -1  13  137.62   23.80
   4   1  13  167.95   23.78
  -4   1 -13  144.85   22.55
   4  -1  13  163.99   22.52
   4  -1  13  136.26   26.16
   4   1  13  129.25   18.92
  -4   1 -13  145.31   20.48
  -4  -1 -13  163.28   22.32
   3  -1  16  127.31   20.33
   3   1  16  158.14   26.54
   3  -1  16  127.20   23.96
   3   1  16  152.05   22.63
   3   1  16  151.15   22.00
   3   1  16  145.70   20.97
   3  -1  16  183.27   25.20
   3  -1  16  133.80   19.07
  -3   1 -16  174.61   31.59
  -3  -1 -16  111.07   22.17
   2   8  -8 1348.50  209.06
   2  -8  -8 1406.74   59.64
   2  -8  -8 1377.88   51.84
  -2  -8   8 1393.05   58.13
   2  -8  -8 1411.97   57.42
  -2  -8   8 1376.64   57.01
   2   8  -8 1318.17   87.62
  -2  -8   8 1312.83   55.70
  -2   8   8 1442.74   55.94
  -2  -8   8 1448.40   53.53
   2  -8  -8 1388.35   58.81
  -2   8   8 1348.99   48.79
   2   8  -8 1427.35   54.25
  -2  -5  16  132.66   28.14
   2  -5 -16  151.42   27.32
  -2   5  16  199.24   29.58
  -2   5  16  210.64   28.86
   2  -5 -16  144.07   23.61
   2   5 -16  160.06   21.94
   2   5 -16  133.27   25.48
  -2  -5  16  148.32   25.04
   2  -5 -16  148.24   26.44
  -2  -5  16  169.81   25.88
   2   5 -16  157.12   24.78
   3  -7  -9  139.69   21.55
   3   7  -9  173.03   24.66
   3   7  -9  156.70   24.26
  -3  -7   9  153.59   27.39
   3  -7  -9  149.86   23.72
  -3  -7   9  142.69   26.68
   3   7  -9  122.20   17.41
   3  -7  -9  190.85   27.24
  -3   7   9  118.34   25.61
   3  -7  -9  130.03   24.16
  -3  -7   9  193.46   30.70
  -3   7   9  105.61   19.25
  -3  -7   9  151.92   21.26
   3   7  -9  151.83   53.66
   2   1  18  649.70   39.97
   2   1  18  643.75   41.89
   2   1  18  581.10   33.27
   2  -1  18  653.81   42.77
   2  -1  18  661.00   36.44
   2  -1  18  647.60   35.14
  -2   1 -18  648.67   42.49
   2  -1  18  621.25   38.88
  -2  -1 -18  640.40   41.55
   0   0  20   89.18   22.01
   0   0 -20   86.59   19.86
   0   0  20  107.06   19.63
   0   0 -20   76.01   23.39
   0   0  20  167.18   25.29
   0   0 -20  102.73   21.67
   0   0  20  115.53   21.35
  -1   9  -3  146.38   39.63
  -1  -9  -3  111.05   19.26
  -1  -9  -3  114.87   20.36
   1  -9   3   96.47   21.02
   1   9   3  114.47   19.24
   1  -9   3  132.73   20.90
  -1  -9  -3  108.15   23.03
   1  -9   3   92.72   21.96
   1  -9   3  117.27   21.24
  -1  -9  -3  120.43   22.70
   1  -9   3   71.06   17.18
   1   7 -13   51.70   15.93
   1   7 -13   40.32   16.88
   1  -7 -13   57.77   19.82
  -1  -7  13   55.82   16.69
  -1  -7  13   31.94   21.06
   1  -7 -13   54.72   17.74
  -1   7  13   44.01   14.73
   1  -7 -13   47.89   20.12
  -1   7  13   62.62   19.68
  -1  -7  13   40.09   16.27
  -1  -7  13   52.47   17.44
   1   7 -13   75.19   22.33
   2   3  17  312.43   33.64
   2  -3  17  296.22   31.91
   2  -3  17  320.76   26.39
   2  -3  17  290.09   31.14
   2   3  17  344.29   32.57
   2  -3  17  277.63   27.86
  -2   3 -17  306.55   33.85
  -2   3 -17  288.34   25.86
  -2  -3 -17  328.46   32.57
   5  -4  -7   46.33   16.25
  -5  -4   7   44.47   15.16
  -5   4   7   32.50   12.29
   5   4  -7   58.14   20.67
  -5   4   7   54.69   21.48
  -5  -4   7   61.02   21.28
   5   4  -7   57.12   18.77
   5  -4  -7   79.49   19.65
   5  -4  -7   53.00   18.73
  -5  -4   7   66.38   21.22
   5  -4  -7   64.46   20.26
   5   4  -7   86.15   21.14
   5   4  -7   86.03   24.03
   5  -4  -7   71.08   18.86
   4  -5 -11  186.38   32.14
   4   5 -11  228.81   30.60
  -4  -5  11  203.93   28.61
   4  -5 -11  198.72   28.21
   4   5 -11  192.24   25.96
   4  -5 -11  165.96   22.06
  -4   5  11  228.00   33.08
  -4  -5  11  162.10   21.18
   4  -5 -11  176.31   27.31
  -4  -5  11  196.80   27.09
   4   5 -11  197.64   40.74
   4   5 -11  208.03   31.17
  -4   5  11  194.93   26.11
  -4  -5  11  219.91   28.86
  -2   6 -13   32.84   10.04
   2  -6  13   57.99   22.02
   2   6  13   55.20   19.26
   2  -6  13   17.19   14.54
   2  -6  13   33.74   17.55
   2  -6  13   40.47   15.38
  -2   6 -13   31.85   16.03
   2  -6  13   59.68   19.69
   2   6  13   17.69   15.90
   2   6  13   55.06   19.16
   3  -1 -18   45.53   19.24
   3   1 -18   57.48   12.99
  -3  -1  18   79.97   19.02
  -3  -1  18   51.56   22.56
  -3   1  18   74.20   21.12
  -3  -1  18   36.54   16.62
   3  -1 -18   97.35   24.04
   3  -1 -18   85.12   19.90
  -3   1  18   68.31   22.58
  -3  -1  18   78.93   25.33
   3   1 -18   57.42   20.65
  -3   1  18   84.30   18.46
   3   1 -18   42.89   18.51
   3  -1 -18   67.88   22.30
   3   1 -18  125.39   27.89
  -4  -4  13  226.32   29.42
   4   4 -13  213.19   47.25
  -4  -4  13  250.92   29.48
   4   4 -13  207.02   29.50
   4  -4 -13  222.48   20.53
   4  -4 -13  232.72   29.34
  -4   4  13  213.28   29.14
   4  -4 -13  247.19   33.47
   4   4 -13  222.79   33.14
  -4   4  13  259.09   31.02
   4   4 -13  282.90   32.41
   4  -4 -13  236.79   27.61
  -4  -4  13  213.13   26.34
  -4  -4  13  185.68   22.91
   0  -9   5  202.83   27.29
   0  -9  -5  180.56   24.66
   0  -9   5  165.07   24.86
   0  -9   5  236.45   29.64
   0  -9  -5  200.10   26.07
   0   9  -5  206.09   28.10
   0  -9  -5  258.67   30.72
   0  -9   5  184.89   24.63
   0   9   5  190.36   27.68
   0   9   5  233.22   24.00
   0  -9   5  136.39   21.61
   0  -9  -5  167.11   20.82
   1   3 -19  102.23   24.07
   1   3 -19   91.87   14.68
   1   3 -19  150.22   24.09
   1   3 -19  100.94   22.94
   1  -3 -19  139.28   21.94
  -1  -3  19  126.15   21.37
  -1   3  19  139.75   25.85
  -1  -3  19  101.18   18.93
   1  -3 -19  100.90   22.48
  -1   3  19  114.12   20.11
  -1  -3  19  115.01   20.23
  -1  -3  19  116.96   20.53
  -1   3  19   99.41   24.45
   1  -3 -19  105.44   23.34
  -1  -9   4  171.03   25.82
   1  -9  -4  176.11   25.72
  -1  -9   4  179.32   25.92
   1   9  -4  162.92   24.90
  -1  -9   4  166.98   25.04
  -1  -9   4  154.27   22.97
   1  -9  -4  160.46   24.41
  -1   9   4  149.10   19.92
  -1  -9   4  184.22   22.45
   1  -9  -4  147.09   23.60
   1  -9  -4  169.48   21.93
   0  -3  19  294.20   29.01
   0  -3 -19  299.83   28.53
   0   3 -19  227.97   22.97
   0  -3  19  294.44   32.17
   0   3  19  314.23   31.67
   0   3  19  310.43   31.93
   0  -3 -19  243.70   24.20
   0   3 -19  365.54   33.27
   0   3 -19  360.51   35.32
   0  -3  19  303.33   29.53
   0   3 -19  306.53   28.58
   0  -3 -19  286.22   30.39
   0   3  19  291.92   31.67
   4  -6  -8   60.98   20.42
  -4  -6   8   73.22   16.97
  -4  -6   8   75.79   18.79
  -4  -6   8   87.26   19.66
  -4  -6   8   70.79   21.59
   4  -6  -8   65.13   17.31
  -4   6   8   85.94   22.81
   4  -6  -8   96.08   19.46
   4  -6  -8  101.32   26.07
   4   6  -8   98.17   25.08
   4   6  -8   66.57   19.70
   4   6  -8   67.33   19.11
   4  -6  -8   76.71   17.44
   4   6  -8   65.91   18.57
  -4   6   8   52.94   16.35
   2   2 -19   48.17   22.53
   2  -2 -19   18.73   16.47
   2  -2 -19   18.23   14.67
   2   2 -19   26.26   13.54
  -2  -2  19   17.51   14.44
  -2   2  19   25.70   16.68
  -2  -2  19   10.72   10.99
  -2  -2  19   11.44   12.68
   2  -2 -19   31.57   16.96
  -2   2  19   19.92   14.57
  -2  -2  19   32.66   18.88
  -2   2  19   30.01   23.00
  -2  -2  19   23.36   11.94
   2   2 -19   79.46   24.68
   2  -2 -19   37.11   17.24
  -5  -4  -4   23.50   16.48
   5  -4   4   38.31   19.53
   5  -4   4    7.22   15.60
   5  -4   4    2.07    9.79
   5   4   4   10.29   13.97
   5   4   4   16.66   13.51
   5  -4   4   18.95   15.35
  -5  -4  -4   30.00   15.02
  -5   4  -4    1.28    9.23
   1  -8 -10  183.15   26.00
  -1  -8  10  202.03   27.44
  -1   8  10  147.12   22.15
  -1  -8  10  189.48   27.33
   1  -8 -10  182.24   25.10
  -1  -8  10  185.75   29.90
   1  -8 -10  179.07   26.54
   1   8 -10  213.98   26.15
  -1   8  10  189.40   26.16
   1   8 -10  225.06   29.28
   1   8 -10  152.47   32.63
   1  -1 -20  363.67   33.97
  -1  -1  20  408.07   30.61
  -1   1  20  453.47   34.90
   1   1 -20  402.01   33.94
   1  -1 -20  361.29   35.51
  -1  -1  20  393.69   31.86
   1  -1 -20  470.64   40.98
  -1  -1  20  367.62   29.39
  -1   1  20  423.45   38.30
   1   1 -20  335.39   28.18
  -1  -1  20  438.34   34.96
  -1   1  20  398.66   35.28
   1   1 -20  397.40   32.79
  -1  -1  20  429.69   30.49
   1   1 -20  414.46   35.90
   1   2  19   99.33   22.42
  -1   2 -19   86.84   20.39
  -1  -2 -19  102.50   23.52
  -1   2 -19  145.73   28.62
   1   2  19   69.14   19.02
   1  -2  19   72.34   15.12
  -1   2 -19   95.90   20.97
   1   2  19   88.70   23.79
   1  -2  19   90.53   15.30
   1  -2  19   92.71   20.70
  -1  -2 -19   87.74   19.87
   1  -2  19  108.58   24.39
   3  -3  15  127.56   26.65
  -3   3 -15  151.48   25.79
  -3  -3 -15  120.77   22.46
   3  -3  15  112.38   23.48
   3  -3  15  129.46   22.28
   3   3  15  107.50   26.76
   3   3  15  169.01   25.46
   3  -3  15  116.43   18.89
   3   3  15  134.99   27.46
  -5  -2  11  206.96   33.70
   5   2 -11  186.66   31.56
   5   2 -11  153.31   27.14
   5  -2 -11  196.32   33.35
   5   2 -11  167.77   40.66
   5  -2 -11  134.29   21.71
   5   2 -11  198.88   28.69
  -5  -2  11  177.94   27.61
   5  -2 -11  208.27   28.87
  -5   2  11  123.27   26.06
   5  -2 -11  146.22   23.05
  -5   2  11  188.67   26.62
  -5  -2  11  117.73   23.81
   5   2 -11  157.71   23.00
   5  -2 -11  184.33   30.01
  -5   2  11  183.44   24.60
  -2  -8  -7 2057.25   56.92
   2  -8   7 2293.78   72.96
   2  -8   7 2227.81   74.15
   2  -8   7 2176.99   67.69
   2   8   7 2210.11   68.37
   2   8   7 2158.97   69.79
  -2   8  -7 2424.22   78.54
   2  -8   7 2291.67   73.93
   2   8   7 2138.39   59.70
   2  -8   7 2175.76   70.84
  -2  -8  -7 2308.65   70.60
   0  -1  20  100.98   19.20
   0   1 -20  138.99   20.50
   0  -1 -20   93.62   21.18
   0  -1 -20   92.01   18.43
   0   1 -20  123.53   23.16
   0   1 -20   98.24   23.32
   0  -1 -20  107.45   20.57
   0  -1  20  101.14   19.55
   0  -1  20  129.71   24.40
   0   1  20  119.99   29.75
   0  -1  20  121.52   20.16
   0   1  20  101.46   23.46
   0   1  20   89.94   20.18
   2  -7 -12  602.40   43.18
   2  -7 -12  586.41   40.62
  -2  -7  12  577.89   40.70
  -2   7  12  619.27   44.27
  -2  -7  12  532.70   39.28
   2   7 -12  510.37   38.44
   2  -7 -12  552.63   33.16
  -2  -7  12  514.26   36.37
   2   7 -12  533.41   35.20
   2  -7 -12  561.25   42.61
  -2  -7  12  515.33   38.30
  -2   7  12  523.91   38.31
   2   7 -12  603.54   41.45
   3   8  -1  165.10   41.07
   3   8  -1  159.32   33.44
   3  -8  -1  206.02   26.19
  -3   8   1  207.14   41.59
   3   8  -1  168.68   30.99
   3   8  -1  134.06   30.10
  -3  -8   1  254.41   29.46
   3   8  -1  162.91   40.28
  -3  -8   1  188.77   23.69
   3  -8  -1  183.44   26.05
   3  -8  -1  179.46   22.18
   3  -8  -1  144.73   27.26
   3   8  -1  186.58   43.79
  -5   0  12   95.73   21.94
   5   0 -12   92.71   26.20
   5   0 -12   68.80   19.83
   5   0 -12   78.06   19.43
   5   0 -12  102.50   26.60
  -5   0  12  120.63   24.36
  -5   0  12   95.82   22.00
   5   0 -12  133.50   27.37
   0  -5 -17 1111.23   45.34
   0  -5 -17 1281.57   53.35
   0  -5 -17 1177.45   54.51
   0   5 -17 1108.35   51.72
   0   5 -17 1159.93   53.34
   0  -5  17 1152.98   54.49
   0  -5  17 1242.09   56.64
   0   5 -17 1191.13   56.13
   0   5  17 1248.26   59.46
   0  -5  17 1312.60   56.82
   0   5  17 1161.15   53.45
   0  -5  17 1196.41   55.10
   0   5  17 1159.08   47.97
   3  -4  14  199.78   26.21
   3   4  14  215.86   31.27
   3   4  14  228.91   27.44
   3  -4  14  272.29   31.29
  -3  -4 -14  187.36   23.83
   3  -4  14  222.75   24.02
  -3   4 -14  273.47   34.67
   3   4  14  201.27   27.42
   3  -4  14  253.11   28.90
   3  -3 -17    7.03   14.76
  -3   3  17   -6.64   13.80
   3   3 -17   19.99   10.90
  -3   3  17   33.30   23.30
  -3  -3  17    8.62   10.87
   3   3 -17   18.44   16.32
   3  -3 -17   45.53   22.74
  -3   3  17   14.67   16.34
   3  -3 -17   20.02   12.26
  -3  -3  17   -3.31   13.54
  -3  -3  17   28.57   16.52
  -3  -3  17    0.28   11.51
   3  -3 -17  -11.04   11.37
   3   3 -17   35.35   21.60
  -3  -3  17   13.22   13.84
   3   3 -17   15.48   14.91
   3   8   0  150.15   35.24
  -3  -8   0  199.85   23.29
  -3  -8   0  169.43   22.90
   3   8   0  146.37   38.08
   3  -8   0  200.35   27.26
   3   8   0  133.99   30.92
   3  -8   0  169.55   23.16
   3   8   0  131.59   38.38
   3   8   0  122.70   28.27
   3  -8   0  158.79   19.40
   3  -8   0  171.03   26.87
  -3  -8   0  201.27   24.54
  -3   8   0  185.60   30.85
   3   8   0  155.96   30.75
   3  -8   0  190.87   27.27
   3   8  -2  432.65   94.38
  -3  -8   2  416.27   32.31
   3   8  -2  363.12   73.27
   3   8  -2  468.49   33.26
  -3  -8   2  440.33   31.28
   3   8  -2  351.26   75.83
  -3   8   2  420.24   69.40
   3  -8  -2  380.88   28.42
  -3  -8   2  438.10   31.88
   3  -8  -2  451.94   38.42
   3  -8  -2  469.77   38.53
   3   8  -2  368.65  105.85
   3  -8  -2  409.28   37.44
  -1  -5  17   32.47   13.96
   1  -5 -17   16.82   15.22
  -1   5  17   10.95   15.13
   1   5 -17   24.58   14.07
   1   5 -17   36.69   21.87
  -1  -5  17   18.98   14.05
   1  -5 -17   21.66   18.39
   1  -5 -17   27.77   19.02
  -1  -5  17   40.34   20.18
   1   5 -17   11.69   13.58
  -1   5  17    6.80   14.48
  -1  -5  17   31.52   22.60
   4   0 -16  327.49   33.65
   4   0 -16  250.38   57.06
  -4   0  16  382.35   35.32
   4   0 -16  319.44   29.75
   4   0 -16  385.50   35.90
   4   0 -16  345.87   37.33
  -4   0  16  323.06   29.43
  -4   0  16  370.30   35.03
  -3  -4  16    7.95   18.60
   3   4 -16    8.80    9.50
  -3  -4  16   24.90   15.67
  -3   4  16    0.11   14.91
   3  -4 -16    7.78   10.73
   3   4 -16    3.34   13.45
  -3   4  16   15.25   20.93
   3   4 -16   10.28   15.17
   3  -4 -16   13.35   14.25
   3   4 -16    4.86   15.94
  -3  -4  16   22.23   18.37
   3  -4 -16   13.75   11.64
   3  -4 -16   19.93   16.54
  -3  -4  16   -2.68   12.06
   1  -9   4  164.20   25.53
   1  -9   4  152.48   22.44
  -1  -9  -4  157.70   22.11
   1  -9   4  162.53   25.27
   1  -9   4  109.52   18.39
   1   9   4  150.29   23.36
  -1  -9  -4  137.03   18.38
  -1   9  -4  151.99   25.32
  -1  -9  -4  173.65   28.38
   1  -9   4  174.92   27.84
  -1  -9  -4  133.44   21.05
   5  -2   8  168.08   22.73
   5   2   8  224.58   28.48
  -5   2  -8  180.25   21.37
   5  -2   8  246.39   29.66
   5  -2   8  233.74   25.78
   5   2   8  235.15   29.47
  -5  -2  -8  194.78   26.99
   5  -2   8  228.56   31.04
  -5  -2  -8  187.61   26.54
  -5   2  -8  197.54   21.73
   5   2   8  199.73   25.78
   2  -5  15  534.73   35.96
  -2   5 -15  521.37   34.45
  -2   5 -15  420.44   80.50
   2  -5  15  583.76   40.27
   2   5  15  509.53   38.18
   2  -5  15  731.43   46.96
  -2  -5 -15  577.79   41.04
   2   5  15  494.57   38.35
   2  -5  15  542.80   36.47
  -2   5 -15  581.83   40.17
  -4  -3 -12   45.97   19.26
   4  -3  12   95.89   23.28
   4   3  12   52.95   20.48
  -4  -3 -12   85.57   17.38
   4   3  12   87.39   21.74
   4  -3  12   76.35   20.99
   4   3  12   56.38   17.87
  -4   3 -12  101.82   20.87
   4  -3  12   86.52   17.16
   4  -3  12   38.16   16.14
   3   8   1  196.90   36.56
   3  -8   1  257.10   29.60
   3  -8   1  337.95   35.76
   3   8   1  215.33   50.12
  -3  -8  -1  286.48   27.05
   3  -8   1  237.55   29.11
   3   8   1  192.88   59.83
   3   8   1  217.75   43.11
   3  -8   1  298.30   27.94
   3   8   1  219.57   49.36
  -3   8  -1  304.24   44.81
   3   8   1  219.92   60.79
   3  -8   1  296.89   27.09
   3   8   1  285.09   60.19
  -3  -8  -1  287.12   27.27
   3  -8  -3  863.99   46.72
   3   8  -3  850.77   41.25
  -3  -8   3  829.64   43.64
  -3  -8   3  819.52   39.42
   3   8  -3  651.40  136.72
   3  -8  -3  899.03   50.07
   3   8  -3  819.76  153.94
   3   8  -3  630.28  131.95
  -3  -8   3  867.59   45.30
  -3  -8   3  823.04   41.65
   3  -8  -3  851.61   40.89
   3  -8  -3  864.83   46.05
   3  -8  -3  855.83   46.19
   5   3 -10  274.17   31.97
   5  -3 -10  237.58   31.22
  -5   3  10  218.40   28.84
   5  -3 -10  199.90   25.17
  -5   3  10  230.98   26.81
   5  -3 -10  226.63   25.97
   5   3 -10  274.61   33.11
   5  -3 -10  231.06   33.50
   5   3 -10  255.71   67.88
   5   3 -10  216.77   25.73
  -5  -3  10  258.86   32.91
   5  -3 -10  265.57   28.67
  -5  -3  10  246.66   30.13
   5   3 -10  214.13   30.35
  -5  -3  10  248.47   29.59
   5   1 -12  254.36   28.74
   5  -1 -12  260.85   28.61
  -5   1  12  252.91   29.09
   5  -1 -12  257.76   26.70
   5   1 -12  225.45   29.20
   5   1 -12  269.54   29.87
  -5  -1  12  204.88   28.22
  -5   1  12  244.26   30.22
   5   1 -12  229.74   27.04
   5  -1 -12  241.29   31.48
   5   1 -12  251.09   31.55
  -5  -1  12  244.90   30.24
   5  -1 -12  257.68   34.36
  -5  -1  12  224.13   26.14
  -5   1  12  227.58   24.59
   5  -1 -12  268.63   32.29
   5   0   9  995.42   49.14
  -5   0  -9 1027.30   48.46
   5   0   9 1019.45   52.49
   5   0   9  957.07   52.13
  -5   0  -9  938.97   44.33
   1   9  -5  132.99   23.25
   1  -9  -5  121.82   23.83
  -1  -9   5  111.32   21.65
  -1  -9   5  114.82   22.62
   1  -9  -5   91.54   18.42
  -1   9   5   94.22   19.99
   1  -9  -5  120.69   22.66
  -1  -9   5  108.35   23.75
   1  -9  -5   94.78   22.58
  -1  -9   5  115.01   27.03
  -1  -9   5  108.86   20.92
   4  -6   6  311.67   34.56
   4   6   6  288.54   30.36
   4  -6   6  303.02   29.29
   4  -6   6  300.31   35.38
  -4   6  -6  258.82   26.46
   4  -6   6  268.16   27.74
   4   6   6  292.73   49.83
   4  -6   6  311.38   29.50
  -4  -6  -6  315.86   32.38
   4   6   6  271.56   25.68
   4  -1 -16   14.04   18.49
  -4   1  16   26.53   21.70
   4   1 -16    2.54   12.33
  -4  -1  16   32.00   16.29
  -4  -1  16   19.99   15.88
  -4   1  16   12.68   14.45
   4  -1 -16   11.54   11.01
   4   1 -16   37.09   23.24
   4  -1 -16    5.92   16.41
   4  -1 -16   15.07   15.70
   4   1 -16   -7.38   14.94
   4   1 -16   21.17   19.15
  -4  -1  16   42.90   21.43
  -4   1  16   11.82   12.81
   4  -1 -16   18.77    9.47
   2  -7  11  150.81   27.18
  -2  -7 -11  130.35   22.63
   2   7  11  129.87   27.22
   2  -7  11  105.24   22.90
  -2   7 -11  141.04   28.89
  -2   7 -11  106.97   27.36
   2   7  11  101.58   21.58
   2  -7  11   60.93   16.56
   2  -7  11  103.81   27.96
   2   7  11  135.60   26.12
   5   4  -8  217.00   31.64
   5   4  -8  208.31   28.16
  -5  -4   8  226.44   31.46
  -5   4   8  200.33   30.70
   5  -4  -8  181.75   20.83
  -5  -4   8  186.39   23.73
   5   4  -8  174.33   21.74
   5  -4  -8  273.63   32.25
   5  -4  -8  188.12   29.74
   5   4  -8  216.04   25.34
   5  -4  -8  209.62   28.25
  -5  -4   8  223.02   30.29
   5  -4  -8  192.08   24.32
   5   4  -8  189.94   45.19
  -5   4   8  190.54   24.28
  -4   5  -9 1080.87   48.86
   4  -5   9 1171.44   53.46
   4   5   9 1126.26   47.15
   4   5   9 1103.66   55.48
   4  -5   9 1088.95   44.35
   4  -5   9 1142.72   52.76
   4   5   9 1125.53   96.92
  -4  -5  -9 1190.16   56.43
   4  -5   9 1111.23   51.25
   4  -2  13   58.04   15.57
   4  -2  13   93.39   25.95
  -4   2 -13   57.66   19.18
  -4  -2 -13    5.20   11.69
   4   2  13   12.58   11.91
   4   2  13   65.48   17.04
   4  -2  13   49.25   19.41
   4   2  13   60.26   20.50
   4   2  13   39.95   20.97
   0  -9   6  188.18   25.10
   0  -9   6  212.58   28.10
   0  -9  -6  207.18   29.17
   0  -9   6  214.15   26.31
   0   9   6  209.44   24.26
   0  -9  -6  204.87   23.90
   0   9  -6  232.01   30.91
   0  -9   6  208.88   27.45
   0  -9  -6  190.71   28.14
   0  -9   6  178.38   23.08
   0  -9  -6  167.15   21.04
   0   9   6  171.49   20.86
   5  -3   7  -14.13   13.85
   5   3   7   11.53   11.82
  -5   3  -7   18.40   14.25
  -5  -3  -7    9.65   18.58
   5  -3   7   53.99   19.77
   5   3   7   27.68   15.51
   5  -3   7   22.78   15.99
   5  -3   7   13.28   12.02
   5   3   7   35.56   16.54
  -5  -3  -7   -2.23   18.11
   3   2  16  704.25   41.71
  -3   2 -16  726.40   43.58
   3  -2  16  707.69   41.93
   3   2  16  692.58   36.47
   3   2  16  664.67   42.05
   3  -2  16  718.54   42.80
  -3  -2 -16  767.65   45.20
   3   2  16  753.90   43.50
   3  -2  16  733.20   42.16
   2   2  18  776.21   46.44
  -2  -2 -18  804.12   46.52
   2  -2  18  789.81   44.29
   2  -2  18  843.86   41.99
  -2   2 -18  838.21   49.18
  -2   2 -18  786.50   38.76
   2  -2  18  830.93   48.30
   2   2  18  849.99   46.08
   5  -5  -2  887.67   49.50
   5   5  -2  869.96   46.92
  -5   5   2  930.13   45.02
  -5  -5   2  844.81   46.12
  -5  -5   2  896.12   48.96
   5  -5  -2  840.44   44.18
   5   5  -2  842.19   42.88
   5  -5  -2  840.18   46.72
   5   5  -2  807.90   51.03
  -5  -5   2  913.85   48.62
   5  -5  -2  826.73   42.02
   5  -5  -2  823.65   40.46
   3   8   2  -15.28    9.75
   3  -8   2   -3.33   10.92
   3  -8   2   27.67   14.27
   3  -8   2   19.39   15.59
   3   8   2    7.08   10.88
   3   8   2   19.00    9.83
  -3  -8  -2   21.53   15.28
   3   8   2    5.33    8.56
  -3   8  -2   40.95   16.77
   3  -8   2  -19.81   11.60
   3  -8   2   18.69   18.03
   3   8   2    5.38    5.30
   5  -5  -1    3.82   11.02
   5   5  -1    5.18   10.78
   5   5  -1   -1.76   11.32
   5   5  -1    0.75   13.26
   5  -5  -1   14.79   15.69
  -5   5   1   15.57   11.71
   5  -5  -1    3.07   11.85
  -5  -5   1    7.23   14.70
  -5  -5   1    7.17   15.49
   5  -5  -1   29.05   19.98
   5  -5  -1   25.42   13.68
   5   5  -1   -1.30   13.94
   3   8  -4   82.35   25.58
   3  -8  -4  131.47   28.81
  -3  -8   4  114.61   25.30
   3  -8  -4  103.56   23.10
  -3   8   4   97.65   17.27
   3   8  -4   92.68   19.51
   3  -8  -4  128.88   28.74
   3   8  -4   93.21   26.58
  -3  -8   4   97.21   20.40
  -3  -8   4  107.57   20.29
  -3  -8   4   64.43   15.16
   3  -8  -4   96.19   18.98
   3  -8  -4   94.09   21.67
   3   8  -4   91.13   16.95
  -3  -8   4   85.68   19.43
  -1   6 -15  231.37   27.96
  -1  -6 -15  259.32   31.03
   1  -6  15  221.85   29.16
  -1   6 -15  219.98   60.95
   1   6  15  277.10   26.19
   1  -6  15  179.64   23.96
  -1  -6 -15  193.88   22.96
   1   6  15  257.72   29.79
   1  -6  15  237.06   29.94
   1  -6  15  260.49   28.52
  -1   6 -15  248.27   28.89
   1   6  15  261.47   30.92
   5   1   9  302.50   31.28
   5  -1   9  357.59   35.53
  -5  -1  -9  349.59   35.68
  -5   1  -9  323.85   28.06
  -5   1  -9  344.88   30.26
   5  -1   9  306.55   33.12
   5   1   9  312.14   29.51
   5   1   9  368.95   34.26
  -5  -1  -9  319.63   32.17
   5  -1   9  344.60   33.39
   2  -8  -9  623.41   36.96
   2   8  -9  620.27   41.16
  -2  -8   9  638.91   41.45
   2   8  -9  623.12   39.16
   2   8  -9  576.25   88.93
   2  -8  -9  619.14   41.87
  -2  -8   9  751.50   49.97
  -2   8   9  618.79   43.75
  -2  -8   9  565.18   36.99
   2  -8  -9  689.01   47.97
   2  -8  -9  633.30   43.94
  -2   8   9  610.60   36.00
  -2  -8   9  601.54   40.73
  -5  -4  -5    7.29   13.30
   5   4   5   46.07   19.95
   5  -4   5   16.47   13.92
   5  -4   5   28.01   16.73
  -5   4  -5    2.74    8.83
   5   4   5   13.84   12.15
   5   4   5   40.26   21.37
   5  -4   5   15.69   14.70
  -5  -4  -5   64.16   22.17
   5   5  -3  726.81   41.60
   5   5  -3  812.25   49.19
  -5   5   3  792.91   44.41
   5  -5  -3  761.89   48.44
   5  -5  -3  759.91   40.53
  -5  -5   3  829.62   48.91
  -5  -5   3  763.21   45.88
   5  -5  -3  730.09   42.71
  -5  -5   3  765.81   45.27
   5  -5  -3  687.50   41.76
   5  -5  -3  688.66   38.47
  -5   5   3  727.21   37.45
   5   5  -3  754.30   44.63
  -3  -7  -8   67.81   17.03
   3  -7   8   47.37   20.49
  -3   7  -8   77.88   20.89
   3  -7   8   87.70   23.58
   3  -7   8   45.58   17.30
   3   7   8   78.76   24.41
   3  -7   8   74.34   22.18
   3  -7   8   78.14   24.64
   3   7   8   80.72   18.89
   3   7   8  102.21   22.37
   3   2 -18  289.24   25.43
   3  -2 -18  305.63   27.02
  -3   2  18  292.66   27.99
   3   2 -18  301.98   35.59
  -3  -2  18  282.42   29.74
   3   2 -18  273.78   31.13
  -3   2  18  235.16   29.92
   3  -2 -18  301.62   27.71
   3  -2 -18  300.77   35.19
   3   2 -18  259.02   31.21
  -3   2  18  294.13   31.79
  -3  -2  18  283.50   28.61
   3  -2 -18  251.31   31.58
  -3  -2  18  269.05   30.18
  -3  -2  18  328.46   32.14
   4   4  11 1229.41   83.98
   4  -4  11 1223.52   57.54
  -4   4 -11 1160.88   50.61
   4  -4  11 1131.14   46.06
  -4  -4 -11 1097.85   45.89
   4   4  11 1169.37   47.85
   4  -4  11 1177.64   53.80
  -4  -4 -11 1191.75   56.41
   4   4  11 1185.84   55.65
   4  -4  11 1184.63   48.74
   5  -5   0   15.64   10.98
   5   5   0   29.16   18.63
   5  -5   0    2.63   13.55
  -5  -5   0    4.68   14.55
   5  -5   0   49.43   16.38
   5   5   0   -0.72   10.73
   5   5   0    4.01   13.73
   5  -5   0   14.08   16.35
  -5   5   0   30.42   16.45
  -5  -5   0  -10.51   13.45
   5   5   0   36.96   15.70
   5  -5   0   32.82   14.62
  -1   8 -10   76.77   21.63
  -1  -8 -10   67.86   21.00
   1  -8  10   50.11   21.36
  -1  -8 -10   45.49   14.98
   1  -8  10   38.15   22.27
  -1   8 -10   58.98   20.01
  -1  -8 -10   22.92   11.52
   1  -8  10    6.69   14.82
   1   8  10   42.92   16.13
   1  -8  10   58.54   19.81
   3  -7 -10  408.30   32.83
   3   7 -10  443.75   35.44
   3  -7 -10  381.93   33.29
  -3  -7  10  420.73   35.89
  -3   7  10  394.57   30.33
   3  -7 -10  417.27   35.88
  -3  -7  10  438.23   35.21
  -3   7  10  441.98   36.01
  -3  -7  10  419.80   42.55
   3   7 -10  360.22  111.67
  -3  -7  10  386.70   29.25
   3  -7 -10  396.03   36.46
   3   7 -10  364.08   27.99
   3   7 -10  370.10   33.26
  -4  -6   9   58.47   21.76
   4  -6  -9   49.05   15.86
  -4   6   9   75.70   19.74
   4   6  -9  102.32   21.78
  -4   6   9   55.56   18.76
   4  -6  -9   42.55   15.73
  -4  -6   9   74.55   19.69
   4   6  -9   44.51   21.53
  -4  -6   9   45.78   18.02
   4  -6  -9   50.62   19.98
  -4  -6   9   32.55   16.17
   4   6  -9   59.14   28.06
   4   6  -9   56.67   16.58
   4  -6  -9   74.15   24.48
   1   9   5  356.82   28.12
   1  -9   5  357.62   30.01
  -1  -9  -5  384.33   36.63
   1  -9   5  367.18   31.15
  -1  -9  -5  358.83   28.10
   1  -9   5  427.60   35.56
   1  -9   5  344.99   32.71
  -1   9  -5  431.23   36.45
  -1  -9  -5  333.98   30.51
   1  -9   5  394.12   34.32
  -1  -7 -13  179.68   24.39
  -1   7 -13  171.29   37.43
   1   7  13  188.29   31.67
   1  -7  13  185.57   30.00
   1  -7  13  148.43   19.84
   1   7  13  159.24   19.79
   1  -7  13  179.45   26.51
   1  -7  13  215.76   28.70
   1  -7  13  171.26   26.33
  -1   7 -13  188.87   30.44
  -1  -7 -13  140.05   24.58
   1   2 -20  340.61   33.67
   1   2 -20  330.44   37.65
   1  -2 -20  353.58   36.70
  -1  -2  20  302.49   27.50
   1  -2 -20  338.99   31.69
  -1   2  20  327.52   30.65
   1  -2 -20  345.94   33.59
   1   2 -20  331.74   30.03
  -1  -2  20  299.05   26.98
  -1  -2  20  424.62   35.76
  -1   2  20  391.09   34.02
  -1  -2  20  320.13   29.44
   1   2 -20  384.66   34.73
  -1   2  20  373.18   35.05
   3  -6  11  209.44   25.68
   3  -6  11  254.43   30.14
  -3   6 -11  260.77   33.36
   3   6  11  244.29   29.78
   3   6  11  273.14   51.67
   3  -6  11  247.87   28.97
  -3   6 -11  213.15   37.10
   3   6  11  291.48   30.64
   3  -6  11  244.95   24.90
  -3  -6 -11  260.83   30.35
   3  -5  13   24.79   16.79
   3  -5  13    9.81   13.56
  -3   5 -13   16.63   10.57
   3  -5  13   20.74   15.38
  -3  -5 -13   40.87   14.36
   3   5  13   46.72   15.74
   3   5  13   47.20   20.59
   3  -5  13   57.50   24.11
  -3   5 -13   12.34   15.83
   3   5  13   40.10   18.76
  -4  -7   1   48.67   20.90
   4  -7  -1   43.68   14.75
   4   7  -1   36.33   16.37
   4  -7  -1   35.28   14.82
   4  -7  -1   69.13   18.21
  -4  -7   1  110.91   28.28
   4  -7  -1   90.22   26.73
   4  -7  -1   65.88   20.73
   4   7  -1   51.55   16.99
  -4   7   1   68.27   20.58
   4   7  -1   75.52   18.07
   0  -2 -20   89.72   23.80
   0  -2  20   54.65   16.78
   0   2 -20   21.89    6.36
   0  -2  20   66.73   20.89
   0   2 -20   51.66   22.52
   0   2 -20   38.53   15.81
   0  -2  20   37.49   12.60
   0   2 -20   67.79   18.21
   0  -2 -20   52.06   18.31
   0   2  20   43.62   17.79
   0   2  20   64.06   18.46
  -4   7   2   54.34   15.81
   4   7  -2   34.14   11.70
   4   7  -2   57.78   21.46
  -4   7   2   41.42   13.63
   4  -7  -2   74.37   21.31
   4   7  -2   29.91    9.16
   4  -7  -2   22.77   14.23
  -4  -7   2   55.81   21.58
  -4  -7   2   57.57   18.62
   4  -7  -2   35.11   18.28
  -4  -7   2   51.32   21.94
   4  -7  -2   45.64   13.91
   0  -8  11   86.71   23.39
   0   8 -11   87.66   14.69
   0  -8  11  137.50   28.53
   0  -8  11   96.16   23.40
   0  -8 -11  150.91   22.61
   0  -8 -11   90.09   19.39
   0   8  11   63.74   20.65
   0   8  11   80.01   18.62
   0  -8  11  102.74   23.33
   0   8 -11   68.57   24.49
   0  -8 -11   82.04   22.69
  -5  -5   4 2227.82   72.74
   5  -5  -4 2009.44   60.34
  -5   5   4 2087.26   60.75
   5   5  -4 2088.65   73.59
  -5   5   4 2187.10   70.20
   5  -5  -4 2380.62   77.87
   5  -5  -4 2228.41   70.16
  -5  -5   4 2277.73   74.86
   5   5  -4 2168.26   68.66
   5   5  -4 2279.34   77.71
  -5  -5   4 2218.84   73.05
   5  -5  -4 2067.48   67.94
   5  -5  -4 2133.30   65.14
  -3  -6  13  174.14   23.76
   3  -6 -13  236.10   26.51
  -3  -6  13  253.46   30.85
   3   6 -13  232.87   62.15
   3  -6 -13  235.06   30.22
   3  -6 -13  236.47   29.43
  -3   6  13  271.95   36.08
   3  -6 -13  256.00   26.64
   3   6 -13  184.82   21.18
  -3  -6  13  214.15   22.04
  -3   6  13  262.89   30.33
  -3  -6  13  240.57   31.23
   3   6 -13  242.06   30.02
  -4  -3  15  614.17   40.68
  -4   3  15  651.65   45.32
   4   3 -15  649.87   41.66
   4  -3 -15  600.37   40.15
   4  -3 -15  621.34   42.79
  -4   3  15  602.95   41.90
   4   3 -15  698.35   46.96
  -4  -3  15  677.89   43.79
  -4  -3  15  652.04   39.20
  -4  -3  15  603.72   41.19
   4  -3 -15  615.09   43.43
  -4   3  15  633.94   35.70
   4   3 -15  586.03  115.84
   4   3 -15  657.85   45.50
   4  -7   0   47.83   15.25
   4  -7   0   56.24   19.71
   4  -7   0   65.86   20.61
   4   7   0   42.01    9.46
   4  -7   0   56.19   17.93
   4   7   0   74.88   20.62
  -4  -7   0   95.14   23.49
   4  -7   0   61.47   18.91
   4   7   0   70.39   20.35
   4   7   0   90.32   18.84
  -4   7   0   63.45   18.16
  -4  -7   0   57.57   16.17
   3   5 -15   20.00   15.02
   3   5 -15    2.37   13.83
  -3   5  15    6.89   13.61
  -3  -5  15   -4.91   14.15
   3  -5 -15   26.04   12.11
  -3  -5  15    7.33   11.12
   3   5 -15    2.35    8.80
  -3   5  15    6.16   16.07
   3  -5 -15   26.37   17.16
  -3  -5  15   -1.82   14.84
   3  -5 -15   19.81   14.20
   3   5 -15   22.63   18.97
  -3  -5  15   20.35   15.45
   3  -5 -15   16.26   14.84
   2   8   8 1114.22   51.52
   2  -8   8  992.51   51.14
   2  -8   8 1079.67   54.31
   2  -8   8 1034.54   51.55
   2  -8   8 1036.27   51.13
  -2   8  -8 1027.21   52.08
   2   8   8 1033.55   43.79
   2   8   8  972.61   48.38
   2  -8   8 1099.50   53.82
  -2  -8  -8 1026.29   48.50
   5  -5   1   47.93   16.12
  -5   5  -1   36.75   14.02
   5  -5   1   19.05   15.25
   5  -5   1   26.43   11.85
  -5  -5  -1   25.85   19.94
   5   5   1   45.66   13.65
   5   5   1   16.61    9.83
  -5  -5  -1   39.77   21.58
   5   5   1  -12.92   13.70
   5  -5   1   41.17   17.73
   5   5   1   43.74   17.75
   3  -8   3  297.43   33.85
   3   8   3  306.89   29.25
   3  -8   3  363.17   33.37
   3   8   3  260.55   62.43
  -3   8  -3  341.26   36.63
  -3  -8  -3  342.18   28.31
   3  -8   3  339.27   28.18
   3  -8   3  323.00   30.67
   3  -8   3  299.79   31.19
   3   8   3  300.82   81.97
  -2  -6  15  730.09   47.42
   2  -6 -15  740.30   44.80
   2   6 -15  829.16   46.18
   2  -6 -15  715.97   43.00
  -2  -6  15  769.43   45.54
  -2   6  15  798.29   45.54
   2   6 -15  738.39   40.63
   2  -6 -15  768.46   45.17
  -2  -6  15  797.31   47.72
  -2   6  15  792.20   46.85
   2   6 -15  835.83   49.35
   2   6 -15  819.48   51.65
   3  -8  -5  564.77   40.83
  -3  -8   5  467.12   31.00
   3   8  -5  492.33   34.04
   3  -8  -5  515.19   37.52
  -3  -8   5  401.42   30.86
  -3  -8   5  448.73   35.63
  -3  -8   5  465.72   35.48
  -3   8   5  432.87   30.57
   3  -8  -5  524.09   39.15
   3   8  -5  467.18  123.15
   3   8  -5  445.35  104.19
   3  -8  -5  477.30   36.85
  -3  -8   5  454.88   33.40
   3   8  -5  507.04   32.08
   4   5 -12  119.44   24.72
  -4  -5  12  115.48   20.72
   4  -5 -12  109.28   20.44
   4  -5 -12  108.13   23.13
  -4  -5  12  153.71   25.93
   4   5 -12  124.11   23.50
  -4  -5  12   93.61   22.53
   4   5 -12  106.05   33.04
   4   5 -12  169.80   26.66
   4  -5 -12  162.50   24.76
   4  -5 -12  103.36   27.39
  -4   5  12  109.32   22.12
  -4   5  12  123.46   23.37
  -4  -5  12   99.93   19.15
  -1  -9   6  605.64   37.57
   1   9  -6  578.60   40.09
   1  -9  -6  616.68   41.62
  -1   9   6  666.26   38.30
  -1  -9   6  669.58   44.55
  -1  -9   6  619.14   39.12
   1  -9  -6  637.16   42.70
  -1  -9   6  669.32   42.36
   1  -9  -6  585.55   34.61
  -1  -9   6  624.05   41.13
   1  -9  -6  657.89   42.17
   4   7  -3  117.56   26.71
  -4   7   3  103.39   25.66
   4  -7  -3  106.12   26.07
   4   7  -3  134.66   21.37
  -4  -7   3   88.90   20.28
   4  -7  -3  102.94   21.26
   4  -7  -3  116.37   20.60
   4   7  -3  154.23   22.51
  -4  -7   3  157.27   25.51
  -4   7   3   86.38   18.99
  -4  -7   3  152.70   22.97
   4  -7  -3  120.26   23.14
   4   7  -3  154.77   37.25
   1   4  18  136.18   26.11
  -1   4 -18  141.05   27.42
   1  -4  18  161.19   26.15
   1  -4  18  141.40   24.28
  -1  -4 -18  194.11   27.77
   1  -4  18  157.74   26.19
  -1  -4 -18  128.80   21.71
   1  -4  18  135.60   27.61
  -1   4 -18  137.02   23.42
   1   4  18  128.70   24.46
   1   4  18  102.26   24.79
  -1   4 -18  135.13   22.20
  -2   0  20    8.24   10.15
  -2   0  20  -11.96   15.13
   2   0 -20   34.86   24.04
   2   0 -20    9.67   10.88
   2   0 -20    1.41   16.89
  -2   0  20   11.48   16.00
  -2   0  20    3.07   12.56
   2  -4 -18  326.33   33.42
   2  -4 -18  261.29   29.18
  -2  -4  18  299.58   29.97
   2  -4 -18  301.58   30.63
  -2  -4  18  289.40   31.67
   2   4 -18  243.00   26.77
   2   4 -18  246.90   29.92
  -2   4  18  299.69   36.77
   2   4 -18  299.88   32.05
   2   4 -18  319.18   33.11
  -2  -4  18  332.43   34.06
  -2  -4  18  265.74   26.36
  -2   4  18  303.84   27.11
  -2   4  18  275.90   31.10
   0   6  16  163.53   20.01
   0   6 -16  217.86   27.16
   0  -6  16  161.78   23.81
   0   6 -16  245.41   35.45
   0  -6  16  184.38   26.37
   0  -6 -16  172.04   21.86
   0  -6  16  213.62   31.13
   0   6  16  255.25   30.34
   0  -6 -16  234.10   30.09
   0  -6 -16  207.46   25.72
   0   6  16  147.45   26.14
   0  -6  16  187.75   29.40
   0   6 -16  157.63   26.49
   4  -7   1  109.41   19.15
   4  -7   1   92.45   20.06
   4  -7   1   88.79   21.98
   4   7   1   85.85   18.59
   4  -7   1   96.98   20.20
  -4   7  -1  117.50   21.55
   4  -7   1   79.82   20.86
   4   7   1   77.13   17.17
  -4  -7  -1  124.98   24.02
   4   7   1   70.86   17.52
  -4  -7  -1  114.10   24.83
   5  -2 -12  295.38   33.22
   5   2 -12  224.15   44.14
  -5   2  12  279.36   31.97
   5  -2 -12  260.68   31.63
   5   2 -12  246.82   30.85
   5   2 -12  224.43   28.29
  -5  -2  12  234.77   31.21
   5  -2 -12  204.53   33.19
   5   2 -12  240.20   30.66
  -5   2  12  188.62   21.83
  -5   2  12  273.48   38.31
   5  -2 -12  237.91   24.87
  -5  -2  12  246.43   29.84
   5  -2 -12  208.80   25.92
  -5  -2  12  211.89   30.35
   5   2 -12  223.23   26.00
  -1  -8  11    9.44   14.01
  -1  -8  11   18.48   11.52
   1   8 -11   20.08    6.47
   1  -8 -11    1.57   13.69
   1   8 -11   28.72   14.56
   1  -8 -11    9.02   12.85
  -1  -8  11   27.04   16.68
  -1  -8  11  -11.82   14.83
  -1   8  11   22.18   20.88
  -1   8  11   25.52   13.62
   1   8 -11   31.84   11.11
   4   0  14  243.55   25.62
   4   0  14  260.33   27.71
   4   0  14  301.24   32.30
  -4   0 -14  235.16   25.21
   4   0  14  204.33   44.74
   4   0  14  262.60   29.81
   0  -7  14  285.99   34.05
   0   7 -14  317.35   35.56
   0   7  14  296.28   31.43
   0  -7  14  283.99   32.03
   0  -7 -14  286.88   28.85
   0   7 -14  313.23   32.08
   0  -7  14  322.86   30.05
   0  -7 -14  308.90   26.25
   0   7 -14  306.49   47.11
   0  -7  14  294.89   31.88
   0  -7 -14  341.14   32.90
   0   7  14  336.77   33.76
  -1   0 -20   56.41   17.70
   1   0  20  101.57   24.72
  -1   0 -20   64.20   18.48
   1   0  20   38.35   14.69
   1   0  20   39.16   13.65
   1   0  20   67.44   18.03
  -2  -9   1  178.85   23.45
  -2  -9   1  182.62   23.34
   2  -9  -1  211.40   27.25
   2  -9  -1  174.92   25.84
   2  -9  -1  227.11   29.76
  -2  -9   1  169.69   21.94
   2  -9  -1  184.52   22.39
  -2  -9   1  223.75   27.90
  -2  -9   1  186.42   24.13
  -2   9   1  212.54   28.54
   2   9  -1  213.59   53.08
   5   5  -5   65.90   21.38
  -5  -5   5  102.69   25.48
   5  -5  -5  120.90   24.47
   5  -5  -5  145.47   24.59
   5  -5  -5   69.61   19.06
  -5   5   5   54.19   20.35
   5   5  -5   91.33   28.65
  -5   5   5   90.49   19.57
   5   5  -5   92.89   24.73
  -5  -5   5   98.70   22.95
   5   5  -5  107.38   25.26
   5  -5  -5   93.18   24.38
  -5  -5   5   94.59   22.83
   4   2 -16  242.60   32.11
  -4  -2  16  268.44   28.56
   4   2 -16  249.26   31.93
   4  -2 -16  234.24   30.38
  -4   2  16  182.43   24.31
  -4  -2  16  230.16   40.60
   4   2 -16  257.55   31.35
   4  -2 -16  241.46   28.40
   4   2 -16  312.35   42.34
   4  -2 -16  233.61   35.00
  -4  -2  16  198.12   29.87
  -4   2  16  224.45   28.79
  -4   2  16  186.15   26.36
  -4  -2  16  250.16   35.06
   4  -2 -16  214.75   24.04
  -2  -9   0  428.61   32.62
   2  -9   0  408.95   34.75
  -2  -9   0  394.06   31.41
  -2  -9   0  387.34   29.70
   2  -9   0  479.97   37.67
   2  -9   0  404.99   30.03
  -2  -9   0  404.62   29.68
   2  -9   0  403.18   36.88
  -2  -9   0  398.52   30.27
   2   9   0  403.13   28.97
  -2  -9   0  388.40   32.38
  -2   9   0  372.44   70.65
   2   9   0  403.84   29.56
  -1   6  16   16.84   18.78
   1  -6 -16   17.12   13.37
  -1  -6  16   10.14   15.00
  -1  -6  16    6.16   14.32
   1   6 -16   -1.82   13.33
   1  -6 -16   63.01   23.86
  -1   6  16    0.85   13.22
  -1  -6  16   31.01   17.31
   1  -6 -16   26.88   17.12
   1   6 -16    0.78   12.56
   1   6 -16    7.29   13.90
  -1  -6  16   57.95   25.69
   4  -7  -4   57.01   21.28
   4  -7  -4   43.77   18.56
  -4  -7   4   54.67   14.73
  -4   7   4   60.73   15.80
   4  -7  -4   45.14   24.67
   4   7  -4   61.07   18.89
   4   7  -4   70.10   27.44
  -4   7   4   61.05   13.70
   4   7  -4   63.86   13.05
   4  -7  -4   80.48   17.07
  -4  -7   4   75.70   19.65
   4   7  -4   71.21   19.87
   0   9   7  149.94   22.07
   0   9   7  159.25   20.92
   0   9  -7  181.85   30.05
   0  -9  -7  150.32   26.10
   0  -9   7  140.08   20.63
   0  -9   7  142.16   25.03
   0  -9   7  156.22   25.28
   0  -9   7  163.95   26.62
   0  -9  -7  175.01   23.51
   0  -9  -7  168.23   24.74
   0  -9   7  189.92   27.01
  -4  -4  14   16.66   11.88
   4   4 -14   42.82   12.42
  -4  -4  14   -4.14   18.40
   4   4 -14   13.38   15.16
   4   4 -14    3.98   20.46
  -4   4  14   -9.26   15.63
  -4  -4  14    2.76   13.27
   4  -4 -14   47.87   20.92
  -4   4  14   -1.25   13.08
   4  -4 -14   10.68   17.76
   4  -4 -14   -9.40   12.35
  -4  -4  14   38.43   16.08
   4   4 -14   16.50   16.35
   2  -3 -19  470.01   36.18
  -2   3  19  490.51   39.02
   2   3 -19  475.97   36.69
  -2  -3  19  421.08   35.68
  -2   3  19  504.86   39.77
   2   3 -19  480.25   41.96
  -2  -3  19  430.97   38.51
   2   3 -19  529.13   39.05
  -2   3  19  425.30   31.03
   2  -3 -19  499.36   43.24
  -2  -3  19  425.86   32.38
   2   3 -19  528.54   40.71
   2  -3 -19  467.72   37.30
  -2  -3  19  465.12   36.91
   5   4  -9  521.45   38.14
   5  -4  -9  475.37   38.76
  -5   4   9  506.87   40.74
   5  -4  -9  537.82   38.39
   5   4  -9  485.46  112.89
   5  -4  -9  571.48   43.17
   5   4  -9  508.86   33.85
   5  -4  -9  478.72   35.92
  -5  -4   9  465.99   36.59
  -5  -4   9  562.55   39.90
  -5  -4   9  509.94   39.15
  -5   4   9  502.39   36.55
   5   4  -9  521.04   36.20
   5   4  -9  581.01   44.46
   2   9  -2 1081.75  117.91
  -2  -9   2 1149.62   47.25
  -2  -9   2 1191.52   51.92
   2  -9  -2 1234.14   55.28
  -2  -9   2 1222.37   51.72
   2  -9  -2 1241.49   56.10
   2  -9  -2 1226.24   55.69
  -2  -9   2 1153.57   50.00
  -2  -9   2 1203.38   49.88
   2  -9  -2 1127.99   54.95
   4   6   7  513.69   32.75
  -4  -6  -7  561.06   40.03
   4  -6   7  559.99   38.97
   4  -6   7  577.03   34.68
   4  -6   7  574.36   40.15
   4   6   7  523.20   37.32
   4  -6   7  512.28   38.67
   4  -6   7  547.78   34.93
   4   6   7  539.35   95.47
  -4   6  -7  645.40   38.73
  -2   1  20   -5.32   12.45
   2   1 -20    8.73   11.15
  -2  -1  20    5.40   10.40
  -2   1  20   -8.59   15.10
   2  -1 -20    5.78   15.66
  -2   1  20    4.51   13.01
   2   1 -20   12.19   14.48
   2   1 -20   11.29   16.71
  -2  -1  20  -15.78   10.44
  -2  -1  20   10.33   13.11
   2  -1 -20   10.51   14.64
   2  -1 -20   -1.33    9.37
  -2  -1  20   -2.39   10.76
   2   1 -20   -6.59   16.06
   2  -1 -20   19.85   17.07
  -2  -1  20    5.26   16.87
   5   5   2  176.57   29.29
   5  -5   2  106.33   23.96
   5  -5   2  103.06   18.51
   5   5   2   99.28   23.34
   5  -5   2  101.85   34.46
  -5  -5  -2  115.07   24.60
  -5  -5  -2  170.40   27.65
   5  -5   2  111.68   23.19
  -5   5  -2   94.11   17.75
   5   5   2  119.27   23.03
  -5   0  13  126.47   25.76
   5   0 -13  202.19   30.89
   5   0 -13  170.33   26.07
   5   0 -13  138.91   29.01
  -5   0  13  202.49   27.99
   5   0 -13  187.17   24.78
  -5   0  13  151.23   24.35
   5   0 -13  195.34   27.38
  -1  -3 -19   47.24   21.23
   1  -3  19   94.99   27.07
   1   3  19   59.15   21.73
  -1   3 -19   48.03   18.64
   1  -3  19   44.46   17.15
   1   3  19   35.18   19.25
  -1   3 -19   16.48   15.50
  -1  -3 -19   55.20   16.75
  -1   3 -19   53.76   15.90
   1   3  19   71.02   21.68
   1  -3  19   89.55   22.71
  -1   7  14  740.94   43.76
  -1   7  14  728.28   47.34
   1   7 -14  665.91   40.67
  -1  -7  14  739.81   43.57
   1  -7 -14  768.06   49.03
  -1  -7  14  706.80   43.87
   1   7 -14  634.23  124.17
  -1  -7  14  820.33   49.08
   1  -7 -14  688.77   40.59
  -1  -7  14  729.11   45.02
   1  -7 -14  728.36   44.49
   1   7 -14  801.42   45.52
  -5  -3  11    1.73   12.92
   5  -3 -11   10.35   21.03
   5  -3 -11   13.34   15.02
  -5  -3  11   12.10   15.08
   5   3 -11   26.10   18.84
   5   3 -11   -2.01   16.21
  -5   3  11   30.16   15.66
   5  -3 -11    3.08   10.86
   5   3 -11   20.15    7.16
  -5  -3  11    1.37   15.23
  -5   3  11   20.33   14.06
   5  -3 -11   -0.64   10.42
   5  -3 -11   -5.67   16.92
   5   3 -11   15.40   13.92
   5   3 -11   35.02   16.20
   2   9   1   90.93   17.33
  -2  -9  -1   78.70   21.24
  -2   9  -1   88.01   26.25
   2  -9   1   73.30   21.89
   2  -9   1   92.26   20.28
   2  -9   1   75.92   18.64
  -2  -9  -1   96.40   20.14
  -2  -9  -1  118.11   19.63
   2  -9   1   81.30   22.73
   2   9   1   87.11   16.81
  -2  -9  -1  106.71   21.52
   6   0  -2  939.42   41.87
   6   0  -2 1093.15   56.29
  -6   0   2  958.74   50.07
   6   0  -2 1076.60   57.30
  -6   0   2  869.30   53.20
   6   0  -2  997.62   52.32
  -1   5 -17  532.59   36.97
   1  -5  17  538.80   39.57
   1  -5  17  523.74   39.28
   1   5  17  508.09   36.61
  -1   5 -17  566.10   37.63
   1   5  17  488.77   38.27
  -1  -5 -17  458.76   31.87
   1  -5  17  515.11   34.89
   1   5  17  532.99   41.54
   1  -5  17  517.19   38.23
  -1  -5 -17  476.77   37.98
  -1   5 -17  546.76   42.19
   2  -7 -13  127.18   25.75
  -2  -7  13  101.03   24.42
  -2  -7  13  112.13   23.45
  -2  -7  13  119.72   24.59
  -2  -7  13  119.92   22.45
   2  -7 -13  133.92   28.58
   2   7 -13  129.56   24.20
   2   7 -13  118.23   26.45
  -2   7  13  139.91   30.38
   2   7 -13  117.57   20.56
   2  -7 -13  155.67   25.98
  -2   7  13  142.58   31.12
   5   2   9 1648.06   65.33
  -5  -2  -9 1560.66   61.29
  -5   2  -9 1642.75   55.30
   5  -2   9 1686.32   65.67
   5   2   9 1494.31   55.97
  -5  -2  -9 1658.36   61.61
   5  -2   9 1572.77   63.27
   5   2   9 1640.31   61.96
   5  -2   9 1524.86   51.71
   5  -2   9 1651.22   59.60
   4  -1  14   65.01   18.65
   4   1  14  145.15   26.80
   4  -1  14  139.24   23.51
  -4   1 -14  106.85   22.51
  -4  -1 -14  126.59   20.56
   4   1  14  104.52   27.78
   4   1  14   94.39   20.54
   4  -1  14  123.08   18.35
   4   1  14  112.27   22.41
   4  -1  14  142.14   26.41
   4  -1  14   93.58   20.05
   4   1  14   99.67   16.92
   6   0  -1  490.63   40.92
   6   0  -1  463.93   38.06
  -6   0   1  418.28   33.87
   6   0  -1  427.85   37.05
   6   0  -1  527.16   36.85
  -6   0   1  417.38   42.10
   1  -9   6   85.86   22.56
  -1  -9  -6   55.28   21.22
  -1  -9  -6   31.76   12.55
   1  -9   6   40.46   18.64
  -1  -9  -6   30.24   12.26
  -1   9  -6   31.67   14.92
   1   9   6   61.22   20.36
   1  -9   6   44.47   16.80
   1  -9   6   73.86   21.60
   1  -9   6   32.90   14.53
   6   0  -3  558.33   42.03
   6   0  -3  638.69   45.55
  -6   0   3  613.25   41.92
  -6   0   3  545.29   41.04
   6   0  -3  461.12   88.55
   6   0  -3  548.45   40.84
   4   7   2   86.57   19.23
  -4  -7  -2   72.58   24.31
   4  -7   2   60.10   20.60
   4  -7   2   46.49   17.48
  -4   7  -2   72.21   19.88
   4   7   2   41.87   15.62
   4  -7   2   76.09   19.99
   4   7   2   64.19   18.41
  -4  -7  -2   91.17   23.16
   4  -7   2   65.34   18.15
   4  -7   2   71.03   21.15
   1   1  20  105.64   20.68
   1  -1  20  135.37   20.02
   1   1  20  175.83   28.00
   1  -1  20  192.53   22.67
  -1  -1 -20  142.47   21.42
   1   1  20  177.77   27.24
   1  -1  20  158.65   27.23
  -1   1 -20  117.09   18.03
  -1   1 -20  143.44   22.88
  -1  -1 -20  139.06   22.29
  -2  -6 -14   10.92   16.17
   2  -6  14   17.08   15.48
   2   6  14   34.84   19.67
   2  -6  14   14.90   12.39
   2  -6  14   40.75   22.12
   2  -6  14   32.62   16.43
  -2   6 -14   57.76   17.62
   2   6  14   55.09   17.51
   2  -6  14   40.47   15.77
  -2   6 -14   10.68   13.91
   5   4   6   70.04   18.02
  -5  -4  -6   53.49   20.31
   5  -4   6   96.76   26.49
   5   4   6   94.11   26.77
  -5  -4  -6   37.26   15.00
   5   4   6   70.74   23.60
   3   8   4  497.35   33.39
   3  -8   4  541.61   42.09
   3   8   4  499.99  104.59
   3  -8   4  581.45   40.84
   3  -8   4  559.94   36.22
  -3   8  -4  570.72   42.85
   3   8   4  454.95  119.39
   3  -8   4  616.41   41.67
   3  -8   4  554.17   38.94
  -3  -8  -4  595.59   36.63
   3   0  17  905.53   49.25
   3   0  17  816.93   41.99
   3   0  17  851.13   40.40
   3   0  17  828.38   42.04
  -3   0 -17  919.08   49.83
  -2  -9   3  533.34   34.61
  -2  -9   3  535.97   35.76
   2  -9  -3  578.20   41.59
  -2  -9   3  568.76   36.69
   2  -9  -3  579.89   43.46
   2  -9  -3  579.00   40.54
   2   9  -3  474.08   94.67
  -2  -9   3  510.33   39.03
   2  -9  -3  558.90   39.34
  -2  -9   3  506.34   34.93
  -3  -8   6  143.96   21.98
  -3  -8   6  129.29   23.07
   3   8  -6  119.51   26.00
   3  -8  -6  146.94   29.08
   3   8  -6  113.00   20.25
   3   8  -6  117.84   24.08
   3  -8  -6  162.61   25.67
  -3  -8   6  109.78   22.27
   3  -8  -6   97.71   22.93
  -3   8   6  133.53   22.74
  -3  -8   6  175.42   26.32
   3  -8  -6   90.97   26.43
   3   8  -6  110.18   17.81
  -2   5  17   40.23   16.43
   2   5 -17   62.03   21.80
  -2  -5  17   13.06   17.37
  -2  -5  17   41.65   16.23
   2  -5 -17   50.80   17.23
   2   5 -17    3.94    8.26
  -2   5  17   11.86   17.23
   2  -5 -17   31.52   16.37
   2   5 -17   25.62   15.33
  -2  -5  17   72.63   20.61
   2  -5 -17   37.04   18.85
   2   5 -17   54.30   14.81
   5  -1 -13  139.77   25.01
   5  -1 -13  148.67   25.59
  -5  -1  13  147.12   23.47
  -5  -1  13  122.20   25.35
  -5   1  13  160.39   26.26
  -5   1  13  175.13   22.60
   5   1 -13  153.10   26.89
  -5   1  13  171.90   23.69
  -5  -1  13  155.33   27.45
   5  -1 -13  123.96   20.18
   5   1 -13  167.95   27.53
   5   1 -13  178.14   25.05
   5   1 -13  183.56   30.57
   5  -1 -13  185.98   28.54
   5   1 -13  157.94   25.65
   5  -1 -13  182.18   27.60
   5  -3   8  147.79   26.46
   5  -3   8  117.50   25.88
  -5  -3  -8  140.32   28.94
   5   3   8  182.35   27.40
   5  -3   8  135.38   19.82
   5  -3   8  151.83   20.69
   5   3   8  140.30   25.85
  -5  -3  -8  155.96   29.01
   5   3   8  116.62   22.88
   2  -9   2  852.31   48.40
   2   9   2  910.97   42.30
   2  -9   2  867.37   48.08
  -2  -9  -2  864.68   42.03
   2  -9   2  939.44   50.06
  -2   9  -2  817.27  176.30
  -2  -9  -2  927.96   44.32
   2   9   2  813.60   40.85
   2  -9   2  913.89   47.39
  -2  -9  -2  915.17   45.84
  -6   0   0   98.27   23.02
   6   0   0   61.69   22.54
   6   0   0   52.22   21.73
   6   0   0   68.43   18.83
  -6   0   0   84.07   29.37
   6   0   0   80.39   23.10
  -3   0  19   10.91   13.98
   3   0 -19   30.16   23.89
   3   0 -19    3.46   10.17
  -3   0  19   26.73   17.95
  -3   0  19   15.97   14.60
  -3   0  19    7.69   15.83
   3   0 -19   19.41   17.65
   3   0 -19   30.69   19.45
   3   0 -19    9.05   11.30
   5   0  10  -12.95   13.37
   5   0  10   19.34   17.79
   5   0  10   18.05   17.12
   5   0  10   10.58    6.59
  -5   0 -10   19.79   13.04
   4  -7  -5   42.24   17.84
   4  -7  -5   46.42   20.87
   4  -7  -5   52.61   17.59
  -4  -7   5   73.42   20.79
  -4  -7   5   70.38   25.87
   4   7  -5   43.20   19.88
   4   7  -5   46.15   14.62
  -4   7   5   45.28   15.98
   4   7  -5   51.78   16.61
   4  -7  -5   34.71   14.94
   4   7  -5   68.44   13.84
  -4  -7   5   75.61   22.99
   4   7  -5   57.88   18.26
   4  -7  -5   56.49   13.70
  -6   0   4   78.44   22.43
   6   0  -4   58.96   22.51
   6   0  -4   21.76   16.69
   6   0  -4   22.25   16.61
   6   0  -4   44.99   20.58
  -6   0   4   25.38   14.60
   6   0  -4   26.83   12.64
   6  -1  -2 1189.10   97.55
   6   1  -2 1201.70   56.21
  -6  -1   2 1220.79   56.00
  -6   1   2 1246.32   55.65
   6  -1  -2 1277.38   58.84
  -6   1   2 1239.25   57.95
   6   1  -2 1224.10   57.25
   6  -1  -2 1245.75   56.87
   6  -1  -2 1209.06   54.94
  -6  -1   2 1206.80   57.67
   6   1  -2 1239.42   70.01
   6   1  -2 1202.52   57.25
  -5   5   6  430.69   34.45
  -5  -5   6  375.88   35.01
  -5  -5   6  297.64   32.95
   5  -5  -6  385.77   36.57
   5   5  -6  375.67   37.36
   5  -5  -6  325.59   30.51
  -5  -5   6  411.69   38.07
   5   5  -6  361.45   31.03
   5   5  -6  370.07   35.21
   5  -5  -6  400.64   36.91
   5  -5  -6  350.81   30.27
   5   5  -6  344.91   83.81
   5  -5  -6  302.91   28.15
  -5   5   6  368.53   33.27
   2   8 -10  288.82   66.23
  -2   8  10  277.47   26.46
   2  -8 -10  313.46   28.57
  -2  -8  10  326.58   29.98
   2  -8 -10  285.88   31.68
  -2  -8  10  289.53   33.68
   2  -8 -10  260.06   34.54
   2   8 -10  279.03   29.80
  -2  -8  10  344.65   32.87
  -2  -8  10  315.46   32.88
  -2   8  10  294.09   32.75
   2   8 -10  292.13   32.84
   2  -8 -10  342.62   35.85
  -2   4 -17  312.40   28.72
   2  -4  17  289.09   33.10
   2   4  17  318.99   32.86
   2  -4  17  295.42   33.38
   2  -4  17  292.54   25.27
   2  -4  17  303.89   30.25
   2   4  17  278.78   31.15
  -2   4 -17  304.56   25.92
  -2  -4 -17  329.12   33.81
  -2   4 -17  315.00   32.78
   2   0  19   11.13   14.63
   2   0  19   -0.95    9.74
   2   0  19   -0.82    9.80
   2   0  19   28.35   16.61
  -2   0 -19   40.46   24.90
  -6  -1   1   92.91   23.60
   6  -1  -1   77.34   24.86
  -6   1   1   75.01   21.56
   6  -1  -1   76.48   18.18
   6   1  -1   86.09   26.62
   6   1  -1   61.08   16.49
  -6  -1   1   61.72   18.75
  -6   1   1   25.33   15.89
   6   1  -1   57.45   20.74
   6  -1  -1   78.01   19.36
   6   1  -1  115.09   25.33
   6  -1  -1   86.48   23.16
   1   9  -7  256.98   56.42
  -1  -9   7  246.14   28.05
   1  -9  -7  267.79   33.96
   1  -9  -7  242.68   28.33
  -1   9   7  251.36   26.15
   1  -9  -7  302.87   30.57
  -1  -9   7  289.45   30.52
   1  -9  -7  211.77   25.84
  -1  -9   7  266.27   30.20
  -1  -9   7  256.05   28.30
   1   9  -7  274.26   28.35
  -4  -6  10  550.08   39.98
  -4   6  10  484.58   34.95
   4   6 -10  563.90   40.87
   4   6 -10  506.64  131.86
   4  -6 -10  527.98   38.84
  -4  -6  10  497.83   40.06
  -4  -6  10  498.94   39.93
   4   6 -10  559.11   44.89
   4  -6 -10  497.72   33.52
   4  -6 -10  622.18   47.43
   4   6 -10  485.30   34.57
  -4   6  10  549.67   39.70
  -4  -6  10  458.80   32.39
   4  -6 -10  516.05   38.21
  -6  -1   3  302.71   31.52
   6   1  -3  307.82   63.77
   6  -1  -3  279.66   65.68
   6   1  -3  290.16   32.10
   6  -1  -3  325.95   32.77
   6   1  -3  298.69   33.63
  -6   1   3  343.10   39.27
   6  -1  -3  338.76   37.41
   6   1  -3  355.40   34.57
  -6  -1   3  361.15   37.37
  -6   1   3  369.31   33.61
   6  -1  -3  356.85   34.31
  -4  -5 -10   33.64   15.43
   4  -5  10   39.11   18.42
  -4  -5 -10   19.67   13.28
  -4   5 -10   44.44   19.23
   4   5  10   38.89   18.33
   4   5  10   39.18   15.44
   4  -5  10   51.72   20.72
   4   5  10   44.28    9.00
   4  -5  10   36.14   14.29
   3  -1  17  165.67   29.22
   3  -1  17  153.44   21.93
  -3   1 -17  212.83   33.89
   3   1  17  149.67   24.02
   3  -1  17  147.74   21.58
   3  -1  17  208.91   28.98
   3   1  17  167.63   22.09
   3   1  17  190.39   25.17
   3   1  17  164.77   25.15
  -3  -1 -17  181.14   25.80
   3   7   9  180.18   49.59
   3   7   9  203.71   32.04
   3  -7   9  181.59   30.57
  -3   7  -9  142.24   26.69
   3  -7   9  164.25   25.66
   3  -7   9  145.44   27.00
   3  -7   9  179.62   28.92
  -3  -7  -9  134.69   22.62
   3   7   9  192.81   24.55
   5   5   3  231.01   29.51
   5  -5   3  270.26   29.18
  -5  -5  -3  277.63   32.47
   5  -5   3  311.59   31.90
   5  -5   3  185.84   21.36
   5   5   3  261.73   33.88
   5  -5   3  285.16   33.64
  -5  -5  -3  283.80   31.29
   5   5   3  309.60   30.45
  -1  -4  19  428.97   36.57
   1  -4 -19  325.57   31.10
  -1  -4  19  406.42   34.36
  -1   4  19  388.06   35.06
   1   4 -19  420.90   37.42
   1   4 -19  357.68   40.41
   1  -4 -19  430.57   38.62
  -1   4  19  345.14   33.58
   1   4 -19  256.69   70.34
  -1   4  19  390.09   30.54
  -1  -4  19  348.53   33.56
   1   4 -19  312.62   31.49
   1  -4 -19  395.25   42.76
   0  -4  19  202.32   27.60
   0   4 -19  202.33   26.81
   0   4  19  214.09   25.89
   0  -4  19  197.17   25.25
   0  -4  19  200.69   22.88
   0   4 -19  219.74   29.68
   0  -4 -19  170.27   23.61
   0  -4  19  238.96   27.61
   0   4  19  209.71   27.94
   0   4  19  171.33   28.56
   0   4 -19  211.20   37.39
   0  -4 -19  256.69   30.82
   2   7  12  575.04   42.18
   2  -7  12  586.23   40.47
   2  -7  12  538.51   38.57
  -2  -7 -12  531.58   39.09
  -2   7 -12  545.48   48.95
   2   7  12  528.29   42.28
   2  -7  12  564.65   41.12
  -2   7 -12  481.69   38.65
   2   7  12  504.91   32.79
   2  -7  12  570.70   42.08
   3  -7 -11  338.67   31.10
   3   7 -11  368.18   35.75
  -3  -7  11  402.70   36.10
  -3   7  11  320.91   28.42
   3  -7 -11  367.96   33.79
   3   7 -11  362.35   97.87
  -3  -7  11  360.74   33.28
   3  -7 -11  365.31   35.86
  -3  -7  11  340.48   35.55
   3   7 -11  350.67   30.37
  -3   7  11  380.05   34.14
   3  -7 -11  370.71   34.10
   2   9  -4   65.07   17.38
  -2  -9   4   53.32   15.41
  -2  -9   4   42.07   13.05
   2   9  -4   56.96   19.19
   2  -9  -4   55.81   19.90
  -2  -9   4   26.25   13.06
   2  -9  -4   38.46   14.21
  -2  -9   4   67.66   19.15
   2  -9  -4   91.63   22.32
   2  -9  -4   73.63   28.47
  -2  -9   4   56.71   18.31
   4  -3  13    9.62   12.49
   4   3  13   12.67   14.35
   4   3  13    7.20    5.36
   4  -3  13    3.94   14.52
   4   3  13   25.53   16.46
   4   3  13   17.29   15.25
  -4   3 -13   51.85   21.94
  -4  -3 -13   14.94   16.81
   4  -3  13    6.04   12.33
   6  -1   0   41.83   21.85
   6   1   0   27.25   12.69
   6  -1   0   17.55   14.52
   6   1   0   25.97    9.40
  -6  -1   0   68.54   24.19
   6  -1   0   23.39   15.86
   6   1   0   59.74   28.18
   6  -1   0   22.66   15.78
  -6  -1   0   23.04   17.14
  -6   1   0   69.68   22.79
   6   1   0   47.80   21.55
   3  -4  15  259.13   29.47
  -3   4 -15  272.63   31.99
  -3  -4 -15  303.16   31.65
   3   4  15  293.30   31.64
   3   4  15  305.98   37.65
   3  -4  15  260.34   27.43
   3  -4  15  275.00   31.81
   3   4  15  296.02   32.27
   6   0   1   15.05   12.63
   6   0   1   34.03   21.45
  -6   0  -1   -0.31   13.02
   6   0   1   31.26   18.65
  -6   0  -1   26.63   16.25
   6   0   1   13.12   15.17
  -3   1  19   48.69   17.67
   3   1 -19   57.38   20.18
   3  -1 -19   31.16   13.78
  -3  -1  19   31.76   16.67
   3   1 -19   66.71   23.00
   3  -1 -19   63.12   24.64
  -3  -1  19   22.73   16.14
   3  -1 -19   28.42   18.38
   3   1 -19   35.43   10.41
   3  -1 -19   52.67   17.89
  -3   1  19   24.70   13.70
  -3   1  19   61.78   22.90
  -3  -1  19   69.99   21.11
  -3  -1  19   32.30   13.70
   3   1 -19   43.19   19.77
   3   1 -19   24.22   12.19
   5   1  10  237.28   28.01
   5  -1  10  235.49   32.13
   5   1  10  189.10   27.66
   5  -1  10  193.09   25.90
   5  -1  10  172.20   37.10
   5   1  10  151.03   32.22
   5   1  10  269.87   27.70
  -5   1 -10  245.71   28.09
  -5  -1 -10  217.90   27.67
   5  -1  10  231.56   28.11
   3   3  16  722.89   43.38
   3  -3  16  698.16   43.77
  -3   3 -16  782.21   50.23
   3   3  16  695.19   45.35
  -3  -3 -16  683.43   42.56
   3  -3  16  726.64   45.81
   3   3  16  774.79   49.19
   4   7   3  131.92   25.50
   4  -7   3  142.39   24.78
   4  -7   3  133.03   19.59
   4   7   3  124.47   21.79
   4  -7   3  131.85   26.01
  -4  -7  -3  186.74   34.92
   4  -7   3  145.64   24.60
  -4   7  -3  181.34   30.03
   4  -7   3  115.87   20.85
   4   7   3  125.73   21.54
  -4  -7  -3  131.83   29.58
   4   0 -17   28.18   20.55
   4   0 -17  -13.80   15.52
  -4   0  17  -21.71   14.40
   4   0 -17   30.61   23.39
  -4   0  17   -7.21   14.92
   4   0 -17   -9.15   10.81
  -4   0  17   24.46   16.04
   4   0 -17    0.08    9.96
  -6  -1   4  459.53   38.03
   6  -1  -4  491.09   32.33
   6  -1  -4  403.80  105.48
  -6  -1   4  506.83   37.88
   6   1  -4  543.35   43.78
   6  -1  -4  472.03   39.75
   6  -1  -4  505.08   40.18
  -6  -1   4  486.39   38.54
  -6   1   4  548.71   39.96
   6  -1  -4  496.94   40.49
  -6   1   4  511.69   42.37
   6   1  -4  520.61   40.51
   6   1  -4  520.84   39.59
   2  -3  18  701.16   43.49
  -2   3 -18  539.89   33.55
  -2   3 -18  646.13   44.25
  -2  -3 -18  594.59   42.03
   2   3  18  606.64   44.28
   2  -3  18  626.74   39.86
   2  -3  18  615.36   42.93
   2   3  18  551.57   41.01
   6   0  -5   -1.01    8.98
  -6   0   5    1.12   13.17
  -6   0   5   12.02   14.10
   6   0  -5   15.36   18.05
   6   0  -5   -0.57   14.88
  -6   0   5   -9.16   17.17
   6   0  -5    5.16   13.34
   2  -9   3   58.12   26.06
  -2  -9  -3   37.29   15.30
  -2  -9  -3   29.52   16.74
   2   9   3   43.04   16.69
   2  -9   3   29.90   14.64
   2  -9   3   31.39   15.05
  -2  -9  -3   29.28   13.25
  -2   9  -3   42.56   22.08
   2   9   3   20.64   15.39
   2  -9   3   44.34   16.53
   2   1  19  325.32   29.68
   2   1  19  347.31   33.54
   2  -1  19  326.67   32.57
   2   1  19  374.57   27.82
   2   1  19  304.46   29.16
   2  -1  19  362.07   28.30
   2  -1  19  314.48   30.85
   2  -1  19  321.54   27.18
  -2   1 -19  371.25   34.88
  -2  -1 -19  385.80   35.27
  -1  -8 -11  141.27   25.11
   1  -8  11  157.49   27.01
   1  -8  11  179.04   30.22
   1   8  11  146.45   25.06
   1  -8  11  127.30   25.89
   1  -8  11  165.12   26.45
  -1  -8 -11  148.08   22.96
  -1   8 -11  178.92   29.96
  -1   8 -11  146.57   27.52
   3   4 -17    5.26   15.13
   3  -4 -17    9.25   10.98
  -3  -4  17   31.02   18.40
  -3  -4  17   46.35   23.92
   3  -4 -17  -13.42   14.35
   3   4 -17    4.45   13.57
   3  -4 -17   11.78   16.99
  -3   4  17   19.68   21.26
  -3  -4  17   27.58   15.96
   3  -4 -17   13.29   11.35
   3   4 -17   -1.96    9.22
   3   4 -17    4.37   16.89
  -3   4  17    5.63   16.43
  -3  -4  17   11.92   15.08
   2  -8   9  345.09   37.91
   2   8   9  336.24   33.29
   2  -8   9  349.71   32.24
   2  -8   9  351.61   32.99
  -2  -8  -9  295.00   29.72
   2   8   9  321.91   31.17
  -2   8  -9  317.17   34.17
   2  -8   9  311.60   32.47
   2  -8   9  361.53   35.55
   3   3 -18 1018.22   43.93
   3  -3 -18  909.23   45.77
   3   3 -18  950.88   51.75
   3  -3 -18  908.56   50.98
  -3   3  18  993.50   46.52
  -3  -3  18 1103.93   55.87
  -3  -3  18  999.92   50.91
  -3   3  18  967.94   53.31
  -3   3  18  965.87   51.15
   3  -3 -18  984.89   45.88
   3  -3 -18  989.90   53.13
   3   3 -18 1024.38   57.13
  -3  -3  18 1092.44   55.57
   3   3 -18  951.64   52.55
  -3  -3  18  998.87   49.02
  -1   0  21   26.42   19.63
  -1   0  21   44.38   20.98
   1   0 -21   43.98   20.98
  -1   0  21   50.88   17.05
   1   0 -21  -11.44   13.72
   1   0 -21   60.05   19.37
   0  -5  18  281.81   34.31
   0   5  18  244.84   29.61
   0   5 -18  282.10   35.96
   0   5 -18  300.71   30.38
   0  -5  18  326.83   34.28
   0   5  18  224.74   24.95
   0  -5  18  266.43   29.67
   0  -5 -18  252.19   29.58
   0  -5 -18  245.25   30.08
   0   5  18  237.32   30.07
   0   5 -18  243.28   30.44
   0  -5  18  236.46   27.65
   4  -7  -6  144.27   27.47
   4   7  -6  142.24   25.37
   4  -7  -6  169.80   23.16
   4   7  -6  141.05   37.69
   4  -7  -6  166.77   20.97
  -4  -7   6  130.60   24.89
   4  -7  -6  191.80   30.90
  -4  -7   6  129.81   23.20
   4   7  -6  120.57   19.00
   4  -7  -6  165.83   27.54
  -4   7   6  129.34   23.13
   4   7  -6  155.97   26.35
  -4  -7   6  189.69   29.50
  -3  -8  -5  918.57   45.25
   3  -8   5  999.62   53.77
   3  -8   5  918.00   48.23
   3  -8   5  957.68   48.56
  -3   8  -5  958.00   53.64
   3   8   5  831.96  138.26
   3   8   5  947.57   49.65
   3  -8   5  990.81   49.72
   3   8   5 1027.91   47.22
  -2  -2  20  658.04   42.01
  -2  -2  20  620.27   38.99
   2  -2 -20  588.84   42.86
  -2  -2  20  604.79   38.43
   2   2 -20  636.83   45.90
   2   2 -20  632.10   42.83
  -2   2  20  709.57   46.10
   2  -2 -20  612.59   42.25
   2   2 -20  662.04   46.86
   2   2 -20  594.94   39.25
  -2  -2  20  628.00   42.37
  -2   2  20  637.29   42.65
   2  -2 -20  622.55   41.25
  -2   2  20  678.73   45.83
  -1  -5  18  169.72   28.28
   1   5 -18  151.31   25.50
  -1   5  18  169.21   26.81
  -1  -5  18  174.38   31.12
  -1   5  18  122.67   24.68
  -1  -5  18  107.91   22.42
   1  -5 -18  193.52   35.40
   1  -5 -18  132.50   24.52
   1   5 -18  154.07   25.05
   1  -5 -18  132.78   21.46
  -1   5  18  136.21   19.93
   0   0  21   -2.80   15.92
   0   0  21    6.06   13.70
   0   0 -21   43.88   21.78
   0   0 -21   25.30   17.63
   0   0 -21   14.82   12.95
   0   0  21    9.23   10.65
  -1  -3  20  145.31   23.08
   1   3 -20  156.68   25.05
   1   3 -20  143.91   25.69
  -1  -3  20  140.79   22.38
   1   3 -20  142.22   22.03
  -1   3  20  169.64   27.36
   1  -3 -20  157.42   22.43
  -1   3  20  122.39   22.76
  -1  -3  20  134.31   24.02
  -1  -3  20  145.68   27.88
   1  -3 -20  158.98   25.14
   1  -3 -20  156.41   29.21
   1   3 -20  151.61   27.05
  -1   3  20  210.52   30.87
   2  -5  16  322.95   28.65
   2   5  16  374.22   35.19
  -2   5 -16  377.79   30.24
   2  -5  16  375.64   34.94
  -2   5 -16  278.76   56.13
   2  -5  16  428.62   36.88
  -2  -5 -16  351.92   33.84
  -2   5 -16  282.04   30.60
   2  -5  16  394.79   35.58
   2   5  16  359.41   34.66
   0  -9   8   47.95   18.42
   0   9   8   20.74   21.92
   0  -9   8   41.49   22.61
   0  -9  -8    6.88   14.04
   0  -9  -8    3.14   12.67
   0  -9   8   38.56   20.28
   0  -9   8   44.15   20.29
   0   9   8    0.06   11.34
   0  -9  -8   -6.66   13.57
   0   9  -8   23.10   19.28
   0  -9   8    8.63   14.14
   6  -1   1  370.79   35.26
  -6   1  -1  375.99   33.00
  -6  -1  -1  460.20   39.69
   6  -1   1  350.24   33.42
   6  -1   1  331.51   34.60
   6   1   1  338.30   29.38
   6   1   1  318.80   36.71
   6  -1   1  347.77   33.38
  -6   1  -1  388.31   38.59
   6   1   1  420.65   40.22
  -6  -1  -1  374.04   38.45
   6   1   1  379.37   34.97
   4   4  12  451.73   30.87
   4  -4  12  452.58   39.98
   4  -4  12  390.62   34.24
   4   4  12  439.45   36.73
  -4  -4 -12  456.34   32.97
  -4   4 -12  470.42   36.30
   4  -4  12  440.45   33.25
   4  -4  12  454.68   32.66
   4   4  12  441.48   39.31
   4   4  12  394.48   34.52
   3  -8  -7  653.89   44.16
  -3  -8   7  708.22   43.14
  -3   8   7  640.65   39.03
   3  -8  -7  773.52   45.19
   3   8  -7  614.82  161.18
  -3  -8   7  672.58   41.59
   3   8  -7  645.08   42.28
   3   8  -7  700.79   41.07
   3  -8  -7  677.84   44.41
   3  -8  -7  624.14   43.67
  -3  -8   7  680.99   46.57
  -4   1  17   62.35   21.91
   4  -1 -17   47.90   19.26
  -4  -1  17   27.32   14.44
  -4   1  17   41.52   22.87
   4   1 -17   61.91   28.05
   4   1 -17   71.03   23.82
   4  -1 -17   31.81   18.06
  -4  -1  17   86.57   21.25
  -4   1  17   70.36   21.87
   4  -1 -17   49.58   20.17
   4  -1 -17   32.93   16.15
   4   1 -17   16.36   16.83
   4   1 -17   49.66   17.40
  -4  -1  17   87.90   25.67
  -4  -1  17   56.83   17.99
   0   3 -20   48.79   30.57
   0  -3 -20   12.13   14.84
   0   3  20   21.24   21.07
   0  -3  20   27.06   21.55
   0   3  20    9.12   15.37
   0  -3 -20   22.68   13.42
   0   3 -20   13.06   15.30
   0   3 -20   20.93    7.18
   0  -3  20   38.14   15.75
   0  -3  20   63.48   17.89
   0   3  20   27.75   15.42
   0   3 -20   16.68   14.21
   0  -8  12  209.81   28.74
   0  -8  12  213.51   29.98
   0   8  12  192.99   28.12
   0   8 -12  269.38   39.95
   0  -8 -12  210.23   29.95
   0  -8 -12  178.04   23.00
   0   8 -12  188.21   46.21
   0   8  12  215.30   30.42
   0  -8  12  196.40   27.84
   0  -8 -12  199.80   27.40
   0  -8  12  246.27   29.68
   5   4 -10   10.24   16.63
   5   4 -10   26.55   19.04
  -5   4  10    7.33   18.96
   5  -4 -10    5.20   11.65
  -5  -4  10   22.16   16.65
   5   4 -10   17.05   13.80
  -5   4  10   11.19   15.84
   5   4 -10   34.01   10.33
   5  -4 -10   -2.64   14.13
  -5  -4  10   34.28   21.41
   5   4 -10    8.93   20.00
   5  -4 -10   22.54   18.63
  -5  -4  10    5.47   12.75
   5  -4 -10   52.57   21.47
   6   1  -5    0.59    7.89
  -6  -1   5   30.59   14.92
  -6   1   5  -22.66   17.32
   6   1  -5   20.46   15.04
   6   1  -5   -3.95   13.76
   6  -1  -5   -2.77   14.04
  -6  -1   5   -9.81   15.80
  -6  -1   5   27.99   18.65
   6  -1  -5   14.73   15.19
   6   1  -5  -10.32   13.95
   6  -1  -5    0.71   19.65
   6  -1  -5   14.44   11.38
   6  -1  -5   12.96   10.57
  -6   1   5   42.18   20.06
   4   2  14  156.19   24.26
   4   2  14  100.43   22.54
   4  -2  14  166.76   30.63
   4  -2  14  127.84   23.40
  -4  -2 -14  158.38   22.21
   4  -2  14  116.21   23.10
   4   2  14  131.99   20.69
   4   2  14  112.10   23.31
  -4   2 -14  145.04   23.15
  -5  -5   7  425.82   36.54
   5  -5  -7  383.49   35.75
   5   5  -7  395.33   35.52
   5   5  -7  368.90   73.90
  -5  -5   7  376.59   33.63
   5   5  -7  374.25   36.50
  -5   5   7  363.75   30.97
  -5  -5   7  351.06   35.77
   5  -5  -7  399.85   33.06
   5  -5  -7  385.99   34.75
  -5   5   7  404.49   36.09
   5   5  -7  383.16   29.95
   5  -5  -7  434.84   41.77
  -1   9  -7  791.53   46.66
   1  -9   7  845.93   47.37
   1   9   7  807.78   42.63
   1  -9   7  819.33   48.37
  -1  -9  -7  792.75   45.24
   1  -9   7  814.21   46.81
  -1  -9  -7  802.37   47.56
  -1  -9  -7  779.18   40.19
   1  -9   7  784.65   45.17
   1  -9   7  832.32   47.67
   3  -6  12  208.80   27.55
  -3   6 -12  171.03   45.32
   3  -6  12  298.33   32.44
   3  -6  12  238.16   25.86
  -3  -6 -12  233.82   29.15
   3   6  12  213.01   28.17
   3   6  12  232.26   33.79
   3   6  12  279.69   34.30
  -3   6 -12  205.73   28.11
  -1  -2 -20  224.16   29.04
   1  -2  20  184.23   25.42
   1  -2  20  174.80   21.73
   1   2  20  244.34   35.05
  -1  -2 -20  155.82   20.22
  -1   2 -20  171.17   28.27
   1   2  20  221.92   26.79
   1  -2  20  199.66   28.32
  -1   2 -20  218.17   25.92
   1   2  20  224.15   31.52
  -6   0  -2  131.35   29.82
   6   0   2   99.14   24.00
   6   0   2  109.82   27.98
  -6   0  -2  102.87   22.18
   6   0   2   61.45   19.61
   6   0   2   90.27   21.84
   4  -5 -13   65.35   21.55
  -4  -5  13   51.22   19.59
   4   5 -13   79.58   22.91
  -4  -5  13   67.03   19.64
   4   5 -13   53.79   24.73
  -4  -5  13   43.89   17.08
  -4  -5  13   70.79   19.28
  -4   5  13   37.97   14.64
   4  -5 -13   32.57   21.03
   4  -5 -13   20.59   10.01
   4  -5 -13   44.27   20.27
   4   5 -13   37.41   20.20
  -4   5  13   25.69   17.08
   4   5 -13   23.40   15.90
  -2   9   5  182.65   23.75
   2   9  -5  160.82   48.12
   2  -9  -5  235.29   28.13
  -2  -9   5  148.21   25.28
   2  -9  -5  206.01   27.67
  -2  -9   5  206.19   27.03
  -2  -9   5  179.72   24.42
  -2  -9   5  210.03   29.01
   2  -9  -5  203.44   35.60
   2   9  -5  195.54   24.51
   2  -9  -5  224.09   29.12
   1   1 -21  180.99   26.40
  -1   1  21  163.48   23.79
   1  -1 -21  161.60   26.77
  -1  -1  21  198.49   26.36
   1   1 -21  251.66   39.11
   1  -1 -21  190.25   25.05
   1  -1 -21  178.28   28.50
  -1  -1  21  166.54   22.73
  -1   1  21  191.67   26.83
  -1   1  21  153.14   27.18
   1   1 -21  150.76   25.05
  -1  -1  21  159.17   26.86
  -4  -6  -8  107.46   22.78
  -4   6  -8   73.76   22.16
   4  -6   8   75.19   21.41
   4   6   8   91.45   20.89
   4  -6   8   94.18   24.55
   4  -6   8   83.81   16.75
   4  -6   8  101.10   20.20
   4  -6   8   78.69   20.66
   4   6   8   66.81   20.33
   3   6 -14  143.76   38.63
   3  -6 -14  145.62   23.56
  -3  -6  14  108.55   25.93
  -3  -6  14  171.51   27.76
  -3   6  14  123.39   23.62
   3  -6 -14  133.05   24.38
   3  -6 -14  113.18   21.92
  -3   6  14  116.79   29.76
  -3  -6  14   98.75   23.61
   3   6 -14  110.75   20.53
   3  -6 -14  120.39   26.57
  -6   0   6   37.96   14.95
  -6   0   6   68.99   19.74
   6   0  -6   36.49   21.47
   6   0  -6   37.24   12.39
  -6   0   6   27.13   14.60
   6   0  -6   61.90   22.70
   6   0  -6   71.26   25.15
  -1   7 -14   23.66   21.14
   1   7  14   26.07   15.60
  -1   7 -14   13.84    6.47
   1   7  14    0.46   18.05
  -1  -7 -14   42.70   16.23
   1  -7  14   13.78   14.52
   1  -7  14   22.29   14.84
   1  -7  14    3.87   13.50
  -1  -7 -14   12.87   15.87
   1  -7  14   35.77   20.37
  -1   7 -14   11.97   16.13
  -5  -5  -4  108.92   23.39
   5  -5   4  128.15   24.63
   5  -5   4   93.90   19.15
  -5  -5  -4   93.80   23.01
   5  -5   4  104.97   23.07
   5   5   4   72.76   19.46
   5  -5   4  109.09   19.81
   5   5   4   91.07   19.31
   5   5   4   92.63   26.95
   5   2 -13  259.38   31.98
   5  -2 -13  259.15   32.58
   5   2 -13  226.01   27.57
   5   2 -13  242.32   31.44
  -5   2  13  222.25   26.32
  -5   2  13  233.75   33.11
  -5  -2  13  221.86   28.36
   5  -2 -13  244.36   35.26
   5  -2 -13  278.85   37.97
  -5  -2  13  214.96   30.08
   5  -2 -13  199.88   22.02
   5   2 -13  222.27   45.02
   5   2 -13  246.97   32.08
   5  -2 -13  214.42   26.89
  -5  -2  13  270.89   34.14
  -5   2  13  243.44   32.11
   0  -1  21   66.42   16.58
   0   1  21   82.40   21.75
   0   1 -21  107.33   28.42
   0  -1 -21   90.66   24.38
   0  -1  21   88.00   21.88
   0  -1  21   92.08   18.81
   0   1  21   60.14   19.77
   0   1 -21   92.51   23.24
   0   1  21  133.41   29.12
   0   1 -21  144.51   29.16
   0  -1 -21   82.70   23.29
   1  -6  16  348.20   36.95
   1   6  16  356.41   34.96
   1  -6  16  293.98   31.47
  -1  -6 -16  321.99   32.97
  -1   6 -16  386.58   35.18
  -1   6 -16  323.28   32.61
   1   6  16  292.33   29.51
   1  -6  16  292.36   32.79
   1  -6  16  311.77   28.84
  -1   6 -16  266.83   56.88
  -1  -6 -16  321.57   28.44
   1   6  16  316.18   32.84
   5  -4   7  103.03   19.34
   5  -4   7   72.18   21.21
   5  -4   7  104.34   24.12
   5   4   7  135.31   26.33
  -5  -4  -7  112.48   25.43
   5   4   7  126.45   25.04
  -5  -4  -7   85.75   23.04
   5   4   7  124.25   23.35
   1   8 -12   73.37   11.44
   1   8 -12  106.94   23.83
  -1  -8  12   61.48   21.49
  -1   8  12   71.56   21.00
   1  -8 -12   58.50   21.74
   1   8 -12   79.42   21.67
  -1  -8  12   51.27   15.92
  -1  -8  12   90.55   26.31
   1  -8 -12   85.97   20.19
  -1   8  12   25.84   14.31
  -1  -8  12   50.66   17.33
   1  -8 -12   82.83   23.60
   2  -9   4  462.82   41.30
  -2  -9  -4  487.44   36.99
   2  -9   4  415.92   33.33
   2  -9   4  471.21   36.82
   2   9   4  496.21   36.75
  -2  -9  -4  453.16   31.57
   2  -9   4  518.38   39.61
  -2  -9  -4  371.07   28.04
   2   9   4  440.02   32.91
   2  -9   4  487.79   37.96
  -2   9  -4  468.48   37.15
   4  -7   4   73.59   18.02
   4  -7   4   87.34   26.24
  -4   7  -4   76.40   21.12
   4  -7   4   48.03   15.40
   4  -7   4   51.01   22.34
   4   7   4   85.26   17.98
   4  -7   4   69.42   22.85
   4   7   4   44.48   20.59
  -4  -7  -4   68.29   23.00
   6   2  -2  123.96   28.93
   6  -2  -2  121.42   26.75
   6   2  -2  119.82   37.61
   6   2  -2  153.19   25.43
  -6  -2   2  167.46   28.84
  -6   2   2  174.02   26.16
   6  -2  -2  142.04   27.02
   6   2  -2  161.26   28.66
  -6   2   2  152.38   25.71
   6  -2  -2  140.39   22.71
  -6  -2   2  133.84   26.08
   6  -2  -2  142.50   28.41
  -5   3  12  347.53   35.74
   5   3 -12  296.63   31.79
   5   3 -12  290.73   83.48
   5  -3 -12  311.24   32.13
   5  -3 -12  365.92   35.69
  -5  -3  12  312.60   33.73
   5  -3 -12  296.09   36.66
   5   3 -12  287.76   35.96
   5   3 -12  336.74   36.66
   5   3 -12  342.38   35.25
   5  -3 -12  308.99   29.25
  -5   3  12  354.30   35.05
  -5  -3  12  331.23   35.68
  -5  -3  12  301.14   29.95
   3  -5  14   38.54   19.75
   3   5  14   51.46   20.00
  -3   5 -14   55.17   18.64
   3   5  14   58.19   19.89
  -3   5 -14   41.46   14.47
   3  -5  14   42.31   16.16
   3  -5  14   36.07   12.23
   3   5  14   83.30   22.03
  -6  -2   1  162.00   26.42
  -6  -2   1  180.00   29.72
  -6   2   1  169.10   26.68
   6  -2  -1  165.63   32.81
   6   2  -1  177.86   27.33
   6   2  -1  210.03   37.94
   6  -2  -1  123.76   19.70
   6   2  -1  192.48   27.80
   6  -2  -1  154.41   24.27
   6   2  -1  174.11   31.11
  -6   2   1  178.38   26.80
   6  -2  -1  202.89   29.09
   6  -2  -3  363.20   35.46
  -6   2   3  284.46   33.41
   6  -2  -3  287.31   26.77
   6   2  -3  303.47   34.08
   6  -2  -3  230.32   61.69
   6  -2  -3  325.40   34.43
   6   2  -3  269.70   31.46
   6   2  -3  285.04   31.90
  -6   2   3  318.16   32.55
   6  -2  -3  295.45   37.33
   6   2  -3  355.21   36.74
  -6  -2   3  296.82   33.31
  -6  -2   3  339.14   33.33
   1   9  -8   30.82    9.76
  -1   9   8   12.87   10.76
  -1  -9   8   17.45   13.83
  -1  -9   8   52.68   22.21
  -1  -9   8   19.08   14.91
   1  -9  -8   26.57   18.73
   1   9  -8   50.99   15.91
   1  -9  -8   13.54   15.17
  -1   9   8   23.72   19.24
   1  -9  -8   16.03   14.56
  -1  -9   8   19.00   15.14
   6  -1   2    0.45   14.48
  -6  -1  -2   21.00   13.83
   6   1   2   -3.93   19.54
   6   1   2    8.04   10.69
  -6  -1  -2   49.85   25.44
  -6   1  -2   12.48   12.38
   6   1   2   20.00   15.51
   6  -1   2   29.04   19.89
   6   1   2   29.82   21.14
   6  -1   2   23.38   16.60
  -6   1  -2   26.41   21.71
   6  -1   2   42.49   22.26
   3  -2  17 1113.65   53.69
   3   2  17 1175.63   52.90
   3  -2  17 1219.78   54.27
   3   2  17 1175.02   58.39
  -3  -2 -17 1185.85   55.33
  -3   2 -17 1190.27   55.72
   3   2  17 1212.04   54.50
  -4   3  16   82.45   28.58
  -4  -3  16   21.52   15.26
  -4   3  16  107.02   24.55
  -4  -3  16   70.76   21.17
   4   3 -16   76.46   23.34
   4  -3 -16   59.80   17.95
   4  -3 -16   70.45   21.30
   4   3 -16   48.34   22.60
   4  -3 -16   15.13   19.90
  -4  -3  16   71.83   20.18
   4   3 -16   68.97   20.07
  -4  -3  16   53.24   18.07
   4   3 -16   75.78   16.65
   6   1  -6   74.35   16.49
  -6   1   6   97.08   19.61
   6   1  -6  115.43   25.85
   6  -1  -6  125.29   28.47
  -6   1   6  113.17   28.10
  -6  -1   6   70.96   22.43
   6  -1  -6   97.35   18.37
  -6  -1   6  103.18   22.99
   6  -1  -6   65.76   20.60
   6   1  -6   91.07   19.54
   6  -1  -6   72.48   21.96
  -6   1   6   97.69   22.83
  -6  -1   6   82.34   23.64
   6   1  -6  148.45   31.24
  -3  -5  16   90.05   22.10
   3  -5 -16  112.17   25.21
  -3   5  16   82.36   25.06
  -3  -5  16  103.60   21.73
  -3   5  16  102.91   24.09
   3   5 -16   83.92   24.31
   3  -5 -16   87.24   23.11
  -3  -5  16  114.09   27.40
   3  -5 -16   71.30   20.03
  -3  -5  16   90.29   27.54
   3   5 -16  128.54   25.48
   3  -5 -16   81.10   18.02
   3   5 -16   86.38   26.72
   6   2   0  264.72   60.36
  -6  -2   0  265.13   34.65
   6  -2   0  225.16   23.59
   6   2   0  284.30   30.76
  -6  -2   0  296.89   31.93
   6  -2   0  266.40   31.34
   6   2   0  301.93   33.72
   6  -2   0  311.14   34.54
  -6   2   0  233.44   25.44
   6   2   0  280.47   34.78
   6  -2   0  290.69   32.49
  -6   2   0  264.06   31.07
   5   0 -14  195.43   28.37
   5   0 -14  253.24   30.76
  -5   0  14  256.25   33.55
   5   0 -14  202.32   39.99
   5   0 -14  223.39   30.56
  -5   0  14  199.38   29.26
   5   0 -14  237.92   28.69
  -5   0  14  243.72   35.09
  -3   2  19   84.05   24.23
   3  -2 -19  105.33   26.96
   3  -2 -19   90.46   20.03
  -3   2  19   56.36   17.95
  -3  -2  19  115.17   27.07
   3  -2 -19  107.12   20.81
   3   2 -19  104.09   24.48
  -3   2  19  110.86   26.42
  -3  -2  19   99.00   20.98
  -3  -2  19  108.32   25.84
   3   2 -19  116.89   18.41
   3   2 -19   90.56   23.02
   3   2 -19  148.48   27.48
   3  -2 -19   83.39   22.59
  -3  -2  19   63.29   18.35
   3   2 -19   84.32   25.08
   5   2  10  465.31  112.35
   5  -2  10  560.86   39.50
   5  -2  10  597.94   38.94
  -5  -2 -10  587.51   41.87
   5   2  10  549.45   40.15
   5   2  10  547.31   40.01
   5   2  10  542.16   36.99
   5  -2  10  607.89   43.92
  -2  -6  16   37.40   18.73
   2  -6 -16   79.18   19.88
   2   6 -16   36.64   15.03
   2   6 -16   54.47   17.76
  -2  -6  16   65.77   22.26
  -2   6  16   65.18   24.04
  -2  -6  16   91.32   24.48
   2  -6 -16   68.76   18.71
   2   6 -16   70.07   21.60
   2   6 -16   63.97   13.05
   2  -6 -16   75.04   21.33
  -2   6  16   64.35   23.39
   6   2  -4  309.35   33.29
   6   2  -4  319.77   34.71
   6  -2  -4  309.74   33.49
  -6   2   4  360.10   34.25
  -6  -2   4  337.98   33.64
   6  -2  -4  336.02   31.54
   6   2  -4  319.06   34.92
   6  -2  -4  297.73   38.11
  -6  -2   4  301.19   32.73
   6  -2  -4  242.15   46.30
  -6  -2   4  303.52   32.94
  -6   2   4  329.50   33.08
   6  -2  -4  320.86   32.48
  -4  -7   7   84.44   20.04
   4  -7  -7   63.44   21.80
   4   7  -7   87.60   24.72
   4  -7  -7   85.71   27.55
   4  -7  -7   91.76   22.16
  -4  -7   7   75.68   22.23
  -4  -7   7   47.58   13.86
  -4  -7   7  101.11   29.75
  -4   7   7  110.32   21.50
   4   7  -7   90.85   19.15
   4   7  -7   70.48   21.79
   4  -7  -7   94.19   21.02
   5  -3   9 1636.54   57.55
   5  -3   9 1574.93   55.56
   5   3   9 1651.00   64.52
   5   3   9 1572.12   87.69
   5  -3   9 1633.90   64.62
  -5  -3  -9 1629.38   65.61
   5  -3   9 1576.61   66.26
   5   3   9 1563.21   56.62
   5   3   9 1579.99   64.29
   2  -2  19  137.45   26.91
  -2   2 -19   76.84   24.06
  -2  -2 -19   95.86   25.18
   2   2  19  106.00   23.62
   2  -2  19  112.11   22.18
   2   2  19  118.16   27.38
   2  -2  19   99.21   23.85
  -4   6  11  289.63   32.62
  -4  -6  11  186.98   22.07
   4   6 -11  213.40   31.94
   4  -6 -11  200.12   26.84
   4   6 -11  246.58   36.11
   4  -6 -11  206.12   27.38
   4  -6 -11  241.92   33.17
   4   6 -11  218.34   27.93
  -4  -6  11  257.55   32.07
  -4  -6  11  201.40   28.51
  -4   6  11  256.19   28.21
  -4  -6  11  239.33   26.53
   4  -6 -11  196.75   22.34
   4   6 -11  209.16   30.85
   6   0   3   32.51   16.11
   6   0   3   41.99   17.01
   6   0   3   23.04   14.63
  -6   0  -3   45.35   21.23
  -6   0  -3   37.01   14.35
   6   0   3   36.58   27.56
  -4  -4  15  144.07   29.09
  -4   4  15  122.78   27.85
  -4  -4  15  147.85   29.46
   4   4 -15  121.52   20.61
  -4  -4  15   77.95   18.37
   4  -4 -15   74.94   20.56
   4   4 -15   86.72   24.88
   4  -4 -15  128.22   29.21
  -4   4  15  123.16   25.24
  -4  -4  15  120.87   26.67
   4   4 -15  103.23   26.80
   4   4 -15   97.91   28.68
   4  -4 -15  116.50   25.12
   2  -8 -11  473.83   37.68
   2   8 -11  499.95   40.54
  -2  -8  11  457.81   34.47
   2  -8 -11  526.16   40.14
   2   8 -11  464.06   75.62
  -2   8  11  470.22   41.68
  -2  -8  11  502.14   40.05
  -2  -8  11  488.50   38.84
   2   8 -11  433.07   32.60
  -2  -8  11  530.30   44.89
  -2   8  11  480.44   35.79
   2  -8 -11  476.10   38.37
   0   7  15  901.02   52.11
   0  -7  15  847.25   49.23
   0   7 -15  815.47   49.82
   0  -7  15  838.87   48.96
   0  -7 -15  805.76   49.77
   0   7  15  772.30   49.26
   0  -7 -15  757.80   42.83
   0   7 -15  856.07   48.92
   0  -7  15  863.96   50.59
   0  -7  15  833.83   45.28
   0   7 -15  739.00  177.68
   2   9  -6  271.64   73.79
  -2  -9   6  297.37   30.44
   2   9  -6  243.52   27.14
  -2  -9   6  269.97   30.53
   2  -9  -6  278.76   35.54
   2  -9  -6  283.24   31.04
   2  -9  -6  280.89   28.64
  -2   9   6  277.98   25.79
   2   9  -6  240.32   61.90
   2  -9  -6  287.11   32.12
  -2  -9   6  284.60   33.56
   3   8   6  807.31  159.21
   3  -8   6  984.50   49.10
   3   8   6  935.23   46.15
   3  -8   6  993.92   51.37
   3   8   6  985.18   51.61
  -3  -8  -6  939.65   47.29
   3  -8   6  954.29   52.98
   3  -8   6  969.89   50.75
  -3   8  -6 1065.40   55.85
   6   0  -7  -13.73   14.72
  -6   0   7  -12.43   17.62
   6   0  -7   19.43   11.52
  -6   0   7  -16.01   13.32
   6   0  -7    8.18   20.47
   6   0  -7   24.68   16.55
  -6   0   7  -15.01   13.16
  -2   7  14  423.65   36.07
   2   7 -14  441.90   37.24
  -2  -7  14  435.15   37.20
   2  -7 -14  442.71   36.44
  -2  -7  14  521.36   39.48
  -2  -7  14  505.64   41.52
  -2   7  14  476.69   42.41
   2  -7 -14  482.25   36.92
   2   7 -14  491.09   36.25
  -2  -7  14  476.34   36.98
   2  -7 -14  426.01   38.92
   2   7 -14  468.39   39.04
  -5   5   8   83.87   18.28
   5   5  -8   60.29   17.74
   5   5  -8   99.12   24.98
   5  -5  -8   89.30   20.76
   5  -5  -8  101.20   25.65
  -5  -5   8   75.46   23.19
   5   5  -8   82.86   20.05
  -5   5   8  124.57   23.93
  -5  -5   8  101.95   21.34
   5  -5  -8  121.40   29.65
   5  -5  -8  110.22   23.29
   5   5  -8   95.59   19.79
   3   8  -8  857.63   48.77
  -3  -8   8  847.46   45.78
   3   8  -8  843.20   46.45
  -3  -8   8  942.04   50.81
  -3   8   8  894.50   47.45
   3  -8  -8  897.38   50.47
  -3  -8   8  856.65   49.99
   3  -8  -8  950.39   52.56
   3   8  -8  841.54  176.60
   3  -8  -8  868.94   46.35
   3  -8  -8  882.07   51.77
  -5   1  14  350.03   37.31
  -5  -1  14  317.94   32.50
  -5   1  14  290.95   28.73
   5  -1 -14  329.30   36.52
   5  -1 -14  319.81   37.65
  -5  -1  14  278.97   32.77
   5  -1 -14  307.38   31.64
   5   1 -14  322.69   34.84
   5   1 -14  294.13   35.66
   5   1 -14  303.35   32.84
   5  -1 -14  282.76   32.71
   5   1 -14  247.18   65.05
   5   1 -14  279.12   36.82
  -5   1  14  309.90   33.83
   5  -1 -14  254.01   26.72
  -5  -1  14  355.55   36.74
   6  -2   1   64.56   18.52
   6   2   1   93.44   18.42
   6  -2   1   89.82   20.18
   6  -2   1   48.30   18.73
  -6  -2  -1   73.78   26.76
  -6  -2  -1   92.72   25.80
   6   2   1   82.00   22.68
   6  -2   1   81.97   18.17
  -6   2  -1   79.24   18.35
   6   2   1   42.42   20.01
  -6   2  -1   59.68   17.94
   6   2   1   95.65   27.93
   1  -7 -15  138.51   21.83
   1   7 -15  167.72   26.44
  -1   7  15  198.26   30.92
  -1  -7  15  147.96   29.24
   1   7 -15  121.34   24.21
  -1  -7  15  139.61   23.87
   1  -7 -15  196.74   32.42
  -1  -7  15  198.99   31.39
  -1   7  15  151.95   25.16
   1   7 -15  143.48   25.74
   1  -7 -15  127.71   26.15
  -1  -7  15  149.28   27.32
   3   7  10  156.45   29.39
  -3   7 -10  156.47   26.88
   3  -7  10  194.11   27.27
   3  -7  10  165.85   31.19
   3   7  10  163.16   28.95
   3  -7  10  154.76   26.21
   3  -7  10  145.90   22.59
   3   7  10  141.17   23.50
  -3  -7 -10  118.55   23.51
   4   0  15   14.03   15.44
   4   0  15   44.57   27.03
  -4   0 -15   -0.06   12.07
   4   0  15    4.15    9.62
   4   0  15   -7.00    9.22
   4   0  15    4.22   10.92
  -4  -2  17  305.72   33.55
   4   2 -17  198.00   35.97
   4   2 -17  257.64   33.05
  -4  -2  17  324.38   33.89
   4   2 -17  243.86   34.05
  -4   2  17  249.44   30.55
   4  -2 -17  269.66   32.40
  -4  -2  17  264.01   34.53
  -4   2  17  262.57   28.04
   4  -2 -17  268.52   30.52
   4   2 -17  337.10   38.53
  -4  -2  17  268.33   28.51
  -4   2  17  209.70   29.29
   4  -2 -17  239.90   29.17
  -6  -2   5   30.03   16.73
   6   2  -5   23.18   16.86
   6  -2  -5   15.03   10.92
  -6   2   5   25.31   16.71
   6  -2  -5    5.15   17.01
   6   2  -5   10.42   15.11
   6  -2  -5   -4.07    8.75
  -6  -2   5    0.08   14.63
  -6   2   5   12.54   15.99
   6  -2  -5    2.51   13.43
   6   2  -5   31.84   22.02
   6  -2  -5   15.62   18.32
   5   0  11   21.61   13.90
   5   0  11  -17.34   16.96
  -5   0 -11   13.55   12.51
   5   0  11   12.45    8.23
   5   0  11   55.80   21.87
   0  -6  17  107.22   22.48
   0   6  17   53.43   21.59
   0   6 -17  114.71   24.59
   0  -6  17   99.62   23.92
   0  -6  17   64.56   23.05
   0   6 -17  106.96   29.25
   0   6 -17   73.59   23.59
   0  -6 -17  107.39   20.95
   0   6  17   69.24   20.06
   0  -6  17   90.05   26.61
   0  -6 -17  103.08   24.05
   2   9   5  322.36   31.09
   2  -9   5  299.54   33.79
   2  -9   5  311.76   31.82
  -2  -9  -5  278.83   26.09
   2  -9   5  264.06   33.08
   2  -9   5  311.51   29.20
   2   9   5  301.07   28.20
  -2  -9  -5  297.66   32.96
   2  -9   5  285.23   30.44
  -2   9  -5  280.53   32.42
   3   7 -12   18.54   17.69
   3   7 -12   -1.76   18.30
   3  -7 -12    4.75   14.03
   3   7 -12   -3.39   12.56
   3  -7 -12   10.29   12.05
  -3  -7  12  -25.74   13.30
   3  -7 -12    8.15   14.93
  -3   7  12   12.33   21.67
  -3  -7  12   28.09   22.70
   3  -7 -12    2.23   13.27
  -3  -7  12   -2.60   14.16
  -3   7  12   15.86   15.01
   6   1   3  118.41   26.71
  -6  -1  -3  156.85   31.06
   6  -1   3  126.24   27.21
   6   1   3  111.12   24.54
  -6  -1  -3  139.66   25.71
  -6   1  -3  134.35   26.59
   6   1   3   85.70   24.92
   6  -1   3  131.66   25.17
   6  -1   3  146.15   24.01
   6   1   3   90.19   19.32
  -6   1  -3  115.19   25.58
   6  -1   3  151.81   26.13
  -5  -5  -5  319.17   32.98
   5  -5   5  327.99   33.44
   5   5   5  270.84   36.96
  -5  -5  -5  261.77   33.61
   5  -5   5  302.50   33.04
   5   5   5  271.72   29.89
   5  -5   5  261.92   30.72
   5   5   5  267.02   28.45
  -1  -6  17  125.78   24.10
   1   6 -17  107.67   25.03
  -1  -6  17   93.68   24.33
  -1   6  17  130.09   34.89
   1  -6 -17   87.37   26.28
  -1  -6  17   82.05   25.76
   1  -6 -17   81.63   21.12
   1   6 -17   80.04   22.47
  -1  -6  17  101.85   25.78
   1  -6 -17   94.20   26.42
  -1   6  17  119.57   24.27
   1   6 -17  129.55   24.31
   4  -5  11  241.93   30.00
   4   5  11  234.77   30.77
  -4   5 -11  233.49   28.06
   4  -5  11  215.69   25.89
   4   5  11  218.58   28.93
   4  -5  11  199.42   30.36
   4   5  11  244.32   29.10
  -1  -2  21  740.31   46.10
  -1  -2  21  726.05   42.39
   1  -2 -21  821.53   47.95
  -1  -2  21  841.47   42.58
  -1   2  21  866.89   50.38
   1   2 -21  779.18   46.77
   1  -2 -21  795.17   43.98
  -1   2  21  755.39   45.28
   1   2 -21  693.26   38.29
   1   2 -21  834.36   53.32
  -1   2  21  833.94   49.94
  -1  -2  21  792.78   45.77
   1  -2 -21  753.69   45.62
   1   2 -21  762.71   45.52
   4   7   5   89.32   17.84
  -4   7  -5  151.24   24.33
   4   7   5   99.77   20.89
   4   7   5  117.37   27.92
   4  -7   5   88.24   18.75
   4  -7   5  127.17   20.51
   4  -7   5  141.31   27.63
  -4  -7  -5  142.55   28.80
   4  -7   5  121.56   26.45
   4  -7   5  117.14   26.49
   0   9  -9   18.30   25.58
   0  -9  -9   23.34   12.21
   0   9   9   38.98   24.45
   0  -9  -9   88.00   25.73
   0   9   9   31.14   13.43
   0  -9   9   20.45   15.18
   0  -9  -9   56.90   19.73
   0  -9   9   41.86   22.30
   0  -9   9   51.33   21.48
   0   9  -9   30.46   20.24
  -6  -1   7  151.91   27.17
  -6   1   7  136.82   21.99
   6  -1  -7  133.28   21.32
   6  -1  -7  145.86   27.86
   6   1  -7  130.88   26.25
   6  -1  -7  142.21   28.59
   6   1  -7  167.03   30.97
   6  -1  -7  142.60   25.53
  -6   1   7  130.19   24.93
   6   1  -7  119.15   19.54
  -6  -1   7  129.58   24.76
  -6  -1   7  148.66   27.47
  -6   1   7  168.68   29.04
   6   1  -7  127.02   28.30
   1  -9   8  459.61   34.80
  -1   9  -8  538.07   40.70
   1  -9   8  549.22   41.01
   1  -9   8  439.91   37.34
   1   9   8  526.07   36.25
  -1  -9  -8  484.64   39.79
   1  -9   8  451.61   40.45
  -1  -9  -8  445.87   32.16
   1  -9   8  504.90   38.90
  -1  -9  -8  399.08   31.45
  -2  -4  19  179.48   31.38
   2   4 -19  152.27   25.74
   2  -4 -19  198.31   32.11
   2  -4 -19  131.79   22.92
  -2   4  19  183.48   27.46
  -2  -4  19  155.69   24.33
   2   4 -19  145.52   27.90
   2   4 -19  156.77   26.90
  -2  -4  19  172.62   32.00
  -2   4  19  196.12   28.99
  -2   4  19  133.62   19.11
   2  -4 -19  154.12   25.36
   2   4 -19  169.39   30.13
   2  -8  10  213.73   28.10
   2   8  10  207.91   30.98
   2   8  10  197.23   26.38
  -2   8 -10  166.87   29.18
   2  -8  10  213.48   30.68
   2  -8  10  186.71   26.46
   2  -8  10  202.60   31.46
  -2  -8 -10  154.73   24.08
   2  -8  10  146.91   26.17
   0  -2  21   24.63   11.95
   0   2  21   19.86   14.53
   0   2 -21   15.37   14.99
   0  -2  21    8.00   12.18
   0   2  21   -1.15   15.57
   0  -2 -21   54.51   18.83
   0  -2 -21   57.90   19.63
   0  -2  21   20.19   15.94
   0   2 -21   31.28   18.63
   0   2  21   12.53   13.01
   0   2 -21   32.62   14.91
  -1   4 -19  127.48   23.34
   1  -4  19   93.48   19.36
   1  -4  19  154.97   23.40
   1  -4  19  165.42   25.97
   1   4  19  140.83   25.60
   1   4  19  123.60   27.07
  -1   4 -19   97.40   30.33
  -1  -4 -19   81.43   18.63
   1  -4  19  160.07   26.81
   1   4  19  137.50   25.06
  -5   4  11   14.31   20.02
  -5  -4  11   -1.53   12.63
   5   4 -11   30.45   18.71
   5  -4 -11   10.87   18.32
   5  -4 -11   -6.86   11.10
   5  -4 -11   -2.60   18.36
  -5  -4  11   18.99   16.42
  -5   4  11   44.56   23.60
   5   4 -11   15.25    9.42
   5   4 -11   15.67   12.07
   5  -4 -11   10.80   14.30
  -5  -4  11    3.66   14.72
   5   4 -11    2.26   13.02
  -2   6 -15  386.10   40.04
   2  -6  15  371.17   36.70
   2  -6  15  305.79   27.75
   2   6  15  407.01   40.72
   2  -6  15  374.39   36.14
   2   6  15  388.12   34.56
  -2   6 -15  351.61   31.77
  -2   6 -15  230.79   53.70
   2  -6  15  269.57   29.58
  -2  -6 -15  353.98   37.52
   4  -1  15   87.31   27.27
   4   1  15   58.20   16.55
  -4  -1 -15   65.21   18.60
  -4   1 -15   50.49   18.53
   4  -1  15   70.47   19.62
   4   1  15   85.39   23.21
   4   1  15   42.83   14.79
   4  -1  15   90.06   19.45
   4   1  15   74.74   20.09
  -5  -1 -11  111.20   25.50
   5  -1  11   97.03   28.85
   5   1  11   91.01   28.02
   5  -1  11   96.02   23.48
   5  -1  11  123.75   25.38
   5   1  11  130.68   24.86
   5   1  11  125.30   30.04
   5   1  11  111.60   28.24
   5  -1  11   82.69   17.18
  -5   1 -11   88.79   18.51
   1   8  12  545.29   38.92
   1  -8  12  476.73   40.31
  -1   8 -12  512.36   43.86
  -1  -8 -12  431.82   33.53
  -1   8 -12  360.10  105.58
   1  -8  12  466.35   41.19
   1  -8  12  458.47   38.54
  -1  -8 -12  500.85   39.26
   1  -8  12  481.11   38.57
   1   8  12  484.25   41.42
   2   0 -21  377.36   39.24
   2   0 -21  395.68   36.63
   2   0 -21  363.11   34.21
  -2   0  21  345.03   36.57
  -2   0  21  281.89   28.57
  -2   0  21  356.13   33.57
   2  -7  13   86.78   22.91
   2   7  13   77.75   18.78
  -2   7 -13   67.89   17.89
  -2  -7 -13   96.04   24.04
   2   7  13   56.23   25.55
   2  -7  13  102.95   24.32
  -2   7 -13   71.89   18.09
   2  -7  13   77.96   19.73
   2  -7  13   78.07   23.72
  -6  -2  -2  127.99   27.02
   6   2   2   72.15   22.13
  -6   2  -2   93.76   22.54
  -6  -2  -2   90.56   24.35
   6  -2   2  106.25   24.84
   6  -2   2   51.90   23.54
   6   2   2   66.98   24.82
   6  -2   2   80.29   20.17
   6  -2   2   57.61   21.86
   6   2   2  136.29   27.24
  -6   2  -2   80.77   19.85
   6   2   2   72.53   16.22
   6  -2  -6  615.35   36.94
  -6  -2   6  710.17   45.73
   6  -2  -6  603.98   44.81
   6   2  -6  780.05   48.22
  -6   2   6  666.02   43.95
   6  -2  -6  638.38   41.16
  -6  -2   6  706.56   46.48
   6   2  -6  586.54   44.98
  -6  -2   6  673.45   45.14
   6   2  -6  637.18   44.39
   6  -2  -6  684.85   47.34
  -6   2   6  701.80   48.43
   6  -2  -6  674.09   41.13
   6   0   4   13.55   20.92
  -6   0  -4   19.12   15.59
   6   0   4   25.83   24.51
   6   0   4   -1.10   15.48
  -6   0  -4   16.85   15.00
   6   0   4   22.82   11.56
  -4  -7   8  204.05   25.30
  -4   7   8  193.19   26.37
   4   7  -8  205.27   28.54
  -4  -7   8  241.82   30.59
   4   7  -8  209.92   25.22
   4  -7  -8  261.47   34.56
   4  -7  -8  302.42   34.16
   4  -7  -8  191.36   22.34
  -4  -7   8  293.06   37.96
  -4  -7   8  270.51   29.46
   4   7  -8  213.42   45.64
   4  -7  -8  240.47   29.70
   4   6   9  248.95   29.63
   4  -6   9  205.72   25.84
   4  -6   9  252.36   32.47
   4   6   9  174.10   32.88
   4  -6   9  173.82   23.37
   4   6   9  176.60   27.54
   4  -6   9  226.25   33.32
  -4   6  -9  186.75   29.15
   1  -5  18 1342.07   58.46
  -1   5 -18 1255.48   55.06
  -1  -5 -18 1391.02   62.96
   1  -5  18 1343.24   59.36
   1  -5  18 1273.32   53.43
   1   5  18 1341.14   59.66
  -1   5 -18 1339.04   62.22
   1   5  18 1261.54   53.91
  -1   5 -18 1280.12   54.87
   1   5  18 1211.72   57.60
   1  -5  18 1329.49   62.67
   2   3 -20 1125.94   54.56
  -2   3  20  988.66   47.93
   2  -3 -20  916.40   49.87
  -2  -3  20  981.17   52.21
   2   3 -20  965.80   52.77
   2   3 -20 1024.02   57.48
   2  -3 -20  994.10   53.35
  -2   3  20 1015.31   54.59
  -2  -3  20  937.89   48.01
  -2   3  20 1014.66   52.96
  -2  -3  20 1063.94   53.41
   2   3 -20 1026.64   54.63
   2  -3 -20 1005.38   57.46
  -2  -3  20 1053.62   54.72
  -5  -4  -8  605.53   45.83
   5  -4   8  559.73   41.12
   5   4   8  551.81   35.68
   5   4   8  591.41   40.47
   5  -4   8  568.97   38.55
   5  -4   8  554.78   40.70
  -5  -4  -8  590.19   44.24
   5   4   8  554.24   41.70
   1   9  -9  224.12   51.52
   1  -9  -9  271.03   32.20
  -1  -9   9  288.72   30.00
  -1  -9   9  280.90   32.59
   1   9  -9  286.57   30.61
  -1  -9   9  279.17   30.88
  -1  -9   9  276.21   31.92
   1  -9  -9  279.16   33.89
  -1   9   9  347.26   37.30
  -1   9   9  303.38   30.88
   1  -9  -9  274.48   31.46
   6   0  -8  193.86   34.35
  -6   0   8  151.59   26.93
   6   0  -8  146.86   24.75
  -6   0   8  199.07   28.74
  -6   0   8  201.22   31.55
   6   0  -8  147.79   23.56
   6   0  -8  184.43   32.32
   5  -6  -2 1153.64   55.91
   5   6  -2 1287.12   52.93
   5  -6  -2 1345.75   60.42
   5  -6  -2 1176.49   49.91
   5  -6  -2 1269.56   52.21
   5   6  -2 1358.57   58.51
  -5  -6   2 1500.22   66.18
   5   6  -2 1293.37   59.55
  -5  -6   2 1347.51   62.25
  -5  -6   2 1361.63   60.84
  -5   6   2 1313.43   52.86
   5  -6  -2 1380.43   58.10
  -2  -5  18  387.23   35.36
   2  -5 -18  355.10   33.89
   2   5 -18  428.06   33.96
   2  -5 -18  405.38   37.85
   2   5 -18  412.46   37.72
  -2  -5  18  424.22   38.89
  -2  -5  18  442.42   39.63
   2   5 -18  366.62   82.43
   2  -5 -18  454.55   36.81
   2   5 -18  405.04   36.95
  -2   5  18  432.62   38.76
  -2   5  18  484.42   40.87
   2  -9  -7  427.51   45.44
  -2  -9   7  364.99   33.58
  -2  -9   7  324.18   31.36
  -2   9   7  378.23   31.16
   2   9  -7  388.49   35.11
   2   9  -7  350.08   59.43
  -2  -9   7  391.45   36.05
   2  -9  -7  387.26   33.60
   2  -9  -7  368.92   36.57
   2   9  -7  336.52   77.23
   2  -9  -7  407.88   35.39
  -5  -6   1  106.61   26.97
  -5   6   1   82.49   17.15
   5  -6  -1   98.30   22.75
   5  -6  -1  115.73   25.95
   5  -6  -1   78.77   17.90
   5   6  -1   77.05   21.66
   5   6  -1  123.77   27.17
   5  -6  -1   95.63   20.34
   5  -6  -1   69.08   21.44
  -5  -6   1  100.59   24.46
   5   6  -1  102.18   19.83
   5   6  -1  124.22   24.61
   0 -10   0  404.53   33.39
   0 -10   0  364.19   35.43
   0  10   0  427.61   41.75
   0 -10   0  408.05   36.13
   4  -3  14  164.68   29.59
   4  -3  14  140.91   24.24
   4  -3  14  151.44   24.11
  -4   3 -14  196.11   28.70
   4   3  14  171.86   37.93
  -4  -3 -14  189.39   25.53
   4   3  14  193.02   28.68
   4   3  14  145.57   27.69
   4   3  14  154.56   20.98
  -2   1  21   17.93   15.38
  -2  -1  21   12.30   18.71
  -2  -1  21   27.55   16.75
   2  -1 -21   29.92   20.34
   2  -1 -21   42.77   23.22
   2   1 -21   31.55   23.73
  -2  -1  21    7.27   10.94
   2   1 -21   29.14   20.02
   2  -1 -21   51.11   21.49
   2   1 -21   46.99   24.70
   2   1 -21   55.96   18.07
  -2   1  21   46.95   25.21
  -2  -1  21   29.63   16.14
  -2   1  21   35.21   16.64
   1   0  21   97.34   24.86
  -1   0 -21   52.24   16.87
  -1   0 -21   97.61   24.55
   1   0  21   78.63   20.25
   0 -10  -1  124.80   26.94
   0 -10  -1  194.40   31.15
   0  10  -1  134.45   35.03
   0 -10   1  168.44   28.89
   0 -10   1  109.65   23.75
   0 -10   1  122.07   26.38
   0 -10  -1  153.33   29.26
   0 -10  -1  103.47   20.47
   1  -3  20  407.43   39.53
   1   3  20  396.76   34.11
   1  -3  20  405.92   35.57
   1   3  20  385.45   37.46
   1  -3  20  425.21   36.62
   1   3  20  387.83   38.52
  -1   3 -20  440.99   38.08
  -1   3 -20  432.16   38.84
  -1  -3 -20  419.59   37.74
   3   0  18   98.09   18.95
  -3   0 -18  181.94   27.39
   3   0  18  128.98   25.74
   3   0  18  128.05   21.44
   5  -6  -3  993.22   52.34
   5   6  -3  927.91   52.39
  -5  -6   3  983.54   54.02
   5  -6  -3  846.24   41.86
   5   6  -3  844.56   47.73
   5  -6  -3  981.75   47.86
   5  -6  -3  956.84   51.82
   5   6  -3  837.31   44.35
  -5  -6   3  949.47   53.18
   5  -6  -3  895.42   49.98
  -5   6   3  916.34   45.59
  -5  -6   3  977.99   50.86
   0  -8 -13   67.21   20.29
   0  -8  13   60.03   26.11
   0  -8 -13   50.40   20.92
   0   8  13   77.48   23.75
   0   8 -13   15.42   18.31
   0  -8  13   29.96   16.74
   0  -8  13   67.93   23.15
   0   8 -13   28.38   14.18
   0   8 -13   72.70   19.63
   0   8  13   34.27   17.83
   0  -8 -13   58.11   16.81
   5  -6   0   55.97   22.69
   5   6   0   29.19    7.99
  -5  -6   0   21.56   18.18
   5  -6   0   21.53   14.93
   5   6   0   16.10   16.39
   5  -6   0   19.07   13.03
  -5  -6   0   46.97   18.35
   5  -6   0   17.70   12.07
   5  -6   0   52.86   21.90
   5   6   0   44.39   16.90
   6  -1   4  108.75   25.23
  -6  -1  -4  159.48   32.84
  -6  -1  -4  122.63   24.07
   6   1   4   75.60   23.09
  -6   1  -4  105.94   23.60
   6  -1   4  108.78   22.61
   6  -1   4  122.69   20.26
  -6   1  -4  149.43   29.41
   6   1   4  138.14   28.85
   6   1   4  152.23   29.79
   6  -1   4  145.64   28.81
   4  -5 -14   41.80   17.43
  -4  -5  14   28.26   15.75
   4   5 -14   12.36   12.94
  -4   5  14   -2.36   16.93
  -4  -5  14    2.82   16.64
  -4  -5  14   18.50   14.00
  -4   5  14   18.83   15.79
   4   5 -14   20.37   25.47
   4  -5 -14   11.20   17.19
   4   5 -14   -0.37   15.96
   4  -5 -14   36.35   16.00
   4   5 -14   33.36   16.98
  -5  -5   9   23.54   15.74
   5  -5  -9   35.95   21.20
  -5  -5   9   52.53   21.78
  -5   5   9   30.60   16.05
   5   5  -9    5.46   13.88
   5  -5  -9   26.67   18.90
   5  -5  -9   26.28   13.25
   5   5  -9   49.24   23.00
   5  -5  -9   37.73   25.31
  -5   5   9   23.62   13.49
   5   5  -9    9.65    5.87
   3  -8   7  826.61   47.42
   3   8   7  772.94   41.75
   3  -8   7  789.55   48.41
  -3   8  -7  777.86   46.97
   3   8   7  755.55   44.39
   3  -8   7  848.43   49.05
   3  -8   7  787.29   46.26
  -3  -8  -7  816.77   44.43
   3   8   7  693.95  104.94
  -5  -3  13  306.38   36.32
   5  -3 -13  361.21   43.42
   5   3 -13  292.93   86.64
   5   3 -13  373.14   36.36
   5  -3 -13  288.55   36.44
   5  -3 -13  277.76   27.42
   5   3 -13  351.08   36.44
  -5  -3  13  324.49   35.63
   5   3 -13  319.71   32.03
   5   3 -13  352.92   37.39
  -5   3  13  322.32   34.31
   5  -3 -13  344.02   37.29
  -5   3  13  348.04   35.88
  -5  -3  13  312.21   35.46
   2  -9   6  298.36   29.29
   2   9   6  262.02   30.79
  -2  -9  -6  273.71   25.86
   2  -9   6  290.91   34.92
   2  -9   6  298.12   32.63
  -2   9  -6  303.55   34.18
  -2  -9  -6  320.72   36.63
   2  -9   6  257.15   30.48
   2  -9   6  273.91   33.00
   2   9   6  287.84   30.49
   4  -4  13   43.81   16.31
   4   4  13   69.86   24.50
   4  -4  13   88.98   23.34
   4   4  13   45.39   19.65
   4  -4  13   86.08   19.75
   4   4  13   48.89   16.48
  -4   4 -13   47.18   22.23
   4  -4  13   44.25   22.22
  -3   0  20    6.82   16.36
   3   0 -20   46.00   24.26
   3   0 -20   22.08   14.06
  -3   0  20   44.35   19.90
   3   0 -20    3.93   20.47
  -3   0  20    5.10   14.49
   3   0 -20   -1.70   10.99
   5   2 -14  382.22   35.27
   5   2 -14  363.58   36.70
  -5  -2  14  397.76   38.47
   5  -2 -14  367.93   39.55
  -5  -2  14  413.62   39.04
   5   2 -14  232.53   79.04
   5  -2 -14  385.37   35.83
  -5   2  14  340.25   37.05
  -5  -2  14  394.16   38.43
   5   2 -14  372.26   36.47
   5  -2 -14  409.77   40.01
   5   2 -14  390.52   37.24
   5  -2 -14  361.58   35.07
  -5   2  14  334.75   34.69
  -5   2  14  347.74   31.01
   4   0 -18  445.08   42.64
   4   0 -18  398.32   33.82
  -4   0  18  366.87   36.09
   4   0 -18  475.28   40.28
   4   0 -18  449.93   39.50
   4   0 -18  239.73   52.50
  -4   0  18  411.47   37.49
  -4   0  18  439.31   39.78
   3   4  16  342.19   36.07
  -3  -4 -16  399.04   39.05
   3  -4  16  348.06   31.45
   3   4  16  328.17   34.40
  -3   4 -16  368.99   35.77
   3   4  16  352.54   34.80
   3  -4  16  351.98   37.13
   6   1  -8   72.55   24.97
   6   1  -8  106.24   29.84
   6  -1  -8  113.94   27.10
   6  -1  -8   69.38   20.88
   6  -1  -8  134.83   31.11
  -6   1   8   57.08   17.38
   6   1  -8  114.82   23.31
  -6  -1   8  109.82   25.18
   6   1  -8   67.18   18.67
  -6  -1   8  114.36   25.82
   6  -1  -8  113.64   23.45
  -6   1   8  144.53   31.73
  -6  -1   8   90.28   26.94
  -6   1   8   76.38   22.66
  -3  -8   9 1264.34   61.08
   3   8  -9 1287.46   57.83
  -3  -8   9 1228.80   55.52
   3  -8  -9 1335.52   60.90
  -3  -8   9 1280.69   61.05
   3   8  -9 1207.27  152.20
   3  -8  -9 1312.33   55.74
   3   8  -9 1283.88   56.40
   3  -8  -9 1250.57   56.67
   3  -8  -9 1368.28   61.78
  -3   8   9 1281.35   58.90
   2  -4  18  207.34   30.69
   2   4  18  178.82   33.61
  -2   4 -18  206.82   31.86
  -2   4 -18  177.22   23.41
   2  -4  18  168.66   28.34
   2   4  18  221.27   27.94
   2  -4  18  219.35   28.71
   0 -10   2  183.15   26.18
   0 -10   2  232.72   35.61
   0 -10  -2  202.26   26.69
   0 -10   2  224.55   30.34
   0 -10  -2  215.05   29.27
   0  10  -2  179.77   48.02
   0 -10  -2  220.82   27.78
   0 -10  -2  209.60   30.42
   0 -10   2  204.72   26.72
  -3   6 -13  119.54   22.53
   3   6  13  180.28   27.82
   3   6  13  145.67   27.19
  -3  -6 -13  164.94   24.23
  -3   6 -13  161.29   26.79
   3  -6  13  158.66   21.96
   3   6  13  219.41   28.85
   3  -6  13  167.36   26.89
   3  -6  13  169.25   27.13
  -6  -3   2    5.71   16.01
   6   3  -2   33.75   18.18
   6  -3  -2   15.13   18.28
   6   3  -2   10.38   12.43
   6  -3  -2   30.92   19.29
   6   3  -2   27.44    8.16
   6  -3  -2   23.45   23.53
   6   3  -2   29.68   20.33
   6  -3  -2   34.16   14.34
  -6   3   2   19.32   16.91
  -6   3   2   -5.13   10.99
  -6  -3   2   17.06   15.69
  -5  -6   4  356.45   34.20
   5   6  -4  355.44   37.76
   5  -6  -4  356.08   33.36
  -5  -6   4  283.23   31.62
  -5  -6   4  364.03   36.93
   5   6  -4  305.79   31.00
   5  -6  -4  307.38   29.59
   5  -6  -4  288.28   30.40
   5   6  -4  344.98   32.88
  -5   6   4  309.03   29.32
   5  -6  -4  392.30   36.67
   1   8 -13   27.79   17.46
  -1  -8  13   27.14   17.66
  -1  -8  13   35.92   17.01
   1   8 -13   26.38   23.05
   1   8 -13   54.87   11.69
   1  -8 -13   39.25   19.99
   1  -8 -13   12.32   16.17
  -1  -8  13   35.04   17.59
  -1   8  13   37.86   19.12
  -1   8  13   21.90   16.75
  -1  -8  13   52.39   22.67
   6  -3  -1   47.21   19.89
   6   3  -1   22.95   18.33
   6   3  -1   53.43   24.37
  -6  -3   1   25.27   16.74
   6  -3  -1   80.10   22.83
   6  -3  -1   50.70   21.30
  -6  -3   1   94.24   24.00
  -6   3   1   52.24   20.58
   6   3  -1   33.34   13.39
   6   3  -1   34.72   17.21
   6   2   3   18.84   17.25
  -6  -2  -3   34.49   18.75
   6   2   3   12.16   13.27
   6  -2   3   41.54   22.31
   6  -2   3    4.72   14.66
   6   2   3   20.52   25.80
  -6   2  -3   23.14   13.03
  -6  -2  -3   12.70   16.11
  -6   2  -3   12.76   14.31
  -6  -3   3   22.55   15.96
  -6   3   3   53.58   18.25
  -6   3   3   44.80   17.13
  -6  -3   3   28.76   23.72
   6  -3  -3   22.58   14.78
   6   3  -3   -3.92   14.03
   6   3  -3   51.89   20.48
   6  -3  -3   70.61   28.84
   6   3  -3   18.60   13.63
   6  -3  -3   19.35   17.78
   6   3  -3   29.45   17.75
   6  -3  -3   68.05   22.65
  -1   1 -21  404.94   39.68
   1  -1  21  345.84   29.63
   1   1  21  361.09   30.36
   1   1  21  359.32   36.60
   1  -1  21  363.35   31.25
  -1   1 -21  334.71   31.40
   1  -1  21  413.43   36.90
   1   1  21  360.53   37.94
  -1  -1 -21  391.90   38.83
  -3  -1 -18   34.98   18.76
   3   1  18   57.85   17.69
   3  -1  18   70.91   23.27
   3   1  18   27.93   16.14
   3  -1  18   20.60   23.38
   3   1  18   61.69   20.25
   3   1  18   44.89   14.89
  -3   1 -18   34.25   15.34
  -3  -6  15   -1.84   16.96
   3  -6 -15   11.82   11.53
   3  -6 -15    2.98   13.78
  -3   6  15   -9.52   18.97
   3   6 -15   25.82   19.68
   3  -6 -15   -4.42   13.45
  -3   6  15    8.74   15.55
  -3  -6  15   -3.36   15.31
  -3  -6  15   -9.81   17.03
   3  -6 -15    8.73   19.51
   3   6 -15  -19.91   15.67
   3   6 -15   16.37   15.68
   3  -4 -18  105.41   25.87
  -3  -4  18  161.81   27.26
   3  -4 -18  116.71   28.72
  -3  -4  18  129.74   25.31
  -3   4  18   91.65   19.76
  -3  -4  18  186.59   28.11
   3  -4 -18  129.14   21.93
   3   4 -18  136.46   27.29
   3   4 -18   85.14   28.06
  -3   4  18  121.75   26.97
  -3  -4  18  104.14   20.22
   3   4 -18  103.49   26.95
   4  -7   6  538.00   36.91
   4  -7   6  526.69   41.89
   4   7   6  501.86   39.64
   4  -7   6  504.57   40.55
  -4   7  -6  486.33   37.97
   4  -7   6  488.64   40.85
  -4  -7  -6  560.11   43.02
   4   7   6  417.10   79.35
   4  -7   6  513.03   35.93
   5  -5   6   16.05   15.65
  -5  -5  -6   -4.45   14.28
   5  -5   6   37.15   18.16
   5   5   6   30.53   20.10
   5   5   6   45.23   24.07
  -5  -5  -6    9.14   14.71
   5  -5   6    1.73   13.55
   5   5   6   23.18   12.66
   3   3  17  713.92   47.09
  -3  -3 -17  794.73   48.03
   3  -3  17  834.16   48.27
   3   3  17  833.42   48.95
   3   3  17  709.11   43.80
   3  -3  17  793.35   45.00
  -3   3 -17  788.27   49.59
   3  -3  17  800.15   45.60
   5  -6   1  182.21   23.95
   5   6   1  177.53   27.38
  -5  -6  -1  185.00   30.48
   5  -6   1  168.28   27.74
   5  -6   1  178.43   29.56
   5  -6   1  186.94   27.97
  -5  -6  -1  258.75   33.66
   5   6   1  159.72   59.29
   5  -6   1  210.02   26.97
   5   6   1  151.87   24.19
   6   2  -7   30.37   15.03
  -6  -2   7   58.73   21.06
   6  -2  -7   75.73   23.27
   6   2  -7   66.22   19.00
   6  -2  -7   39.63   18.25
  -6   2   7   63.98   24.38
   6   2  -7   37.40   17.47
  -6   2   7   66.23   24.03
  -6  -2   7   42.87   22.22
   6  -2  -7   36.37   18.98
  -6  -2   7   37.20   15.97
   6  -2  -7   73.53   25.33
   6   2  -7   43.76   20.61
   4   6 -12   94.55   23.64
   4  -6 -12  167.56   29.16
  -4  -6  12  153.31   27.86
   4  -6 -12  108.90   25.77
   4  -6 -12  127.45   28.86
  -4   6  12  135.07   30.31
  -4  -6  12   91.92   20.29
  -4  -6  12   80.01   25.18
  -4   6  12  109.24   21.84
   4   6 -12  163.07   27.82
   4  -6 -12  106.87   21.13
   4   6 -12   75.85   19.37
   4   6 -12  132.81   29.79
  -1   4  20  198.38   24.05
  -1   4  20  241.53   31.11
  -1  -4  20  220.30   28.06
   1  -4 -20  230.71   28.27
   1   4 -20  161.18   48.10
   1   4 -20  150.10   27.20
   1  -4 -20  259.13   40.49
  -1  -4  20  183.54   27.62
   1   4 -20  243.80   29.47
   1  -4 -20  197.62   24.72
  -1  -4  20  238.35   32.80
  -1   4  20  215.57   32.04
   1   4 -20  260.86   33.84
   2   0  20   47.51   15.28
   2   0  20   74.60   23.04
  -2   0 -20   87.08   21.26
   2   0  20   92.44   21.12
   6   3   0  192.60   34.25
   6   3   0  150.16   23.64
   6  -3   0  219.68   28.03
  -6  -3   0  177.33   29.60
   6  -3   0  169.33   26.69
   6   3   0  162.74   31.22
  -6   3   0  138.40   25.02
   6  -3   0  194.18   30.23
   6   3   0  159.36   26.03
  -6  -3   0  195.41   29.29
  -6   3   0  169.81   26.02
  -3   1  20  100.82   25.82
  -3  -1  20   77.95   19.13
  -3   1  20   98.33   26.51
   3   1 -20   72.86   16.80
  -3  -1  20  104.57   25.58
   3  -1 -20   76.26   18.20
  -3  -1  20   90.02   22.41
  -3  -1  20   90.57   19.18
   3  -1 -20   64.10   24.24
   3   1 -20   93.61   26.07
   3  -1 -20   46.48   17.69
   3   1 -20  109.39   25.00
  -3   1  20  102.42   24.74
   3  -1 -20  105.76   30.54
   3   1 -20   90.90   23.83
  -3   3  19   38.29   17.75
  -3   3  19   22.87   13.65
   3  -3 -19    5.40   19.26
  -3  -3  19   45.56   20.60
   3   3 -19   45.94   26.57
  -3  -3  19   22.44   17.33
   3   3 -19   24.50   16.78
   3  -3 -19    5.61   16.44
  -3  -3  19   13.52   16.19
   3  -3 -19   34.88   18.10
  -3  -3  19   25.46   15.47
  -3   3  19   31.59   20.47
   3   3 -19   32.80   18.64
   5  -3  10  822.55   49.43
  -5  -3 -10  896.96   53.56
   5  -3  10  811.42   51.81
   5  -3  10  842.45   42.51
   5  -3  10  780.48   43.61
   5   3  10  804.53   48.84
   5   3  10  695.04  146.50
   5   3  10  744.97   46.39
  -4  -1  18   88.87   25.29
  -4  -1  18   45.67   25.39
   4  -1 -18   24.64   15.89
  -4   1  18   64.23   18.14
   4  -1 -18   43.69   17.90
   4   1 -18   59.70   19.37
  -4   1  18   25.90   22.67
  -4  -1  18   68.21   22.35
   4   1 -18   76.75   26.42
  -4   1  18   50.24   20.08
   4   1 -18   49.56   23.05
   4   1 -18   73.81   28.90
   4  -1 -18   61.78   23.02
  -4  -1  18   41.49   18.00
   4   2  15  102.73   19.56
  -4  -2 -15   76.53   19.37
   4   2  15   70.78   18.53
   4   2  15   51.10   12.58
  -4   2 -15   98.80   24.22
   4  -2  15  111.82   23.25
   4   2  15   66.62   21.74
   4  -2  15   64.16   22.20
   4  -2  15   90.80   21.68
   6  -3  -4  199.48   27.10
   6   3  -4  276.44   33.29
  -6   3   4  216.46   26.33
   6  -3  -4  196.02   23.63
   6   3  -4  265.49   36.66
   6  -3  -4  263.30   33.31
  -6   3   4  239.64   29.38
   6   3  -4  235.87   29.42
  -6  -3   4  240.17   31.41
   6  -3  -4  276.07   35.20
  -6  -3   4  240.84   29.42
  -6  -3   4  237.99   36.80
   0  -4  20  157.68   25.50
   0   4 -20  124.78   30.01
   0  -4  20  167.18   22.29
   0  -4 -20  176.59   28.40
   0  -4 -20  145.94   26.11
   0   4 -20  209.25   27.11
   0  -4  20  192.38   30.79
   0   4  20  219.78   27.14
   0   4 -20  179.68   26.05
   0   4  20  183.36   29.30
   0  -4  20  202.90   28.78
   0   4  20  177.99   31.63
   2   8 -12  206.22   49.98
  -2  -8  12  233.47   32.55
  -2   8  12  249.38   32.47
   2  -8 -12  247.30   30.28
   2  -8 -12  213.23   30.03
   2   8 -12  248.32   32.21
  -2  -8  12  211.07   34.79
  -2  -8  12  233.60   30.33
   2  -8 -12  208.35   28.27
  -2   8  12  194.16   25.81
  -2  -8  12  227.84   29.68
   2   8 -12  217.63   27.61
   0 -10  -3  871.17   48.53
   0 -10   3  756.13   47.77
   0  10  -3  771.73  166.78
   0 -10   3  720.69   45.73
   0 -10   3  748.04   41.70
   0 -10  -3  801.02   46.26
   0 -10   3  812.14   50.13
   0 -10  -3  702.18   39.41
   0 -10  -3  937.66   54.90
   1  -7  15  109.21   24.75
  -1   7 -15   43.68   19.68
   1   7  15   84.01   25.64
   1  -7  15  110.52   22.39
  -1  -7 -15   70.20   23.77
  -1   7 -15   76.53   23.96
   1  -7  15   71.67   23.18
   1  -7  15   69.33   20.46
  -1   7 -15   94.16   23.23
   1   7  15   71.94   28.11
   5  -2  11   29.67   14.97
  -5  -2 -11   25.80   15.72
   5   2  11   28.51   12.66
   5  -2  11   82.79   20.27
   5   2  11   42.64   18.40
   5  -2  11   34.38   17.55
   5   2  11   40.59   14.78
   2  -5  17  553.70   43.24
   2  -5  17  529.77   40.61
  -2   5 -17  510.53   41.32
   2   5  17  489.72   39.86
   2   5  17  526.91   44.11
  -2   5 -17  368.78   57.81
  -2   5 -17  478.63   36.05
   2  -5  17  481.66   34.43
   2  -5  17  452.65   39.86
  -2  -5 -17  457.15   39.61
   2  -3  19  179.29   25.47
  -2   3 -19  216.42   33.42
  -2  -3 -19  122.80   27.45
   2  -3  19  166.91   25.48
   2  -3  19  176.45   27.20
   2   3  19  193.80   28.79
   2   3  19  262.88   33.09
  -1   9  -9  397.32   36.90
   1  -9   9  407.77   38.54
   1  -9   9  423.99   35.44
   1  -9   9  396.45   37.80
   1  -9   9  395.76   37.00
   1  -9   9  396.94   35.68
   1   9   9  384.03   33.78
   1   9   9  417.23   37.61
  -1  -9  -9  408.24   38.51
  -1  -9  -9  377.61   34.52
   6   0   5  395.93   37.43
  -6   0  -5  431.15   35.42
  -6   0  -5  455.17   38.00
   6   0   5  457.07   41.00
   6   0   5  428.70   35.98
  -5  -6   5   71.67   24.80
   5  -6  -5   15.76   15.81
   5   6  -5   45.53   20.33
   5   6  -5   27.95   21.16
  -5   6   5   46.36   20.06
   5   6  -5   58.64   19.92
   5  -6  -5   38.97   15.66
  -5  -6   5   59.59   20.85
   5  -6  -5   16.05   12.93
  -5  -6   5   38.70   21.13
   5  -6  -5   77.61   22.09
  -5   0  15   72.38   26.46
   5   0 -15   68.25   19.55
   5   0 -15  105.74   31.33
  -5   0  15  105.23   24.12
   5   0 -15  172.79   36.85
   5   0 -15   64.45   20.24
  -5   0  15   59.34   18.12
   5   0 -15  103.98   25.89
   1   5 -19  115.95   23.78
  -1  -5  19  167.37   29.60
   1   5 -19  159.47   27.74
  -1   5  19  151.81   24.15
  -1  -5  19  143.64   24.87
   1  -5 -19  160.79   30.70
   1   5 -19  139.20   26.12
   1   5 -19  155.79   29.16
  -1  -5  19  158.02   29.86
  -1   5  19  133.05   27.38
   1  -5 -19  141.26   27.33
   1  -5 -19  135.26   22.46
   0  -9 -10  357.11   30.80
   0   9 -10  272.47   76.96
   0  -9 -10  390.93   36.95
   0   9  10  303.02   34.39
   0  -9  10  340.89   34.11
   0  -9  10  300.22   29.41
   0  -9 -10  325.91   34.66
   0   9  10  398.88   32.59
   0   9 -10  351.40   38.30
   0  -9  10  333.24   39.37
   0  -9  10  378.19   41.22
   0   5  19  113.82   25.72
   0  -5  19  123.48   23.33
   0   5  19  114.86   21.84
   0   5 -19  109.29   24.41
   0   5 -19   99.39   23.06
   0   5  19  112.86   27.73
   0  -5  19   97.59   19.57
   0  -5  19  106.57   26.17
   0  -5 -19   99.03   25.64
   0   5 -19  107.35   29.16
   0  -5 -19   89.12   20.73
   0  -5  19  129.39   24.99
  -1 -10   0  319.43   31.55
   1 -10   0  312.62   33.20
  -1  10   0  278.76   76.00
   1 -10   0  299.60   32.61
  -1 -10   0  301.02   34.27
   1 -10   0  283.87   34.01
  -1 -10   0  316.49   31.23
   4  -7  -9  441.46   37.17
   4  -7  -9  426.22   34.26
   4   7  -9  484.93   39.07
   4   7  -9  427.42   34.69
   4  -7  -9  408.67   38.07
   4   7  -9  426.97  119.43
  -4  -7   9  485.38   40.98
   4  -7  -9  506.93   40.17
  -4   7   9  462.02   38.68
  -4  -7   9  491.45   41.35
  -4  -7   9  482.65   35.97
  -4   7   9  395.90   29.76
  -6   0   9   33.10   23.63
   6   0  -9   12.26   19.13
  -6   0   9   26.17   14.92
   6   0  -9   30.86   15.03
  -6   0   9   43.41   24.28
   6   0  -9   62.64   19.81
   6   0  -9   44.38   19.75
   5   6   2   46.80   20.73
   5  -6   2   32.69   18.50
  -5  -6  -2   24.14   18.12
   5  -6   2   27.45   17.13
  -5  -6  -2   38.74   26.34
   5  -6   2   66.95   24.25
   5   6   2    6.53   11.86
   5   6   2   68.02   19.84
   5  -6   2   27.65   17.54
   1 -10  -1   80.89   19.85
  -1 -10   1  114.16   23.19
  -1 -10   1  100.27   20.81
   1 -10  -1   77.31   24.83
   1 -10  -1   87.98   21.49
  -1 -10   1  114.40   24.22
   1  10  -1   95.15   23.36
   2   1  20  173.09   29.00
   2   1  20  205.68   24.94
   2  -1  20  198.95   25.45
  -2  -1 -20  272.47   38.20
   2  -1  20  232.83   31.58
   2   1  20  204.96   26.47
  -2   1 -20  223.08   33.34
  -3   5 -15  129.01   30.11
   3   5  15  120.09   26.18
   3  -5  15   86.73   19.21
   3  -5  15   94.77   20.64
   3  -5  15  131.97   25.81
   3   5  15   88.97   23.67
   3   5  15  108.48   25.71
   3  -5  15  137.23   26.34
  -3  -5 -15  118.14   23.64
  -3   7 -11   27.23   11.63
   3   7  11   22.21   19.74
   3  -7  11   29.52   13.71
   3  -7  11   53.41   24.03
  -3  -7 -11   51.10   18.10
   3   7  11   49.54   26.53
  -3   7 -11   55.92   21.84
   3   7  11   36.94   17.92
   3  -7  11   71.20   20.49
   3  -7  11   54.60   24.02
   6   3   1   45.49   26.59
   6  -3   1   44.27   17.27
   6   3   1   74.44   23.03
  -6   3  -1   63.27   19.47
   6   3   1   79.25   17.19
  -6  -3  -1   22.77   15.19
  -6   3  -1   58.95   21.77
  -6  -3  -1   60.36   25.76
   6  -3   1   33.23   20.37
   6  -3   1   57.86   23.84
   2  -9  -8  246.60   30.81
  -2  -9   8  201.77   29.43
  -2  -9   8  175.83   26.75
   2   9  -8  182.47   24.80
   2  -9  -8  168.90   28.42
  -2   9   8  166.11   27.92
   2   9  -8  146.54   44.23
   2  -9  -8  190.22   26.60
  -2  -9   8  194.02   30.60
   2  -9  -8  180.80   28.80
   2   9  -8  192.20   53.47
   4  -3 -17  124.22   28.01
   4   3 -17  181.85   30.02
   4   3 -17  165.72   32.55
  -4  -3  17  118.52   27.38
  -4  -3  17  147.37   26.49
   4  -3 -17  183.27   30.06
   4  -3 -17  135.00   23.82
  -4   3  17  140.60   28.28
  -4  -3  17  228.14   30.45
   4   3 -17  125.41   31.14
  -4  -3  17  153.65   26.26
  -4   3  17  147.44   29.24
   4   3 -17  193.43   36.63
  -6   3   5  173.53   25.94
  -6  -3   5  142.35   27.22
  -6   3   5  129.33   24.63
   6  -3  -5  131.02   26.89
   6   3  -5  168.13   29.92
  -6  -3   5  178.38   27.72
   6  -3  -5  145.83   26.11
   6   3  -5  122.29   26.61
   6  -3  -5  131.27   28.43
   6   3  -5  139.58   27.27
   6  -3  -5  161.62   24.93
  -6  -3   5  118.17   27.27
  -1 -10  -1  459.55   35.39
  -1 -10  -1  524.55   39.24
   1 -10   1  498.16   39.96
   1 -10   1  523.81   39.71
  -1 -10  -1  570.97   40.52
  -1  10  -1  403.44   71.90
   1 -10   1  473.32   33.12
  -1 -10  -1  497.28   37.65
   1 -10   1  485.46   39.50
   1  -6  17  799.99   48.11
  -1   6 -17  559.32  133.25
   1   6  17  755.14   42.25
   1   6  17  774.19   51.09
  -1   6 -17  657.15   46.24
  -1   6 -17  781.89   46.75
   1   6  17  755.77   48.18
   1  -6  17  748.40   46.15
   1  -6  17  809.69   50.33
   1  -6  17  781.33   48.12
  -1  -6 -17  828.08   50.75
  -5   4  12   53.85   24.34
  -5  -4  12   47.83   22.79
   5  -4 -12    7.58   11.69
  -5   4  12   45.65   19.81
  -5  -4  12   34.75   20.40
   5   4 -12   48.76   22.62
   5  -4 -12   51.22   18.23
   5   4 -12   34.73   19.41
   5   4 -12   49.89   16.61
  -5  -4  12   16.14   14.91
   5  -4 -12   43.64   19.78
   5   4 -12   59.70   19.95
   5   4 -12   69.60   24.50
   5  -4 -12   49.91   23.36
  -3  -7  13  202.71   30.09
   3   7 -13  199.26   27.18
  -3  -7  13  148.31   25.81
   3   7 -13  200.70   46.67
  -3  -7  13  179.81   28.81
   3  -7 -13  232.71   37.22
   3  -7 -13  207.51   29.01
  -3   7  13  185.44   28.82
   3  -7 -13  161.95   23.98
   3   7 -13  155.58   30.52
   3  -7 -13  178.51   30.59
  -3   7  13  169.78   26.48
  -3  -5  17  366.25   38.08
   3   5 -17  417.01   39.64
  -3   5  17  384.08   38.46
   3  -5 -17  385.53   35.92
  -3  -5  17  449.33   41.77
  -3  -5  17  409.43   38.74
   3   5 -17  447.01   41.93
   3  -5 -17  380.00   36.07
   3  -5 -17  425.78   38.39
   3   5 -17  372.41   37.63
  -3   5  17  426.15   42.01
   2  -2 -21   81.58   23.81
  -2  -2  21   64.65   23.36
  -2  -2  21   52.60   18.78
  -2   2  21   76.61   22.19
   2   2 -21   54.89   21.52
   2   2 -21   78.66   21.44
   2  -2 -21   60.38   20.66
   2  -2 -21   52.40   16.42
   2   2 -21  114.59   25.34
  -2  -2  21   59.28   21.23
  -2   2  21   24.24   18.73
  -2  -2  21   43.88   13.79
   2   2 -21   71.35   24.03
  -2   2  21   41.71   14.69
  -1 -10   2  631.11   42.38
  -1 -10   2  575.65   40.39
   1 -10  -2  603.98   44.89
   1 -10  -2  628.27   43.25
   1  10  -2  564.41  118.88
   1 -10  -2  630.96   42.59
  -1 -10   2  677.14   43.58
   1 -10  -2  651.43   44.59
  -1 -10   2  602.18   37.92
   6  -1   5  204.52   30.90
   6  -1   5  222.59   36.82
   6   1   5  255.96   34.17
   6  -1   5  132.96   20.48
  -6  -1  -5  193.26   35.54
  -6   1  -5  229.37   28.00
   6   1   5  210.03   31.63
   6  -1   5  224.66   26.72
   6   1   5  226.00   28.82
  -6  -1  -5  209.57   29.35
  -6   1  -5  201.93   28.07
  -5  -1  15  439.17   38.98
   5   1 -15  425.27   40.34
   5   1 -15  418.79   37.78
  -5   1  15  424.90   34.42
  -5   1  15  398.45   37.33
   5  -1 -15  410.13   40.62
   5   1 -15  391.79   40.23
  -5  -1  15  473.31   42.64
  -5   1  15  376.90   40.72
   5  -1 -15  368.84   33.37
   5  -1 -15  410.52   41.61
   5   1 -15  411.89   38.23
   5  -1 -15  361.90   31.71
   5  -1 -15  459.78   44.22
  -5  -1  15  385.67   35.99
   5   1 -15  295.70   79.56
  -4  -4  16  168.19   25.50
  -4   4  16  170.17   29.31
   4   4 -16  174.34   30.70
   4  -4 -16  199.47   26.01
   4   4 -16  185.73   29.28
   4   4 -16  166.54   25.74
   4  -4 -16  167.33   29.83
   4   4 -16  145.54   47.21
  -4  -4  16  136.22   26.78
   4  -4 -16  157.41   28.05
  -4   4  16  146.09   28.22
  -4  -4  16  166.23   28.12
   2  -8  11  275.83   33.79
  -2   8 -11  239.00   38.81
   2  -8  11  305.50   33.64
  -2  -8 -11  276.88   32.37
   2  -8  11  302.07   32.82
   2  -8  11  272.32   34.99
   2   8  11  312.26   33.86
  -2   8 -11  301.99   36.32
  -1   3  21  984.66   55.32
   1   3 -21  845.57   45.57
   1   3 -21 1093.68   60.22
  -1   3  21  899.46   48.51
   1  -3 -21  840.24   44.96
   1   3 -21  862.39   48.80
   1  -3 -21  858.55   49.86
  -1   3  21  967.84   52.14
   1  -3 -21  905.64   52.67
   1   3 -21  920.50   52.38
  -1  -3  21  927.86   51.53
  -1  -3  21  965.85   53.03
  -1  -3  21  864.57   45.85
   1   0 -22   65.69   21.27
  -1   0  22  118.97   24.01
  -1   0  22   83.52   24.86
   1   0 -22   70.18   26.88
   1   0 -22   91.97   24.08
  -1   0  22   52.62   18.31
   0 -10  -4  684.55   47.26
   0 -10   4  746.15   46.03
   0  10  -4  733.80   49.41
   0 -10  -4  750.52   44.87
   0 -10   4  714.39   45.57
   0 -10  -4  715.86   45.37
   0 -10   4  777.61   49.11
   0 -10   4  797.41   45.65
  -2  -7  15 1247.48   57.34
  -2  -7  15 1189.79   58.98
   2  -7 -15 1263.33   62.36
   2  -7 -15 1253.86   58.53
  -2   7  15 1352.89   66.31
  -2  -7  15 1350.01   63.00
   2   7 -15 1254.21   55.24
   2   7 -15 1299.76   61.58
   2   7 -15 1269.25   60.16
   2  -7 -15 1221.22   58.96
   2   7 -15 1312.53   62.26
  -2   7  15 1289.74   62.25
   6   2   4   46.00   23.45
   6   2   4   52.94   19.72
  -6  -2  -4   88.53   23.74
  -6  -2  -4   57.05   23.58
  -6   2  -4   49.14   16.75
   6  -2   4   66.58   21.01
  -6   2  -4   64.15   19.23
   6   2   4   70.15   28.41
   6  -2   4   66.70   26.37
   6  -2   4   40.62   13.53
   6  -2   4   35.47   23.58
   5   0  12   12.81   15.86
  -5   0 -12    4.77   12.26
   5   0  12    9.07   13.74
   5   0  12    7.37    6.60
   5   0  12    9.83   13.02
   6  -1  -9   24.17   15.43
   6   1  -9   27.86   18.69
   6   1  -9   51.21   26.38
  -6  -1   9    2.46   16.39
  -6   1   9   22.87   18.68
  -6  -1   9    1.39   16.10
   6  -1  -9   16.49   13.90
   6   1  -9   35.47   21.04
  -6   1   9    7.73   12.01
  -6  -1   9   26.32   17.57
   6  -1  -9   -4.07   14.64
   6   1  -9    7.24   13.13
   2   6 -17  194.18   29.98
  -2  -6  17  155.95   26.70
  -2   6  17  128.42   26.93
  -2  -6  17  165.00   29.73
  -2  -6  17  132.61   26.12
   2  -6 -17  133.44   28.63
   2   6 -17  122.25   22.84
   2  -6 -17  120.62   24.89
   2   6 -17  115.23   34.92
  -2   6  17  135.43   28.69
   2  -6 -17  119.76   26.57
  -1   9  10   31.35   18.43
   1  -9 -10   42.22   18.88
  -1   9  10   18.26   14.70
   1  -9 -10   -5.88   14.80
  -1  -9  10   16.70   15.92
   1   9 -10   26.36   16.66
   1  -9 -10   20.02   15.59
   1   9 -10   34.36   23.91
  -1  -9  10   -1.64   13.60
  -1  -9  10   -1.55   16.74
   1   9 -10   27.24   12.61
   0   3  21   48.91   26.35
   0   3 -21   39.56   28.96
   0  -3 -21   39.13   23.37
   0  -3  21    8.17   12.55
   0  -3 -21    0.27   12.86
   0   3 -21   15.34   12.61
   0   3  21   34.47   23.87
   0  -3  21   11.99   25.52
   0   3 -21   53.41   22.00
   0  -3  21   17.54   14.92
   0   3  21   29.19   21.48
   1 -10   2  116.83   25.22
  -1 -10  -2   36.27   16.20
  -1 -10  -2   82.90   21.13
   1 -10   2   32.56   16.60
   1 -10   2   88.51   21.64
  -1 -10  -2   73.13   20.77
  -1  10  -2   54.94   31.65
   1 -10   2   88.11   21.32
  -1 -10  -2   64.67   20.69
   2  -9   7  551.56   39.08
   2   9   7  547.09   38.24
   2  -9   7  517.70   40.71
   2  -9   7  577.24   42.28
  -2   9  -7  645.02   47.63
   2   9   7  538.14   41.10
  -2  -9  -7  521.19   38.83
   2  -9   7  512.34   40.28
   2  -9   7  452.59   37.47
   4   5  12  289.84   66.43
   4   5  12  354.99   34.75
   4  -5  12  329.16   37.75
   4  -5  12  334.69   32.30
  -4   5 -12  501.98   36.91
   4  -5  12  384.01   37.94
   4   5  12  356.52   36.49
  -6  -2   8  389.85   36.25
   6   2  -8  399.46   32.95
   6  -2  -8  436.63   42.66
   6  -2  -8  376.60   34.18
  -6   2   8  433.73   43.75
  -6  -2   8  450.37   37.81
  -6   2   8  424.11   39.43
   6   2  -8  412.79   39.69
   6  -2  -8  393.82   37.80
   6   2  -8  441.28   40.61
  -6  -2   8  422.03   38.35
   6   2  -8  447.81   39.72
   6  -2  -8  372.10   33.07
   0   0 -22  578.38   41.32
   0   0  22  659.22   48.34
   0   0  22  628.85   44.52
   0   0 -22  640.00   47.05
   5   5 -10   57.92   12.22
   5   5 -10  141.34   28.69
   5  -5 -10   66.38   24.06
  -5   5  10   74.33   18.75
   5  -5 -10   72.12   19.80
   5   5 -10   70.30   25.26
   5  -5 -10   44.84   28.95
  -5  -5  10   58.64   20.85
   5  -5 -10   66.05   19.96
   5   5 -10  101.33   28.44
  -5  -5  10   94.51   23.81
  -5  -5  10   91.66   25.88
   0   7 -16   53.33   19.35
   0   7  16   37.57   18.07
   0  -7  16    1.66   15.18
   0  -7 -16    9.96   12.74
   0   7 -16   30.87   17.81
   0   7 -16   -8.27   16.15
   0  -7  16   30.05   20.06
   0  -7 -16   25.49   17.29
   0   7  16   13.75   17.36
   0  -7  16   24.06   14.25
   0  -7  16   21.23   17.36
   5   6  -6  469.71   41.61
   5  -6  -6  516.12   42.98
  -5  -6   6  502.11   38.78
   5   6  -6  390.82  124.80
   5  -6  -6  512.55   38.49
   5   6  -6  522.49   43.27
  -5  -6   6  463.73   40.94
   5  -6  -6  466.88   37.68
  -5  -6   6  491.11   37.65
  -5   6   6  540.93   41.61
   5  -6  -6  408.37   33.13
   3   9  -1  284.00   85.52
   3   9  -1  282.90   62.76
   3  -9  -1  447.29   38.97
   3  -9  -1  502.79   40.41
   3   9  -1  236.84   63.83
   3   9  -1  296.95   74.96
   3  -9  -1  425.04   40.56
  -3   9   1  426.72  120.92
   3   9  -1  334.45   61.94
  -5  -4  -9   97.70   27.88
   5  -4   9  119.12   25.56
   5  -4   9  104.56   25.68
   5   4   9  148.84   33.36
   5  -4   9   93.53   20.79
   5   4   9  127.64   28.34
   5   4   9   79.14   22.52
  -1 -10   3  708.96   46.27
   1 -10  -3  759.66   52.08
   1  10  -3  688.59   97.22
  -1 -10   3  680.07   40.15
   1 -10  -3  701.12   45.82
  -1 -10   3  666.86   42.26
  -1 -10   3  697.96   44.90
   1 -10  -3  710.51   43.12
   1 -10  -3  702.20   47.89
   1  -2  21   35.84   14.43
  -1   2 -21   37.14   18.25
   1   2  21   37.72   21.71
   1   2  21   79.45   24.39
   1  -2  21    7.70   16.64
  -1  -2 -21   43.12   18.33
   1   2  21   57.80   19.80
  -1   2 -21   39.00   15.45
   3  -9   0  302.84   32.99
   3  -9   0  290.17   35.36
  -3   9   0  299.56   67.26
   3  -9   0  297.94   34.27
   3   9   0  188.89   56.16
   3   9   0  219.76   50.44
   3   9   0  201.98   53.43
   3   9  -2   11.11    9.25
   3   9  -2    5.40    9.04
   3  -9  -2   27.87   21.56
   3   9  -2   10.19    5.55
   3   9  -2   23.86   13.29
   3   9  -2   10.60    8.65
   3  -9  -2    1.61   16.40
   3   9  -2   14.58    6.60
   3  -9  -2    2.25   14.45
  -3   9   2   27.66   13.95
   3   9  -2   17.63    7.08
  -3  -2 -18  756.40   46.45
  -3   2 -18  774.33   49.52
   3   2  18  725.73   42.88
   3   2  18  746.86   47.68
   3  -2  18  717.85   47.15
   3  -2  18  798.36   44.24
   3  -2  18  827.18   48.82
   3   2  18  776.26   52.09
   4   6  10  115.92   24.91
   4  -6  10  116.13   24.75
   4   6  10  103.53   26.32
   4   6  10  117.03   27.00
   4  -6  10  119.18   26.70
   4  -6  10  104.39   27.19
  -4   6 -10  105.98   22.77
  -6   3  -2  487.71   35.96
  -6  -3  -2  478.57   41.52
   6  -3   2  420.64   38.07
   6   3   2  472.27   44.45
   6   3   2  398.85   38.41
   6  -3   2  460.33   42.98
   6  -3   2  484.96   40.86
  -6  -3  -2  458.91   40.12
   6   3   2  462.64   40.15
   3  -8   8 1098.15   58.15
   3   8   8  933.00   47.64
   3  -8   8  930.64   53.24
   3  -8   8  928.12   48.48
   3  -8   8  981.14   52.13
   3   8   8  943.05   50.38
   3   8   8  894.09   50.12
   3  -8   8  946.75   53.67
  -3   8  -8  953.14   52.34
  -3  -8  -8  896.31   45.51
  -1  -7  16  546.34   39.47
  -1   7  16  610.17   45.08
   1   7 -16  610.63   43.33
  -1  -7  16  616.28   44.71
   1   7 -16  605.13   44.78
   1  -7 -16  524.84   42.50
   1  -7 -16  528.33   40.31
  -1  -7  16  542.57   43.92
  -1   7  16  620.28   45.53
  -1  -7  16  573.84   43.66
   1  -7 -16  597.21   41.02
   1   7 -16  661.38   52.58
   5   6   3  381.41   34.83
   5  -6   3  302.24   30.04
  -5  -6  -3  359.24   36.91
   5  -6   3  372.76   37.50
  -5  -6  -3  339.54   35.99
   5   6   3  379.43   33.56
   5  -6   3  364.78   35.58
   5   6   3  346.74   36.36
   5  -6   3  371.61   37.14
   1   1 -22  300.81   34.01
  -1   1  22  336.52   32.96
  -1   1  22  381.45   36.74
   1  -1 -22  363.11   36.14
   1   1 -22  313.84   32.70
   1  -1 -22  321.99   34.28
  -1  -1  22  323.14   31.14
  -1  -1  22  333.87   35.19
   1   1 -22  315.48   34.69
  -1   1  22  361.11   34.80
   1  -1 -22  366.91   36.93
   6   3  -6  544.22   44.75
  -6   3   6  614.22   43.06
  -6   3   6  536.95   38.58
   6  -3  -6  578.34   43.15
   6  -3  -6  540.79   47.10
  -6  -3   6  610.78   48.23
   6   3  -6  528.85   43.51
   6   3  -6  586.98   43.79
   6  -3  -6  463.49   36.01
  -6  -3   6  554.17   42.87
   6  -3  -6  568.06   39.05
  -6  -3   6  606.91   43.96
  -3   8  10  498.18   39.71
  -3  -8  10  493.41   41.62
  -3  -8  10  511.51   38.17
   3  -8 -10  534.42   41.48
   3   8 -10  434.50   37.51
   3   8 -10  373.58  116.69
   3  -8 -10  467.66   39.76
   3  -8 -10  391.68   33.29
   3   8 -10  582.37   44.12
  -3  -8  10  488.43   42.13
   3  -8 -10  468.16   38.53
   4  -7   7  672.52   45.15
   4  -7   7  654.09   42.40
   4   7   7  701.00   48.58
   4  -7   7  665.61   46.30
  -4   7  -7  683.13   43.75
   4  -7   7  596.12   38.05
   4  -7   7  639.04   40.84
   4   7   7  656.51   47.08
   4   7   7  554.81  156.78
   5  -1  12  107.28   21.60
   5  -1  12  120.13   25.05
   5   1  12  104.81   29.53
   5   1  12   94.70   25.74
   5   1  12  108.40   30.02
   5  -1  12   77.15   21.86
  -5  -1 -12  112.28   23.86
   5   1  12  121.24   23.12
   1  -8  13  753.66   48.80
   1  -8  13  882.65   51.76
   1  -8  13  785.77   47.09
   1   8  13  808.21   49.80
   1   8  13  786.43   49.99
  -1  -8 -13  782.26   50.06
  -1   8 -13  779.24   74.61
  -1   8 -13  751.76   49.25
   1  -8  13  854.42   52.99
  -3   2  20   28.49   17.30
   3   2 -20   24.05   20.90
  -3  -2  20   40.60   19.59
   3  -2 -20   19.02   12.16
  -3  -2  20    2.71   13.16
  -3  -2  20   16.35   14.88
   3  -2 -20    0.21   16.13
   3   2 -20   44.52   27.97
  -3   2  20   16.12   14.20
   3  -2 -20   68.04   24.33
   3   2 -20   41.57   21.75
  -3   2  20   46.79   23.17
   3   2 -20   33.67   21.17
   5  -5   7   70.86   25.34
  -5  -5  -7  144.47   23.56
   5  -5   7  121.11   25.68
   5  -5   7  135.92   25.63
  -5  -5  -7  179.07   33.48
   5   5   7  141.91   32.80
   5   5   7  112.00   22.60
   4   2 -18  666.15   48.32
  -4  -2  18  715.18   45.97
  -4   2  18  670.84   45.55
   4   2 -18  688.90   47.44
  -4   2  18  661.61   46.67
   4  -2 -18  646.23   46.21
  -4  -2  18  682.63   43.29
   4   2 -18  747.46   51.43
   4  -2 -18  679.67   47.69
  -4  -2  18  669.14   46.73
   4   2 -18  622.28   46.49
  -4  -2  18  659.78   45.39
  -4   2  18  659.15   41.01
   4  -2 -18  614.43   42.38
   3  -9   1  307.47   34.70
   3  -9   1  252.42   32.09
   3  -9   1  262.96   28.71
  -3   9  -1  282.10   32.19
   3  -9   1  225.88   31.31
   3   9   1  190.40   52.72
  -3  -9  -1  238.10   26.12
   3   9   1  188.51   53.97
   3  -9  -3  105.07   23.04
   3  -9  -3  124.79   25.24
   3   9  -3   50.61   11.67
  -3   9   3   77.01   13.71
  -3  -9   3   81.54   20.40
   3  -9  -3  110.98   25.87
   3   9  -3   70.91   24.05
   3   9  -3   69.43   18.37
  -3  -9   3  103.95   20.03
  -4   8   1  143.31   28.86
   4  -8  -1  159.42   24.33
   4   8  -1  133.03   24.74
   4  -8  -1  142.77   28.01
  -4  -8   1  168.31   25.49
   4   8  -1  114.15   21.48
   4  -8  -1  174.75   28.34
   4   8  -1  115.43   22.61
   4  -8  -1  135.75   25.45
  -4  -8   1  157.67   25.66
   0  -1 -22   23.10   17.42
   0   1  22   14.69   12.35
   0   1 -22   -3.19   17.57
   0   1  22   12.54   16.19
   0  -1  22   -0.44   10.17
   0  -1 -22   -0.10   12.84
   0  -1  22   23.79   17.71
   0  -1  22    2.21   15.72
   0   1  22   10.79   17.50
   0   1 -22   28.95   22.95
   1 -10   3  413.75   38.17
   1 -10   3  308.78   33.08
  -1 -10  -3  307.89   30.21
   1 -10   3  325.39   34.96
  -1  10  -3  365.34   53.44
  -1 -10  -3  329.19   31.79
   1 -10   3  338.20   34.33
  -1 -10  -3  336.23   33.20
  -4   8   2  179.95   58.49
   4   8  -2  220.84   26.23
   4  -8  -2  337.77   35.06
   4   8  -2  159.90   23.77
  -4  -8   2  196.16   26.97
   4  -8  -2  222.84   31.17
  -4  -8   2  209.39   26.32
   4  -8  -2  188.19   25.58
   4  -8  -2  200.65   30.07
   4   8  -2  181.13   40.25
   4   0  16  -23.44   15.33
  -4   0 -16   -1.13   12.61
   4   0  16   13.08   14.88
   4   0  16   -6.17   17.19
  -4   8   0   42.38   19.64
   4   8   0   10.97   12.60
   4  -8   0   31.27   16.52
   4   8   0   12.88   12.16
   4  -8   0   42.57   22.64
  -4  -8   0   44.81   15.44
   4  -8   0   31.57   16.13
  -4  -8   0   36.59   16.44
   4  -8   0   54.66   18.97
   4   8   0   31.44   10.39
  -2   7 -14   73.25   24.78
   2  -7  14   65.85   21.29
   2   7  14   69.47   21.63
  -2   7 -14   76.42   25.05
   2  -7  14   85.69   21.40
  -2  -7 -14   84.33   26.05
   2   7  14   96.51   25.53
   2  -7  14  104.72   25.69
   2  -7  14  118.76   27.77
   0 -10  -5  113.51   20.10
   0 -10   5  120.43   26.92
   0 -10  -5  100.14   26.07
   0 -10  -5  107.33   22.72
   0 -10   5   88.04   18.96
   0 -10   5  131.86   25.29
   0 -10   5   89.77   24.21
   0 -10   5   83.64   21.52
   0  10  -5   84.98   25.46
   6   0   6  589.61   45.06
   6   0   6  557.10   42.47
   6   0   6  574.05   44.99
  -6   0  -6  564.77   41.46
  -6   0  -6  556.69   39.01
  -1 -10   4  259.90   33.81
   1 -10  -4  183.04   26.23
   1 -10  -4  209.44   25.45
  -1 -10   4  170.39   27.01
   1 -10  -4  165.32   28.28
  -1 -10   4  203.56   29.29
   1 -10  -4  218.61   29.86
   1  10  -4  212.93   29.79
  -1 -10   4  174.55   27.15
   4   8  -3   -7.96   12.27
   4   8  -3    1.61   13.64
   4  -8  -3   13.08   14.87
   4   8  -3   16.37   12.00
  -4  -8   3    3.27   12.60
   4  -8  -3    4.78   11.07
   4  -8  -3   -6.52   15.88
  -4  -8   3   32.29   20.52
  -4   8   3   20.48    8.13
  -4  -8   3   -6.27   13.10
   4  -8  -3   12.10   16.47
   0   6 -18   29.29   17.17
   0   6  18   43.30   23.60
   0  -6 -18    8.76   12.94
   0  -6  18    9.20   16.31
   0  -6  18    4.46   13.77
   0  -6 -18   43.63   23.57
   0  -6  18    6.14   15.91
   0  -6  18   21.25   22.78
   0   6 -18   -1.58   16.97
   0   6 -18   22.26   20.88
   0   6  18    1.61   16.36
  -1  -6  18   32.17   23.69
   1  -6 -18   32.91   24.84
  -1  -6  18    2.03   15.81
   1  -6 -18   22.95   20.47
   1   6 -18   19.16   19.47
   1   6 -18   26.23   16.95
  -1   6  18  -15.29   16.54
   1   6 -18   -2.93   17.59
   1  -6 -18    1.97   11.36
  -1   6  18    8.55   14.69
  -1  -6  18   34.30   21.39
  -1  -6  18   26.63   15.22
  -2   6 -16   89.97   30.14
   2  -6  16  144.15   24.56
   2   6  16  108.99   22.77
  -2  -6 -16  140.14   26.03
   2  -6  16  188.00   31.84
  -2   6 -16  240.16   34.57
  -2   6 -16  145.99   23.48
   2   6  16  158.21   27.71
   2  -6  16  142.79   22.13
   2  -6  16  147.88   24.45
   2  -2  20  116.22   20.77
  -2  -2 -20  159.87   29.76
   2   2  20  100.21   21.19
   2   2  20  140.61   29.60
   2  -2  20  124.44   29.67
   2  -2  20  108.04   24.09
   2   2  20  101.34   23.91
  -2   2 -20  165.11   31.89
   5  -3 -14   30.87   18.25
   5   3 -14   24.24   19.33
   5   3 -14   27.04   12.02
  -5  -3  14    8.39   15.41
  -5  -3  14   12.08   17.47
   5   3 -14   22.98   18.78
   5   3 -14   17.49   17.64
   5  -3 -14   27.81   18.01
  -5   3  14   50.24   24.51
   5   3 -14   48.41   24.22
   5  -3 -14   35.93   17.52
  -5   3  14   42.99   18.14
  -5  -3  14   43.95   22.22
   3   9   2  131.09   36.28
   3   9   2  169.26   38.90
   3  -9   2  169.98   26.99
  -3  -9  -2  179.34   23.12
   3  -9   2  213.22   28.77
  -3   9  -2  251.34   30.68
   3  -9   2  253.12   32.20
   3  -9   2  245.72   32.10
  -6   0  10   38.51   20.82
   6   0 -10   45.06   23.48
   6   0 -10   21.39   14.95
   6   0 -10   12.53   18.13
  -6   0  10   25.01   16.04
   6   0 -10   61.83   23.43
  -6   0  10    3.49   16.03
   3  -9  -4   29.14   20.58
  -3  -9   4   37.86   19.00
   3   9  -4    0.79    7.19
   3  -9  -4   21.81   21.41
   3   9  -4   10.59    7.56
   3  -9  -4    4.34   16.37
   3  -9  -4   17.88   15.99
  -3  -9   4   11.13   14.33
   3   9  -4   15.77    7.01
  -3  -9   4   18.58   19.02
   4  -8   1   65.68   16.81
  -4   8  -1   86.89   21.20
  -4  -8  -1   69.73   16.49
   4   8   1   92.93   23.18
  -4  -8  -1   96.18   22.35
   4   8   1   73.43   18.98
   4  -8   1  116.22   22.82
   4  -8   1   62.09   20.38
   4  -8   1   83.87   21.94
   4   1  16   14.32   13.36
   4  -1  16   -3.00   15.13
   4   1  16   11.42    7.22
   4   1  16   24.33   17.25
   4  -1  16   11.84   11.33
  -4  -1 -16   10.69   13.06
  -4   1 -16   -7.19   13.48
   4   1  16    7.12   12.86
   4  -1  16   53.42   22.73
   5   6  -7  534.14   43.37
   5  -6  -7  487.98   37.47
   5  -6  -7  569.67   42.65
  -5  -6   7  535.15   43.43
   5  -6  -7  578.62   42.27
   5   6  -7  555.52  103.52
  -5  -6   7  558.15   42.30
  -5  -6   7  529.88   40.26
   5  -6  -7  544.53   43.97
  -5   6   7  537.20   40.19
   5   6  -7  518.65   42.81
   0  -8  14  817.91   51.36
   0   8  14  798.32   51.90
   0   8 -14  633.95  162.93
   0  -8  14  760.68   48.85
   0  -8 -14  728.31   44.00
   0   8 -14  843.07   50.62
   0   8 -14  786.40   50.00
   0  -8 -14  825.03   52.37
   0  -8  14  740.43   49.34
   0   8  14  741.56   47.13
   4  -7 -10   50.39   20.67
   4   7 -10   57.25   19.82
   4   7 -10  102.44   27.30
  -4   7  10   54.67   23.60
  -4   7  10   46.38   18.89
   4   7 -10   38.72   19.48
  -4  -7  10   48.52   21.09
   4  -7 -10   45.64   16.83
   4   7 -10   95.62   30.84
  -4  -7  10   70.16   21.30
  -4  -7  10   77.79   33.01
   4  -7 -10   58.19   18.40
   4  -7 -10   32.10   16.89
   6  -3   3  437.32   39.90
   6  -3   3  451.24   38.09
  -6  -3  -3  426.88   41.17
   6   3   3  511.36   42.38
  -6  -3  -3  441.30   45.04
   6  -3   3  486.40   42.07
  -6   3  -3  428.73   35.38
   6   3   3  485.15   45.49
   6   3   3  462.79   44.95
   4   5 -15   63.92   24.97
   4   5 -15   71.82   27.31
   4   5 -15   74.45   26.58
  -4  -5  15   45.44   23.67
  -4   5  15   36.59   25.81
  -4  -5  15    5.01   13.35
   4   5 -15   42.82   20.77
   4  -5 -15   38.25   16.73
  -4   5  15   31.15   23.88
  -4  -5  15   43.53   19.11
   4  -5 -15   24.35   17.21
  -2  -9   9  344.40   37.64
   2   9  -9  288.56   54.50
   2   9  -9  288.60   31.71
   2  -9  -9  297.46   34.09
  -2  -9   9  249.62   31.18
  -2  -9   9  314.39   34.07
   2  -9  -9  265.87   36.91
   2   9  -9  249.56   41.70
  -2   9   9  290.14   33.70
   2  -9  -9  334.03   36.52
   6   2   5  150.80   30.08
   6  -2   5  183.48   29.25
   6  -2   5  135.63   22.54
   6   2   5  171.43   29.70
   6  -2   5  155.48   29.83
   6  -2   5  154.67   23.27
   6   2   5  154.27   29.65
  -6  -2  -5  163.97   32.77
  -6   2  -5  193.38   26.98
  -6  -2  -5  101.85   24.27
  -4  -6  13  163.45   29.80
   4  -6 -13  135.35   28.76
   4  -6 -13  157.51   28.63
   4   6 -13  140.55   30.83
   4   6 -13  162.42   28.89
   4  -6 -13  157.75   25.15
  -4  -6  13   92.07   22.55
  -4   6  13  124.23   24.60
  -4   6  13  133.20   28.02
   4   6 -13  161.79   31.90
   4   6 -13  125.19   23.28
  -4  -6  13  130.64   22.00
   5  -2 -15  421.22   43.51
   5  -2 -15  453.01   42.72
   5   2 -15  415.72   38.90
  -5  -2  15  477.97   44.12
   5   2 -15  326.06   40.19
   5  -2 -15  420.98   38.82
   5   2 -15  435.71   40.50
   5  -2 -15  356.15   34.26
  -5  -2  15  358.89   34.39
  -5  -2  15  387.16   36.24
   5   2 -15  441.80   41.29
  -5   2  15  408.97   39.63
   5   2 -15  391.33   36.93
  -5   2  15  390.14   42.63
  -6  -3   7   33.58   18.08
  -6   3   7  115.06   26.93
   6  -3  -7   99.07   25.90
   6  -3  -7   77.49   19.49
   6   3  -7   61.49   23.50
   6   3  -7   63.94   23.37
   6   3  -7  105.50   28.61
  -6  -3   7   81.01   26.71
   6  -3  -7   59.44   21.26
  -6  -3   7   81.27   28.47
   6  -3  -7   61.54   16.01
  -6   3   7   73.62   21.43
  -4  -8   4  289.80   31.11
   4  -8  -4  310.08   34.30
  -4   8   4  226.42   62.74
   4  -8  -4  284.57   34.60
  -4  -8   4  335.17   32.13
   4   8  -4  311.18   32.64
   4  -8  -4  341.74   36.36
   4   8  -4  288.32   80.23
  -4  -8   4  360.02   33.06
   4   8  -4  274.26   83.50
   1   9  10  130.51   27.89
   1  -9  10   78.96   23.48
  -1  -9 -10   37.87   12.78
   1  -9  10   93.48   24.29
  -1  -9 -10   67.44   19.26
  -1   9 -10  124.93   27.50
   1  -9  10   94.31   25.31
   1  -9  10   55.95   25.11
  -1   9 -10   76.52   13.12
   1   9  10   42.31   18.02
  -6   1  -6    8.70   11.94
   6  -1   6  -14.40   16.63
   6  -1   6    0.45   15.58
   6  -1   6   -3.42   16.33
  -6   1  -6   11.15   14.90
  -6  -1  -6   32.39   21.96
  -6  -1  -6    6.73   17.59
   6   1   6   67.87   25.90
   6   1   6   34.92   26.73
   6   1   6  -10.03   16.39
   1  10   4   17.61   12.96
   1 -10   4   16.63   17.19
  -1 -10  -4   -1.49   11.94
  -1  10  -4    7.36   15.67
   1 -10   4   13.98   16.33
  -1 -10  -4   -5.17   13.74
   1 -10   4   18.97   16.44
   1 -10   4   17.37   13.75
  -1 -10  -4    8.92   13.89
   5   6   4  579.34   45.51
   5  -6   4  434.22   37.75
   5   6   4  507.28   37.83
   5  -6   4  491.93   42.03
  -5  -6  -4  578.17   47.53
   5  -6   4  513.09   35.96
  -5  -6  -4  518.34   41.26
   5  -6   4  443.54   36.94
   6  -2  -9  186.15   31.84
  -6   2   9  153.94   25.93
  -6  -2   9  141.90   28.46
   6  -2  -9  131.53   25.48
  -6  -2   9  154.96   27.26
   6  -2  -9  138.19   24.94
   6   2  -9  158.20   31.75
   6  -2  -9  165.60   28.71
   6   2  -9  145.02   28.22
   6   2  -9  176.14   25.30
  -6  -2   9  185.21   31.13
  -6   2   9  172.10   29.85
   6   2  -9  170.87   31.58
  -2  -4  20  408.34   38.36
  -2   4  20  429.25   39.36
   2  -4 -20  348.51   36.51
  -2  -4  20  481.62   41.93
   2  -4 -20  370.96   35.31
   2   4 -20  491.22   50.81
   2   4 -20  431.98   35.79
  -2   4  20  420.53   40.21
   2   4 -20  360.35   39.20
  -2  -4  20  407.67   38.07
   2   4 -20  475.58   45.85
   2  -4 -20  407.92   38.01
   1   8 -14  333.96   35.43
   1   8 -14  312.44   61.48
   1   8 -14  294.62   33.96
  -1  -8  14  378.98   37.71
  -1   8  14  334.30   40.95
   1  -8 -14  314.59   31.34
  -1  -8  14  265.61   30.64
   1  -8 -14  350.64   38.19
  -1  -8  14  352.69   36.30
  -1   8  14  276.58   35.91
  -1  -8  14  340.90   38.49
   1  -8 -14  276.09   32.03
   4   3  15  186.11   27.90
  -4   3 -15  140.94   24.81
  -4  -3 -15  157.09   23.16
   4  -3  15  213.69   30.57
   4  -3  15  167.43   29.49
   4  -3  15  163.48   24.82
   4   3  15  182.68   37.22
   4   3  15  184.02   31.50
   6   1 -10  135.60   30.57
   6  -1 -10  180.88   30.57
   6   1 -10  109.87   27.68
   6  -1 -10  153.76   28.54
   6   1 -10  140.79   25.93
   6  -1 -10  172.84   28.99
   6  -1 -10  126.32   25.00
  -6   1  10  192.27   31.27
  -6  -1  10  191.90   36.00
  -6  -1  10  149.21   29.86
  -6   1  10  156.68   28.76
  -6  -1  10  194.02   29.70
   6   1 -10  150.39   31.46
  -6   1  10  162.05   22.98
   0   9 -11   31.63   11.23
   0  -9 -11    0.61   13.08
   0  -9  11   11.44   15.13
   0   9  11   23.51   18.85
   0  -9 -11   23.96   22.53
   0  -9  11   32.04   27.76
   0  -9 -11   10.62   11.57
   0  -9  11   25.25   17.58
   0  -9  11   49.57   23.64
   0   9 -11    8.79   17.14
   0   9  11   -2.05   19.09
  -2   8  13  141.57   27.41
   2   8 -13  139.73   27.10
  -2  -8  13  109.04   23.47
   2   8 -13  132.97   23.86
   2  -8 -13  136.16   30.68
   2   8 -13  125.40   26.27
  -2  -8  13  141.00   31.31
  -2  -8  13  119.70   23.93
   2  -8 -13  110.69   27.63
   2  -8 -13  133.17   26.86
  -2  -8  13   98.81   24.48
  -2   8  13  166.15   29.70
   5   3  11 1033.55   55.92
   5  -3  11 1028.20   56.28
   5   3  11  821.15  149.65
   5   3  11  920.46   48.33
   5  -3  11  930.10   48.09
   5  -3  11 1004.61   54.00
  -5  -3 -11 1012.83   53.23
  -4   4 -14   25.59   15.50
   4  -4  14   30.96   16.61
   4   4  14    8.22   18.96
   4  -4  14   51.06   17.19
  -4  -4 -14   43.45   18.30
   4  -4  14   40.24   17.28
   4   4  14   11.38    8.38
   4   4  14   53.74   19.72
   3  -6  14  281.43   37.59
  -3  -6 -14  220.98   28.17
   3   6  14  248.05   32.69
   3  -6  14  276.29   32.50
   3  -6  14  258.81   30.72
   3   6  14  276.83   33.08
   3   6  14  257.79   35.95
  -3   6 -14  283.75   32.48
  -4  -8  -2  120.03   25.22
   4  -8   2  156.16   26.55
   4  -8   2  144.46   28.99
  -4   8  -2  130.57   26.05
   4  -8   2  130.08   24.26
   4  -8   2  145.56   26.41
   4   8   2  119.14   29.18
   4  -8   2  140.91   24.71
   1  -4  20   42.99   21.08
  -1   4 -20   60.16   20.28
  -1   4 -20   64.19   24.69
  -1   4 -20   95.68   24.83
   1  -4  20   56.45   20.25
   1  -4  20   37.08   16.06
   1   4  20   65.32   19.43
   1   4  20   88.53   26.68
   1   4  20   52.14   16.95
  -1  -4 -20   73.48   25.11
   1 -10  -5  193.29   31.64
  -1 -10   5  215.05   30.14
   1 -10  -5  196.77   31.23
  -1 -10   5  192.86   27.95
   1 -10  -5  166.89   23.31
  -1 -10   5  175.78   29.37
   1 -10  -5  188.55   27.37
  -1 -10   5  178.56   30.81
   1  10  -5  210.78   29.76
  -1 -10   5  169.47   23.51
   2  -9   8 1261.41   59.55
  -2  -9  -8 1171.63   56.63
   2  -9   8 1176.15   57.73
   2  -9   8 1231.14   57.02
  -2   9  -8 1340.50   64.37
   2   9   8 1205.78   57.88
   2  -9   8 1211.14   58.68
   2  -9   8 1134.98   56.96
   2   9   8 1238.58   59.70
  -3   9  -3  137.44   25.97
   3   9   3  125.23   42.61
   3   9   3  170.86   26.51
   3  -9   3  161.91   33.17
  -3  -9  -3  115.54   20.80
   3  -9   3  149.76   23.94
   3  -9   3  135.77   26.34
   3  -9   3  161.66   25.37
  -1   2  22   53.12   20.48
  -1  -2  22   87.79   21.10
   1  -2 -22   75.47   23.41
   1   2 -22  101.25   28.61
  -1  -2  22   87.69   20.65
  -1   2  22  102.36   28.91
   1   2 -22   57.65   26.45
  -1   2  22   97.31   24.93
   1  -2 -22   47.60   22.20
   1   2 -22   68.52   18.43
   1  -2 -22   46.97   14.83
  -3  -9   5    4.55   12.57
   3  -9  -5   17.90   16.31
   3   9  -5  -10.42   12.93
   3  -9  -5   28.30   15.67
  -3  -9   5   19.65   15.33
   3   9  -5   -3.34   11.59
   3  -9  -5   35.80   24.36
  -3  -9   5   10.57   13.84
   3   9  -5   23.60   12.28
   3  -9  -5   16.96   14.85
   3   6 -16   33.83   17.64
  -3   6  16    5.96   16.80
   3   6 -16   63.39   21.69
   3  -6 -16   33.61   17.27
  -3  -6  16   31.19   18.02
   3   6 -16   61.25   23.48
  -3   6  16   34.86   25.36
  -3  -6  16   40.99   17.26
   3  -6 -16   55.78   22.11
   3  -6 -16   45.61   25.77
  -3  -6  16   13.48   16.14
  -2  -5  19   94.08   22.95
   2   5 -19  112.95   27.19
   2   5 -19   73.37   31.73
   2  -5 -19   59.00   22.10
   2  -5 -19   48.07   22.88
  -2  -5  19   88.93   25.65
  -2   5  19  100.43   25.12
   2   5 -19   87.64   22.06
   2  -5 -19   69.62   24.10
  -2  -5  19  103.61   24.62
  -2   5  19  107.36   27.23
   2   5 -19   78.00   29.90
  -5  -2 -12  112.40   26.07
   5  -2  12   59.12   23.86
   5   2  12   72.36   21.61
   5  -2  12   47.00   15.78
   5   2  12  137.44   28.30
   5   2  12   59.52   16.22
   5  -2  12  114.20   31.29
  -5  -4  13   48.77   18.50
  -5   4  13   89.17   27.59
  -5   4  13  126.78   24.03
   5   4 -13   78.26   27.61
   5  -4 -13   56.28   24.19
  -5  -4  13   92.87   23.07
   5   4 -13   58.97   24.83
  -5  -4  13   78.09   22.12
   5   4 -13  100.76   29.07
   5  -4 -13   89.80   25.13
   5  -4 -13   43.86   17.25
   5   4 -13   48.43   19.59
   5   4 -13   83.36   28.41
   1   5  19  318.17   37.12
  -1   5 -19  296.73   34.43
   1   5  19  288.62   34.47
   1  -5  19  293.20   32.29
  -1   5 -19  265.24   30.32
   1  -5  19  305.68   35.65
   1   5  19  256.43   32.89
  -1  -5 -19  311.56   36.16
   1  -5  19  267.83   28.60
  -1   5 -19  280.85   35.06
   1  -5  19  278.09   33.58
   0 -10   6   36.76   22.29
   0 -10  -6   37.03   16.05
   0 -10   6   26.05   16.93
   0 -10  -6    3.25   13.01
   0  10   6   22.69   14.10
   0  10  -6   16.64   17.09
   0 -10   6   65.13   23.03
   0 -10   6   43.32   18.69
   0 -10   6   -0.15   13.30
   0 -10  -6   35.58   24.86
   5   5 -11  123.23   23.75
   5  -5 -11  150.88   27.31
   5   5 -11  184.52   31.27
   5   5 -11  153.19   27.71
  -5  -5  11  201.43   30.26
  -5   5  11  159.56   29.57
   5   5 -11  220.04   31.97
   5  -5 -11  155.97   29.90
  -5  -5  11  181.28   29.67
  -5  -5  11  194.61   28.17
  -5   5  11  132.42   26.71
   5   5 -11  155.68   43.59
   5  -5 -11  126.30   22.81
  -4  -8   5   89.61   20.14
   4   8  -5   97.52   20.61
   4   8  -5   83.15   22.31
   4  -8  -5  164.96   32.35
   4  -8  -5  108.15   24.14
  -4  -8   5  119.59   24.85
   4   8  -5   92.66   22.35
   4  -8  -5  106.63   25.40
  -4  -8   5  107.06   20.24
   4   8  -5  105.48   20.06
   0   2 -22   35.02   17.88
   0  -2  22    7.05   16.05
   0  -2 -22   -4.61   12.46
   0   2  22   11.40   13.87
   0  -2 -22   -0.29   15.27
   0   2 -22   12.07   26.56
   0  -2  22   27.49   13.45
   0   2  22    3.32   14.16
   0   2 -22   19.58   13.41
   6  -4  -2   54.31   25.45
  -6  -4   2   24.38   17.18
   6  -4  -2   52.64   16.93
   6   4  -2   48.75   24.06
   6  -4  -2   45.83   23.56
   6   4  -2   44.41   17.68
   6  -4  -2   49.25   16.49
  -6  -4   2   33.05   19.53
  -6   4   2   51.35   21.80
   6   4  -2   41.15   17.05
   6   4  -2   37.31   14.76
  -1  -9  11   73.51   23.56
  -1   9  11   59.04   19.93
   1  -9 -11   73.55   22.87
   1   9 -11   59.24   20.67
  -1  -9  11   67.84   20.14
   1   9 -11   61.55   19.19
   1  -9 -11   51.89   22.45
  -1  -9  11   64.06   24.14
   1  -9 -11   60.46   25.90
   1   9 -11  123.18   28.85
  -1   9  11   46.49   18.03
   3   7  12   50.69   19.00
  -3   7 -12   69.31   17.95
  -3  -7 -12   69.17   20.69
   3   7  12   72.00   21.31
   3  -7  12   87.57   24.13
   3   7  12   95.09   21.62
   3  -7  12   64.60   19.96
   3  -7  12   38.72   19.63
  -3   7 -12   38.21   18.53
   3  -7  12   43.04   21.04
   6   4  -1  483.22  126.76
   6  -4  -1  557.77   43.45
  -6   4   1  501.67   38.04
   6  -4  -1  522.80   42.92
   6  -4  -1  508.76   42.27
   6   4  -1  546.39   44.98
  -6  -4   1  642.31   46.60
  -6  -4   1  563.26   44.26
   6   4  -1  504.60   44.76
  -2   0  22   -0.07   15.82
   2   0 -22    2.07   16.72
   2   0 -22   -4.56   14.92
  -2   0  22   -2.63   12.19
  -2   0  22   11.86   15.88
   2   0 -22   11.00   20.55
   2  -3 -21 1131.06   59.50
  -2   3  21 1175.65   62.19
  -2  -3  21 1032.56   57.07
   2   3 -21 1043.07   54.48
   2   3 -21 1083.41   53.54
  -2  -3  21 1035.51   52.50
   2  -3 -21 1069.26   54.04
   2   3 -21 1170.55   60.42
  -2  -3  21 1144.64   55.38
  -2   3  21 1098.68   58.29
   2   3 -21 1119.66   59.81
   2  -3 -21 1078.61   56.45
  -2   3  21 1034.06   50.34
  -6   4   3    1.55   14.81
   6  -4  -3   16.40   16.22
   6   4  -3   14.61   16.31
   6  -4  -3   28.90   19.40
   6  -4  -3    2.92   14.75
   6   4  -3   35.89   26.63
  -6  -4   3   11.13   18.81
   6   4  -3   52.20   20.10
   6   4  -3   50.36   20.81
  -6  -4   3   -1.85   16.09
   6  -4  -3   19.77   12.89
  -4   0  19  129.93   35.81
   4   0 -19  140.08   30.91
  -4   0  19  115.44   24.94
   4   0 -19  131.66   29.17
  -4   0  19   99.95   25.68
   4   0 -19  114.70   25.31
   5   0 -16   49.10   27.03
   5   0 -16   27.36   15.22
  -5   0  16   31.85   17.64
  -5   0  16   89.08   25.77
   5   0 -16   73.37   22.12
  -5   0  16   31.26   17.05
   5   0 -16   53.04   21.56
   5   0 -16   52.07   20.00
   3   4  17  203.47   32.99
   3  -4  17  165.88   29.42
   3   4  17  160.46   28.70
   3  -4  17  138.77   24.47
   3  -4  17  177.21   30.05
  -3   4 -17  132.11   25.56
   3   4  17  183.67   28.93
  -3  -4 -17  180.25   28.88
   3  -8   9  221.28   32.30
   3  -8   9  259.23   37.20
   3   8   9  269.68   29.91
   3  -8   9  273.38   30.10
   3   8   9  286.93   32.72
   3  -8   9  272.75   31.61
  -3   8  -9  247.03   30.57
  -3  -8  -9  191.28   25.40
   3  -8   9  316.08   32.57
   3   8   9  296.69   37.41
   4  -7   8  112.41   25.16
   4   7   8  106.49   21.47
   4  -7   8  146.12   33.66
   4  -7   8  114.90   21.64
  -4   7  -8   91.79   21.85
   4   7   8  140.67   33.05
   4   7   8   69.63   12.90
   4  -7   8  111.79   25.78
   3   7 -14  381.28   35.99
   3   7 -14  312.60   74.27
  -3  -7  14  390.01   40.81
   3  -7 -14  320.64   32.41
  -3  -7  14  373.04   39.45
  -3   7  14  391.78   38.49
  -3   7  14  359.40   35.51
  -3  -7  14  378.60   38.15
   3  -7 -14  389.55   37.74
   3  -7 -14  395.76   40.87
   6  -3   4   33.59   23.18
   6  -3   4   24.19   15.85
   6   3   4   16.51   16.40
   6   3   4   -3.88   16.41
  -6  -3  -4    2.20   15.82
   6   3   4    4.16   15.96
   6  -3   4   26.39   19.02
  -6   3  -4    7.55   11.89
  -2  -8 -12    7.95   21.89
   2  -8  12    7.83   16.70
  -2   8 -12    6.73    7.73
   2  -8  12   33.42   24.20
   2  -8  12   15.74   22.98
   2   8  12   -1.40   14.05
   2  -8  12   -2.18   14.45
  -2   8 -12  -13.38   16.04
   3   0  19    2.14   10.79
   3   0  19   19.83   17.91
  -3   0 -19   -0.75   14.77
   3   0  19   11.72   17.31
  -3  -8  11  128.78   27.49
   3  -8 -11   86.15   22.38
   3   8 -11   95.06   24.02
  -3   8  11   95.08   27.10
  -3  -8  11  103.29   28.68
  -3   8  11   97.21   22.49
   3   8 -11  121.16   30.29
  -3  -8  11   49.77   15.89
   3  -8 -11   72.00   25.63
   3  -8 -11   95.50   20.85
   3  -8 -11   93.42   24.54
  -5  -6   8   30.11   23.00
  -5  -6   8    6.01   18.91
   5  -6  -8    5.70   13.89
   5   6  -8   27.44   26.95
   5   6  -8    9.38   17.46
  -5  -6   8   20.39   18.92
  -5   6   8   13.04   16.44
   5  -6  -8   20.66   16.31
   5  -6  -8   23.20   19.78
   5   6  -8   19.36   20.42
   5   6  -8   44.35   10.60
  -1  10  -5  107.69   25.07
   1 -10   5  127.00   23.83
   1  10   5  114.32   21.61
   1 -10   5  122.21   24.57
  -1 -10  -5  146.74   26.91
  -1 -10  -5  132.46   23.76
   1 -10   5  145.43   27.19
   1 -10   5  147.95   28.39
  -1 -10  -5  151.21   25.65
   5   5   8  315.20   82.20
   5   5   8  355.95   36.44
   5  -5   8  394.24   36.94
  -5  -5  -8  409.51   38.69
   5  -5   8  370.27   37.63
   5   5   8  337.87   31.09
   5  -5   8  391.33   37.73
   6  -4   0    5.41   15.32
   6   4   0    0.69   16.89
   6   4   0  -13.80   11.64
  -6  -4   0   20.39   17.24
   6  -4   0   31.40   19.82
   6   4   0   33.79   18.09
  -6  -4   0   32.38   17.57
   6  -4   0    2.07   13.46
  -6   4   0   12.01   12.35
   1   7  16  189.77   30.03
  -1   7 -16  172.02   24.04
   1  -7  16  232.51   30.42
  -1   7 -16  145.97   41.94
   1   7  16  201.57   31.94
   1  -7  16  296.19   36.12
  -1   7 -16  213.89   31.57
  -1  -7 -16  262.12   39.53
   1  -7  16  239.63   32.62
   3  -4 -19 1316.68   61.79
  -3  -4  19 1389.21   64.10
   3  -4 -19 1347.00   59.63
  -3  -4  19 1512.14   65.59
  -3   4  19 1457.25   66.90
  -3  -4  19 1398.04   58.61
   3   4 -19 1546.68   68.44
   3  -4 -19 1481.84   66.19
   3   4 -19 1421.43   66.67
  -3  -4  19 1499.34   67.04
  -3   4  19 1534.99   68.26
   3   4 -19 1528.15   67.30
  -5  -4 -10 1888.83   74.10
   5  -4  10 1811.50   69.92
   5   4  10 1912.97   74.13
   5   4  10 1792.70   65.36
   5  -4  10 1871.65   71.65
   5  -4  10 1790.25   63.03
   5   4  10 1884.15   74.31
   4   8   3   34.47   11.01
  -4  -8  -3   59.36   21.76
   4  -8   3   35.83   15.13
   4  -8   3   42.24   17.40
  -4   8  -3   82.39   25.29
   4  -8   3   54.64   16.83
   4  -8   3   64.92   23.13
   4   8   3   32.10   21.05
   4  -8   3   31.81   16.81
  -6  -3   8  133.39   30.87
   6  -3  -8   58.90   22.91
   6  -3  -8  112.35   28.22
  -6   3   8   72.93   24.17
  -6  -3   8   79.03   26.00
   6  -3  -8  103.79   23.29
   6   3  -8   86.88   25.60
   6  -3  -8   78.00   20.99
  -6   3   8  125.26   29.08
  -6  -3   8   68.48   19.70
   6   3  -8  121.14   27.36
   6   3  -8  122.12   28.23
  -6   4   4   25.57   13.47
   6  -4  -4   27.50   17.67
   6   4  -4   24.03   18.12
  -6   4   4   19.42   14.86
   6   4  -4   -1.94   13.32
  -6  -4   4    8.87   15.02
  -6  -4   4   41.27   21.17
   6  -4  -4    2.26   11.83
   6  -4  -4   -2.62   14.51
   6  -4  -4   -7.32   12.66
   6   4  -4    4.60   19.27
  -6  -4   4   32.33   15.95
  -4  -2 -16   17.98   13.53
  -4   2 -16   42.57   21.20
   4   2  16   17.83   14.78
   4  -2  16   75.77   22.45
   4   2  16   54.49   18.75
   4  -2  16   22.75   16.73
   4   2  16   32.34   22.52
   4   2  16   43.26   14.32
   4  -2  16   40.14   15.40
   6   0   7   74.57   27.08
   6   0   7   14.89   16.85
  -6   0  -7   39.14   22.51
  -6   0  -7   45.48   14.82
   6   0   7   20.20   16.84
  -2   4 -19  314.33   36.60
   2   4  19  346.09   38.18
  -2  -4 -19  294.83   34.53
   2   4  19  291.70   34.15
   2  -4  19  339.78   35.96
   2  -4  19  364.86   37.94
   2  -4  19  302.83   32.58
   2  -1 -22   90.27   27.06
  -2   1  22   79.37   21.53
  -2   1  22   46.75   22.12
   2   1 -22   57.52   23.82
  -2  -1  22   91.33   25.77
   2   1 -22   66.63   22.68
   2   1 -22   92.93   27.07
   2  -1 -22   43.20   18.37
  -2  -1  22   47.33   16.08
   2  -1 -22   74.20   26.28
  -2   1  22   61.24   23.29
  -3   0  21  215.85   32.93
   3   0 -21  159.00   25.21
   3   0 -21  184.27   31.67
   3   0 -21  180.33   34.00
  -3   0  21  166.10   25.94
  -3   0  21  176.88   33.84
  -1   3 -21  184.47   25.78
   1  -3  21  212.73   30.86
   1   3  21  188.59   33.50
   1  -3  21  219.64   32.44
  -1  -3 -21  248.59   38.90
   1  -3  21  194.92   26.10
   1   3  21  177.40   26.78
   1   3  21  246.60   32.03
  -1   3 -21  230.08   33.83
   4  -1 -19   13.11   18.59
   4   1 -19   18.49   19.74
   4   1 -19   -6.66   15.65
  -4   1  19   32.14   24.05
   4   1 -19    7.62   12.14
   4  -1 -19   34.68   27.38
  -4  -1  19    5.57   14.67
   4  -1 -19   25.17   20.43
  -4  -1  19   -0.81   12.39
  -4   1  19   31.97   23.78
  -4  -1  19    8.08   14.75
  -4   1  19   19.04   20.52
   4   1 -19   -2.82   20.19
  -4  -1  19   33.01   20.66
  -3  -3 -18  152.81   26.48
   3  -3  18  187.90   31.44
   3   3  18  146.52   29.14
   3   3  18  190.66   28.21
   3  -3  18  192.40   29.23
   3   3  18  165.52   27.52
   3  -3  18  205.35   29.06
  -3   3 -18  182.63   32.89
   5  -6   5  830.12   48.23
   5   6   5  929.16   51.35
   5   6   5  862.13   52.32
  -5  -6  -5  874.41   52.75
   5  -6   5  865.17   51.93
  -5  -6  -5  967.18   55.60
   5  -6   5  819.02   49.36
   5  -1 -16  165.52   29.06
   5   1 -16  195.50   32.02
  -5  -1  16  172.25   29.21
   5  -1 -16  183.32   30.09
   5   1 -16  187.67   33.95
  -5  -1  16  188.60   29.82
   5  -1 -16  152.69   25.86
  -5   1  16  180.28   31.31
   5   1 -16  276.57   37.90
   5   1 -16  237.76   35.49
  -5   1  16  220.41   31.99
   5  -1 -16  253.94   33.28
  -5  -1  16  217.53   33.68
  -5   1  16  192.17   25.29
   5   1 -16  145.87   27.47
   3  -9   4   21.65   15.95
   3  -9   4   18.51   15.73
  -3  -9  -4    6.47   12.39
   3   9   4   20.17   16.69
   3   9   4   13.93   13.71
  -3   9  -4   10.65   15.01
   3  -9   4   20.85   21.23
   3  -9   4   19.85   16.47
   4  -6  11   55.88   19.70
   4  -6  11  104.21   24.37
   4   6  11   27.65   16.51
   4   6  11   68.13   22.89
   4  -6  11   69.65   25.63
   4   6  11   52.50    7.58
  -4   6 -11   42.42   15.61
   3   9  -6   10.83    7.90
  -3  -9   6   50.26   19.99
   3   9  -6   26.45   19.07
   3  -9  -6   28.62   16.65
   3   9  -6   41.12   13.33
   3  -9  -6   53.04   23.85
  -3  -9   6   37.88   23.21
  -3  -9   6   18.93   13.81
   3  -9  -6   14.39   14.49
   3  -9  -6   31.24   16.07
  -6  -2  -6  -18.49   15.09
   6  -2   6   56.70   19.39
   6  -2   6   18.09   14.30
   6   2   6   14.67   17.63
   6  -2   6   16.84   16.36
   6   2   6   22.85   15.49
  -6  -2  -6   23.94   17.86
  -6   2  -6   18.81   13.15
   6  -2   6    7.71   16.54
   6   2   6   32.13   24.46
  -1 -10   6   12.10   13.97
  -1 -10   6   18.66   18.72
   1 -10  -6   20.14   24.42
  -1 -10   6   10.94   16.04
   1 -10  -6   10.23   15.33
   1  10  -6   17.81   18.36
  -1 -10   6    3.67   15.51
   1 -10  -6   35.96   17.30
   1   0  22  187.45   25.72
   1   0  22  248.90   32.00
  -1   0 -22  193.86   31.19
   6   0 -11   73.16   25.50
   6   0 -11   53.54   20.33
  -6   0  11    3.36   14.19
   6   0 -11   21.08   16.13
  -6   0  11   26.81   16.79
   6   0 -11   31.43   14.41
  -6   0  11   48.98   18.45
   3   1  19   69.69   22.54
   3  -1  19  101.47   27.85
  -3  -1 -19   68.98   22.24
  -3   1 -19   72.26   19.54
   4  -8  -6  403.55   38.43
   4  -8  -6  428.44   38.68
  -4  -8   6  389.97   35.00
  -4   8   6  362.51   30.88
   4   8  -6  393.03   42.12
   4  -8  -6  355.91   31.53
   4   8  -6  385.71   40.23
   4   8  -6  319.56   34.09
   4   8  -6  292.02  101.98
  -4  -8   6  368.15   34.29
   4  -8  -6  388.96   36.60
   5   0  13  686.12   45.49
   5   0  13  625.94   40.91
   5   0  13  726.72   47.06
   5   0  13  645.41   40.94
  -5   0 -13  629.50   40.73
   4  -5  13   31.91   17.11
   4  -5  13   37.63   18.10
   4   5  13   41.14   18.21
   4  -5  13   47.21   25.26
   4   5  13   32.74   17.59
   4   5  13   13.16    8.13
  -4   5 -13    6.70   13.31
  -3   3  20 1528.75   66.17
   3   3 -20 1757.09   70.84
   3  -3 -20 1694.41   71.76
  -3  -3  20 1718.23   66.35
  -3   3  20 1623.02   71.26
  -3  -3  20 1714.57   70.45
   3  -3 -20 1659.99   69.72
  -3  -3  20 1597.19   65.15
   3   3 -20 1724.85   73.72
   3   3 -20 1681.08   71.19
   3  -3 -20 1605.12   63.51
  -3  -3  20 1691.08   68.60
   6   4   1  176.22   36.63
   6  -4   1  184.46   27.93
   6   4   1  147.45   33.15
  -6  -4  -1  150.68   28.16
   6  -4   1  143.50   29.04
  -6  -4  -1  190.13   29.95
   6   4   1  159.77   31.10
  -6   4  -1  112.82   20.47
   6  -4   1  186.08   28.81
  -4  -3  18  204.44   31.74
   4   3 -18  256.57   35.56
   4  -3 -18  233.39   29.90
  -4   3  18  222.80   34.34
   4   3 -18  153.66   48.66
   4   3 -18  248.99   34.39
   4  -3 -18  180.96   26.55
  -4  -3  18  270.56   36.93
  -4  -3  18  198.30   28.33
  -4   3  18  204.32   30.70
   4   3 -18  221.86   29.37
   4  -3 -18  209.23   31.27
   3  -5  16  220.51   28.97
   3   5  16  187.49   30.66
   3   5  16  223.30   35.55
   3  -5  16  232.41   32.03
  -3   5 -16  156.50   27.76
   3   5  16  215.24   32.74
  -3  -5 -16  233.94   33.18
   3  -5  16  169.47   28.20
   3  -5  16  250.96   29.89
  -2   7  16  149.54   29.46
   2  -7 -16  222.75   35.38
  -2  -7  16  143.94   28.30
   2   7 -16  168.09   28.33
   2   7 -16  133.51   22.42
   2   7 -16  191.77   29.44
  -2  -7  16  154.68   24.00
  -2   7  16  173.01   30.68
   2   7 -16  219.77   39.03
   2  -7 -16  171.53   33.47
   2  -7 -16  159.51   29.34
  -2  -7  16  185.42   27.17
   4   4 -17  187.23   32.57
   4   4 -17  106.98   40.17
  -4   4  17  101.26   25.68
   4  -4 -17  135.26   26.40
  -4  -4  17  126.41   27.37
  -4   4  17  121.16   29.46
   4   4 -17  134.61   32.11
  -4  -4  17  166.97   28.77
   4  -4 -17  149.67   28.49
   4   4 -17  166.24   30.09
   4  -4 -17   82.03   20.83
  -4  -4  17  136.43   25.49
   2  -5  18  427.83   34.03
  -2   5 -18  400.09   32.59
  -2   5 -18  411.97   39.90
   2   5  18  415.00   38.52
   2  -5  18  443.56   39.99
   2  -5  18  419.16   38.61
  -2  -5 -18  426.53   38.10
   2  -5  18  390.76   36.79
   2   5  18  373.72   34.90
  -6  -2  10   13.82   17.40
   6  -2 -10    6.21   15.89
  -6   2  10   27.15   23.59
   6   2 -10    6.45   19.51
   6  -2 -10   -1.02   15.94
   6   2 -10    4.20   15.40
  -6  -2  10   54.12   23.52
   6   2 -10    5.86   14.12
   6  -2 -10    5.13   12.32
  -6  -2  10   27.05   18.42
  -6   2  10   28.40   22.37
   6  -2 -10    6.21   16.21
   6   2 -10   18.27   18.47
   6   4  -5  227.57   32.31
  -6  -4   5  263.49   38.39
  -6   4   5  226.52   31.17
   6   4  -5  175.84   30.02
   6  -4  -5  203.35   30.56
  -6   4   5  201.75   25.28
  -6  -4   5  253.04   33.14
   6  -4  -5  225.67   32.80
   6   4  -5  233.61   31.61
   6  -4  -5  202.88   27.25
  -6  -4   5  232.29   35.01
   6  -4  -5  179.11   28.85
   2   9 -10  579.85  152.92
  -2  -9  10  747.77   50.38
  -2  -9  10  724.43   48.07
  -2   9  10  743.40   46.80
   2   9 -10  771.88   51.51
   2  -9 -10  764.89   47.95
   2   9 -10  710.85   43.03
   2  -9 -10  698.35   54.14
   2  -9 -10  696.10   52.48
  -2  -9  10  750.31   48.21
   6  -1   7  217.35   28.33
  -6  -1  -7  192.47   36.01
   6   1   7  245.16   35.37
  -6  -1  -7  228.85   29.45
   6  -1   7  227.79   31.55
   6   1   7  181.45   29.65
   6  -1   7  233.68   32.41
  -6   1  -7  216.42   27.43
   6   1   7  252.33   32.71
   4  -7 -11  272.99   32.01
  -4  -7  11  209.24   31.86
   4  -7 -11  200.62   31.11
   4   7 -11  213.19   35.43
   4  -7 -11  210.30   30.13
   4   7 -11  208.80   27.97
  -4  -7  11  228.44   34.50
   4  -7 -11  207.66   28.25
  -4   7  11  197.47   30.75
   4   7 -11  217.51   33.82
   4   7 -11  217.42   32.30
  -4   7  11  217.87   25.91
   3   1 -21   56.89   22.85
   3   1 -21   31.12   17.53
  -3  -1  21   27.67   18.01
  -3  -1  21   51.15   18.84
  -3  -1  21   28.03   23.29
  -3   1  21   42.98   17.28
  -3   1  21   28.88   18.10
  -3   1  21   52.81   22.12
   3   1 -21   15.75   14.48
   3  -1 -21   52.09   17.52
   3  -1 -21   71.55   24.51
   3  -1 -21   27.12   25.50
   2  10  -1  140.89   48.64
  -2 -10   1  165.60   24.04
   2 -10  -1  177.64   29.48
  -2 -10   1  174.88   25.26
   2 -10  -1  173.05   29.11
  -2  10   1  174.57   43.83
   2 -10  -1  178.47   31.94
  -2 -10   1  158.23   24.30
  -3   5  18   50.28   19.01
   3   5 -18   88.75   26.69
   3  -5 -18   63.84   18.82
  -3  -5  18  100.24   30.49
  -3  -5  18   55.22   27.30
   3  -5 -18   88.15   25.29
   3   5 -18   84.39   26.35
  -3   5  18   84.19   27.68
   3   5 -18   71.61   25.75
   3  -5 -18   49.69   22.08
  -3  -5  18   76.75   25.43
  -2 -10   0  397.34   33.01
   2 -10   0  429.10   38.52
  -2 -10   0  417.61   35.34
   2 -10   0  503.40   40.45
  -2  10   0  460.16  101.73
   2  10   0  395.88   36.37
   2 -10   0  419.15   37.90
  -1  -4  21   26.16   17.74
   1  -4 -21    9.51   18.01
  -1  -4  21   13.96   16.79
  -1   4  21   19.42   23.45
   1   4 -21   19.92   16.04
  -1   4  21   35.54   17.73
   1   4 -21   41.09   11.15
  -1  -4  21   37.28   25.94
   1   4 -21   38.79   23.85
   1   4 -21    0.47   18.37
  -1   4  21   27.35   14.54
   1  -4 -21   20.20   16.25
   0 -10  -7  363.02   33.52
   0 -10   7  350.17   34.63
   0  10  -7  355.15   38.46
   0 -10   7  388.35   42.96
   0 -10   7  340.42   31.49
   0 -10   7  395.48   38.94
   0 -10   7  359.93   34.43
   0 -10  -7  311.51   32.24
   0  10   7  389.89   34.72
   0 -10  -7  455.02   47.35
  -1  -1 -22  280.98   34.27
  -1   1 -22  273.40   35.49
   1   1  22  274.59   35.55
   1   1  22  314.23   35.54
   1  -1  22  273.61   36.00
   6   1 -11  310.34   40.88
   6  -1 -11  368.53   39.67
  -6  -1  11  268.37   36.77
  -6   1  11  392.83   41.01
   6   1 -11  305.65   33.66
   6  -1 -11  301.16   33.59
  -6  -1  11  317.67   41.83
  -6   1  11  320.67   33.36
   6   1 -11  355.39   37.72
   6  -1 -11  328.42   34.88
  -6   1  11  314.81   35.64
   6   1 -11  269.52   32.18
  -6  -1  11  399.80   41.66
   6  -1 -11  322.82   35.91
   1   8  14  341.74   36.76
  -1   8 -14  317.87   34.80
  -1  -8 -14  261.04   34.17
   1  -8  14  274.03   33.58
   1  -8  14  304.35   35.03
   1  -8  14  303.33   36.71
  -1   8 -14  296.68   34.04
   1   8  14  299.13   35.51
  -2  10   2  388.19   41.00
  -2 -10   2  299.64   30.23
   2 -10  -2  303.45   32.89
   2 -10  -2  386.80   36.77
  -2 -10   2  364.39   33.94
  -2 -10   2  333.31   32.73
   2  10  -2  231.26   58.24
   2 -10  -2  350.30   36.26
   1  -6  18  119.88   31.69
   1  -6  18  102.31   25.99
  -1   6 -18   83.99   22.38
   1   6  18   61.61   19.70
  -1   6 -18   84.94   22.25
   1  -6  18   91.50   21.72
   1  -6  18   52.52   16.16
   1   6  18  104.31   21.95
  -1  -6 -18   65.99   21.57
   1   6  18  108.36   26.61
   0  -4 -21  118.30   21.91
   0  -4 -21  143.95   28.84
   0   4  21  148.87   25.02
   0  -4  21  166.65   27.20
   0  -4  21  128.87   26.45
   0   4  21   99.20   25.46
   0  -4  21  123.80   26.20
   0   4 -21  149.09   33.87
   0   4  21  119.45   28.38
   0   4 -21  122.68   25.01
   0   4 -21  155.53   29.82
   1  -5 -20   21.98   20.25
  -1  -5  20   14.78   17.98
   1   5 -20   26.82   19.12
  -1  -5  20   14.08   16.06
   1   5 -20   16.60    7.91
  -1  -5  20   25.38   15.89
   1   5 -20   30.77   23.04
  -1   5  20    0.27   16.37
  -1   5  20   38.52   17.35
   1  -5 -20   18.58   22.06
   5   1  13   31.46   16.77
  -5  -1 -13   17.04   14.70
   5  -1  13   25.39   18.17
   5   1  13   59.37   27.17
   5  -1  13   35.37   18.66
   5   1  13   34.54   19.59
   5  -1  13   11.98   13.80
   2  -3  20  661.21   45.31
   2  -3  20  708.53   46.49
   2   3  20  689.57   44.47
   2   3  20  740.10   53.48
  -2   3 -20  791.10   55.50
   2  -3  20  664.52   41.91
  -2  -3 -20  686.04   45.94
   2   3  20  605.51   46.56
  -2 -10  -1   41.79   17.28
  -2 -10  -1   52.93   17.21
   2 -10   1   60.77   17.90
  -2 -10  -1   65.19   20.23
   2 -10   1   45.99   21.72
   2 -10   1   44.47   16.42
  -2  10  -1   75.39   26.46
  -2   0 -21  215.35   33.20
   2   0  21  246.04   32.43
   2   0  21  261.52   31.78
   4   8   4  189.29   27.19
  -4   8  -4  168.12   26.45
   4  -8   4  166.31   25.04
   4  -8   4  207.91   30.40
   4  -8   4  213.69   27.17
  -4  -8  -4  209.25   29.28
   4   8   4  169.02   52.62
   4  -8   4  236.30   34.05
   4  -8   4  234.16   35.55
   2   6 -18   86.75   19.57
  -2   6  18   59.75   19.46
   2  -6 -18   96.73   25.40
   2  -6 -18   93.54   24.05
   2   6 -18   41.91   19.90
  -2  -6  18   60.64   18.26
   2   6 -18   54.37   20.20
   2   6 -18   82.62   24.02
  -2   6  18   97.14   29.49
   2  -6 -18   77.73   23.77
  -2  -6  18   59.33   23.39
  -2  -6  18  109.32   28.43
   0   5 -20  124.47   21.68
   0  -5  20  159.06   28.75
   0  -5 -20  165.12   24.69
   0   5  20  214.40   31.82
   0   5  20  173.64   31.68
   0   5  20  172.86   24.66
   0  -5  20  212.19   31.99
   0   5 -20  221.60   39.34
   0  -5  20  229.84   29.76
   0  -5  20  223.55   37.01
   0  -5 -20  133.15   23.63
   0  -7  17  286.84   34.63
   0   7 -17  246.37   31.99
   0  -7  17  337.13   35.78
   0  -7 -17  264.08   29.00
   0   7 -17  255.59   34.20
   0   7  17  319.01   37.43
   0  -7 -17  295.54   39.52
   0  -7  17  235.21   28.71
   0   7  17  297.27   35.38
   0   7 -17  255.53   32.01
   0  -7  17  256.06   31.63
   1  -9  11  101.79   26.86
   1   9  11   86.98   24.46
  -1   9 -11  110.98   28.77
   1  -9  11   41.75   19.10
   1  -9  11   96.85   25.97
  -1  -9 -11   60.67   20.45
   1  -9  11   29.58   16.39
  -1  -9 -11  115.84   25.91
  -1   9 -11   51.87   18.30
   1   9  11   47.03   21.45
   1  10   6  164.55   24.86
   1 -10   6  244.93   30.99
  -1 -10  -6  213.25   28.75
   1 -10   6  204.10   29.18
  -1 -10  -6  244.17   30.79
  -1  10  -6  242.43   31.12
   1 -10   6  173.30   26.76
   1 -10   6  206.60   27.02
   1 -10   6  203.89   31.11
  -2  -9  -9   10.85   16.28
   2  -9   9   25.43   22.38
  -2   9  -9   24.66   24.42
   2   9   9    0.15   13.13
   2  -9   9    3.82   17.83
   2  -9   9    7.39   17.10
   2  -9   9   -1.57   14.54
   2  -9   9    6.50   16.07
   6  -4   2   -0.97   17.13
   6   4   2  -12.63   15.33
  -6  -4  -2   32.34   21.36
   6  -4   2   40.14   25.48
   6   4   2   -5.43   14.83
   6  -4   2   24.87   15.94
   6   4   2   23.03   16.73
  -6  -4  -2    3.40   15.73
   6  -3   5    7.01   18.27
   6   3   5    5.54   14.90
   6  -3   5   30.71   21.27
   6   3   5    3.84   14.81
  -6  -3  -5   15.75   17.38
   6  -3   5    4.95   15.79
   6   3   5   17.15   17.61
  -6  -3  -5   34.42   26.05
  -1  -7  17  580.70   42.22
   1  -7 -17  549.81   42.49
  -1   7  17  639.09   50.66
   1  -7 -17  655.18   49.93
  -1   7  17  629.80   46.56
   1  -7 -17  514.40   38.34
   1   7 -17  572.39   43.99
   1   7 -17  571.19   43.48
  -1  -7  17  575.90   45.18
   1   7 -17  595.46   45.18
  -1  -7  17  635.54   51.81
  -1  -7  17  509.79   42.32
  -5   3  15   -3.53   18.65
   5   3 -15   -8.53   17.70
   5  -3 -15   10.48   16.93
   5   3 -15   17.89   13.47
   5  -3 -15   17.08   17.22
   5   3 -15   11.47   19.19
  -5  -3  15   11.46   15.08
  -5   3  15  -17.40   16.10
  -5  -3  15    9.34   15.94
   5   3 -15   -7.50   15.83
   5  -3 -15   10.02   15.83
  -5  -3  15  -11.49   16.37
   5   3 -15   17.99   15.88
   2 -10  -3  207.99   31.22
   2  10  -3  141.81   33.43
   2 -10  -3  169.90   30.45
   2 -10  -3  179.65   26.94
  -2 -10   3  172.69   25.84
   2 -10  -3  114.45   21.92
  -2 -10   3  157.44   25.94
   6   4  -6  395.07   38.48
  -6  -4   6  347.00   37.28
   6  -4  -6  320.32   31.84
  -6  -4   6  372.40   36.40
   6   4  -6  378.67   37.91
  -6   4   6  317.25   31.05
   6  -4  -6  369.15   36.72
  -6  -4   6  390.93   38.71
  -6   4   6  344.08   35.71
   6   4  -6  323.34   35.81
   6  -4  -6  268.32   28.16
   6  -4  -6  340.34   35.33
   4   6 -14   11.01   17.62
   4  -6 -14   20.15   15.08
   4   6 -14   19.31   22.03
  -4  -6  14   17.38   17.43
   4  -6 -14    4.35   15.84
  -4  -6  14   26.52   18.08
  -4  -6  14   20.19   14.35
   4   6 -14    7.41   13.13
  -4   6  14   32.06   15.27
  -4   6  14   31.98   20.89
   4   6 -14   48.13   27.42
   4  -6 -14    0.10   16.47
  -5   6   9  276.05   34.22
   5   6  -9  272.86   34.80
   5   6  -9  296.92   37.18
  -5  -6   9  279.08   41.00
   5   6  -9  247.87   29.09
  -5  -6   9  249.21   30.01
  -5   6   9  270.11   31.71
   5  -6  -9  328.65   41.51
   5   6  -9  203.24   68.68
  -5  -6   9  305.72   30.79
   5  -6  -9  316.07   34.89
   5  -6  -9  295.67   33.17
   6  -3  -9  106.88   25.39
   6   3  -9   84.30   26.84
  -6  -3   9  105.91   28.77
  -6  -3   9   88.57   19.74
   6   3  -9   57.88   24.40
   6  -3  -9   70.87   24.75
  -6  -3   9   73.84   24.86
  -6   3   9  102.65   29.05
   6  -3  -9   77.06   19.63
   6   3  -9  140.64   28.13
   6   3  -9   78.71   22.19
  -6   3   9   93.42   30.01
   6  -3  -9  114.48   28.43
   3  -9   5   10.51   16.17
   3  -9   5   36.13   22.94
   3  -9   5   -7.54   12.56
   3   9   5   17.79   19.77
   3  -9   5    4.54   14.53
  -3  -9  -5   18.11   13.36
   3  -9   5   23.37   16.62
   3   9   5   -6.41   14.32
  -3   9  -5    4.96   15.11
  -2  10  -2   88.24   27.11
  -2 -10  -2   40.46   20.27
   2 -10   2   70.35   24.24
   2 -10   2   61.92   22.37
   2 -10   2   43.73   20.65
   2 -10   2   44.68   18.68
  -2 -10  -2   59.78   22.33
  -2  -7 -15  171.55   27.58
  -2   7 -15  224.81   32.78
   2  -7  15  180.72   28.87
   2   7  15  232.56   32.40
   2  -7  15  183.41   28.43
   2  -7  15  185.20   30.76
  -2   7 -15  166.83   29.36
  -2   7 -15  144.72   30.20
   3  -9  -7  808.02   51.14
   3  -9  -7  788.90   51.10
  -3  -9   7  713.07   43.67
   3   9  -7  653.83  151.36
   3   9  -7  618.08  137.74
  -3  -9   7  798.93   48.66
  -3  -9   7  743.81   46.69
   3  -9  -7  803.33   46.66
   3   9  -7  819.52   48.44
   3  -9  -7  841.81   54.48
   2   1  21 1148.93   58.93
   2   1  21 1113.94   55.44
   2  -1  21 1149.05   59.43
  -2   1 -21 1107.46   62.91
   2  -1  21 1042.24   51.92
  -2  -1 -21 1051.89   58.45
   4  -8  -7  710.86   46.74
   4  -8  -7  705.19   49.26
   4   8  -7  536.52  133.46
  -4   8   7  690.55   44.28
   4  -8  -7  695.58   46.44
   4  -8  -7  707.37   43.74
   4   8  -7  721.76   46.25
   4   8  -7  720.86   47.98
  -4  -8   7  716.93   47.04
   0  -9 -12   81.39   20.80
   0   9 -12   68.33   18.94
   0  -9  12   61.18   23.78
   0  -9  12  106.64   29.35
   0   9  12   93.07   27.81
   0   9  12   77.03   21.65
   0  -9  12   84.04   24.50
   0  -9  12   79.15   24.02
   0  -9 -12   77.78   21.83
   0   9 -12   99.26   29.54
   5   5 -12   -6.06   13.54
   5   5 -12   11.89   27.93
  -5   5  12    7.18   19.21
  -5  -5  12    2.12   12.48
   5   5 -12   17.14   17.40
  -5  -5  12   13.58   16.22
   5  -5 -12   16.39   18.03
   5  -5 -12  -11.73   16.49
   5  -5 -12    8.24   15.23
   5   5 -12    2.95   15.29
  -5   5  12   18.13   16.05
  -5  -5  12  -10.43   15.40
   5   5 -12    3.42   16.55
   2   2 -22   90.49   22.98
  -2   2  22   54.78   20.19
   2  -2 -22   40.18   17.72
   2   2 -22   68.85   28.08
   2   2 -22  119.08   30.23
  -2  -2  22   87.53   24.48
   2   2 -22   67.46   21.03
  -2   2  22   69.67   23.95
   2  -2 -22   64.51   19.26
  -2  -2  22   86.43   24.71
  -2   2  22   75.11   21.15
  -2  -2  22   51.66   19.82
   2  -2 -22   82.50   24.21
  -1 -10   7  200.69   27.91
  -1 -10   7  167.14   27.95
   1 -10  -7  177.30   29.01
   1  10  -7  152.73   29.44
   1 -10  -7  172.39   27.54
  -1 -10   7  193.21   30.92
  -1 -10   7  158.10   27.36
   1  10  -7  141.80  106.10
   1 -10  -7  120.11   27.45
  -4   2  19 1025.99   50.94
  -4  -2  19 1104.06   56.02
  -4  -2  19 1083.15   55.91
   4  -2 -19 1198.72   62.60
   4   2 -19 1134.15   56.67
   4   2 -19 1121.73   62.07
  -4   2  19 1110.29   57.13
  -4   2  19 1167.47   63.07
  -4  -2  19  967.04   50.72
   4   2 -19 1079.34   60.79
  -4  -2  19 1075.61   59.06
   4   2 -19 1241.63   64.02
   4  -2 -19 1088.16   57.25
   4  -2 -19 1130.06   60.29
   5  -2 -16  862.12   56.01
   5   2 -16  758.15   52.08
   5  -2 -16  705.05   47.60
   5   2 -16  589.16  114.98
   5  -2 -16  751.23   50.15
  -5   2  16  886.87   54.54
  -5  -2  16  791.43   49.38
   5   2 -16  781.78   55.70
  -5  -2  16  783.15   50.78
  -5   2  16  836.42   54.46
   5   2 -16  765.36   49.45
  -5  -2  16  820.71   55.89
   5   2 -16  789.24   54.50
   5  -6   6  184.22   31.83
   5   6   6  153.26   24.78
  -5  -6  -6  160.35   29.78
   5  -6   6  149.30   29.42
   5   6   6  187.73   32.92
   5  -6   6  170.83   28.14
  -4  -5  16    9.07   14.30
  -4  -5  16   19.41   16.51
   4  -5 -16    5.05   18.52
   4   5 -16    3.01   20.83
   4  -5 -16   61.84   23.47
  -4   5  16    6.75   15.78
   4   5 -16   40.62   18.29
   4  -5 -16   28.60   14.86
   4   5 -16   12.09   17.35
  -4   5  16   32.92   19.03
   4   5 -16   35.25   25.50
  -4  -5  16   40.09   20.68
   0  -8  15 1548.75   70.20
   0  -8 -15 1597.66   64.66
   0  -8  15 1614.88   70.23
   0   8  15 1587.66   68.33
   0   8  15 1674.64   73.35
   0   8 -15 1557.31   69.31
   0  -8 -15 1496.28   67.52
   0  -8  15 1609.31   72.29
   0   8 -15 1476.67  104.61
   0   8 -15 1548.58   68.87
   1   3 -22  143.28   28.62
  -1  -3  22  145.41   30.33
  -1   3  22  144.61   30.13
  -1   3  22  129.83   25.13
   1  -3 -22  117.40   24.50
  -1  -3  22  146.32   26.38
   1   3 -22  132.03   25.69
  -1   3  22  150.99   30.30
   1   3 -22  143.00   29.83
  -1  -3  22   83.70   22.70
   1  -3 -22  180.78   31.59
  -2  -8  14  112.70   28.85
   2   8 -14  105.55   21.57
  -2   8  14  112.08   25.95
  -2  -8  14  122.45   23.28
   2  -8 -14  145.82   26.90
   2  -8 -14  128.67   33.11
   2   8 -14  159.06   29.89
  -2  -8  14  152.42   28.16
  -2  -8  14  131.86   28.08
  -2   8  14  127.50   28.31
   2  -8 -14  143.10   33.14
   2   8 -14  148.84   29.53
  -3  -2 -19  593.82   42.92
  -3   2 -19  627.88   46.95
   3   2  19  536.55   39.73
   3  -2  19  591.14   42.87
   3   2  19  631.45   47.09
   3  -2  19  532.78   41.12
   4  -7   9  105.67   21.55
  -4   7  -9  140.18   28.84
   4  -7   9  143.52   31.06
   4  -7   9   89.29   20.97
   4  -7   9  148.14   26.85
   4   7   9  107.28   23.00
   4   7   9  166.98   31.08
   4   7   9  161.91   29.60
   5   3  12  157.84   34.17
   5  -3  12  220.80   31.45
   5   3  12  192.15   30.04
   5  -3  12  202.34   29.10
   5   3  12  167.92   26.12
   5  -3  12  152.45   27.68
  -5  -3 -12  206.85   33.41
   2  10  -4  607.07   87.28
  -2 -10   4  656.78   42.96
   2 -10  -4  764.82   47.77
   2 -10  -4  694.30   47.36
  -2 -10   4  590.32   39.66
  -2 -10   4  611.22   42.63
   2 -10  -4  747.82   51.20
   2  10  -4  696.68   46.01
   2 -10  -4  717.93   52.53
   4   0  17   14.14   14.85
   4   0  17  -10.11   17.41
  -4   0 -17   24.77   14.67
  -5   4  14   53.34   23.85
   5   4 -14   38.51   19.82
   5  -4 -14   68.39   22.95
   5   4 -14   57.83   12.63
   5  -4 -14   81.38   26.28
   5   4 -14   23.81   19.76
   5  -4 -14   45.06   24.50
   5   4 -14   72.96   22.30
  -5  -4  14   62.52   21.94
  -5  -4  14   86.99   23.05
  -5   4  14   50.61   17.79
  -5  -4  14   79.39   23.78
   5   4 -14   46.78   20.42
  -1   8  15 1374.06   67.53
   1  -8 -15 1388.94   65.35
  -1  -8  15 1395.93   66.44
   1   8 -15 1361.68   63.85
  -1  -8  15 1280.38   61.97
   1  -8 -15 1291.15   56.41
   1   8 -15 1326.49   61.85
  -1  -8  15 1286.57   56.23
   1  -8 -15 1309.74   61.58
   1   8 -15 1320.73   64.33
  -1  -8  15 1297.22   66.83
  -1   8  15 1401.31   64.98
   3  -8  10  410.01   39.56
   3   8  10  414.59   40.13
   3  -8  10  322.48   31.54
   3   8  10  374.64   33.32
  -3  -8 -10  381.14   36.39
  -3   8 -10  477.83   40.54
   3  -8  10  398.90   39.02
   3  -8  10  450.98   40.83
   3   8  10  439.29   39.67
   3  -8  10  411.53   35.61
   1  -9 -12  392.86   35.45
   1   9 -12  374.84  129.78
  -1   9  12  461.08   41.20
  -1  -9  12  394.68   39.64
  -1  -9  12  438.53   39.86
   1   9 -12  522.97   46.63
  -1   9  12  449.72   39.50
   1   9 -12  439.59   39.14
   1  -9 -12  419.54   42.14
  -1  -9  12  491.36   40.27
   1  -9 -12  451.07   40.64
  -5  -7   2    5.34   14.47
   5   7  -2   20.60   23.59
  -5  -7   2   -6.16   15.59
   5  -7  -2   12.67   14.13
   5  -7  -2    0.92   11.96
   5  -7  -2    7.15   16.32
   5  -7  -2   45.01   24.29
   5   7  -2    9.95    7.88
   5   7  -2  -12.33   14.19
   0  -3  22  165.35   31.10
   0   3  22  133.97   28.30
   0   3 -22  157.75   32.33
   0  -3  22  107.84   24.80
   0  -3  22  189.82   31.47
   0  -3 -22  168.64   28.44
   0  -3 -22  140.80   26.86
   0   3 -22  142.40   31.72
   0   3  22  171.67   30.52
   0   3 -22   87.47   21.76
   0   3  22  165.48   28.43
   5  -7  -1   58.37   21.90
  -5  -7   1   45.81   23.11
   5  -7  -1   44.41   22.88
   5   7  -1   55.50   25.13
  -5  -7   1   25.49   23.00
   5   7  -1   23.48   11.22
   5   7  -1   19.92   14.75
   5  -7  -1   19.04   14.00
   5  -7  -1   13.84   12.93
   1   0 -23  307.32   37.97
   1   0 -23  342.44   36.89
   1   0 -23  323.05   35.71
  -1   0  23  290.36   32.53
  -1   0  23  257.42   35.44
   5  -5   9  512.15   43.94
   5  -5   9  558.62   40.17
   5   5   9  537.68   44.61
  -5  -5  -9  521.05   42.52
   5   5   9  507.42  126.90
   5  -5   9  524.08   41.93
  -2   6 -17   55.52   19.05
   2  -6  17   43.87   19.76
   2   6  17   51.21   17.43
   2  -6  17   89.88   25.65
  -2   6 -17   43.19   13.29
  -2  -6 -17   72.54   24.22
   2  -6  17   85.99   27.62
   2   6  17   29.82   15.89
   2  -6  17   73.76   21.63
  -2   6 -17  109.33   28.10
   6  -2   7   74.49   22.13
   6   2   7   51.63   26.01
   6   2   7   88.77   27.96
   6  -2   7  104.60   27.65
   6   2   7   75.43   23.56
  -6  -2  -7   72.66   23.24
  -6  -2  -7   78.06   24.17
   6  -2   7   38.09   13.92
   2 -10   3  592.85   41.98
  -2  10  -3  674.34   54.04
  -2 -10  -3  586.46   44.73
  -2 -10  -3  488.39   36.55
   2 -10   3  616.39   45.46
   2 -10   3  541.94   43.26
   2 -10   3  562.02   43.14
  -3  -8  12   97.54   22.42
   3   8 -12  129.96   28.41
   3   8 -12   81.06   24.08
   3  -8 -12  101.78   25.52
  -3   8  12  136.50   28.64
   3  -8 -12  110.95   26.73
  -3   8  12   99.02   27.52
  -3  -8  12   99.74   28.01
   3   8 -12   84.40   36.58
   3  -8 -12  148.88   28.17
   6   0   8  431.43   39.23
  -6   0  -8  438.17   37.86
   6   0   8  407.52   39.67
   6   0   8  399.33   40.67
  -6   0  -8  336.49   31.97
   3  -2 -21  202.19   32.24
   3   2 -21  259.50   36.02
   3   2 -21  191.78   25.74
   3  -2 -21  179.74   25.96
   3  -2 -21  185.75   31.51
  -3   2  21  211.55   34.41
  -3  -2  21  183.61   32.36
  -3   2  21  183.67   31.24
  -3  -2  21  212.73   28.25
   3   2 -21  217.23   29.78
   3   2 -21  205.43   31.20
  -3  -2  21  150.08   28.77
  -3   2  21  215.33   27.98
   6  -4   3  121.57   32.20
   6   4   3   93.39   24.87
   6   4   3   62.91   24.22
   6  -4   3  107.04   25.19
  -6  -4  -3   92.66   23.79
   6   4   3   70.78   24.49
   6  -4   3   68.03   23.53
  -6  -4  -3  127.93   26.59
   5  -7  -3  154.49   28.86
   5  -7  -3  194.35   29.14
  -5  -7   3  148.49   26.67
   5  -7  -3  124.10   22.75
   5  -7  -3  157.35   28.37
   5   7  -3  138.46   25.11
  -5  -7   3  138.88   28.99
  -5  -7   3  133.25   26.97
   5   7  -3  133.78   30.99
   4   8   5  295.31   37.76
   4  -8   5  272.77   30.36
   4   8   5  233.75   69.16
   4  -8   5  291.01   31.36
   4  -8   5  296.11   33.76
  -4   8  -5  381.27   38.64
   4   8   5  286.37   32.14
   4  -8   5  271.63   29.15
   4  -8   5  300.07   34.58
  -5  -7   0  136.89   25.84
   5   7   0  107.49   25.60
   5   7   0  150.59   28.53
  -5  -7   0  118.38   25.92
   5   7   0  122.24   26.62
   5  -7   0  115.22   24.10
   5  -7   0  119.88   24.59
   5  -7   0  114.39   27.07
   5  -7   0  155.13   27.51
   6   4  -7   88.03   25.32
  -6  -4   7   48.08   21.16
  -6  -4   7   97.88   27.04
  -6  -4   7   60.38   24.66
   6   4  -7   95.44   25.87
   6  -4  -7   36.88   16.82
  -6   4   7   72.46   23.76
  -6   4   7  112.09   23.51
   6   4  -7   28.95   28.09
   6  -4  -7   56.31   24.45
   6  -4  -7   77.79   21.05
  -1   6  19  193.31   31.49
  -1  -6  19  129.52   27.76
   1  -6 -19  169.88   26.96
  -1  -6  19  164.28   28.08
  -1  -6  19  112.63   27.29
   1   6 -19  142.29   30.85
   1   6 -19  119.36   27.59
   1  -6 -19  141.46   29.43
  -1   6  19  146.06   29.17
   0  -6  19  130.35   28.69
   0  -6 -19   39.58   14.62
   0   6 -19  141.00   29.09
   0   6  19   71.66   21.19
   0  -6  19   35.86   14.80
   0  -6  19   87.97   23.96
   0  -6 -19   75.39   24.02
   0   6 -19  106.83   23.98
   0   6 -19   88.22   28.61
   0   6  19   91.39   25.21
   0  -6  19  132.43   31.88
   1   2  22   11.89   15.38
   1  -2  22    5.08   17.36
   1   2  22   13.91   17.86
   1  -2  22   44.47   18.71
  -1   2 -22   -5.02   16.51
   1   2  22   12.94   18.52
   6  -2 -11   43.49   17.50
  -6   2  11   56.76   23.23
  -6  -2  11   77.83   24.67
   6   2 -11   36.44   26.87
   6  -2 -11   29.21   14.66
  -6   2  11   49.25   24.54
   6   2 -11   60.76   18.65
   6  -2 -11   55.12   19.42
  -6  -2  11   37.15   19.00
   6   2 -11   43.76   21.06
   6  -2 -11   88.08   27.20
  -6  -2  11   49.24   17.78
   6   2 -11   37.62   21.80
   0   0 -23  148.74   29.53
   0   0 -23  135.61   25.16
   0   0  23  116.02   23.80
   0   0  23  186.58   31.91
   6   0 -12   67.91   25.04
   6   0 -12  103.59   26.34
  -6   0  12   78.73   32.21
  -6   0  12   18.16   19.45
   6   0 -12   23.90   19.80
  -6   0  12   63.98   22.33
  -4   1 -17   76.73   21.83
   4   1  17   85.17   20.75
   4  -1  17   99.90   22.43
   4  -1  17  111.05   26.48
   4   1  17   99.70   23.74
   4   1  17  119.66   27.97
   4   1  17   93.18   22.20
  -4  -1 -17   80.54   21.62
   5   2  13  174.88   34.73
   5  -2  13  124.87   24.38
  -5  -2 -13  128.84   24.25
   5   2  13  126.16   24.28
   5   2  13  147.27   27.12
   5  -2  13  126.16   28.62
   5  -2  13  135.16   29.46
   3   6  15    7.22   17.07
   3   6  15   39.34   20.98
  -3   6 -15   34.56   23.89
  -3  -6 -15   56.26   22.51
   3  -6  15   18.75   13.64
   3  -6  15   16.92   15.73
   3   6  15   15.63   23.83
   3  -6  15   22.46   19.70
   0 -10  -8  104.42   24.65
   0 -10   8   72.43   20.82
   0 -10   8  135.47   27.73
   0 -10   8   99.12   26.51
   0 -10  -8   96.48   22.65
   0 -10   8   77.63   22.42
   0  10   8  105.79   22.27
   0  10  -8  121.14   24.76
   0 -10  -8   63.54   25.06
   0 -10   8  113.97   27.80
   4   4  15  230.53   31.35
   4  -4  15  220.76   30.40
   4  -4  15  164.18   24.19
   4   4  15  173.54   47.62
   4  -4  15  169.51   27.38
  -4   4 -15  140.70   22.42
   4   4  15  171.11   31.30
   3   7  13    6.90   19.93
   3  -7  13    9.16   16.02
  -3   7 -13   19.33   11.52
   3  -7  13    3.75   18.27
   3   7  13   18.90   17.81
   3  -7  13    5.67   15.88
  -3  -7 -13   23.18   14.51
   3  -7  13   30.06   13.72
  -3   7 -13   44.33   17.82
   3   7  13   35.07   16.75
   1  -1 -23  129.68   28.61
  -1  -1  23  132.71   27.77
   1   1 -23  137.06   29.02
   1   1 -23  114.55   24.11
   1   1 -23  178.98   31.52
   1  -1 -23  126.15   26.04
  -1   1  23  152.91   30.16
   1  -1 -23  134.89   27.01
  -1  -1  23  165.35   25.78
  -1   1  23  104.27   27.50
  -1   1  23  119.57   25.10
   5  -4  11  296.83   33.54
   5   4  11  273.40   33.67
  -5  -4 -11  330.88   37.80
   5  -4  11  301.45   36.72
   5   4  11  209.28   41.79
   5   4  11  208.63   28.55
  -4  -3 -16  157.92   28.49
   4  -3  16  126.51   24.45
  -4   3 -16  142.44   25.63
   4   3  16  124.59   27.93
   4  -3  16  110.19   26.00
   4   3  16  145.87   26.52
   4   3  16  148.66   30.87
   4  -3  16  110.24   27.32
   5  -7  -4   -6.79   13.32
   5  -7  -4   19.01   14.16
   5  -7  -4   23.19   19.24
  -5  -7   4   14.18   16.46
   5   7  -4   24.06   14.82
  -5  -7   4   -5.81   14.08
   5   7  -4    5.52   14.68
  -5  -7   4   11.81   14.67
   5  -7  -4    4.54   16.27
   1 -10   7  111.37   28.08
  -1  10  -7  100.26   25.61
   1 -10   7   95.00   24.63
   1  10   7  101.77   25.46
   1 -10   7   66.91   22.22
  -1 -10  -7  114.88   25.17
   1 -10   7   86.70   21.27
   1 -10   7  103.16   24.48
  -1 -10  -7  105.41   24.18
  -6   1  -8   78.65   21.63
   6   1   8   67.34   20.54
   6  -1   8   48.43   25.00
  -6  -1  -8   60.34   21.28
   6  -1   8  108.11   25.97
   6   1   8   94.94   30.03
   6  -1   8   80.01   22.36
  -6  -1  -8   93.45   20.68
   6   1   8   72.27   24.45
   3   6 -17  108.40   28.58
  -3  -6  17  160.97   31.28
   3   6 -17  192.87   38.29
  -3  -6  17   85.40   26.53
   3  -6 -17  104.55   28.12
  -3  -6  17  110.65   26.57
  -3   6  17  143.37   31.80
   3  -6 -17   70.45   22.12
   3   6 -17   80.63   26.55
   3  -6 -17  107.11   26.64
  -3   6  17   71.34   23.72
   2  -8  13  432.02   39.93
  -2  -8 -13  390.40   36.73
   2  -8  13  461.16   41.79
   2  -8  13  443.43   39.11
  -2   8 -13  352.22  127.22
   2  -8  13  462.62   41.34
   2   8  13  442.28   39.93
  -2   8 -13  516.76   45.08
  -2  -9  11 1001.49   56.69
   2  -9 -11  995.45   55.94
   2  -9 -11 1064.18   60.05
   2   9 -11 1003.61   56.72
  -2  -9  11 1031.46   58.47
   2   9 -11  993.52   51.75
  -2  -9  11  993.78   54.72
   2  -9 -11 1031.08   55.61
   2   9 -11 1037.31  141.47
  -2   9  11 1075.74   56.46
  -3  -7  15  322.39   40.57
  -3  -7  15  296.76   35.04
   3   7 -15  213.31   49.94
   3  -7 -15  239.53   28.92
   3  -7 -15  253.57   34.55
   3   7 -15  264.62   34.16
  -3  -7  15  305.49   36.03
  -3   7  15  281.56   32.65
   3  -7 -15  232.92   32.27
  -3   7  15  261.98   35.75
   2  10  -5   76.88   21.94
  -2 -10   5   73.40   21.46
   2 -10  -5   46.95   22.17
   2 -10  -5   42.00   16.08
   2 -10  -5   77.33   25.44
  -2 -10   5  102.01   23.57
   2  10  -5   74.09   24.24
   2 -10  -5   82.60   22.15
  -2 -10   5   44.54   18.27
   5  -7   1  185.59   28.71
   5  -7   1  221.82   27.07
   5  -7   1  259.56   31.85
  -5  -7  -1  230.97   36.03
  -5  -7  -1  249.51   31.53
   5   7   1  124.21   61.45
   5  -7   1  184.23   28.82
   5   7   1  231.49   29.87
   5   7   1  207.31   31.45
   3  -9   6 1027.37   57.49
  -3  -9  -6  941.47   48.81
   3  -9   6 1101.75   54.25
   3   9   6  987.76   51.29
   3  -9   6 1028.58   55.86
  -3   9  -6 1111.02   57.85
   3  -9   6 1070.88   56.87
   3   9   6 1047.07   55.54
   3  -9   6 1024.51   54.56
  -6  -3  -6   54.80   25.28
   6   3   6   79.80   25.56
   6  -3   6   82.37   30.55
   6  -3   6   73.70   27.47
   6   3   6   62.52   25.16
   6  -3   6   40.73   14.63
  -6  -3  -6   51.85   24.63
   6   3   6   48.08   22.73
   4  -7 -12   52.91   19.40
  -4   7  12   24.74   16.12
   4   7 -12   50.19   23.12
  -4  -7  12   37.20   20.69
   4  -7 -12   36.44   18.78
   4   7 -12   60.12   27.97
   4   7 -12   26.78   16.86
   4   7 -12   27.05   15.08
  -4   7  12   46.66   17.83
  -4  -7  12   47.62   27.45
   4  -7 -12   23.20   20.09
   4   8  -8  225.24   31.75
  -4  -8   8  273.83   35.02
   4   8  -8  190.83   48.52
   4  -8  -8  241.47   33.85
   4   8  -8  263.06   30.53
   4  -8  -8  278.97   32.22
  -4  -8   8  247.45   36.06
   4  -8  -8  260.31   37.89
  -4   8   8  185.22   28.21
   4  -8  -8  250.27   33.88
   0   1 -23   82.43   24.08
   0  -1 -23   53.90   16.16
   0  -1  23  116.90   26.88
   0   1  23   92.41   24.26
   0  -1 -23   83.05   26.31
   0   1  23  121.22   30.07
   0   1 -23  131.36   31.50
   3  -9  -8  259.95   35.66
   3  -9  -8  241.59   33.55
   3   9  -8  263.51   31.80
   3  -9  -8  286.08   33.22
   3  -9  -8  247.74   32.42
   3   9  -8  247.02   29.24
  -3  -9   8  264.50   32.98
  -3   9   8  269.30   31.31
  -3  -9   8  258.16   31.28
  -3  -9   8  236.54   28.30
   3   9  -8  207.83   60.29
   5   0 -17  282.23   34.97
   5   0 -17  245.63   34.94
   5   0 -17  250.03   36.96
  -5   0  17  197.75   31.20
  -5   0  17  211.99   31.78
  -5   0  17  184.42   28.91
   5   0 -17  226.13   29.39
  -6  -1  12   40.12   26.52
   6  -1 -12   37.26   20.20
   6   1 -12   29.68   16.37
   6  -1 -12   31.49   26.64
   6   1 -12   31.35   18.21
  -6   1  12   83.73   29.50
  -6   1  12   60.63   21.12
   6   1 -12   48.48   22.32
   6  -1 -12   24.34   16.86
   6   1 -12   51.40   26.09
   6  -1 -12   46.33   19.29
  -6  -1  12   31.37   17.91
  -6  -1  12   91.70   31.34
   4  -6  12   51.42   21.57
   4   6  12   36.37   16.33
   4  -6  12   39.34   18.95
   4   6  12   33.38   20.84
   4   6  12   53.09   17.31
  -4   6 -12   43.69   16.22
   2  -2  21  145.10   26.09
   2   2  21   97.69   21.61
   2   2  21  176.75   32.32
   2   2  21  133.89   26.13
  -2   2 -21  137.94   31.35
   2  -2  21  163.65   29.57
  -2  -2 -21  186.84   29.98
  -2 -10  -4  177.43   27.48
   2 -10   4  133.74   28.18
   2 -10   4  203.98   29.90
   2 -10   4  173.20   27.94
   2 -10   4  148.07   29.53
  -2  10  -4  219.56   37.58
   6  -3 -10   16.02   17.44
  -6  -3  10   20.74   18.84
   6  -3 -10   10.93   18.29
   6   3 -10   24.62   18.92
   6   3 -10   10.37   18.19
  -6  -3  10   42.15   25.33
   6   3 -10    5.30   20.45
  -6  -3  10   49.84   22.71
  -6   3  10   10.95   18.47
   6   3 -10    8.48   15.05
  -6   3  10   44.32   18.69
   5  -6 -10  126.50   27.06
   5   6 -10  107.62   23.91
   5  -6 -10  142.30   29.56
   5   6 -10  115.62   26.48
   5   6 -10  149.39   25.68
  -5  -6  10  105.11   23.63
  -5   6  10  120.44   22.67
  -5  -6  10  132.72   24.42
  -5  -6  10  119.03   24.12
   5  -6 -10  168.58   32.73
   5   6 -10  122.71   31.06
  -5   6  10  103.96   21.21
   2  -4 -21    8.55   16.54
  -2  -4  21   13.34   16.46
  -2  -4  21   31.06   19.95
   2   4 -21    5.86   14.04
  -2   4  21   23.23   17.72
   2   4 -21    7.46   14.75
   2   4 -21   16.70   17.82
   2   4 -21    9.76   19.27
  -2   4  21   32.37   17.94
   2  -4 -21   -0.45   16.09
  -2  -4  21   22.56   16.10
   2  -4 -21   -4.10   13.56
  -1 -10   8  155.89   25.61
  -1  10   8  125.38   24.65
   1  10  -8  165.86   29.51
   1 -10  -8  213.38   30.07
   1 -10  -8  100.24   24.60
  -1 -10   8  117.72   24.56
  -1 -10   8  189.06   33.90
  -1 -10   8  140.24   29.08
   1  10  -8  120.48   48.74
   1 -10  -8  159.79   28.14
  -5  -7   5   10.05   14.40
   5  -7  -5   28.06   14.22
   5  -7  -5   14.30   13.96
   5  -7  -5  -24.39   17.60
   5  -7  -5   13.00   15.43
   5   7  -5   22.67   17.92
   5   7  -5    0.28   13.54
  -5  -7   5   -6.29   13.10
  -5  -7   5   21.48   14.56
   5   7  -5   17.75    6.15
   6  -4   4   73.11   19.04
   6   4   4   85.41   24.40
   6   4   4  103.62   30.30
   6  -4   4   51.04   21.53
  -6  -4  -4   73.58   23.31
   6  -4   4   49.03   23.46
   6   4   4   48.49   16.69
  -6  -4  -4   79.74   25.04
   2  -9  10  180.34   27.63
   2  -9  10  163.30   30.64
   2  -9  10  197.55   28.17
  -2   9 -10  175.72   31.44
  -2  -9 -10  183.92   28.16
   2  -9  10  161.49   25.06
   2   9  10  209.86   29.13
   2  -9  10  213.05   30.65
   2   5 -20  100.10   27.60
   2   5 -20   92.65   26.03
  -2  -5  20  110.41   29.04
  -2   5  20   88.26   28.03
  -2   5  20   88.14   24.22
  -2  -5  20   90.66   23.86
   2  -5 -20   90.72   26.21
   2   5 -20   76.64   23.54
   2  -5 -20   99.15   27.16
   2  -5 -20   91.60   23.29
  -2  -5  20   93.78   25.76
   2   5 -20  111.08   25.14
   5  -7   2  161.87   26.93
   5   7   2  120.68   22.56
   5  -7   2  169.43   25.71
   5  -7   2  185.26   29.66
   5  -7   2  208.38   31.01
  -5  -7  -2  222.34   31.93
   5   7   2  128.75   23.58
  -5  -7  -2  173.50   27.95
   5   1 -17  141.25   26.55
   5  -1 -17  109.90   31.82
  -5   1  17  108.25   27.76
   5   1 -17   73.25   23.62
  -5   1  17  143.37   28.29
  -5  -1  17   89.34   27.93
   5  -1 -17   69.10   19.85
   5   1 -17  100.28   28.90
  -5  -1  17  101.28   24.41
  -5  -1  17   90.95   26.78
   5   1 -17  102.65   27.92
  -5   1  17   94.45   21.44
   5   1 -17  103.11   26.94
   5  -1 -17   93.64   25.08
   5   6   7  149.44   41.05
   5  -6   7  226.20   31.73
   5  -6   7  222.15   29.56
  -5  -6  -7  250.92   33.48
   5  -6   7  153.98   29.87
   5   6   7  250.12   37.62
   6   4  -8  153.48   29.18
   6  -4  -8  154.47   27.82
  -6  -4   8  162.41   33.67
  -6  -4   8  202.35   35.57
   6  -4  -8  144.29   27.82
   6   4  -8  194.61   30.29
  -6   4   8  149.60   24.63
   6   4  -8  151.20   27.44
   6  -4  -8  118.52   27.54
  -6   4   8  148.83   27.01
  -6  -4   8  165.84   33.08
   1  -7  17  139.62   29.46
   1   7  17  117.51   26.39
   1  -7  17  112.45   27.26
  -1   7 -17  132.02   26.14
   1  -7  17  116.25   25.57
  -1   7 -17  112.46   25.56
   1   7  17   90.32   24.43
  -1   7 -17   98.84   21.78
  -1  -7 -17  100.17   28.28
   4   0 -20   65.40   26.68
  -4   0  20   94.44   22.39
   4   0 -20   45.04   21.59
  -4   0  20   45.23   16.36
  -4   0  20   82.21   24.59
   4   0 -20   87.44   29.95
   4  -5  14   21.20   15.64
   4   5  14   -4.49   16.54
   4   5  14   31.14   23.55
  -4   5 -14   15.74   23.18
   4   5  14   15.64   20.20
   4  -5  14   -3.26   18.02
   1  -9  12  263.46   33.42
  -1  -9 -12  299.78   34.46
  -1   9 -12  302.54   33.77
   1  -9  12  279.81   36.23
   1  -9  12  288.19   35.37
   1   9  12  306.39   34.69
   1   9  12  300.36   32.22
  -1   9 -12  258.28   62.24
   1  -9  12  406.34   40.00
   1   4  21  204.85   33.54
  -1   4 -21  200.43   35.05
   1   4  21  185.00   32.62
  -1   4 -21  106.36   22.52
   1  -4  21  148.77   28.54
  -1  -4 -21  102.58   22.62
   1   4  21  164.17   31.68
   1  -4  21  172.48   28.60
   1  -4  21  117.37   24.23
   5   0  14  217.04   31.70
   5   0  14  230.57   33.51
   5   0  14  242.05   31.10
   1   5  20   39.73   28.49
   1  -5  20   36.06   16.49
   1   5  20   62.88   23.54
  -1  -5 -20   34.12   20.97
  -1   5 -20   50.23   18.44
   1  -5  20   35.03   28.15
  -1   5 -20   44.77   16.81
   1  -5  20   40.07   17.96
  -1   5 -20   64.48   24.15
   1   5  20   50.85   19.82
   3   4  18 1136.33   58.99
   3  -4  18 1155.86   58.51
  -3  -4 -18 1101.55   57.71
   3  -4  18 1139.89   57.12
  -3   4 -18 1081.24   57.81
   3  -4  18 1154.67   62.66
   3   4  18 1043.60   57.15
   4  -8   6  627.11   42.26
   4   8   6  554.95   86.08
   4  -8   6  680.18   44.42
   4  -8   6  701.80   47.66
   4  -8   6  660.10   47.55
   4   8   6  706.56   46.67
   4  -8   6  640.15   43.47
   4   8   6  531.86  156.89
  -4   8  -6  614.81   42.23
  -2 -10   6  168.93   25.39
   2  10  -6  209.62   28.03
   2 -10  -6  227.02   30.58
  -2 -10   6  165.61   26.96
   2 -10  -6  205.04   33.55
   2 -10  -6  193.09   27.69
  -2 -10   6  168.64   26.66
   2 -10  -6  205.15   30.44
   2  10  -6  193.00   49.87
   2  10  -6  174.76   60.70
   2   7 -17  163.52   44.50
  -2  -7  17  226.61   31.52
  -2   7  17  188.30   28.95
  -2  -7  17  210.84   32.20
   2  -7 -17  212.61   30.69
   2  -7 -17  175.71   27.49
   2  -7 -17  237.48   31.45
  -2   7  17  255.62   36.31
   2   7 -17  221.40   33.42
   2   7 -17  152.32   24.98
  -2  -7  17  211.12   30.97
   2   7 -17  173.25   25.69
   5   5 -13  146.08   35.23
   5   5 -13  182.23   34.64
   5  -5 -13  180.61   33.79
   5   5 -13  170.09   28.20
   5  -5 -13  139.24   25.68
  -5   5  13  123.67   29.40
   5   5 -13  136.08   26.69
   5   5 -13  172.04   29.12
  -5   5  13  180.37   29.58
  -5  -5  13  105.29   20.76
  -5  -5  13  202.33   31.46
   5  -5 -13  182.31   30.18
  -4   2 -17  563.99   43.47
   4  -2  17  448.52   39.73
   4   2  17  460.54   40.16
   4  -2  17  498.78   39.61
   4   2  17  513.59   43.65
   4   2  17  435.24   36.03
   4  -2  17  477.30   36.58
  -4  -2 -17  453.26   37.68
  -3  -4  20   12.97   16.08
   3  -4 -20   14.52   13.95
   3   4 -20    5.03   17.95
   3   4 -20   -0.21   16.51
  -3  -4  20   32.07   24.66
   3  -4 -20   52.20   30.99
  -3   4  20   24.06   25.61
   3   4 -20    4.73   17.71
  -3   4  20   35.08   18.92
   3  -4 -20   22.75   18.90
  -4   4  18  210.58   35.87
   4  -4 -18  129.07   23.82
   4   4 -18  134.94   29.67
   4   4 -18  156.91   31.27
   4  -4 -18  171.02   30.04
  -4  -4  18  225.44   34.20
   4  -4 -18  222.28   38.67
  -4  -4  18  188.02   31.33
  -4   4  18  139.02   25.35
   4   4 -18   81.76   20.28
   4   4 -18  166.22   31.27
  -4  -4  18  127.85   28.73
   6   5  -2  383.21   40.94
   6  -5  -2  358.34   33.07
   6  -5  -2  430.12   39.34
   6  -5  -2  390.31   42.99
  -6  -5   2  384.82   38.40
  -6  -5   2  374.22   39.83
   6   5  -2  421.04   38.56
   6  -5  -2  330.71   33.30
   6   5  -2  339.21  110.26
  -1  -2  23   73.58   24.19
   1   2 -23   28.85   21.90
  -1   2  23   39.14   22.38
   1  -2 -23   72.33   24.38
  -1   2  23   65.72   21.99
   1   2 -23  106.98   26.49
  -1   2  23   50.55   17.50
   1  -2 -23   75.07   18.70
   1   2 -23   68.43   21.69
  -1  -8 -15  858.64   54.30
   1   8  15  762.09   51.07
   1  -8  15  787.28   53.60
   1  -8  15  689.23   48.19
   1   8  15  760.94   50.46
  -1   8 -15  791.04   50.37
   1  -8  15  806.19   51.51
  -1   8 -15  573.87  172.53
  -1   8 -15  785.79   51.65
   5  -7  -6    3.61   12.73
   5  -7  -6   -0.61   15.76
   5  -7  -6   12.65   17.15
  -5   7   6   14.41   14.10
   5   7  -6    4.28   15.00
  -5  -7   6    8.73   13.87
  -5  -7   6   27.44   21.74
   5   7  -6   14.33   20.09
   5   7  -6  -12.65   14.12
   4   1 -20   90.15   28.51
  -4  -1  20  107.55   25.26
  -4   1  20  109.73   27.69
   4   1 -20   86.42   28.80
   4  -1 -20  116.36   27.94
  -4  -1  20  113.67   28.06
  -4   1  20   92.54   24.26
   4  -1 -20  107.99   30.12
  -4  -1  20   52.88   22.22
  -4   1  20   92.73   22.91
   4   1 -20  107.39   31.83
   4  -1 -20   84.36   23.29
  -2  10  -5  199.80   32.68
  -2 -10  -5  200.93   33.23
   2 -10   5  317.44   37.56
   2 -10   5  239.92   30.89
   2 -10   5  218.75   32.76
   2 -10   5  218.61   30.88
   6  -5  -1   75.87   25.39
   6   5  -1   69.42   24.69
   6  -5  -1   57.22   21.94
  -6  -5   1   70.79   28.02
  -6  -5   1   76.58   25.06
   6   5  -1   89.24   26.05
   6  -5  -1   55.74   19.90
   6   5  -1   76.05   16.76
   2  -3 -22  119.13   27.17
   2   3 -22  136.91   28.62
   2   3 -22   76.32   30.31
  -2   3  22  125.68   32.93
   2   3 -22   89.12   22.40
  -2  -3  22  100.71   25.48
   2  -3 -22  105.49   24.43
  -2  -3  22  140.41   24.63
   2   3 -22  121.63   25.15
  -2   3  22  100.45   25.90
  -2  -3  22   89.99   24.13
   2  -3 -22  113.59   25.41
  -2   3  22  129.69   27.06
   6   2   8  146.20   26.41
  -6  -2  -8  146.29   25.57
   6  -2   8  174.25   31.13
   6   2   8  160.17   29.16
   6   2   8  110.55   25.98
   6  -2   8  135.85   23.91
   6  -2   8  150.35   27.63
  -6  -2  -8  152.44   28.80
   6  -5  -3  198.90   31.98
   6  -5  -3  154.49   25.21
  -6   5   3  207.34   30.22
   6   5  -3  238.40   32.81
  -6  -5   3  230.38   31.51
  -6  -5   3  286.90   38.90
   6   5  -3  185.42   28.42
   6   5  -3  177.45   36.15
   6  -5  -3  144.95   26.38
   6  -5  -3  155.58   25.13
  -5  -1 -14   27.20   14.78
   5  -1  14   12.52   12.78
   5   1  14   -3.38   13.94
   5   1  14   -5.80   12.50
   5   1  14   -6.38   17.78
   5  -1  14   33.39   22.13
   5  -1  14   23.21   18.87
   4   3 -19 1053.95   60.83
   4  -3 -19  891.78   56.24
   4   3 -19  865.53   79.62
  -4  -3  19  961.60   54.60
  -4   3  19  906.06   56.58
   4   3 -19 1032.13   60.93
  -4   3  19 1000.91   59.11
  -4  -3  19  942.89   54.96
  -4  -3  19 1000.83   59.20
   4  -3 -19 1046.05   61.51
   4   3 -19  972.62   57.24
  -4   6  15   32.84   23.63
   4   6 -15   10.58   16.78
   4   6 -15   29.53   23.56
   4  -6 -15   75.82   19.82
  -4   6  15   32.27   20.82
  -4  -6  15   51.53   26.41
   4   6 -15   25.55   21.53
   4  -6 -15   -3.78   17.11
  -4  -6  15   23.26   17.37
   4  -6 -15   -5.33   17.80
   4   6 -15  -10.42   14.61
   4   7  10  289.38   34.73
   4  -7  10  228.08   30.06
   4   7  10  220.94   31.45
  -4   7 -10  260.90   30.52
   4  -7  10  273.35   34.24
   4  -7  10  244.18   32.57
   4   7  10  240.53   51.47
  -5  -3  16   54.26   27.46
  -5  -3  16   53.82   20.40
   5   3 -16   24.68    9.19
   5  -3 -16   72.19   22.67
  -5   3  16   75.44   26.86
  -5  -3  16   50.89   27.75
   5   3 -16   80.56   26.53
  -5   3  16   68.06   26.28
   5   3 -16   84.78   31.78
   5   3 -16   52.37   23.48
   5   3 -16   53.17   21.67
   5  -3 -16   -0.06   15.99
   5  -3 -16   44.13   17.00
   0   9 -13  514.62  100.31
   0  -9  13  631.78   47.30
   0   9 -13  654.02   48.22
   0  -9  13  722.09   55.97
   0   9  13  668.74   46.97
   0  -9  13  510.76   42.93
   0   9 -13  545.28  127.38
   0  -9 -13  626.09   44.62
   0  -9 -13  633.21   47.67
   0   9  13  596.43   42.36
   3  -5  17 1062.93   53.13
  -3  -5 -17 1088.58   58.13
  -3   5 -17 1138.73   61.33
   3  -5  17 1050.70   56.49
   3   5  17 1214.46   63.16
   3   5  17 1059.73   55.61
   3   5  17 1071.19   62.12
   3  -5  17 1116.55   60.97
   3   0  20  332.44   38.64
  -3   0 -20  306.74   34.06
   0 -10   9   -1.12   16.66
   0 -10  -9   32.17   20.59
   0 -10   9   20.94   22.80
   0 -10  -9   56.12   23.95
   0  10  -9   27.19   26.78
   0 -10   9    9.22   13.45
   0 -10   9   45.97   21.29
   0  10  -9   17.57    9.41
   0 -10  -9   18.62   13.64
   5  -7   3   -3.04   15.91
   5   7   3    9.09   13.25
   5  -7   3   30.24   18.47
  -5  -7  -3   27.86   17.15
   5  -7   3   21.77   14.31
   5   7   3   16.38   13.78
  -5  -7  -3   62.14   23.78
   5  -7   3   25.43   18.19
   1 -10   8  254.72   32.14
  -1  10  -8  391.21   42.21
  -1 -10  -8  292.40   33.61
   1  10   8  280.91   29.88
   1 -10   8  306.71   33.84
  -1 -10  -8  241.90   28.23
   1 -10   8  276.09   34.34
   1 -10   8  265.50   32.55
   1 -10   8  251.36   29.98
   2   0 -23   33.47   26.97
  -2   0  23   31.27   18.38
   2   0 -23   -4.78   16.90
  -2   0  23   57.62   22.19
   0  -2 -23    8.93   16.98
   0   2  23   22.92   17.84
   0  -2  23   41.15   14.72
   0  -2 -23   43.03   16.04
   0   2 -23   56.91   30.79
   0   2  23   30.36   14.49
   0  -2  23   61.42   26.64
   0   2  23   51.41   21.52
   0   2 -23    6.42   16.05
   3   3  19  506.76   47.55
   3  -3  19  426.51   38.41
   3  -3  19  488.57   39.51
  -3   3 -19  495.46   45.58
  -3  -3 -19  501.41   40.92
   3  -3  19  459.20   40.90
   3   3  19  521.68   42.33
  -6   0  -9   35.70   17.80
  -6   0  -9   12.30   13.69
   6   0   9   26.02   28.24
   6   0   9   -7.19   16.65
   6   0   9   47.27   24.08
   4  -8  -9  308.25   35.08
   4   8  -9  244.68   36.31
   4  -8  -9  251.24   31.04
   4  -8  -9  291.12   36.82
  -4  -8   9  259.77   33.32
  -4  -8   9  246.76   31.74
  -4   8   9  269.59   30.85
   4   8  -9  227.23   54.34
  -3   9  -7  258.95   34.51
   3   9   7  240.76   30.57
   3   9   7  301.23   31.95
   3  -9   7  271.85   33.26
   3  -9   7  270.30   33.10
   3  -9   7  226.23   33.67
   3  -9   7  277.95   31.83
   3  -9   7  297.54   33.36
  -6  -2  12  -14.27   14.77
   6   2 -12   31.30   17.86
  -6  -2  12    2.41   16.36
   6   2 -12  -10.23   16.25
  -6   2  12   10.95   17.30
   6  -2 -12   18.22   27.94
   6  -2 -12    9.92   16.22
   6   2 -12    1.55   14.24
  -6  -2  12    0.11   17.62
  -6   2  12   15.89   15.75
   6   2 -12   -6.17   16.39
   6  -2 -12    4.05   15.48
   2   4  20   81.49   22.80
   2  -4  20   59.70   21.54
   2   4  20  129.54   31.51
   2   4  20   67.96   22.01
   2  -4  20   56.05   21.71
   2  -4  20   95.47   22.74
  -2   4 -20   76.96   22.52
  -2  -4 -20   72.21   27.08
  -6  -5   0   30.00   17.16
   6  -5   0   43.92   21.15
   6   5   0   36.38   16.05
  -6  -5   0   38.59   18.56
   6   5   0   33.66   11.93
   6  -5   0   14.68   16.94
   6  -5   0   10.30   18.78
   6   5   0   54.23   23.65
   3  -8  11  185.11   35.56
   3  -8  11  123.94   29.42
  -3   8 -11   93.84   25.12
   3  -8  11  104.54   22.72
   3  -8  11  137.09   27.49
   3   8  11  156.57   30.25
   3   8  11   85.91   20.71
  -3  -8 -11  145.42   24.55
  -3   8 -11   78.74   31.89
   3  -5 -19  166.88   32.45
  -3  -5  19  126.38   29.88
   3  -5 -19  100.96   25.36
   3   5 -19   81.19   21.39
  -3   5  19  132.53   33.75
  -3  -5  19   59.12   18.74
   3  -5 -19   90.98   22.53
   3   5 -19  135.47   30.97
   3   5 -19  102.40   32.14
  -3   5  19  116.67   24.73
  -3  -5  19   91.29   26.98
   5   5  10   20.10   10.05
  -5  -5 -10   -1.77   15.80
   5  -5  10   20.09   13.76
   5  -5  10   38.55   20.37
   5  -5  10   19.50   16.93
   5   5  10   22.16   24.57
   6   5  -4  266.85   30.38
  -6  -5   4  309.03   34.65
  -6  -5   4  339.53   40.14
   6   5  -4  336.93   37.27
   6  -5  -4  323.63   38.23
  -6  -5   4  323.58   38.12
   6  -5  -4  327.85   36.84
  -6   5   4  339.07   34.04
   6  -5  -4  289.95   31.01
   6   5  -4  292.61   36.83
  -3  -9   9  169.83   26.66
  -3  -9   9  156.66   31.44
   3   9  -9  127.35   44.98
  -3   9   9  137.85   26.91
   3   9  -9  160.42   25.60
   3  -9  -9  143.36   22.81
   3  -9  -9  159.23   28.77
   3  -9  -9  176.89   31.75
   3  -9  -9  125.56   26.16
   3   9  -9  211.13   29.47
  -3  -9   9  143.17   28.79
   3   0 -22  564.99   50.55
   3   0 -22  586.37   51.42
  -3   0  22  524.24   40.87
  -3   0  22  508.70   44.92
  -3   0  22  509.34   41.43
   1   9 -13  647.99   52.19
   1  -9 -13  467.55   43.52
  -1  -9  13  465.58   40.49
  -1   9  13  485.69   38.40
  -1  -9  13  536.24   45.01
   1   9 -13  496.92   41.89
   1  -9 -13  515.92   43.40
  -1   9  13  527.30   42.71
   1   9 -13  415.56  121.94
   1  -9 -13  415.02   36.68
  -1  -9  13  517.77   45.62
   3   8 -13  -12.96   13.73
  -3  -8  13   26.77   28.72
   3   8 -13   12.57    6.28
   3  -8 -13    7.62   13.26
  -3  -8  13   10.79   19.47
  -3   8  13   28.12   22.05
  -3   8  13    6.35   15.81
   3  -8 -13    5.60   17.79
  -3  -8  13    5.12   14.75
   3  -8 -13   21.70   18.23
   3   8 -13    4.38   19.00
   6  -3   7   53.78   27.83
   6   3   7    8.46   12.79
   6  -3   7   11.55   16.99
   6   3   7    0.60   18.42
  -6  -3  -7  -13.37   18.72
   6   3   7   -6.72   15.14
  -6  -3  -7  -12.15   16.73
   2  -5  19  244.82   35.41
   2   5  19  298.79   37.28
  -2  -5 -19  307.89   36.82
   2  -5  19  279.24   32.12
   2   5  19  304.23   31.87
   2  -5  19  275.60   34.21
  -2   5 -19  342.69   40.70
  -3   3  21  186.40   31.97
   3  -3 -21  141.66   24.68
   3  -3 -21  171.66   30.25
   3  -3 -21  200.67   33.59
   3   3 -21  169.71   31.21
  -3   3  21  161.96   30.40
   3   3 -21  192.31   29.65
  -3  -3  21  198.10   30.65
   3   3 -21  204.34   35.38
  -3  -3  21  147.80   28.08
  -3  -3  21  172.28   26.29
  -3  -3  21  177.93   27.64
  -6   0  13   31.52   15.84
   6   0 -13   31.44   18.26
   6   0 -13    7.24   13.08
  -6   0  13   18.03   20.28
   6   0 -13   -7.29   16.36
   6   0 -13   14.22   16.25
  -6   0  13   46.82   24.75
   6   4   5   24.48   17.12
   6  -4   5   15.46   16.81
   6  -4   5   38.50   23.99
  -6  -4  -5   13.88   15.54
   6  -4   5   16.56   19.45
   6   4   5   33.62   19.68
  -6  -4  -5   20.73   18.82
   6   4   5    1.35   15.02
   5  -4 -15   64.28   22.38
   5  -4 -15   78.04   22.12
   5  -4 -15   28.76   18.30
  -5   4  15   25.55   16.93
  -5  -4  15   65.38   22.80
  -5   4  15   85.60   23.89
   5   4 -15   91.15   26.76
   5   4 -15  114.83   25.66
  -5  -4  15   67.21   20.23
  -5  -4  15   40.11   18.98
   5   4 -15   57.11   25.81
   5   4 -15   94.79   21.76
   5   4 -15   61.68   28.44
   3  -1  20   11.43   17.47
   3  -1  20   15.48   14.53
  -3   1 -20   15.26   17.41
   3   1  20   -7.90   13.05
  -3  -1 -20   19.27   16.51
   3   1  20   65.40   26.93
  -2  -8  15  120.12   23.49
   2  -8 -15  140.65   27.11
   2  -8 -15  172.06   29.32
  -2   8  15  138.42   31.34
   2  -8 -15  188.13   28.80
   2   8 -15  118.84   24.62
  -2  -8  15  135.87   27.84
   2   8 -15  144.15   24.08
   2   8 -15  160.71   29.10
  -2  -8  15  140.38   31.07
  -2   8  15  147.49   25.61
   2   1 -23 1241.17   62.14
  -2   1  23 1289.23   65.31
   2  -1 -23 1361.36   67.39
  -2   1  23 1153.21   56.35
  -2   1  23 1148.43   57.11
  -2  -1  23 1171.52   60.69
  -2  -1  23 1121.18   61.61
   2   1 -23 1156.14   58.02
   2   1 -23 1282.46   66.83
   2  -1 -23 1249.03   62.34
   2  -1 -23 1122.76   56.03
   1  -3  22    9.49   14.76
  -1  -3 -22    5.51   16.44
   1   3  22   39.50   21.05
   1  -3  22   11.48   12.92
  -1   3 -22   54.49   20.86
   1   3  22   25.02   15.33
   1   3  22   12.82   15.67
  -2   6  19  248.66   33.46
  -2  -6  19  249.75   35.56
   2   6 -19  323.94   40.55
   2  -6 -19  235.59   30.24
   2  -6 -19  241.90   39.85
  -2   6  19  258.58   39.09
   2   6 -19  287.98   40.04
  -2  -6  19  229.65   33.23
  -2  -6  19  250.76   34.55
   2   6 -19  146.90   51.96
   2  -6 -19  263.98   31.59
   2   6 -19  152.18   28.41
  -6  -3  11   52.58   25.10
   6  -3 -11   44.47   17.28
   6   3 -11   34.54   20.86
  -6  -3  11   33.75   29.83
   6   3 -11   20.30   28.88
   6  -3 -11  -10.30   20.34
   6   3 -11   35.11   16.95
  -6   3  11   37.94   23.00
   6  -3 -11   11.90   15.28
  -6   3  11   30.77   19.37
  -6  -3  11   41.75   19.40
   6   3 -11    8.00   14.00
   0  -7 -18    3.99   12.67
   0  -7  18   53.76   24.32
   0  -7  18   23.77   19.92
   0   7 -18  -12.38   15.78
   0   7 -18   76.45   32.09
   0  -7  18   23.51   15.10
   0   7 -18   48.21   18.16
   0  -7  18    1.55   15.05
   0  -7 -18   27.70   17.35
   0   7  18   26.03   17.17
   0   7  18   27.93   19.41
   6   1   9   54.35   25.06
   6   1   9   80.66   22.74
   6  -1   9   61.52   25.72
   6  -1   9   70.92   23.04
   6   1   9   37.21   19.43
   6  -1   9   39.66   22.96
  -6  -1  -9   30.99   15.01
  -6   4   9  161.98   29.50
   6  -4  -9  160.77   32.11
  -6  -4   9  104.54   26.86
   6   4  -9  129.23   28.00
   6   4  -9  150.22   31.95
   6  -4  -9  161.73   28.35
  -6  -4   9   96.96   22.80
  -6  -4   9  114.36   25.40
   6  -4  -9   87.49   22.74
  -6   4   9   91.21   22.63
   6   4  -9  112.79   27.16
   1  -7 -18    2.03   15.91
  -1  -7  18   23.00   19.92
  -1  -7  18   32.86   17.90
  -1   7  18   38.29   18.67
   1   7 -18    2.19   15.82
  -1  -7  18   22.10   21.02
  -1  -7  18   24.33   18.38
   1   7 -18   31.41   20.11
  -1   7  18   24.05   20.20
   1  -7 -18   13.64   19.03
  -5  -2  17  129.90   30.87
  -5   2  17  167.75   31.76
   5  -2 -17  115.93   28.70
   5   2 -17  116.31   22.33
  -5  -2  17  102.99   26.85
  -5  -2  17  136.84   28.98
  -5   2  17  174.48   30.41
   5   2 -17  143.14   30.88
   5  -2 -17  180.32   31.07
   5   2 -17  160.89   30.51
   5   2 -17   95.10   28.81
   5   2 -17  150.95   35.82
   5  -2 -17  178.76   30.57
   5  -3  13   24.73   21.25
   5  -3  13  -13.87   15.66
   5   3  13   -1.15   14.71
   5  -3  13   19.23   15.21
   5   3  13   17.82   18.29
   5   3  13    6.33   15.54
  -5  -3 -13   17.57   14.92
   2  -7  16  -26.30   17.03
  -2   7 -16   14.69   14.70
   2  -7  16   15.87   14.62
  -2   7 -16   -4.39   18.77
   2  -7  16    1.84   17.70
  -2   7 -16    0.25    6.94
   2   7  16   20.46   22.29
  -2  -7 -16    9.00   16.39
   1   6  19   63.85   19.05
   1  -6  19   96.08   27.65
   1  -6  19  134.78   28.30
   1  -6  19  104.85   23.83
   1   6  19  130.42   25.90
   1  -6  19   94.50   25.94
  -1   6 -19  108.32   28.33
  -1   6 -19  136.04   29.29
  -1   6 -19  101.45   24.17
  -1  -6 -19  145.98   36.18
  -1 -10   9  649.40   46.21
   1 -10  -9  634.88   46.26
   1  10  -9  695.28   50.02
   1 -10  -9  594.64   44.55
   1 -10  -9  636.08   43.96
  -1 -10   9  687.59   54.16
  -1 -10   9  581.71   45.14
  -1 -10   9  707.39   47.55
  -1  10   9  576.34   41.92
   1  10  -9  486.88  148.08
   5   6 -11   70.45   22.60
   5   6 -11   78.22   21.88
  -5  -6  11   84.57   22.92
   5  -6 -11   72.20   18.81
   5  -6 -11  124.49   28.79
  -5  -6  11  119.30   29.77
  -5   6  11   66.20   22.50
   5   6 -11   90.97   24.80
  -5   6  11   74.31   22.23
   5   6 -11   98.22   22.23
   5  -6 -11  152.04   30.38
   6  -5   1  224.82   37.50
  -6  -5  -1  218.84   39.55
   6  -5   1  209.93   30.20
   6   5   1  177.80   58.42
   6  -5   1  295.94   38.68
   6   5   1  270.28   32.34
  -6  -5  -1  263.22   35.14
   6   5   1  225.81   30.31
   4   5 -17  290.64   36.01
  -4  -5  17  248.93   36.34
   4   5 -17  349.96   37.52
  -4  -5  17  316.96   36.80
   4  -5 -17  241.23   36.16
   4   5 -17  299.91   40.93
  -4   5  17  324.67   37.47
  -4   5  17  348.36   39.28
   4  -5 -17  306.92   36.25
   4   5 -17  314.05   38.16
  -2 -10   7  388.72   38.01
   2  10  -7  276.59   71.33
  -2 -10   7  340.62   34.15
   2 -10  -7  333.13   36.99
  -2 -10   7  331.23   38.12
   2 -10  -7  424.43   40.28
   2  10  -7  352.34   33.53
   2  10  -7  305.76   85.35
   2 -10  -7  444.91   43.32
  -2  -9  12  449.96   41.98
   2   9 -12  481.85   43.53
   2  -9 -12  496.38   44.57
   2   9 -12  347.89  115.43
   2  -9 -12  430.29   38.86
  -2  -9  12  513.82   44.47
   2  -9 -12  477.87   42.12
   2   9 -12  453.20   36.55
  -2   9  12  447.49   38.70
  -2  -9  12  492.17   42.23
  -6  -5   5 1275.13   63.07
   6   5  -5 1210.13   65.05
  -6  -5   5 1251.52   65.11
   6  -5  -5 1276.51   66.63
   6   5  -5 1076.22   55.61
  -6  -5   5 1096.41   58.95
   6  -5  -5 1190.33   60.87
  -6   5   5 1185.10   58.89
   6   5  -5 1242.74   68.09
   6  -5  -5 1136.88   59.36
   3   1 -22  310.73   38.27
  -3   1  22  211.96   31.98
  -3   1  22  245.96   30.35
  -3  -1  22  213.51   31.99
  -3  -1  22  352.19   45.12
   3  -1 -22  244.40   37.20
   3   1 -22  314.61   38.76
  -3   1  22  257.22   35.54
   3  -1 -22  248.01   35.15
   0  -8  16 1544.86   71.18
   0   8  16 1588.20   67.34
   0   8 -16 1564.29   70.61
   0   8 -16 1543.88   69.60
   0   8 -16 1289.75   98.34
   0  -8  16 1443.75   67.78
   0  -8  16 1503.10   68.33
   0   8  16 1640.91   78.78
   0  -8 -16 1604.21   71.00
   0  -8 -16 1564.48   64.67
   5   7  -7    5.70   15.37
  -5  -7   7   -4.09   15.33
   5   7  -7    0.17   12.69
  -5  -7   7   -5.39   12.25
   5   7  -7   -4.37    8.31
   5  -7  -7    5.24   17.15
   5  -7  -7    0.82   13.54
   5  -7  -7    2.66   16.82
  -5   7   7   25.25   14.68
   6   1 -13   57.85   27.00
   6  -1 -13   62.55   29.51
   6   1 -13   50.34   26.66
  -6  -1  13   20.76   16.05
   6   1 -13   39.42   18.49
   6   1 -13   58.31   24.90
  -6  -1  13   32.35   18.44
  -6   1  13   95.02   27.70
   6  -1 -13   68.13   22.98
  -6  -1  13   28.82   20.21
   6  -1 -13   27.69   17.22
  -6   1  13   64.22   27.91
   4  -7 -13   16.37   18.85
   4   7 -13    7.07   18.57
   4  -7 -13   -6.66   14.12
  -4   7  13   31.59   15.76
   4   7 -13   18.07   17.57
  -4   7  13    4.18   15.83
   4   7 -13   43.03   23.55
   4   7 -13   16.67   15.24
  -4  -7  13   33.10   17.62
  -4  -7  13   16.18   19.26
   4  -7 -13   10.19   17.73
  -1  -8  16  185.54   27.14
   1   8 -16  140.37   30.39
  -1  -8  16  206.34   34.28
   1   8 -16  205.63   29.57
  -1   8  16  200.26   29.62
   1  -8 -16  204.92   30.66
  -1   8  16  212.81   35.03
   1   8 -16  231.13   34.00
   1  -8 -16  187.83   31.57
  -1  -8  16  212.93   34.05
  -1   0 -23  142.72   25.88
   1   0  23  199.61   31.88
  -1   5  21   59.17   26.23
   1  -5 -21   60.54   30.29
   1   5 -21   10.07   17.14
  -1  -5  21   16.26   15.48
   1  -5 -21   34.77   17.08
  -1  -5  21    2.40   16.93
   1   5 -21   61.48   16.77
  -1   5  21   27.47   18.95
  -1  -5  21   28.27   17.19
   1   5 -21   21.54   16.27
   1   5 -21   35.31   23.41
   1   4 -22  -13.49   15.55
  -1  -4  22    9.91   14.23
  -1   4  22    4.74   17.30
   1   4 -22    7.50   15.54
   1  -4 -22   25.12   20.34
   1  -4 -22    7.37   14.88
  -1  -4  22    1.86   17.01
  -1   4  22   12.00   13.64
  -1   4  22   67.84   29.83
  -1  -4  22   -3.93   14.66
   1   4 -22   26.79   19.35
   5  -7   4   26.76   19.19
   5   7   4   27.28   18.46
   5  -7   4   36.10   24.39
   5  -7   4    2.43   12.96
  -5  -7  -4   11.81   16.47
  -5  -7  -4    6.51   16.55
   5  -7   4    8.36   12.98
   4  -8   7  282.03   35.02
   4   8   7  273.57   31.22
  -4   8  -7  223.88   31.53
   4   8   7  304.65   34.70
   4  -8   7  192.77   26.42
   4  -8   7  310.63   36.76
   4  -8   7  307.18   39.99
   4   8   7  236.72   62.84
  -5  -4 -12  113.60   30.11
   5   4  12  125.03   28.77
   5   4  12   93.98   26.22
   5  -4  12  137.18   27.32
   5  -4  12  111.99   28.69
   5   6   8    8.17   15.60
   5  -6   8   44.12   25.33
   5  -6   8   -2.74   14.27
  -5  -6  -8   49.50   25.68
   5   6   8   26.16   14.38
   5  -6   8   13.17   16.23
   0   5 -21    7.17   13.77
   0   5 -21   29.34   22.40
   0  -5  21   11.81   15.67
   0   5 -21   14.77   22.75
   0   5  21   17.74   18.07
   0   5  21    1.66   17.97
   0  -5 -21   26.17   16.88
   0  -5  21    6.16   16.38
   0  -5  21   -6.56   13.64
   2 -10   6  321.94   41.49
   2 -10   6  263.69   35.18
   2 -10   6  226.81   33.98
   2 -10   6  251.96   32.82
  -2 -10  -6  234.16   30.61
  -2  10  -6  226.31   33.83
   2  -3  21   22.74   22.05
   2   3  21    1.42   14.85
   2  -3  21    8.87   16.57
  -2  -3 -21   18.41   18.12
   2   3  21   19.20   18.99
   2   3  21    0.81   13.48
  -2   3 -21    4.13   20.39
   0  -4  22   23.65   21.23
   0  -4  22    1.39   13.23
   0  -4 -22    9.18   16.12
   0   4 -22   -0.18   22.02
   0   4  22    6.30   19.78
   0  -4  22   -8.19   15.76
   0   4  22   24.27   16.59
   0   4 -22   -8.19   15.55
   0   4 -22    1.32   12.11
   4  -2 -20  172.91   30.44
   4   2 -20  167.67   34.06
   4   2 -20  158.41   33.62
  -4  -2  20  154.60   25.97
   4   2 -20  179.58   30.44
   4   2 -20  180.01   28.76
  -4  -2  20  153.67   32.03
   4  -2 -20  120.89   31.10
  -4   2  20  134.04   33.77
  -4   2  20  163.46   30.78
  -4  -2  20  149.96   32.64
  -3   7 -14  342.22   36.49
   3  -7  14  295.39   35.03
   3   7  14  364.44   37.59
   3  -7  14  344.78   39.79
   3   7  14  252.11   30.22
   3  -7  14  264.65   30.38
   3   7  14  387.80   40.73
  -3  -7 -14  241.54   29.66
   5   2  14  354.81   39.63
   5   2  14  363.31   38.90
   5  -2  14  369.59   39.95
   5  -2  14  339.15   33.01
   5  -2  14  316.30   33.99
   5   2  14  319.52   31.68
   5   2  14  358.86   34.78
   6   5   2  295.90   33.17
   6  -5   2  292.88   40.04
   6  -5   2  292.33   34.33
   6   5   2  331.35   34.31
  -6  -5  -2  306.11   37.87
   6   5   2  344.41   38.28
   6  -5   2  285.38   33.06
  -6  -5  -2  375.38   41.72
   2  -8  14 1036.31   58.73
  -2   8 -14  844.73   99.87
   2   8  14 1021.56   58.43
   2  -8  14 1095.60   56.82
   2  -8  14  994.91   52.64
   2  -8  14  970.81   56.65
  -2  -8 -14 1003.22   55.68
  -2   8 -14 1072.53   60.79
   2   0  22  123.23   29.52
  -2   0 -22  133.25   33.22
   2   9  11  159.03   29.86
  -2  -9 -11  152.13   27.29
  -2   9 -11  189.78   33.93
   2  -9  11  226.05   31.95
   2  -9  11  171.49   31.84
   2  -9  11  200.47   32.24
   2  -9  11  141.69   26.71
  -2   9 -11  148.69   44.16
   1   1  23   67.32   26.23
  -1   1 -23   82.86   28.29
  -1  -1 -23   86.68   30.09
   1   1  23   17.57   19.54
   6   5  -6  350.00   45.68
  -6  -5   6  375.86   37.73
   6  -5  -6  360.99   34.28
  -6  -5   6  356.10   39.71
   6  -5  -6  369.72   39.71
  -6   5   6  381.22   35.14
   6   5  -6  360.52   38.43
  -6  -5   6  359.94   38.29
   6  -5  -6  342.54   34.75
   6   5  -6  398.36   37.38
  -3   7  16  165.73   34.01
  -3  -7  16  200.97   34.27
   3  -7 -16  151.46   31.99
   3   7 -16  149.70   32.09
  -3  -7  16  140.55   29.55
   3   7 -16  145.24   37.89
   3   7 -16  123.19   28.76
   3  -7 -16  104.79   22.63
  -3  -7  16  155.30   27.72
   3  -7 -16  193.38   31.45
  -3   7  16   89.29   20.35
   4   6  13   42.78   19.83
   4  -6  13   94.16   25.79
   4  -6  13   51.58   20.72
   4  -6  13  131.84   28.29
   4   6  13   63.73   13.23
  -4   6 -13   74.41   22.48
   4   6  13   75.83   25.61
   4   0  18   43.74   18.86
  -4   0 -18   67.92   22.08
   3   6  16  126.00   25.19
   3  -6  16   98.50   28.38
   3   6  16   77.18   22.72
   3   6  16   80.36   26.85
  -3  -6 -16   56.63   21.33
   3  -6  16   96.20   26.24
  -3   6 -16   94.76   27.64
  -2   6 -18  551.45   48.21
   2   6  18  600.23   44.01
   2  -6  18  562.43   45.39
   2   6  18  597.78   46.80
  -2  -6 -18  575.01   47.74
   2  -6  18  596.13   46.66
   0 -11   0   -7.39   12.59
   0 -11   0   -6.99   17.25
   0  11   0   12.47    8.61
   0 -11   0   -6.70   14.45
   4  -4  16  113.34   28.00
   4   4  16  130.55   29.35
   4   4  16   77.77   22.18
   4  -4  16   55.71   20.31
   4   4  16   81.22   19.81
  -4   4 -16   60.71   22.60
   4   8 -10  181.67   31.34
  -4  -8  10  112.09   25.94
   4  -8 -10  115.52   23.93
   4  -8 -10  139.86   31.35
  -4  -8  10  150.20   31.75
   4  -8 -10  129.54   29.59
  -4   8  10  130.03   24.96
   4   8 -10  156.32   32.32
   1  10   9   25.39   14.60
   1 -10   9   22.73   19.49
   1 -10   9   29.95   25.70
  -1  10  -9    5.46   16.03
   1 -10   9   42.34   25.86
  -1 -10  -9   43.76   21.24
   1 -10   9   29.07   20.88
   1 -10   9   44.75   22.19
   0 -11   1  379.46   35.59
   0  11  -1  301.38  118.74
   0  11   1  378.95   40.75
   0 -11  -1  425.39   40.25
   0 -11   1  404.44   39.74
   0 -11  -1  405.29   38.13
   0 -11   1  344.42   36.47
   3  -9   8  724.45   54.65
   3  -9   8  733.52   51.12
  -3   9  -8  716.16   49.45
   3  -9   8  699.02   45.53
   3  -9   8  679.18   49.57
   3   9   8  846.78   52.40
   3   9   8  729.39   50.17
   3  -9   8  750.66   50.59
   3   6 -18   40.61   20.88
   3  -6 -18   33.82   17.90
  -3  -6  18   21.04   24.63
   3   6 -18   16.73   19.11
   3   6 -18   42.73   26.70
  -3   6  18   44.78   27.89
   3  -6 -18   51.58   31.32
   3  -6 -18   35.14   17.61
  -3  -6  18   42.88   28.16
  -3   6  18   42.27   21.24
  -3  -6  18    8.37   19.31
  -2  -1 -22   66.74   28.19
   2   1  22   10.65   14.09
   2  -1  22   32.81   27.87
   2   1  22   19.16   19.01
  -2   1 -22   28.77   20.76
   3  -2  20   42.15   15.81
  -3   2 -20   74.34   27.11
   3   2  20   99.31   28.66
   3  -2  20   75.57   25.63
   3   2  20   63.13   21.53
  -6  -4  -6  187.84   33.18
   6  -4   6  249.77   35.84
   6   4   6  250.33   33.21
   6  -4   6  210.87   28.09
  -6  -4  -6  205.99   32.42
   6  -4   6  231.33   33.65
   6   4   6  230.55   33.76
   0 -10  10  464.22   44.47
   0  10 -10  327.85   86.38
   0 -10 -10  402.95   42.04
   0 -10 -10  378.52   35.99
   0 -10  10  373.76   37.94
   0  10  10  455.50   39.54
   0 -10  10  368.19   36.95
   0 -10  10  383.80   39.35
   0  10 -10  407.65   42.39
  -5   0  18   95.41   26.19
   5   0 -18   85.01   29.74
  -5   0  18   73.34   30.32
   5   0 -18  122.87   29.38
  -5   0  18   90.01   22.32
   5   0 -18   73.84   22.52
   3  -9 -10  772.32   51.94
   3  -9 -10  773.78   49.69
  -3  -9  10  835.32   57.05
  -3   9  10  695.19   46.00
   3   9 -10  800.44   50.04
   3   9 -10  561.72  125.83
   3   9 -10  712.80   45.92
  -3  -9  10  847.42   52.90
   3  -9 -10  780.76   52.26
   2  -2 -23   -7.22   14.43
  -2  -2  23   23.63   19.24
   2   2 -23   10.26   17.86
   2  -2 -23   -2.71   13.72
   2   2 -23    3.42   14.19
   2   2 -23   45.81   29.89
   2  -2 -23   10.94   19.29
  -2   2  23   -3.49   17.16
  -2   2  23    4.11   12.81
  -2   2  23    2.98   14.97
   5   7  -8    6.74   16.53
  -5   7   8    4.98   14.25
   5  -7  -8   37.62   17.53
   5  -7  -8  -11.14   18.38
   5   7  -8   29.54    9.09
  -5  -7   8   30.89   17.35
   5   7  -8    9.41   17.94
   5  -7  -8   12.36   18.47
  -5  -7   8   32.14   18.24
  -6  -2  -9  119.66   29.05
   6   2   9  110.90   29.01
   6   2   9  106.03   24.77
   6  -2   9   79.35   26.61
  -6  -2  -9  122.42   26.48
   6  -2   9  105.27   26.94
   1   9  13   18.45   19.30
  -1  -9 -13   -5.18   16.30
   1  -9  13    5.77   15.77
   1  -9  13   32.35   18.74
  -1   9 -13    3.09    7.54
  -1   9 -13   -7.79   15.20
   1  -9  13   30.49   31.58
   1  -9  13    8.87   17.21
   1   9  13   14.78   15.80
   4   3  17  422.03   37.30
   4   3  17  464.60   41.61
   4  -3  17  432.62   37.44
   4   3  17  456.22   40.02
  -4   3 -17  414.49   37.77
   4  -3  17  458.09   46.84
   4  -3  17  428.07   40.58
   1  -6 -20   50.79   22.12
  -1   6  20   67.27   23.21
  -1  -6  20   74.60   23.22
  -1  -6  20  100.00   29.54
  -1  -6  20   80.85   24.65
   1   6 -20   74.02   23.66
   1   6 -20   49.09   17.09
  -1   6  20   83.07   27.50
   1   6 -20   84.15   21.81
   1  -6 -20   88.75   27.89
   4   1  18    2.17   19.68
  -4  -1 -18   20.47   14.86
   4  -1  18   19.94   14.98
   4  -1  18   19.14   24.23
  -4   1 -18    4.70   14.73
   5   5 -14  389.53   42.57
   5   5 -14  385.05   40.02
   5  -5 -14  344.01   35.89
  -5   5  14  328.03   39.24
   5   5 -14  285.02   83.83
   5  -5 -14  299.35   34.55
   5   5 -14  410.96   44.03
  -5  -5  14  321.26   38.25
  -5  -5  14  399.65   37.03
   5  -5 -14  383.37   45.50
  -5   5  14  333.65   36.54
   2 -10  -8  267.47   40.67
  -2 -10   8  261.35   34.65
   2 -10  -8  297.41   35.31
  -2 -10   8  306.94   35.17
   2 -10  -8  253.11   36.07
   2  10  -8  287.30   31.04
  -2 -10   8  261.80   32.69
   2  10  -8  195.38   49.62
   2  10  -8  220.73   50.46
   0 -11  -2  860.88   50.40
   0 -11  -2  931.54   58.05
   0  11  -2  676.53  187.92
   0 -11   2  923.39   55.75
   0 -11  -2  814.34   50.92
   0 -11   2  810.65   49.45
   0 -11   2  834.54   51.04
   4  -9  -1  146.21   25.77
  -4   9   1  145.27   30.28
   4  -9  -1  132.63   30.22
   4  -9  -1  152.53   30.62
   6   4 -10   16.15   19.63
   6   4 -10   37.35   20.58
   6  -4 -10   94.62   31.74
  -6   4  10   19.27   19.17
  -6  -4  10   20.14   15.58
   6   4 -10   59.57   27.78
   6  -4 -10   50.90   21.27
  -6  -4  10   74.37   27.19
  -6  -4  10   38.48   18.76
  -6   4  10   67.11   20.98
   0  -6  20  203.65   31.10
   0  -6  20  233.01   28.97
   0   6  20  243.85   44.40
   0  -6 -20  209.41   34.19
   0   6  20  231.60   33.00
   0   6 -20  235.22   36.42
   0   6 -20  216.21   30.87
   0  -6  20  282.66   35.85
   0   6 -20  267.83   38.24
   0  -6  20  262.02   33.66
  -3  -2  22   70.34   22.96
  -3   2  22   88.50   28.75
   3   2 -22  133.62   26.06
  -3   2  22   86.10   21.72
   3  -2 -22  166.22   35.26
   3   2 -22  224.99   41.83
  -3  -2  22   95.92   27.28
   3  -2 -22  135.45   38.51
   3   2 -22  123.06   30.40
  -3   2  22   64.16   24.04
   1  -3 -23   53.35   23.09
   1   3 -23   48.29   23.85
  -1   3  23   25.36   15.25
   1   3 -23   70.76   22.67
   1   3 -23   29.39   17.12
  -1   3  23   26.46   17.23
  -1  -3  23    3.64   19.70
  -1   3  23   14.77   18.90
   1  -3 -23   59.64   28.34
   4  -9  -2   14.05   17.14
   4  -9  -2   23.71   15.64
   4   9  -2    9.20    5.09
   4  -9  -2   31.47   24.93
  -4   9   2   21.57    9.15
   6  -3   8   67.28   27.47
   6   3   8   24.22   23.23
   6   3   8   36.89   21.87
  -6  -3  -8    8.75   17.76
  -6  -3  -8   22.95   16.95
   6  -3   8   46.50   22.05
   6  -5   3   71.00   19.29
  -6  -5  -3   23.49   18.11
   6  -5   3   94.86   29.55
   6   5   3   44.89   18.35
   6   5   3   91.47   29.08
  -6  -5  -3   72.26   27.78
   6   5   3   15.72   13.83
   6  -2 -13  173.81   29.74
   6   2 -13  156.22   32.05
   6  -2 -13  147.82   27.72
  -6  -2  13  128.50   28.32
   6   2 -13  197.82   30.49
  -6  -2  13  137.67   25.52
   6   2 -13  216.52   35.15
   6  -2 -13  127.96   27.93
   6   2 -13  185.48   28.88
  -6   2  13  166.17   31.77
  -6  -2  13  192.40   34.84
  -6   2  13  197.26   27.87
   4  -9   0   61.77   28.69
   4  -9   0   41.63   18.99
  -4  -9   0   46.85   15.41
  -4   9   0   60.18   21.79
   4   9   0   24.47    8.06
   4  -9   0   61.94   21.72
   5  -7   5   23.61   14.56
   5   7   5   32.05   15.84
  -5  -7  -5   19.03   16.84
   5   7   5    9.74   13.64
   5  -7   5   38.09   26.47
   5  -7   5   45.86   25.60
   4  -7  11   31.17   20.11
   4  -7  11   39.81   17.98
   4   7  11   26.26    9.50
   4  -7  11   52.79   19.42
   4   7  11   36.71   20.48
  -4   7 -11   69.37   23.03
   4   7  11   75.19   25.46
   6  -5  -7  274.80   37.47
   6   5  -7  240.32   35.41
   6  -5  -7  297.12   33.75
  -6   5   7  283.86   33.95
  -6  -5   7  249.30   33.35
  -6  -5   7  241.19   34.53
  -6  -5   7  284.02   34.94
   6   5  -7  238.23   33.10
   6   5  -7  293.29   36.50
   6  -5  -7  203.26   28.81
   5   1 -18  511.97   46.02
  -5  -1  18  464.19   40.06
   5  -1 -18  529.24   45.78
  -5   1  18  478.53   42.85
  -5  -1  18  517.92   47.61
   5  -1 -18  426.34   43.67
  -5  -1  18  438.53   44.02
  -5   1  18  457.17   42.51
   5   1 -18  379.89   36.88
   5  -1 -18  442.07   41.04
   5   1 -18  461.96   45.20
   5   1 -18  539.56   45.33
   4   9  -3   14.68    6.22
  -4   9   3   20.05    8.60
   4  -9  -3    2.26   16.71
   4   9  -3   13.82   12.07
   4  -9  -3   -5.31   14.63
   4  -9  -3   -4.58   15.05
  -6   0 -10   41.46   18.24
   6   0  10   76.48   29.68
   6   0  10   68.44   26.79
   6   0  10   77.87   22.35
   0   3 -23   31.93   31.72
   0  -3  23   46.34   20.29
   0   3 -23   62.04   25.68
   0  -3 -23   14.83   17.56
   0   3  23   62.37   25.79
   0   3  23   48.13   16.65
   0  -3  23   64.27   27.57
   0   3  23   35.18   16.09
  -6  -3  12   74.11   21.75
   6  -3 -12  103.03   20.81
  -6  -3  12  110.98   31.17
   6   3 -12  127.51   30.13
   6   3 -12   55.56   22.37
  -6   3  12   74.87   21.09
  -6  -3  12   89.12   28.07
   6   3 -12   58.15   25.57
   6   3 -12  137.27   33.50
  -1 -10  10  549.91   52.96
   1  10 -10  383.51  111.90
   1 -10 -10  604.38   47.69
   1  10 -10  616.40   47.17
   1 -10 -10  482.84   42.62
  -1 -10  10  519.60   42.87
  -1  10  10  555.53   42.20
   1  10 -10  406.45  112.45
   1 -10 -10  515.55   41.20
  -1 -10  10  518.94   41.65
   2 -10   7   12.11   15.92
  -2 -10  -7   10.49   15.89
  -2  10  -7   14.26   21.04
   2 -10   7   19.41   19.27
   2 -10   7    0.44   19.12
   2 -10   7   45.80   25.51
   4  -5  15  166.02   30.48
   4   5  15  111.72   30.06
   4   5  15  168.34   34.36
   4   5  15   84.69   29.38
  -4   5 -15  107.19   26.65
   4  -5  15  139.43   29.55
   1   0 -24   23.87   18.11
  -1   0  24   89.62   23.41
   1   0 -24   72.52   24.11
  -1   0  24   89.41   30.23
   0 -11  -3 1055.58   56.08
   0 -11   3 1214.93   61.55
   0 -11  -3 1251.26   64.29
   0  11  -3 1205.18   63.00
   0 -11   3 1139.79   59.08
   0 -11  -3 1021.72   53.98
   0 -11   3 1156.46   59.85
   4   9   1   -7.99   10.79
   4  -9   1   17.59   20.18
   4  -9   1   -4.46   14.26
   4   9   1    4.85   10.81
   4  -9   1    4.98   15.48
  -4   9  -1   -3.01   13.06
   4  -9   1   -4.28   12.85
  -3  10   1   29.36   17.23
   3 -10  -1   66.68   24.88
   3 -10  -1   38.28   18.87
   3 -10  -1   41.80   22.32
   5  -5  11   -4.96   15.52
   5  -5  11   29.35   21.49
   5   5  11   16.85   13.61
  -5  -5 -11   31.87   23.60
   5   5  11   19.51   19.37
  -5   6  12    6.39   14.81
   5  -6 -12   18.30   18.23
  -5  -6  12   60.02   28.02
   5   6 -12   50.09   22.68
   5  -6 -12   12.65   15.36
   5   6 -12   53.30   19.77
  -5   6  12   14.99   16.89
   5   6 -12   45.95   32.16
  -5  -6  12   67.64   29.46
   5   6 -12   65.94   19.40
   0  -9  14  554.12   47.81
   0   9 -14  624.59   53.38
   0   9  14  596.91   50.91
   0  -9 -14  503.20   45.27
   0  -9 -14  565.62   50.79
   0   9  14  537.99   41.85
   0  -9  14  539.70   47.75
   0   9 -14  452.38  105.81
   0   9 -14  399.42   38.47
   0  -9  14  560.90   46.03
  -3   8 -12   37.86   18.42
   3   8  12    9.91   17.42
  -3  -8 -12   38.11   15.39
   3  -8  12   50.75   19.26
   3   8  12   25.77   21.60
  -3   8 -12   28.10   11.72
   3  -8  12   76.00   28.20
   3  -8  12   39.17   16.56
   3  -8  12   54.70   21.26
   5   0  15    8.98   15.36
   5   0  15   16.34   18.31
   6   0 -14    2.16   15.65
  -6   0  14   24.80   15.56
  -6   0  14   14.80   18.32
  -6   0  14    2.20   18.44
   6   0 -14    4.14   21.51
   6   0 -14    5.96   12.93
   6   0 -14   14.38   16.71
   3 -10   0   81.57   28.86
   3 -10   0   34.95   20.35
   3 -10   0   40.79   18.58
   3 -10  -2  152.32   33.84
  -3  10   2   68.39   20.86
   3 -10  -2  119.73   28.48
   3 -10  -2  160.89   29.05
   4  -6 -16   -2.77   16.39
   4   6 -16   26.79   20.20
  -4   6  16   12.88   18.78
  -4  -6  16   -2.16   16.05
   4  -6 -16   18.09   19.33
   4   6 -16   23.41   22.19
  -4   6  16    3.43   19.11
   4   6 -16   18.45   19.15
  -4  -6  16   -3.91   16.27
  -1   2 -23   72.88   27.61
   1   2  23  109.50   29.74
   1  -2  23   72.52   28.70
   1   2  23   75.60   24.22
   4  -8   8  456.06   41.16
  -4   8  -8  322.09   34.66
   4   8   8  357.77   35.62
   4   8   8  351.42   37.91
   4  -8   8  423.77   40.82
   4  -8   8  386.17   37.39
   4   8   8  311.40   97.19
   4  -8   8  351.47   36.61
  -4   9   4   54.41   20.49
   4   9  -4   41.34   11.23
   4  -9  -4   93.19   27.34
   4  -9  -4   47.66   20.14
   4  -9  -4   82.54   25.27
  -4  -9   4   53.08   21.41
   3   8 -14  256.63   33.12
  -3   8  14  293.82   35.67
  -3  -8  14  253.83   32.65
   3   8 -14  244.36   32.47
   3  -8 -14  255.76   40.80
   3  -8 -14  227.59   33.81
  -3  -8  14  271.98   38.78
  -3  -8  14  253.65   37.45
   3   8 -14  178.51   52.61
   3  -8 -14  231.21   32.77
   6   1  10    9.51    3.38
   6   1  10   31.79   17.76
   6   1  10   23.30   14.47
   6  -1  10    2.35   15.77
  -6  -1 -10    1.92   12.57
   6   1  10   18.98   17.86
   6  -1  10   39.01   27.11
   6  -1  10   13.81   16.58
  -1 -11   0  203.02   31.79
   1 -11   0  172.71   33.27
   1 -11   0  189.72   36.20
   1 -11   0  163.47   29.04
  -1  11   0  134.73   37.25
   1  11   0  132.63   43.12
  -1 -11   0  160.16   27.08
  -1   7 -18   19.63   15.92
   1  -7  18   -3.89   13.91
  -1   7 -18   22.04   17.68
  -1   7 -18   20.99   27.31
   1   7  18   13.57   18.94
   1   7  18    0.40   16.01
  -1  -7 -18   -6.63   17.04
   1  -7  18    9.24   19.25
   1  -7  18    1.86   17.34
   5   3 -17  103.02   24.89
   5   3 -17  142.68   28.62
   5   3 -17  167.84   35.01
  -5   3  17  136.57   34.40
  -5  -3  17  201.56   31.05
  -5   3  17  174.66   32.14
  -5  -3  17  143.79   29.81
   5  -3 -17  147.64   30.63
   5   3 -17  177.24   37.78
   5  -3 -17  148.69   28.74
   5  -3 -17  128.13   28.65
   5   3 -17  111.64   26.82
   1 -11  -1  371.74   36.89
   1 -11  -1  281.13   37.32
  -1 -11   1  294.98   34.16
  -1 -11   1  312.65   34.50
   1 -11  -1  216.99   31.05
  -1  11   1  232.32   75.05
   1  11  -1  233.45   65.08
   0   0 -24   39.64   20.76
   0   0  24   30.41   15.77
   0   0  24   32.01   18.40
  -1  -9  14  282.90   36.14
  -1   9  14  354.95   35.84
  -1   9  14  372.61   38.55
  -1  -9  14  488.54   45.94
   1  -9 -14  332.37   37.30
   1   9 -14  322.79   35.37
  -1  -9  14  408.38   43.59
   1   9 -14  274.41   78.47
   1   9 -14  348.80   37.73
   1  -9 -14  365.04   40.23
  -1   8 -16 1678.46   70.90
  -1   8 -16 1624.31   71.71
   1  -8  16 1685.35   74.14
   1  -8  16 1626.58   70.88
  -1   8 -16 1428.00  146.71
  -1  -8 -16 1463.74   70.14
   1   8  16 1600.03   73.22
   1   8  16 1680.24   75.91
   1  -8  16 1655.54   73.35
  -3  10  -1  125.64   28.88
   3 -10   1  121.80   31.18
   3 -10   1  141.32   30.17
   3 -10   1   72.01   22.19
  -3  10   3   28.46    8.35
   3 -10  -3   35.71   17.56
   3 -10  -3   32.44   18.45
   3 -10  -3   77.00   26.29
   2   7 -18  -17.45   13.39
  -2  -7  18   27.19   16.67
  -2  -7  18   -9.43   15.70
  -2   7  18   -2.63   16.56
   2  -7 -18   41.90   17.74
  -2   7  18   -0.05   17.08
   2  -7 -18   32.04   16.12
   2  -7 -18   22.79   24.48
  -2  -7  18   23.78   26.61
   1   1 -24  819.70   53.86
   1   1 -24  738.66   50.01
   1  -1 -24  859.61   56.11
  -1   1  24  849.43   52.37
  -1  -1  24  835.50   53.60
  -1   1  24  674.79   47.83
   1  -1 -24  854.53   56.47
   1 -11   1  297.32   33.23
   1 -11   1  501.23   45.36
  -1 -11  -1  309.72   36.47
  -1 -11  -1  356.35   38.78
  -1  11  -1  300.72   74.78
   1 -11   1  378.41   42.32
   1  11   1  381.15   40.47
  -2  -9  13   75.25   29.78
   2   9 -13   86.40   29.04
   2  -9 -13   87.56   24.65
   2   9 -13  135.77   32.35
  -2   9  13   99.95   27.30
  -2  -9  13  133.61   29.16
   2  -9 -13   67.63   21.61
  -2  -9  13  116.19   29.37
   2  -9 -13  131.47   29.28
   5  -6   9  115.59   30.26
   5  -6   9   26.78   16.45
  -5  -6  -9  101.35   28.43
   5   6   9   54.83   21.95
   5   6   9   84.53   29.24
   5  -6   9   93.01   28.47
   5   1  15   29.06   19.41
   5   1  15    3.85   12.96
   5  -1  15   16.68   15.81
   5  -1  15   -1.42   16.63
  -2   4  22  210.61   39.93
   2  -4 -22  176.21   36.24
  -2   4  22  102.87   24.77
  -2  -4  22  160.83   28.87
  -2  -4  22  144.93   28.17
   2   4 -22  126.83   33.53
   2   4 -22  108.07   28.49
   2   4 -22  105.27   24.30
  -2  -4  22  142.05   37.16
   2  -4 -22  130.48   25.66
   2   4 -22  137.02   29.06
   2  -4 -22  114.97   25.99
   6  -1 -14  266.55   32.80
   6  -1 -14  307.52   42.65
   6   1 -14  411.14   48.70
  -6  -1  14  361.11   44.50
   6   1 -14  368.25   43.65
   6  -1 -14  337.05   36.34
  -6  -1  14  292.90   35.37
   6   1 -14  291.17   36.00
  -6   1  14  369.13   42.17
  -6  -1  14  341.84   39.44
  -6   1  14  333.82   39.97
   6   1 -14  357.01   37.25
  -2  -5  21   13.32   15.53
   2  -5 -21   64.40   25.09
  -2  -5  21   55.68   26.22
  -2   5  21   15.82   18.04
   2   5 -21   41.28   24.61
   2   5 -21   26.54   21.35
   2  -5 -21   50.26   23.79
  -2   5  21   17.67   16.90
  -2  -5  21   27.74   17.84
   2   5 -21   52.12   22.71
   2   5 -21   81.42   29.44
  -1  11   2  117.00   29.92
  -1 -11   2  153.22   27.06
  -1 -11   2  147.93   26.08
   1 -11  -2  173.78   31.21
   1  11  -2  121.97   34.21
   1 -11  -2  185.22   34.67
  -1 -11   2  115.22   25.40
   1 -11  -2  117.44   23.49
  -4  -4  19 1447.13   72.38
   4   4 -19 1263.20  145.48
  -4   4  19 1410.23   69.99
   4  -4 -19 1267.57   65.38
  -4   4  19 1354.88   72.21
   4   4 -19 1308.25   67.07
   4   4 -19 1370.78   68.68
  -4  -4  19 1369.10   68.52
   4  -4 -19 1376.35   66.98
   4   4 -19 1471.48   73.51
   4  -9   2   48.34   16.72
   4  -9   2   95.51   28.49
   4  -9   2   56.52   22.02
  -4   9  -2   58.30   22.30
   4   9   2   55.34   15.08
   4   9   2   34.99   11.55
   4  -9   2   86.69   26.09
   4   0 -21   46.83   19.44
  -4   0  21   87.60   25.22
   4   0 -21   96.16   32.09
  -4   0  21   69.68   24.90
  -4   0  21   53.18   20.51
   4   0 -21   77.07   24.31
   5  -4 -16   15.60   18.06
   5   4 -16   28.75   20.91
   5  -4 -16   29.77   18.15
  -5  -4  16   27.36   18.37
   5   4 -16   21.51   21.08
   5   4 -16   59.62   27.31
  -5   4  16   29.51   23.14
   5   4 -16    9.20   14.78
   5   4 -16   44.05   23.30
   5  -4 -16   26.41   17.38
  -5  -4  16   -0.14   15.77
  -2  -2 -22  143.43   31.09
   2   2  22  145.79   30.78
   2  -2  22  146.43   25.18
   2  -2  22  165.39   29.61
  -2   2 -22  180.85   34.32
   2   2  22  137.13   26.05
   0 -11   4  176.60   31.09
   0  11  -4  124.93   30.83
   0 -11   4  150.28   29.02
   0 -11  -4  161.68   27.14
   0 -11   4  135.20   27.77
   0 -11  -4  165.00   29.63
   0 -11  -4  146.28   31.89
  -6  -5  -4  182.50   27.47
   6  -5   4  105.19   26.59
   6   5   4  155.73   29.27
   6  -5   4  153.44   27.25
   6   5   4  204.35   31.78
   6  -5   4  149.87   32.13
  -6  -5  -4  212.23   34.49
  -4  -7  14  244.40   33.89
   4   7 -14  176.87   29.93
   4  -7 -14  157.73   32.34
  -4   7  14  156.28   26.85
  -4  -7  14  252.88   37.69
   4   7 -14  216.46   33.01
  -4   7  14  190.24   32.65
   4   7 -14  228.49   34.69
   4   7 -14  208.61   31.18
   4  -7 -14  172.51   29.25
   5  -7  -9    9.57   15.22
   5   7  -9   45.05   19.52
   5   7  -9   11.71   10.76
   5  -7  -9   30.56   18.83
  -5  -7   9   53.68   20.14
  -5  -7   9   31.46   16.71
   5   7  -9   29.38   19.17
  -5   7   9   49.72   20.46
   3  -4  19  449.18   43.01
  -3   4 -19  486.43   43.20
  -3  -4 -19  380.97   43.11
   3   4  19  505.75   44.77
   3  -4  19  432.79   41.96
   3   4  19  443.60   40.99
   3  -4  19  435.36   37.70
   0  -1  24  256.31   33.74
   0   1  24  182.23   28.66
   0  -1 -24  255.57   34.78
   0   1  24  256.77   35.82
   0   1 -24  238.98   34.40
   0   1 -24  248.24   33.37
  -1 -11  -2  784.54   49.03
   1 -11   2  787.05   50.32
  -1 -11  -2  773.00   47.67
  -1 -11  -2  816.80   51.46
   1 -11   2  886.59   54.71
   1 -11   2  903.81   55.32
  -1  11  -2  629.34  141.05
   4  -2  18   10.18   17.36
   4   2  18   16.36   15.45
   4  -2  18   40.50   16.55
  -4   2 -18   47.93   24.20
   4   2  18   61.45   26.75
   4   9  -5   -5.82   10.94
   4  -9  -5   20.77   23.94
   4  -9  -5   13.86   16.75
  -4   9   5   25.63   12.80
   4   9  -5   10.53    5.65
   4  -9  -5    4.14   15.37
  -4  -9   5   28.11   20.79
   6   5  -8   38.20   18.07
   6  -5  -8   80.09   23.72
  -6  -5   8   96.21   25.33
   6   5  -8   87.01   27.37
  -6  -5   8  106.52   29.38
   6   5  -8   54.79   21.85
  -6   5   8   79.53   24.40
  -6  -5   8   98.71   27.68
   6  -5  -8   60.80   21.72
  -2   8  16   25.18   21.75
   2  -8 -16   45.75   21.55
   2  -8 -16  111.83   27.46
  -2   8  16  112.95   27.41
   2  -8 -16  123.70   26.48
   2   8 -16   86.99   26.33
  -2  -8  16  109.00   28.42
  -2  -8  16   54.80   21.05
   2   8 -16  128.81   32.10
   2   8 -16   59.09   19.14
  -2  -8  16   92.27   28.93
  -3  10  -2  130.43   31.98
   3 -10   2   53.31   19.57
   3 -10   2  100.39   22.61
   3 -10   2   88.86   26.14
   3 -10  -4   17.81   16.16
   3 -10  -4   42.47   22.99
   3 -10  -4   35.82   23.68
  -3  10   4   25.92   12.43
  -4   3  20  580.27   49.99
  -4  -3  20  487.02   40.72
   4   3 -20  563.70   47.36
   4  -3 -20  586.44   48.36
   4  -3 -20  565.65   46.14
  -4  -3  20  570.57   46.87
  -4   3  20  642.04   47.38
  -4  -3  20  461.41   43.10
   4   3 -20  340.17  106.74
   4   3 -20  575.46   48.44
   4   3 -20  545.13   47.44
  -6  -4  -7  102.83   28.18
   6  -4   7  139.58   30.41
   6   4   7  106.53   27.85
  -6  -4  -7  132.04   28.49
   6   4   7  121.87   28.33
   6  -4   7  100.26   26.51
  -4  -8  11  105.91   23.93
   4   8 -11  106.56   25.81
   4  -8 -11  120.10   28.21
   4   8 -11  136.03   30.53
   4  -8 -11  155.39   26.52
  -4  -8  11   74.78   24.43
   4  -8 -11  107.71   30.91
  -4   8  11  160.44   28.19
   1 -11  -3  308.58   37.30
   1  11  -3  302.45   36.18
   1 -11  -3  264.23   34.70
   1 -11  -3  307.84   35.90
  -1 -11   3  343.31   36.98
  -1 -11   3  335.16   40.09
  -1 -11   3  274.74   32.16
  -7   0   2   79.20   18.94
   7   0  -2  131.26   30.96
  -7   0   2   73.40   29.55
   7   0  -2   86.55   27.60
   7   0  -2   48.59   17.16
   7   0  -2   98.65   27.63
  -3  -4  21  415.90   41.65
   3  -4 -21  394.34   39.11
   3   4 -21  374.29   41.43
   3   4 -21  336.05   37.58
   3  -4 -21  430.81   51.72
  -3  -4  21  438.96   42.27
   3   4 -21  440.19   47.39
  -3  -4  21  398.95   44.08
  -3   4  21  313.94   37.09
  -3   4  21  412.17   45.49
   1  -5  21  316.90   35.73
   1   5  21  306.57   35.99
   1  -5  21  315.64   39.40
   1  -5  21  309.45   38.75
  -1   5 -21  356.11   44.59
  -1   5 -21  321.13   33.49
   1   5  21  322.22   39.70
  -1  -5 -21  323.47   46.48
   1   5  21  308.18   36.93
   5  -3  14   77.70   24.95
   5   3  14   33.33   17.92
   5  -3  14   58.55   22.09
   5   3  14   78.40   24.82
   5   3  14   80.58   28.02
   2 -10  -9  694.45   57.05
  -2 -10   9  579.83   43.75
   2 -10  -9  622.87   48.13
   2  10  -9  433.95  112.07
  -2 -10   9  686.67   48.77
   2 -10  -9  636.10   48.42
  -2 -10   9  552.13   44.16
   2  10  -9  531.55   57.27
   3   5  18  189.32   33.81
  -3   5 -18  268.49   40.67
   3  -5  18  168.82   28.73
   3  -5  18  218.97   32.71
   3   5  18  220.42   31.16
  -3  -5 -18  161.93   27.83
   7   0  -3  453.55   42.03
   7   0  -3  438.29   41.92
  -7   0   3  475.49   49.11
   7   0  -3  444.64   43.35
  -7   0   3  489.56   42.00
   7   0  -3  284.95   61.41
   4  -1 -21   20.86   19.71
  -4  -1  21   13.15   16.23
  -4   1  21   81.64   23.71
   4   1 -21   17.33   22.81
  -4   1  21   12.29   16.19
  -4  -1  21   31.84   18.43
   4   1 -21   -3.65   14.97
  -4   1  21    2.23   16.87
   4  -1 -21   27.76   18.43
   4   1 -21   27.18   27.35
   5  -7   6  608.54   46.70
   5   7   6  612.89   46.27
  -5  -7  -6  601.38   45.93
   5   7   6  481.92  138.40
   5  -7   6  553.13   41.58
   5  -7   6  589.26   47.08
   3  -9   9 1055.21   57.39
   3  -9   9  958.19   56.41
   3  -9   9 1000.25   55.25
   3   9   9 1041.58   58.95
   3  -9   9 1074.81   58.37
   3   9   9  962.44   54.92
  -3   9  -9 1082.08   60.97
   3  -9   9 1053.28   64.08
  -1  10 -10   33.25   15.16
  -1 -10 -10   15.23   17.89
   1 -10  10   49.99   24.11
   1 -10  10   39.17   18.66
   1  10  10   47.13   24.15
   1 -10  10   24.85   17.65
   1 -10  10   44.32   21.07
  -1  10 -10   50.31   23.84
   7   0  -1 2611.67   84.37
   7   0  -1 2606.58   84.06
  -7   0   1 2598.16   92.72
  -7   0   1 2723.48   90.57
   7   0  -1 2649.61   90.20
   7   0  -1 2715.09   92.53
   5   2 -18  348.93   40.63
   5  -2 -18  299.44   36.74
  -5   2  18  308.97   35.68
   5   2 -18  245.46   38.21
   5   2 -18  192.79   69.55
   5  -2 -18  342.93   41.39
  -5  -2  18  286.96   35.37
   5   2 -18  343.43   39.79
  -5  -2  18  323.22   37.78
   5  -2 -18  290.41   37.84
  -5  -2  18  315.41   34.74
   5   2 -18  342.53   41.52
  -5   2  18  277.89   31.88
  -1  -4 -22  234.67   41.72
  -1   4 -22  301.25   42.00
   1   4  22  149.39   29.87
   1   4  22  226.75   34.40
   1  -4  22  155.68   32.04
   1   4  22  199.19   32.49
   1  -4  22  229.64   31.64
   2  -9  12   37.17   18.84
   2  -9  12   76.66   25.82
   2  -9  12   41.62   20.49
   2  -9  12   68.87   25.94
  -2   9 -12   53.87   10.57
  -2  -9 -12   52.88   22.32
  -2   9 -12   96.67   32.06
   2   9  12  104.01   27.02
   6  -4 -11   79.33   24.73
  -6   4  11   77.42   23.47
  -6  -4  11   59.87   22.19
  -6  -4  11   77.78   31.72
   6   4 -11   89.82   30.45
   6   4 -11   80.40   27.54
  -6  -4  11  114.91   30.45
  -6   4  11   58.26   22.25
   6   4 -11   59.53   27.95
   6  -4 -11  108.52   31.13
   3   9 -11  382.44   39.45
   3  -9 -11  382.92   42.21
   3   9 -11  443.88   44.49
   3  -9 -11  405.90   40.51
   3   9 -11  354.23  103.08
  -3   9  11  396.93   37.14
   3  -9 -11  408.25   40.04
  -3  -9  11  350.14   39.36
  -3  -9  11  430.34   42.50
   5   4  13  342.43   38.74
   5  -4  13  337.29   37.45
   5  -4  13  384.36   43.50
   5   4  13  197.14   55.32
   5   4  13  351.01   38.65
   3   5 -20  152.35   30.28
   3   5 -20  169.18   31.30
  -3  -5  20  269.80   34.18
  -3   5  20  166.26   28.82
   3   5 -20  142.50   31.31
  -3  -5  20  166.90   36.66
   3  -5 -20  189.68   31.61
  -3  -5  20  180.63   30.95
  -3   5  20  188.97   32.61
   3  -5 -20  192.17   34.05
  -7   0   4   55.61   25.12
   7   0  -4   25.65   19.92
   7   0  -4   25.07   19.15
   7   0  -4   28.72   19.32
  -7   0   4   -3.58   13.75
   7   0  -4   -4.58   12.28
  -4  -5  18  188.22   33.44
  -4   5  18  215.60   33.79
   4   5 -18  192.95   34.44
  -4  -5  18  210.99   36.50
   4  -5 -18  269.64   34.62
  -4   5  18  221.99   35.01
   4   5 -18  232.19   40.51
   4   5 -18  188.37   33.09
   4   5 -18  232.33   38.02
   4  -5 -18  166.29   31.25
   4  -9   3   42.09   24.42
  -4   9  -3   41.79   22.13
   4  -9   3   35.24   22.98
   4  -9   3   14.32   14.01
   4  -9   3   16.35   14.29
   4   9   3    7.24    4.31
   4   9   3   35.00   10.40
   1 -11   3 1532.47   71.04
  -1 -11  -3 1377.52   66.75
  -1  11  -3 1621.94   72.80
   1 -11   3 1559.30   70.41
  -1 -11  -3 1264.13   59.80
   1 -11   3 1339.96   66.52
   0 -10 -11  186.53   28.45
   0 -10  11  172.36   32.89
   0  10 -11  147.57   55.74
   0  10  11  150.64   24.38
   0  10 -11  202.27   34.06
   0 -10  11  192.52   31.12
   0 -10  11  201.16   35.23
   0 -10  11  181.51   27.33
   0 -10 -11  163.41   41.43
   0   8 -17  200.04   38.28
   0   8  17  212.04   33.14
   0   8  17  205.01   33.43
   0  -8 -17  233.85   35.89
   0  -8  17  227.43   35.87
   0  -8  17  175.77   31.26
   0   8 -17  136.47   28.99
   0   8 -17  260.77   34.31
   0  -8  17  214.90   34.25
  -2   7 -17   38.68   16.74
   2   7  17   34.14   18.11
   2  -7  17   53.00   25.47
  -2  -7 -17   35.90   17.45
   2  -7  17   63.01   27.14
   2  -7  17    5.81   13.34
  -2   7 -17   74.81   28.81
  -7  -1   2  322.08   37.98
  -7   1   2  316.28   35.74
  -7   1   2  332.18   35.77
   7   1  -2  289.58   33.59
   7   1  -2  310.86   37.60
   7  -1  -2  382.49   39.79
   7  -1  -2  329.37   40.17
  -7  -1   2  331.77   42.08
   7   1  -2  209.01   45.78
   7  -1  -2  302.35   37.39
   7   1  -2  325.84   40.63
  -7   0   0  166.35   38.85
   7   0   0  101.11   23.73
  -7   0   0  116.43   27.69
   7   0   0  103.78   20.83
   7   0   0  167.78   37.42
   7  -1  -3    3.24   19.17
   7   1  -3    5.50   25.39
   7   1  -3   17.87   17.55
  -7  -1   3   36.88   22.89
  -7  -1   3   25.29   18.05
  -7   1   3   14.64   16.95
   7   1  -3   22.50    9.66
   7   1  -3    2.49   14.99
   7  -1  -3   49.68   25.88
   7  -1  -3   34.84   19.41
  -7   1   3   10.92   17.21
   2 -10   8  257.03   35.54
  -2 -10  -8  213.96   31.26
   2 -10   8  267.43   35.36
  -2  10  -8  233.12   35.01
   2 -10   8  284.35   36.34
   2 -10   8  236.28   33.02
  -1  -8  17  287.89   41.76
   1   8 -17  192.05   31.55
   1   8 -17  218.41   35.03
  -1  -8  17  257.58   36.96
   1  -8 -17  199.00   30.55
  -1   8  17  216.54   30.51
  -1   8  17  197.43   33.56
   1   8 -17  195.20   32.61
  -1  -8  17  169.97   30.65
   1  -8 -17  184.98   31.80
   3 -10   3   84.42   23.24
  -3  10  -3  129.74   29.58
   3 -10   3   66.89   25.22
   3 -10   3  105.95   27.38
  -3   3 -20   37.88   21.02
   3   3  20   79.18   27.35
   3   3  20   17.46   16.65
   3  -3  20   45.13   23.66
  -3  -3 -20    7.63   15.35
   3  -3  20   52.66   24.77
   0 -11  -5   88.73   27.89
   0  11  -5   85.86   28.41
   0 -11  -5   81.67   23.95
   0 -11   5   95.26   25.05
   0 -11   5  133.22   30.29
   0 -11   5  102.59   31.44
   0 -11  -5   63.54   22.53
   1  -7 -19   25.14   23.95
  -1   7  19  104.70   30.90
   1  -7 -19   31.95   18.66
   1   7 -19   50.85   26.11
  -1  -7  19   65.43   19.67
  -1  -7  19   65.01   26.36
   1   7 -19   84.06   28.34
  -1  -7  19   58.69   17.86
  -1  -7  19   27.79   16.32
   1   7 -19   91.28   27.17
  -1   7  19   55.02   21.56
   7   1  -1  113.44   25.58
   7   1  -1  120.66   32.44
  -7   1   1  138.52   27.43
  -7   1   1  114.28   25.11
  -7  -1   1  104.82   30.12
   7  -1  -1  104.24   27.61
   7  -1  -1   92.86   29.16
   7   1  -1  130.73   33.82
   7  -1  -1  150.27   32.78
  -7  -1   1  130.96   27.09
  -1 -11   4  244.87   32.49
   1 -11  -4  221.27   35.04
   1 -11  -4  211.44   32.61
  -1 -11   4  206.86   32.67
   1  11  -4  225.91   32.54
  -1 -11   4  157.32   29.69
   1 -11  -4  155.34   28.98
   3 -10  -5   28.32   16.15
   3 -10  -5   58.63   24.67
   3 -10  -5   36.17   20.15
   3 -10  -5   71.42   23.94
  -2   3  23  124.63   28.55
   2   3 -23  117.82   30.98
  -2  -3  23  197.11   33.42
   2  -3 -23  175.28   38.00
   2  -3 -23  108.67   29.78
  -2   3  23  116.54   30.08
   2   3 -23  173.68   37.13
   0   7 -19   82.44   28.02
   0   7  19  170.51   35.59
   0   7 -19  112.19   25.76
   0  -7  19  110.60   30.82
   0   7  19  208.23   42.48
   0  -7  19   99.48   27.56
   0  -7  19  124.06   29.61
   0   7 -19  128.42   32.32
   0  -7 -19   87.51   22.58
   6  -2  10  107.20   30.02
   6   2  10   98.93   32.56
  -6  -2 -10  100.66   27.05
   6  -2  10  124.64   28.15
   6   2  10  116.49   28.04
   6   2  10  113.22   27.66
  -3   0 -21  184.03   31.05
   3   0  21  208.34   35.57
  -6  -3  -9  717.36   49.86
   6   3   9  651.11   49.61
   6  -3   9  779.86   53.75
   6   3   9  733.80   52.17
   6  -3   9  669.65   50.32
   6   3   9  735.24   53.07
   4  -9  -6  142.55   28.29
   4  -9  -6   92.00   23.18
   4  -9  -6   82.51   26.38
   4   9  -6  163.81   28.31
   4   9  -6   72.27   19.56
  -4  -9   6   99.03   23.86
   4   9  -6   75.30   19.37
   2  -6 -20    6.62   18.32
   2  -6 -20   27.28   23.27
  -2   6  20    0.48   18.41
  -2   6  20   27.70   27.07
  -2  -6  20   40.58   19.94
   2   6 -20   -0.97   14.95
  -2  -6  20   27.79   18.49
   2   6 -20   -2.42   16.39
   2   6 -20   33.64   20.39
  -2  -6  20   23.87   19.79
   7   0  -5   51.66   24.29
   7   0  -5   35.89   19.33
   7   0  -5   83.30   32.16
  -7   0   5  122.35   27.42
   7   0  -5   33.07   12.60
  -7   0   5   86.75   26.08
   2  -5  20  922.25   56.85
   2  -5  20  786.70   49.11
   2   5  20  881.79   55.71
  -2  -5 -20  793.30   53.99
  -2   5 -20  860.28   57.57
   2   5  20  848.81   53.83
   2   5  20  914.26   56.26
   2  -5  20  884.24   58.85
   3   7  15  219.96   33.51
  -3   7 -15  237.97   34.68
  -3  -7 -15  178.64   29.62
   3  -7  15  266.16   38.25
   3  -7  15  212.97   29.89
   3   7  15  277.45   37.77
   3  -7  15  293.72   40.96
   7   1  -4   74.37   27.90
  -7  -1   4   68.18   21.74
   7   1  -4  101.83   23.86
   7  -1  -4   69.54   23.53
  -7   1   4   62.81   28.89
   7  -1  -4   96.87   27.96
  -7   1   4  128.71   32.72
   7  -1  -4  153.01   35.34
   7   1  -4   78.19   19.08
   7   1  -4  157.83   34.48
  -7  -1   4   88.94   25.83
  -2   8 -15  101.58   30.00
   2  -8  15   97.59   24.89
   2  -8  15  113.70   28.64
  -2   8 -15   99.09   25.34
   2   8  15   96.66   24.24
   2  -8  15  134.41   30.12
  -2  -8 -15   78.17   25.03
  -2   4 -21   73.79   24.17
  -2  -4 -21   32.81   26.36
   2  -4  21   34.69   15.71
   2   4  21   30.64   16.90
   2   4  21   44.42   17.63
   2  -4  21   54.25   23.18
   2   4  21   66.59   28.41
   1  -2 -24  759.58   51.08
  -1   2  24  774.01   54.12
   1   2 -24  772.27   53.83
  -1   2  24  689.25   47.98
  -1  -2  24  722.35   52.81
   1  -2 -24  715.77   50.77
   1   2 -24  827.17   54.51
  -3   3  22   78.49   22.45
   3   3 -22   79.76   28.42
   3  -3 -22   64.36   19.23
  -3  -3  22  114.17   25.65
   3   3 -22  107.37   26.77
   3   3 -22   96.82   31.44
   3  -3 -22  115.61   30.73
  -3  -3  22  149.63   29.32
  -3   3  22  106.87   33.72
   1  10 -11  518.24   44.50
   1  10 -11  371.09  111.91
  -1 -10  11  504.55   41.53
  -1  10  11  419.01   38.37
   1 -10 -11  466.21   41.44
  -1 -10  11  486.59   44.69
   1 -10 -11  503.75   41.17
  -1 -10  11  519.28   43.75
   1  10 -11  360.48   93.80
   1 -10 -11  534.30   43.56
   4   6  14   40.42   20.24
  -4   6 -14   34.60   17.71
   4   6  14   33.62   23.15
   4   6  14   35.09   27.37
   4  -6  14   26.06   20.52
   5  -2  15   60.01   24.25
   5   2  15   51.81   21.17
   5   2  15   28.94   12.74
   5   2  15   59.22   22.58
   5  -2  15   62.66   21.02
   5  -2  15   41.08   19.87
  -6  -2  14  145.67   30.19
  -6  -2  14   80.20   27.35
  -6   2  14  164.06   34.37
   6   2 -14  185.03   31.34
   6  -2 -14  122.53   28.54
  -6   2  14  153.42   34.26
  -6  -2  14  134.60   27.40
   6   2 -14   98.78   31.44
   6   2 -14  151.75   31.98
   6   2 -14  106.61   31.54
   6  -2 -14  143.93   36.29
  -3   7  17  134.87   30.90
   3  -7 -17  144.91   34.96
   3   7 -17  157.77   31.21
   3   7 -17   97.13   31.05
  -3  -7  17  149.90   29.35
   3   7 -17  177.80   35.24
   3  -7 -17  176.69   28.48
  -3  -7  17  128.76   30.24
   3  -7 -17   93.78   29.40
  -3   7  17  142.48   32.85
  -3  -7  17  131.47   31.95
   3   0 -23  753.18   51.94
  -3   0  23  746.35   53.07
   3   0 -23  780.40   56.00
  -3   0  23  824.08   56.35
  -6  -3  13  117.20   30.11
   6  -3 -13  134.19   31.28
  -6   3  13  140.57   30.03
   6   3 -13   85.76   21.28
   6  -3 -13  113.91   29.56
  -6  -3  13  148.43   30.87
   6   3 -13  129.25   30.77
   6   3 -13  121.73   26.14
  -6   3  13  121.55   26.00
   6   3 -13  124.91   30.62
  -6  -3  13   93.06   25.25
  -7   1   0  115.30   28.76
   7  -1   0   87.88   23.51
   7   1   0   71.49   22.88
  -7  -1   0  104.87   24.97
  -7   1   0   74.18   23.32
   7  -1   0  119.08   29.54
   7   1   0   43.29   20.07
  -7  -1   0   62.83   28.62
   7  -1   0  107.84   28.90
   7   1   0  118.21   31.39
  -1   6 -20  111.01   29.87
   1  -6  20  190.67   33.94
   1   6  20  184.91   35.31
  -1  -6 -20  159.48   31.20
   1  -6  20  131.29   27.75
   1   6  20  191.17   32.79
   1  -6  20  145.25   27.36
  -1   6 -20  163.43   29.95
   6  -5   5   46.79   24.92
   6   5   5   21.57   21.49
  -6  -5  -5   29.74   19.16
   6   5   5   22.40   15.78
   6  -5   5   23.81   18.27
  -6  -5  -5   17.31   16.67
   6  -5   5   45.90   27.37
  -5   5  15  124.67   27.17
  -5  -5  15  103.31   26.09
   5  -5 -15  135.28   28.43
   5  -5 -15   99.36   28.34
   5   5 -15   79.45   26.17
  -5   5  15  137.79   30.54
   5   5 -15   98.14   28.93
  -5  -5  15  103.99   28.67
   5   5 -15  137.26   27.21
   5  -5 -15  129.65   31.64
   5   5 -15  132.93   30.82
  -2   0  24 1252.83   61.91
   2   0 -24 1406.15   73.55
  -2   0  24 1332.59   67.46
   2   0 -24 1323.91   64.73
   2   0 -24 1227.66   62.44
   7   0   1  216.60   32.92
   7   0   1  199.62   32.99
  -7   0  -1  208.93   32.86
  -7   0  -1  216.83   37.44
   7   0   1  172.36   29.57
   1 -11   4 1229.42   64.21
  -1 -11  -4 1170.24   58.87
   1 -11   4 1270.94   66.71
   1 -11   4 1252.37   62.80
  -1  11  -4 1345.86   68.10
  -1 -11  -4 1290.10   64.19
   3  -1  21   83.09   26.95
   3   1  21  126.46   31.04
  -3  -1 -21   61.64   19.49
  -3   1 -21   29.93   19.41
   4  -8   9  218.63   35.62
   4   8   9  165.72   56.19
   4  -8   9  208.25   30.92
  -4   8  -9  199.15   30.40
   4   8   9  213.85   34.64
   1  -9  14 1461.12   71.93
  -1   9 -14 1033.20  217.22
   1  -9  14 1405.37   70.28
   1   9  14 1400.74   69.53
   1   9  14 1331.26   64.14
  -1  -9 -14 1275.17   65.55
   1  -9  14 1388.11   69.23
  -1   9 -14 1492.35   69.79
   6  -5  -9   58.87   23.65
  -6   5   9   49.06   23.04
   6   5  -9   37.17   18.62
  -6  -5   9   -3.29   17.11
  -6  -5   9    6.84   15.56
   6   5  -9   83.64   26.30
   6  -5  -9   38.12   20.99
   6   5  -9   33.27   25.40
  -6  -5   9   -9.48   15.66
   0  -2 -24  341.31   38.67
   0   2  24  444.81   44.90
   0   2 -24  370.95   42.93
   0   2  24  372.16   38.70
   0  -2  24  414.83   42.20
   0   2 -24  346.61   37.34
   5   6 -13   24.88   19.00
   5   6 -13   28.82   18.86
   5   6 -13   55.26   27.05
  -5  -6  13   55.57   20.77
   5   6 -13    5.95   20.32
   5  -6 -13   31.54   23.80
   5  -6 -13   17.29   16.14
  -5   6  13   13.34   18.42
   5  -6 -13    7.80   17.49
   7   1  -5   19.42   19.18
  -7  -1   5  -11.99   15.97
   7  -1  -5   10.92   17.03
   7   1  -5   12.21   17.34
   7   1  -5   56.17   26.09
   7   1  -5   -0.03   12.82
  -7   1   5   49.73   20.62
   7  -1  -5   18.50   17.44
   7  -1  -5    2.38   17.62
  -7  -1   5   13.61   18.72
  -7   1   5    6.93   15.52
   4   7  12    5.96   15.65
   4   7  12    9.15   16.46
   4  -7  12   47.65   26.36
  -4   7 -12    7.93   14.33
   4  -7  12    4.80   16.89
   4   7  12   -8.17   15.94
   6   0  11   11.74   17.08
   6   0  11   17.12   18.94
   6   0  11   13.80   13.60
   5  -8  -2  106.06   30.61
   5   8  -2  126.72   26.13
   5   8  -2   65.88   24.31
  -5  -8   2   86.78   24.83
  -5  -8   2  108.62   26.57
   5  -8  -2  115.25   25.72
   4  -9   4   95.53   25.64
   4  -9   4  137.82   31.00
   4  -9   4  112.31   24.43
   4   9   4   64.12   20.03
  -4   9  -4  109.58   27.07
   4   9   4   66.86   30.25
  -5  -8   1   34.30   17.49
   5   8  -1   18.08    8.08
   5  -8  -1   23.56   19.91
  -5  -8   1    7.37   14.41
   6   6  -2  312.52   39.53
  -6  -6   2  273.69   35.52
   6  -6  -2  342.69   37.32
   6   6  -2  326.86   38.46
  -6  -6   2  254.54   36.11
   6   6  -2  274.42   61.62
   6  -6  -2  332.05   37.98
   5  -7 -10   25.01   17.96
   5   7 -10   12.97   11.83
  -5   7  10   13.32   17.79
   5  -7 -10    3.34   15.20
  -5  -7  10   -1.44   16.55
   5   7 -10    8.97   16.75
   5  -7 -10    1.52   15.91
  -6  -6   1  147.42   30.01
   6   6  -1  127.62   23.91
   6   6  -1  113.56   33.32
   6  -6  -1  134.17   30.17
   6   6  -1  102.13   26.07
   6  -6  -1  138.74   28.75
  -6  -6   1  149.01   35.92
   7   0  -6   10.94   16.14
   7   0  -6   -2.66   18.49
  -7   0   6   23.08   18.60
   7   0  -6   25.38   18.43
  -7   0   6   29.08   24.90
   6  -6  -3  570.40   45.21
   6   6  -3  418.63  117.81
   6   6  -3  571.79   45.76
  -6  -6   3  598.81   48.66
   6   6  -3  554.65   49.97
  -6  -6   3  497.96   43.94
   6  -6  -3  500.29   42.44
  -3   1  23  414.97   45.80
  -3  -1  23  414.22   45.71
   3  -1 -23  434.68   46.94
  -3   1  23  420.19   42.51
   3   1 -23  422.38   44.18
  -3   1  23  366.48   37.80
   3   1 -23  471.54   49.49
  -3  -1  23  378.37   38.65
   3  -1 -23  451.58   43.57
   4  -2 -21  139.08   32.43
  -4  -2  21  129.36   33.67
  -4   2  21   59.33   23.30
   4   2 -21   58.51   25.65
  -4   2  21   73.45   25.45
  -4  -2  21   97.20   27.19
   4  -2 -21   92.15   22.91
   4   2 -21   85.51   30.48
   4   2 -21   87.51   27.41
   5  -8  -3  490.28   42.60
   5   8  -3  472.86   43.67
  -5  -8   3  443.45   39.40
   5  -8  -3  501.23   39.53
   5  -8  -3  521.03   45.71
   5   8  -3  458.59   44.05
   1  11  -5  275.58   37.68
   1 -11  -5  239.75   31.91
   1 -11  -5  265.25   35.70
   1 -11  -5  220.43   32.38
  -1 -11   5  299.39   34.64
  -1 -11   5  261.55   33.34
  -1 -11   5  293.26   36.35
  -3  10  -4   96.35   27.50
   3 -10   4   59.88   19.03
   3 -10   4  152.40   37.05
   3 -10   4  125.92   31.30
   3 -10   4  105.88   25.93
   3   6  17  217.52   33.83
  -3   6 -17  203.06   33.60
   3  -6  17  203.89   35.82
   3   6  17  178.98   29.29
  -3  -6 -17  217.59   37.25
   3  -6  17  179.47   27.97
   2  -1 -24  421.83   40.73
  -2   1  24  506.67   48.46
  -2  -1  24  460.74   45.95
   2  -1 -24  499.77   45.24
  -2   1  24  465.52   40.83
   2   1 -24  444.05   40.13
   2   1 -24  525.10   47.01
   2   1 -24  446.75   46.17
  -1  -3 -23  134.44   32.73
   1   3  23   74.13   29.57
   1   3  23   43.20   17.69
   1  -3  23  106.14   28.14
   1  -3  23   86.20   24.23
   1   3  23   94.24   31.02
  -1   3 -23  101.05   29.63
  -7  -1  -1   23.32   19.35
  -7   1  -1   71.49   25.39
  -7  -1  -1   29.06   16.52
   7   1   1   15.73   21.03
   7  -1   1   72.58   27.88
   7   1   1   80.04   26.15
   7   1   1   67.44   22.03
   7  -1   1   80.34   26.98
  -5  -8   0  228.43   35.88
   5  -8   0  198.56   33.02
  -5  -8   0  178.94   30.68
   5  -8   0  163.56   30.51
   5   8   0  107.47   31.99
   5  -8   0  149.97   31.25
   3 -10  -6   -6.06   14.94
   3  10  -6   13.84    8.11
   3 -10  -6   21.31   21.47
   3 -10  -6   -3.81   18.55
   3 -10  -6    3.95   15.84
  -1  -5  22   79.68   27.93
   1  -5 -22  117.39   27.99
  -1  -5  22   47.65   22.04
  -1   5  22   71.55   27.73
  -1  -5  22  103.66   28.10
   1   5 -22   50.11   20.86
   1   5 -22   72.84   26.70
   1  -5 -22   87.19   29.62
  -1   5  22   53.10   22.46
   1   5 -22   51.24   26.51
   6   0 -15   -2.80   15.67
   6   0 -15  -20.73   15.90
  -6   0  15   34.12   27.13
   6   0 -15    8.75   22.72
  -6   0  15  -12.40   18.33
   5   5  12   -6.51   18.21
   5   5  12   59.02   28.72
   5  -5  12    9.11   19.24
   5   5  12   30.99    6.85
   5  -5  12   28.15   19.06
   4   4  17   25.05   16.06
   4  -4  17   41.73   27.57
   4   4  17   36.95   18.99
  -4   4 -17   41.51   23.83
   4   4  17   42.93   30.03
   6  -6   0  190.16   31.40
  -6  -6   0  229.34   33.59
   6   6   0  241.46   33.42
   6   6   0  143.64   48.63
  -6  -6   0  237.92   36.05
   6  -6   0  206.54   34.43
   5   0 -19   58.83   27.21
   5   0 -19   29.50   19.69
  -5   0  19   49.50   23.48
   5   0 -19   37.96   22.57
  -5   0  19   29.53   18.14
  -5   0  19   43.37   25.29
   0 -11  -6   16.01   16.13
   0 -11   6   19.66   20.58
   0 -11   6   45.76   19.51
   0 -11  -6   43.70   28.40
   0  11  -6   14.82   20.87
   0 -11   6   -6.73   17.12
   5   7   7  633.55   46.66
  -5  -7  -7  661.70   50.74
   5  -7   7  678.26   50.29
   5  -7   7  671.71   48.15
   5   7   7  515.82  126.41
   5  -7   7  637.56   46.60
   3   6 -19   10.87   20.06
  -3  -6  19   41.63   23.11
   3  -6 -19   38.14   17.18
  -3   6  19   18.76   20.74
   3   6 -19   33.36   20.29
   3   6 -19   55.55   27.88
  -3  -6  19   78.52   28.59
  -3  -6  19   51.98   26.95
  -3   6  19   32.70   28.48
   5  -6  10   30.23   19.26
   5  -6  10  129.17   28.72
   5   6  10   49.45   12.91
   5  -6  10   45.49   21.47
   5   6  10  103.21   31.46
   5   6  10   22.40   19.66
  -6  -6   4  389.84   40.52
   6   6  -4  310.55   39.27
  -6  -6   4  378.87   40.33
   6   6  -4  368.67   46.43
   6  -6  -4  366.29   37.54
   6  -6  -4  340.36   40.06
   6  -6  -4  341.22   34.86
   6  -1  11   69.37   24.60
   6   1  11   64.05   27.18
   6   1  11  102.66   26.35
   6  -1  11  119.36   30.63
  -6  -1 -11   64.47   22.27
   6  -1  11   85.71   28.71
   4   9  -7  254.67   35.60
   4  -9  -7  267.31   38.83
   4   9  -7  339.74   42.68
   4   9  -7  147.52   54.14
   4  -9  -7  280.94   37.01
   4  -9  -7  258.83   33.68
   3  -8  13  828.56   56.66
   3   8  13  811.71   53.93
  -3   8 -13  803.44   53.31
   3   8  13  758.40   58.51
   3  -8  13  761.33   54.15
   3  -8  13  858.11   54.05
   0  -5 -22   73.44   27.96
   0   5 -22   33.69   17.47
   0   5 -22   37.15   25.75
   0   5  22   77.62   31.22
   0  -5  22   14.69   15.51
   0   5  22   54.62   21.46
   0  -5  22   69.28   26.37
   1   4 -23   30.58   17.88
  -1  -4  23   54.67   20.97
   1   4 -23  108.15   29.23
  -1  -4  23   78.59   25.84
   1  -4 -23   47.85   18.14
  -1   4  23   60.56   24.44
  -1   4  23   28.35   20.37
   1   4 -23   55.51   27.10
   1  -4 -23   38.13   31.54
  -7   0  -2    7.12   14.67
   7   0   2   65.91   29.47
   7   0   2   30.64   17.18
   7   0   2   10.99   20.26
  -7   0  -2   23.27   16.46
   2 -10 -10  237.08   34.78
   2 -10 -10  254.23   33.50
  -2 -10  10  184.42   32.66
   2  10 -10  291.43   39.54
   2 -10 -10  207.66   35.28
  -2 -10  10  195.48   31.61
   2  10 -10  154.00   67.31
  -2 -10  10  257.22   34.20
  -5  -8   4    4.42   14.05
   5  -8  -4   21.29   14.79
   5   8  -4   64.15   23.00
  -5  -8   4   46.63   23.91
   5   8  -4   12.46   16.52
   5  -8  -4    9.40   18.16
   2   6  19    8.89   21.14
   2  -6  19   37.94   18.29
   2   6  19   36.46   19.15
   2  -6  19   57.87   25.36
  -2   6 -19   41.09   22.49
  -2  -6 -19   52.46   24.27
   7   1  -6   23.35    5.46
  -7  -1   6   99.81   36.01
  -7   1   6   47.32   17.07
   7  -1  -6   18.09   16.31
   7   1  -6   60.08   27.58
   7  -1  -6   49.11   30.20
   7   1  -6   11.17   16.67
  -7  -1   6   54.46   26.26
  -7   1   6   45.81   27.53
   7  -1  -6   50.69   20.82
   7   1  -6   37.59   29.11
  -6  -4  -8  118.13   31.15
   6   4   8   66.83   19.03
   6  -4   8  100.46   28.19
   6   4   8  122.14   31.66
   6  -4   8  136.68   33.31
  -6  -4  -8  145.42   31.02
   7   2  -2  244.10   36.65
   7   2  -2  185.85   44.32
  -7  -2   2  296.21   39.45
   7  -2  -2  278.04   35.56
   7  -2  -2  233.27   39.25
  -7  -2   2  312.14   42.11
  -7   2   2  251.72   31.96
   7  -2  -2  294.29   35.89
   7   2  -2  299.16   40.10
   7  -2  -3   37.42   21.08
   7   2  -3   56.85   28.12
  -7  -2   3   58.46   27.21
   7  -2  -3   66.88   25.58
  -7   2   3   41.67   20.66
  -7  -2   3   56.26   26.76
   7  -2  -3   38.93   23.15
   7   2  -3   40.89   21.80
   7   2  -3   17.13    7.83
   4   0  19  119.85   30.12
   3   8 -15   11.82   17.82
   3   8 -15   16.14   11.51
   3  -8 -15   32.12   18.71
  -3  -8  15   16.29   15.11
  -3  -8  15   33.22   22.89
  -3  -8  15   32.92   22.72
   3  -8 -15   43.49   31.05
   3  -8 -15    7.08   15.85
  -3   8  15   18.46   19.93
   5   8   1   12.01    7.72
   5  -8   1   52.96   20.02
  -5  -8  -1   47.60   19.08
   5  -8   1   48.19   23.76
   5  -8   1    7.04   14.58
  -5  -8  -1   55.41   24.28
   0   9 -15   81.25   29.97
   0  -9  15   44.62   21.61
   0   9 -15   94.14   30.66
   0  -9  15   66.95   20.96
   0   9 -15   51.65   19.29
   0  -9  15  137.36   33.11
   0   9  15   93.10   31.12
   0  -9 -15  106.87   33.15
   0   9  15   72.83   27.04
   2  -3  22  100.62   26.88
   2   3  22   90.58   23.78
  -2   3 -22  167.72   34.14
   2  -3  22  103.25   27.50
  -2  -3 -22   93.87   29.61
   2   3  22   92.67   22.98
   7  -2  -1    8.29   17.29
   7  -2  -1    4.10   20.82
   7   2  -1  -10.29   16.88
   7   2  -1   27.03   21.70
  -7   2   1    7.02   16.48
  -7  -2   1   24.16   18.63
   7   2  -1   12.83   16.99
   7  -2  -1   18.33   17.79
  -7  -2   1  -20.28   19.26
   4   8 -12  -22.19   21.63
  -4  -8  12   10.07   18.39
   4  -8 -12    2.02   18.33
  -4   8  12   20.12   19.37
   4   8 -12    9.59   16.35
   4  -8 -12   18.11   20.48
   4   8 -12   22.60   16.83
  -4  -8  12   21.06   16.22
   2  -9 -14  158.70   29.50
  -2  -9  14  164.56   32.10
   2  -9 -14  171.73   32.22
   2   9 -14  176.53   31.93
  -2   9  14  152.49   29.66
  -2  -9  14  157.32   33.34
   2  -9 -14  186.04   35.32
   2   9 -14  210.54   39.22
  -2  -9  14  211.52   35.77
   6   1 -15  272.39   34.73
  -6   1  15  380.22   44.21
  -6  -1  15  311.76   37.52
   6   1 -15  279.14   35.84
   6  -1 -15  318.71   41.11
   6   1 -15  255.38   34.44
   6   1 -15  280.95   35.20
  -6  -1  15  294.55   41.03
  -6   1  15  343.96   44.35
  -6  -1  15  312.49   42.39
   6  -1 -15  293.31   37.62
   1   0  24   19.80   17.46
  -1   0 -24   -8.11   18.99
   0  -4  23  173.46   32.29
   0   4 -23  147.33   29.16
   0  -4 -23  171.87   31.46
   0   4  23  107.74   26.74
   0   4 -23  142.04   28.53
   0  -4  23  138.28   30.67
   0   4  23  185.06   33.54
  -1  11  -5  142.84   26.11
   1 -11   5  176.98   31.48
   1 -11   5  213.54   37.23
   1 -11   5  276.40   38.85
  -1 -11  -5  192.84   31.96
   6   4 -12   65.47   26.63
  -6  -4  12   43.36   26.49
  -6   4  12   65.97   25.92
   6  -4 -12   71.73   20.84
  -6   4  12   88.60   30.16
  -6  -4  12   85.86   25.65
   6   4 -12   56.02   23.28
  -6  -4  12   88.85   23.44
   6   4 -12   71.77   24.25
   6  -4 -12   20.18   20.39
  -5  -1  19   58.30   24.40
   5   1 -19   -3.71   19.80
   5  -1 -19   71.22   22.75
  -5  -1  19   80.15   29.78
   5   1 -19   46.04   27.97
   5  -1 -19   68.41   28.33
   5   1 -19   41.81   19.07
   5  -1 -19   17.75   20.25
  -5   1  19   44.18   22.08
  -5  -1  19   54.99   28.56
  -5   1  19   62.51   25.05
   4  -3  18  366.89   39.74
   4  -3  18  321.08   35.38
   4   3  18  312.23   38.19
   4   3  18  392.10   39.93
   4   3  18  356.14   36.39
   7   2  -4    4.32    8.80
   7   2  -4   16.39   16.19
   7  -2  -4   10.21   18.20
   7   2  -4    4.61   18.08
   7   2  -4   58.12   29.70
   7  -2  -4   11.77   15.78
  -7   2   4    5.35   13.10
  -7  -2   4   43.23   25.26
   7  -2  -4   10.45   19.82
  -7   2   4   29.69   23.11
  -7  -2   4   43.07   19.93
   6   6   1   12.30   16.80
  -6  -6  -1  -13.90   17.82
   6   6   1    7.26   12.69
  -6  -6  -1   24.38   18.48
   6  -6   1   31.44   17.99
   6  -6   1   -2.70   19.12
   1   9 -15  102.30   33.49
  -1  -9  15  133.08   29.77
   1   9 -15  128.63   25.83
   1  -9 -15   84.80   23.56
  -1  -9  15  108.67   30.34
  -1   9  15  140.77   33.47
  -1  -9  15  172.61   33.40
   1  -9 -15   99.79   26.64
  -1   9  15   85.64   28.23
   1   9 -15   88.37   26.06
   3  -9  10   44.79   20.12
  -3   9 -10   17.32   17.49
   3   9  10   41.61   20.57
   3  -9  10    0.43   18.07
   3  -9  10   49.11   25.69
   3   9  10   28.07   16.75
   3  -9  10   16.92   16.78
   3  -9  10   15.53   15.57
   4   6 -17   13.14   21.48
  -4   6  17   36.06   21.11
   4   6 -17   51.29   27.41
   4  -6 -17   20.33   18.83
  -4  -6  17   51.07   25.67
   4   6 -17   26.45   17.60
   4  -6 -17   84.66   27.55
  -4  -6  17   43.74   25.55
   4   6 -17   60.82   32.99
  -6  -6   5  277.68   38.66
  -6  -6   5  294.96   43.55
  -6  -6   5  272.61   35.43
   6   6  -5  326.52   40.70
   6   6  -5  258.09   33.99
   6  -6  -5  321.59   38.90
   6  -6  -5  260.80   34.30
   7   0  -7   12.96   19.15
  -7   0   7   19.55   19.08
   7   0  -7   35.04   23.60
   7   0  -7   53.27   29.13
  -7   0   7    3.63   16.54
   7   1   2   20.40   17.25
   7   1   2    3.10   16.42
   7  -1   2   13.35   17.31
  -7   1  -2   55.80   25.57
   7   1   2   27.64   22.51
  -7  -1  -2   18.45   15.73
   7  -1   2   55.42   22.17
  -7  -1  -2   42.68   20.50
   4  -5  16  606.16   46.59
   4   5  16  595.62   47.13
   4   5  16  522.82   44.94
  -4   5 -16  592.56   45.50
   4   5  16  648.52   50.24
  -1 -10 -11  123.83   29.25
  -1  10 -11  104.56   21.86
  -1  10 -11  150.55   31.23
   1 -10  11  156.19   30.48
   1 -10  11  130.73   30.41
   1 -10  11  176.24   34.96
   1 -10  11   80.43   24.93
   1  10  11  141.70   29.68
   3   9 -12    8.00   17.81
   3  -9 -12   19.91   20.53
  -3  -9  12   -2.46   19.64
  -3   9  12   34.99   19.44
  -3  -9  12   14.52   18.71
   3  -9 -12   39.85   20.17
   3   9 -12   -7.62   17.60
   3   9 -12   29.38   20.15
   3  -9 -12   17.82   25.23
  -2 -10  -9   44.12   19.09
  -2  10  -9   81.11   29.93
   2 -10   9   54.57   28.77
   2 -10   9   79.44   25.12
   2 -10   9  109.35   36.41
   2 -10   9   51.78   20.83
   4   7 -15  166.88   33.33
  -4   7  15  121.75   32.79
   4  -7 -15  142.53   31.16
   4   7 -15  126.11   31.12
  -4  -7  15  148.42   30.21
   4  -7 -15  104.54   28.60
   4   7 -15  122.52   29.72
  -4  -7  15  155.78   34.06
   7   2   0    1.73   15.90
  -7  -2   0   12.74   19.89
   7  -2   0   -1.14   16.70
  -7  -2   0    9.80   16.68
   7   2   0   20.81   23.09
   7  -2   0   13.02   18.67
  -7   2   0   15.19   17.04
   7   2   0   39.51   24.29
   7  -2   0    4.98   20.17
   4  -1  19   41.45   17.60
   4   1  19   63.11   32.39
   4  -1  19    8.79   17.22
   2   0  23   57.59   26.97
  -2   0 -23   37.30   21.09
   5   8  -5  331.18   37.73
   5  -8  -5  327.81   39.46
   5   8  -5  328.80   75.76
   5  -8  -5  320.36   38.18
   5  -8  -5  296.62   36.43
  -5  -8   5  347.22   36.91
   1   6 -21   26.29   14.33
   1   6 -21   10.65   24.30
  -1  -6  21   24.92   21.10
   1   6 -21   20.99   19.39
   1   6 -21   54.28   28.90
   1  -6 -21   49.62   24.59
  -1   6  21   64.51   26.45
  -1  -6  21    3.81   13.36
   1  -6 -21    8.18   19.95
  -1  -6  21   48.71   24.28
  -1   6  21   24.16   28.02
   4  -9   5  114.38   27.45
  -4   9  -5  133.66   27.74
   4   9   5  166.58   33.36
   4   9   5   96.64   48.42
   4  -9   5  157.53   30.34
   5   0  16  315.12   37.43
   5   0  16  291.32   36.91
   6  -5   6   -1.76   15.02
  -6  -5  -6    2.33   16.28
   6   5   6   27.23   22.92
  -6  -5  -6    3.82   15.14
   6  -5   6   13.78   27.62
   6  -5   6   16.15   16.80
   5   3 -18  259.33   41.05
   5   3 -18  211.25   57.56
  -5  -3  18  304.00   41.30
  -5   3  18  313.03   37.84
   5  -3 -18  269.17   38.79
   5   3 -18  287.45   38.41
  -5   3  18  345.31   41.66
   5   3 -18  294.08   40.10
   5  -3 -18  273.08   37.58
   5   3 -18  310.82   41.12
  -5  -3  18  308.87   38.86
   5  -3 -18  279.93   35.32
   1 -11  -6    2.77   15.87
   1  11  -6   49.89   15.04
   1 -11  -6   -0.75   17.84
   1  11  -6   35.63   17.69
   1 -11  -6    3.85   17.47
  -1 -11   6   16.80   17.04
   1   1  24  147.02   31.33
  -1   1 -24  211.65   42.71
   1  -1  24  177.03   33.96
  -1  -1 -24  145.17   35.82
   3  -2  21  209.58   32.88
  -3  -2 -21  224.52   33.51
   3   2  21  209.15   33.34
   3  -2  21  170.29   32.41
  -3   2 -21  206.54   32.82
   3   2  21  139.67   28.32
   3 -10   5  524.50   43.57
   3 -10   5  504.37   46.93
   3 -10   5  467.08   44.15
  -3  10  -5  519.23   45.39
   3 -10   5  472.39   42.02
  -5  -8  -2   68.43   24.25
   5  -8   2   34.85   17.53
  -5  -8  -2   53.51   25.13
   5  -8   2   77.86   25.41
   5   8   2   44.79   23.51
   5  -8   2   65.23   22.31
   5  -4 -17   77.15   27.42
  -5  -4  17   47.68   19.49
   5   4 -17   75.57   33.99
   5   4 -17   60.55   31.61
  -5  -4  17   75.49   28.25
   5  -4 -17   66.82   21.94
  -5   4  17   88.84   29.38
   5  -4 -17   40.02   18.62
   5   4 -17   60.18   25.64
   5   4 -17   62.89   29.23
   5   4 -17  110.27   29.31
   0  -6  21   19.84   15.72
   0   6 -21   23.04   23.07
   0  -6  21   11.94   15.75
   0   6  21   18.52   26.29
   0  -6  21   19.19   20.13
   0   6  21    8.61   16.55
   0   6 -21   33.95   18.27
   0  -6 -21   33.28   27.69
  -7   2   5  520.44   45.06
  -7  -2   5  567.09   45.95
   7   2  -5  573.49   48.35
   7  -2  -5  479.98   43.23
   7   2  -5  579.07   47.58
   7   2  -5  696.81   50.90
   7  -2  -5  585.27   55.46
   7  -2  -5  633.48   56.95
  -7   2   5  495.36   43.28
   7   2  -5  420.09  127.95
  -7  -2   5  566.56   47.99
   3  10  -7   40.40   20.65
   3 -10  -7   67.15   27.30
   3  10  -7   54.39   17.53
   3 -10  -7   73.30   24.90
   3 -10  -7  100.77   31.26
  -3 -10   7   53.72   22.98
   6  -5 -10   37.89   18.50
   6   5 -10    7.89   16.71
  -6   5  10   29.53   17.21
  -6  -5  10   33.47   18.87
   6   5 -10   72.38   29.11
   6  -5 -10   62.99   29.03
   6   5 -10   84.17   29.94
  -6  -5  10   86.33   29.46
  -6  -5  10   37.93   17.83
   0 -10  12  541.39   45.07
   0 -10  12  588.52   48.81
   0  10  12  634.77   54.66
   0  10 -12  594.45   50.49
   0 -10 -12  626.21   50.91
   0 -10  12  610.63   48.21
   0  10 -12  436.56  132.29
  -7   1   7   14.08   15.46
   7   1  -7   73.77   30.70
  -7  -1   7   34.99   27.27
   7   1  -7    7.47   17.13
   7  -1  -7   15.42   21.68
  -7  -1   7    1.28   16.87
  -7  -1   7  -13.31   16.83
  -7   1   7   -6.70   15.56
   7   1  -7   23.19   19.08
   7  -1  -7   14.17   15.83
   7  -1  -7    7.98   18.20
   1  -8  17  229.22   42.41
   1   8  17  254.02   39.15
  -1   8 -17  211.94   32.12
   1  -8  17  232.30   31.23
  -1   8 -17  272.48   36.03
   1  -8  17  231.96   35.78
   1   8  17  241.40   34.91
  -1   8 -17  143.85   43.36
  -1  -8 -17  203.94   32.88
   7   0   3   -0.78   16.25
   7   0   3   21.04   19.38
  -7   0  -3   13.47   16.14
   7   0   3  -18.16   19.82
  -3  -2  23  297.50   36.51
  -3   2  23  372.44   39.25
   3  -2 -23  313.29   38.77
   3   2 -23  256.22   39.33
  -3   2  23  255.26   34.79
   3   2 -23  313.37   45.07
   3  -2 -23  281.63   39.08
   2   9  13  341.69   36.29
  -2  -9 -13  380.21   45.54
   2  -9  13  319.83   37.38
  -2   9 -13  411.46   43.54
  -2   9 -13  230.87   56.86
   2  -9  13  360.35   37.07
   2  -9  13  346.73   36.69
   2  -9  13  354.67   41.91
   6   6   2   39.45   24.43
  -6  -6  -2    8.73   19.15
   6  -6   2    6.12   13.45
   6   6   2    4.32   15.96
   6  -6   2   48.99   22.09
  -6  -6  -2   19.99   17.26
   6  -6   2   35.96   24.93
   2 -11  -1  438.14   39.56
   2 -11  -1  490.98   47.88
   2 -11  -1  413.88   42.00
  -2  11   1  366.33  123.06
  -2  -1 -23   12.75   18.46
  -2   1 -23   30.28   19.74
   2  -1  23   61.06   21.23
   2 -11   0  280.62   36.27
   2 -11   0  281.73   37.36
  -2  11   0  194.37   52.50
   2 -11   0  305.12   37.25
   2  -2 -24  239.33   35.27
  -2   2  24  287.19   37.78
   2   2 -24  281.73   38.75
   2  -2 -24  322.72   38.26
  -2  -2  24  344.95   39.49
   2   2 -24  336.48   41.39
   7  -2   1   20.21   16.44
  -7  -2  -1   -7.92   17.96
   7   2   1   45.28   24.01
  -7  -2  -1    4.77   16.20
  -7   2  -1   19.64   16.22
   7  -2   1   19.82   27.84
   7   2   1   30.74   22.23
   7   2   1   19.31   16.82
   7  -2   1    9.01   18.95
   5  -1  16  -19.07   14.08
   5   1  16   -1.77   17.15
   5  -1  16   18.50   17.67
   6   6  -6  125.97   31.98
   6  -6  -6   71.93   21.66
  -6  -6   6   94.26   25.58
   6   6  -6  124.54   31.15
   6  -6  -6  170.41   36.47
  -6  -6   6   77.04   23.41
  -6  -6   6  119.24   28.90
   6   3  10  130.72   32.52
   6   3  10   67.81   19.86
   6  -3  10   70.37   23.03
   6   3  10   85.50   25.35
  -6  -3 -10  130.45   28.13
   6  -3  10   81.50   31.47
   4   9  -8   81.48   29.15
   4  -9  -8   46.90   24.41
   4  -9  -8   30.97   21.99
   4  -9  -8   59.26   25.95
  -4  -9   8   39.48   17.63
   0 -11   7  204.66   40.56
   0 -11   7  125.85   28.71
   0 -11  -7  193.20   34.67
   0 -11   7  161.36   31.35
   0  11  -7  217.37   39.19
   0 -11  -7  197.98   30.26
  -2   7  19   93.72   28.84
  -2  -7  19   65.38   24.22
  -2  -7  19   97.97   23.80
   2   7 -19   80.13   21.91
   2   7 -19  106.46   28.60
   2  -7 -19  130.62   29.63
  -2  -7  19  148.62   29.65
  -2   7  19  171.03   33.89
   2  -7 -19  146.89   29.63
   2 -11  -2   26.55   16.62
   2 -11  -2   50.73   19.37
   2 -11  -2   62.26   20.81
  -2  11   2   49.76   21.44
   2  -8 -17   14.22   16.85
   2   8 -17   25.19   12.88
   2   8 -17   -0.60   15.22
  -2  -8  17   36.74   31.69
  -2  -8  17   27.63   24.84
   2   8 -17   47.63   21.30
  -2   8  17   46.84   31.79
   2  -8 -17   57.88   27.53
  -2   8  17   36.81   21.21
  -1   7 -19   22.12   26.13
  -1  -7 -19   24.23   18.59
   1  -7  19   26.25   20.87
  -1   7 -19    3.55   14.82
   1   7  19    8.96   15.85
   1  -7  19   16.50   18.56
   1  -7  19    3.44   15.02
   1   7  19   20.97   20.52
   5  -7 -11   75.89   25.48
   5   7 -11  106.79   29.62
   5  -7 -11   86.94   29.21
   5   7 -11   72.68   39.23
   5  -7 -11   84.14   25.71
   5   7 -11   82.63   26.57
  -5   7  11   47.66   20.85
   2 -11   1  260.56   35.30
   2 -11   1  330.29   37.05
  -2  11  -1  288.95   65.02
   2 -11   1  313.58   37.01
   1  10 -12    1.90   15.73
   1  10 -12   22.22    9.94
   1 -10 -12    6.31   17.01
  -1  10  12   -6.59   16.30
  -1 -10  12    1.93   20.63
  -1 -10  12   -4.46   16.27
   1 -10 -12   11.77   23.96
   1  10 -12    5.93   16.17
  -1 -10  12    7.53   16.55
   6   2  11  209.18   33.10
   6   2  11  224.09   32.95
   6  -2  11  200.78   33.14
  -6  -2 -11  247.88   34.00
   6   2  11  135.93   52.78
   6  -2  11  229.24   33.33
   1   3 -24    3.11   19.53
   1   3 -24   25.77   18.04
   1  -3 -24   55.59   31.44
  -1   3  24   -3.79   15.12
  -1  -3  24   16.23   20.58
  -5  -8   6   82.63   24.70
   5  -8  -6   88.22   28.18
   5   8  -6   71.99   20.14
   5  -8  -6  103.63   29.16
   5  -8  -6   65.50   28.47
   5   8  -6  105.88   27.87
  -4  -4  20  999.25   61.38
   4   4 -20 1054.19   68.32
   4   4 -20  886.53   59.74
  -4   4  20 1018.32   63.00
   4   4 -20  592.59  200.01
  -4   4  20  971.01   59.05
   4   4 -20 1056.55   64.45
  -4  -4  20 1027.10   61.31
   4  -4 -20 1027.29   60.46
   4  -4 -20  994.89   59.50
   7  -1   3  204.02   37.10
   7   1   3  139.18   29.46
  -7  -1  -3  162.57   34.80
  -7   1  -3  295.03   47.69
   7   1   3  209.88   34.01
  -7  -1  -3  146.83   30.26
   7  -1   3  173.36   35.45
   7   1   3  214.82   36.78
   5  -3  15   98.12   28.15
   5   3  15   73.23   19.45
   5  -3  15  109.79   28.14
   5   3  15   79.09   24.64
   5   3  15  144.70   32.97
   7   2  -6  112.27   29.44
   7   2  -6  150.01   30.60
   7  -2  -6  126.45   29.66
  -7  -2   6  155.33   33.75
  -7  -2   6  115.17   27.99
  -7   2   6  123.65   29.51
   7  -2  -6  111.46   23.73
   7   2  -6   47.71   19.55
  -7   2   6  130.20   32.28
   7   2  -6  147.89   37.62
   7  -2  -6  128.13   32.89
  -1  11  -6  221.90   35.68
  -1 -11  -6  264.53   41.88
   1 -11   6  207.02   35.48
   1 -11   6  246.30   34.64
   1 -11   6  196.31   31.97
  -6  -3  14  129.93   28.95
   6   3 -14  100.97   27.56
   6   3 -14  117.10   32.76
  -6   3  14   78.07   26.81
   6  -3 -14  165.27   32.15
   6  -3 -14  124.24   26.10
   6   3 -14  105.45   31.12
  -6  -3  14  116.19   29.31
  -6   3  14  148.37   34.16
   6   3 -14  132.16   26.65
  -6  -3  14  136.30   33.59
   5   4  14   58.73   16.21
   5   4  14   97.09   30.24
   5  -4  14   85.71   27.52
   5  -4  14  104.36   26.21
   5   4  14   64.11   25.18
  -7   0   8   29.90   20.77
   7   0  -8   18.42   17.53
  -7   0   8   23.00   18.08
   7   0  -8   46.79   27.89
   7   0  -8   39.75   28.98
   4   8  10    7.57   15.89
   4  -8  10   17.44   16.97
   4  -8  10   31.24   18.32
   4   8  10    2.95   18.87
  -4   8 -10   35.96   22.00
   5  -8   3   12.99   16.43
   5   8   3   61.24   24.32
   5   8   3   27.98   17.52
   5  -8   3   43.79   24.70
  -5  -8  -3   79.76   27.06
  -2  11   3   64.42   20.70
   2 -11  -3   77.30   25.67
   2 -11  -3   75.87   27.55
   6   2 -15  357.00   37.26
  -6   2  15  374.46   40.44
   6   2 -15  378.60   43.17
   6  -2 -15  475.08   47.27
  -6   2  15  436.44   53.08
  -6  -2  15  400.70   43.00
   6   2 -15  407.65   46.86
  -6  -2  15  432.73   43.11
  -6  -2  15  377.97   42.41
   6   2 -15  387.94   41.12
   6  -2 -15  344.39   41.30
   0   3 -24   33.19   22.71
   0   3  24   45.97   25.53
   0  -3  24   44.73   20.58
   0   3  24   34.22   19.22
   0  -3 -24   71.06   30.85
   5  -7   8  138.98   29.07
   5  -7   8   62.09   18.11
   5   7   8   89.12   27.88
   5   7   8   89.80   27.28
   5  -7   8  122.17   27.49
   2 -11   2  199.25   34.01
   2 -11   2  219.50   36.91
  -2  11  -2  177.44   31.74
   2 -11   2  197.55   32.22
  -5   2  19  293.66   38.94
   5   2 -19  299.49   47.01
   5  -2 -19  298.12   38.83
   5  -2 -19  256.30   32.92
  -5  -2  19  282.88   38.09
  -5   2  19  284.42   43.46
  -5  -2  19  301.60   37.79
   5   2 -19  303.74   39.50
   5  -2 -19  265.77   38.19
   5   2 -19  250.88   35.94
   5   6 -14  178.88   40.21
   5   6 -14  159.53   29.80
   5  -6 -14  126.83   29.22
   5  -6 -14  144.24   28.72
  -5  -6  14  156.65   31.83
   5  -6 -14  171.36   32.48
  -5   6  14  137.42   30.64
   5   6 -14  155.51   33.88
   5   6 -14  228.22   37.87
   4   0 -22   32.47   20.54
   4   0 -22   35.23   20.32
  -4   0  22   20.54   19.45
   7  -2   2  -10.32   18.12
  -7  -2  -2  -15.33   16.43
   7   2   2   17.76   19.93
  -7  -2  -2   51.76   20.16
   7  -2   2  -40.41   17.59
   7   2   2   22.07   17.21
   7   2   2   17.27   17.01
   2  -5 -22   17.70   18.80
  -2   5  22    7.16   17.37
  -2  -5  22   38.73   21.27
   2   5 -22  -10.42   15.04
  -2  -5  22    7.09   19.04
   2   5 -22   12.83   19.17
  -2   5  22   17.85   18.95
  -2  -5  22    0.16   17.37
   2  -5 -22   -2.44   14.77
   2   5 -22   12.86   21.50
   1  11  -7   83.59   24.67
   1  11  -7  107.35   37.94
   1 -11  -7  145.56   30.79
  -1 -11   7  141.62   30.04
   1 -11  -7  119.27   30.95
   1 -11  -7  155.43   29.30
  -1 -11   7  123.53   27.66
  -6  -6  -3   72.67   29.05
   6  -6   3   78.99   26.77
   6  -6   3   56.51   21.09
   6   6   3   53.26   26.05
  -6  -6  -3   80.55   21.54
   6  -6   3   55.94   23.76
   4   5 -19    2.29   19.96
   4   5 -19  -18.90   17.97
  -4  -5  19  -14.92   20.56
   4   5 -19   13.53   18.62
   4  -5 -19  -14.69   19.07
   4   5 -19   12.87   16.24
  -4   5  19   13.02   20.38
   4  -5 -19   33.41   19.35
  -4  -5  19   29.04   19.96
  -4   5  19   10.33   20.34
   7   1  -8   33.52   19.66
  -7   1   8   60.38   25.85
   7   1  -8    4.27   16.94
   7  -1  -8   14.18   15.93
  -7  -1   8   76.85   26.80
  -7  -1   8   12.54   17.83
  -7   1   8   40.15   23.56
   7  -1  -8   18.06   18.21
   7   1  -8   42.25   22.29
   7  -1  -8   67.93   26.43
  -7  -1   8   22.01   21.08
   2 -10 -11  353.64   37.44
   2 -10 -11  353.18   39.00
  -2 -10  11  362.32   40.21
   2  10 -11  379.13   42.26
  -2 -10  11  346.76   39.03
  -2 -10  11  343.28   38.92
   2 -10 -11  289.82   38.68
   2  10 -11  263.56   74.92
   4  -2  19  112.44   26.92
   4   2  19  187.77   33.43
   4  -2  19  178.00   32.29
  -4   3  21  118.76   28.87
   4  -3 -21   74.58   29.17
   4   3 -21   67.94   31.29
   4   3 -21   53.95   21.17
  -4  -3  21   40.60   18.27
   4  -3 -21   47.11   28.55
   4   3 -21   86.14   33.04
  -4   3  21   75.52   29.00
   5  -5 -16   99.64   29.34
   5   5 -16  115.10   29.68
   5   5 -16   77.97   30.87
  -5  -5  16  144.36   32.04
  -5   5  16  103.73   29.82
   5  -5 -16  114.21   31.08
   5   5 -16  145.62   32.30
  -5   5  16   57.25   23.13
   5   5 -16  133.88   35.72
   4  -9   6  323.70   44.71
   4  -9   6  271.31   34.17
   4   9   6  191.11   69.41
   4   9   6  271.02   36.67
  -4   9  -6  257.33   34.60
   1   0 -25   18.80   18.24
  -1   0  25   36.33   20.34
   1   0 -25   32.55   20.04
  -3   4 -20   57.54   22.55
   3   4  20  118.97   28.24
   3  -4  20  113.71   28.22
   3   4  20   76.59   27.53
  -3  -4 -20   58.36   24.86
  -3  10  -6  224.41   35.23
   3 -10   6  183.88   31.90
   3 -10   6  260.05   35.94
   3 -10   6  235.33   35.52
   3 -10   6  232.62   32.01
  -6  -6   7  219.18   31.39
   6   6  -7  266.36   38.71
  -6  -6   7  252.16   35.51
   6  -6  -7  220.26   32.24
   6  -6  -7  252.06   40.64
  -6  -6   7  254.07   39.58
   6   6  -7  255.94   35.70
   2  -4 -23   84.02   27.55
   2   4 -23   30.94   22.05
  -2  -4  23   91.51   30.24
  -2   4  23   75.10   22.36
   2  -4 -23   76.82   26.11
  -2  -4  23   22.19   17.46
  -2   4  23   71.38   23.83
   2   4 -23   71.51   29.29
   7   0   4  184.70   36.09
   7   0   4   31.30   25.37
  -7   0  -4   93.76   28.24
   0   8  18  230.21   35.75
   0  -8  18  254.00   36.12
   0  -8 -18  227.20   37.36
   0   8 -18  191.54   34.19
   0   8 -18  258.98   35.35
   0  -8  18  274.76   40.04
   0   8  18  281.14   36.39
   0  -8  18  227.23   38.99
   0   8 -18  193.15   31.33
   1   2  24  379.13   41.28
   1   2  24  296.66   36.55
  -1  -2 -24  301.65   40.89
  -1   2 -24  377.66   43.65
   1  -2  24  299.41   38.03
   3   5  19   29.48   16.56
   3  -5  19   95.14   28.12
  -3  -5 -19   63.66   25.26
   3  -5  19   61.23   24.43
  -3   5 -19   59.00   22.83
   3   5  19   22.51   19.86
   6   4   9   99.11   34.12
  -6  -4  -9  122.28   34.13
   6  -4   9   54.16   20.06
   6  -4   9  103.23   27.66
   6   4   9   77.53   29.58
   3 -10  -8  368.30   37.26
   3 -10  -8  435.90   42.28
   3 -10  -8  403.44   42.15
   3  10  -8  260.77   75.41
  -3 -10   8  467.21   42.85
   6   0  12  284.39   35.49
   6   0  12  248.47   36.33
   2 -11  -4  145.38   32.93
   2 -11  -4  176.17   35.23
   2 -11  -4  134.07   31.94
   1  -8 -18   30.98   19.31
  -1   8  18   -8.91   17.40
  -1  -8  18   23.82   23.09
  -1  -8  18   -5.63   20.25
   1   8 -18   26.49   22.19
   1  -8 -18   27.05   17.47
   1   8 -18   15.97   18.13
  -1  -8  18   35.40   19.75
   1   8 -18   10.08   18.38
   2   8  16  430.53   44.43
  -2   8 -16  495.23   57.18
   2  -8  16  349.72   36.93
   2  -8  16  353.95   39.27
   2  -8  16  404.53   42.43
  -2  -8 -16  400.63   40.27
  -4   7 -13  380.56   39.52
   4  -7  13  297.05   37.97
   4   7  13  331.79   38.49
   4   7  13  364.40   40.24
   4   7  13  355.37   73.56
   3  -7  16  171.52   31.16
  -3   7 -16  146.42   30.86
   3   7  16  175.11   33.53
   3  -7  16  153.48   36.31
   4   6  15   15.01   15.99
  -4   6 -15   11.66   16.53
   4   6  15    6.28   14.14
   4   6  15  -20.76   19.81
   4  -6  15   50.41   22.49
  -2   7 -18   84.45   28.91
   2  -7  18  121.17   30.60
   2  -7  18  112.73   26.29
   2   7  18  100.32   28.77
  -2  -7 -18  113.75   28.76
   2   7  18   92.96   24.56
  -4  -1  22   32.15   18.45
   4   1 -22   72.98   31.58
   4  -1 -22   58.22   26.74
  -4   1  22   56.18   19.46
   4   1 -22   36.20   21.35
  -4  -1  22   59.29   26.73
  -4   1  22   14.66   19.79
   7   2  -7   70.49   30.22
  -7  -2   7   46.98   19.29
  -7   2   7   62.16   27.74
   7   2  -7   32.13   18.68
   7  -2  -7   39.73   25.83
  -7  -2   7   57.84   25.46
   7  -2  -7    5.47   17.84
  -7  -2   7    7.97   19.71
   7   2  -7   24.42   17.60
  -7   2   7   10.02   18.41
   3  -4 -22  496.75   45.96
  -3   4  22  416.37   42.38
   3   4 -22  461.19   46.14
  -3  -4  22  404.43   43.61
   3   4 -22  397.29   48.84
   3  -4 -22  417.19   41.23
  -3  -4  22  440.42   47.48
   3   4 -22  365.12   40.48
  -3   4  22  472.09   46.75
  -1   9 -15  358.20   38.88
  -1  -9 -15  214.57   33.69
   1  -9  15  251.03   38.91
  -1   9 -15  249.90   34.48
   1   9  15  245.40   34.36
   1  -9  15  317.08   40.32
  -1   9 -15  168.23   42.99
   1   9  15  251.65   37.36
   1  -9  15  220.30   35.66
   5   6  11   39.50   21.50
   5  -6  11   94.88   27.47
   5   6  11   71.88   23.10
   5  -6  11   79.49   27.20
   5   6  11   94.81   32.84
   5  -8  -7  552.18   48.45
   5  -8  -7  596.19   48.71
  -5  -8   7  487.14   41.60
   5  -8  -7  516.88   44.64
   5   8  -7  332.19   86.69
   5   8  -7  463.90   41.77
   6  -5   7   32.06   20.93
  -6  -5  -7   43.02   25.14
  -6  -5  -7    5.89   17.81
   6   5   7   12.56   16.46
   6  -5   7   24.75   18.73
   2 -11   3  300.87   37.28
   2 -11   3  307.79   43.58
  -2  11  -3  291.39   36.44
   2 -11   3  226.69   34.59
   7  -3  -2  345.42   38.50
   7  -3  -2  280.44   39.50
   7   3  -2  179.26   44.00
   7  -3  -2  280.34   38.55
  -7  -3   2  304.63   40.91
   7   3  -2  311.71   44.24
  -7  -3   2  293.17   38.00
   7   3  -2  264.50   36.48
   3   5 -21   41.57   29.52
  -3   5  21   44.20   27.49
  -3  -5  21    1.18   16.64
   3   5 -21   18.35   18.02
   3  -5 -21   26.04   25.27
  -3  -5  21   18.98   17.63
  -3   5  21    3.89   16.39
   3   5 -21   18.46   19.12
  -3  -5  21    4.53   15.58
   3  -5 -21   34.23   19.79
   0   0 -25   42.57   21.33
   0   0  25   32.96   19.17
  -6  -4  13   37.96   19.37
   6   4 -13   62.65   28.52
   6  -4 -13   41.44   26.36
   6   4 -13  116.54   31.02
  -6   4  13   36.09   17.62
   6   4 -13   35.36   25.60
  -6   4  13   55.21   25.81
   6  -4 -13   89.73   30.22
  -6  -4  13   49.36   19.60
  -7  -3   3   41.31   23.52
  -7  -3   3   14.90   17.59
   7   3  -3   32.23   20.79
   7   3  -3   29.64   18.56
   7  -3  -3   12.40   18.79
   7  -3  -3    7.76   17.95
   7  -3  -3   11.05   16.34
   7   3  -3   24.00    8.79
  -7   3   3   23.66   18.64
   2  -2  23   80.56   27.08
  -2  -2 -23   44.10   27.80
  -2   2 -23   47.89   21.31
   2   2  23   35.99   20.51
   3  -7 -18   16.29   27.31
  -3  -7  18   47.34   20.05
  -3  -7  18   45.39   28.00
  -3  -7  18   24.36   17.13
   3  -7 -18   -2.38   15.12
  -3   7  18   28.83   18.00
  -3   7  18   20.00   20.30
   3   7 -18   40.64   19.02
   3   7 -18   30.59   28.08
   3   7 -18   68.88   27.01
   4  -8 -13   -4.98   17.45
  -4  -8  13    8.34   15.35
   4   8 -13    8.12   15.37
   4   8 -13  -17.29   15.11
  -4  -8  13   26.56   19.94
  -4   8  13   33.17   25.87
   4  -8 -13    3.52   16.53
   4   8 -13   29.56   21.35
  -1   1  25  537.07   44.45
  -1  -1  25  573.31   45.78
   1   1 -25  524.16   46.88
   1  -1 -25  557.73   46.28
  -1   1  25  560.96   48.63
   1   1 -25  670.61   49.37
   1  -1 -25  680.50   56.26
  -6   0  16   32.65   21.71
   6   0 -16   41.00   21.94
  -6   0  16   35.19   20.17
   6   0 -16   66.62   28.40
   5  -2  16  228.17   33.40
   5   2  16  328.20   45.22
   5  -2  16  273.09   36.33
  -7  -3   1   27.27   19.05
  -7  -3   1   -3.36   15.90
   7   3  -1   33.03   28.14
   7   3  -1   36.42   24.39
   7   3  -1    5.92   10.89
   7  -3  -1   34.72   20.41
   7  -3  -1   70.91   28.42
   7  -3  -1   22.13   16.52
   7  -1   4  148.49   36.00
   7  -1   4   94.17   27.70
   7   1   4  118.82   29.28
  -7  -1  -4  114.12   28.61
  -7  -1  -4   98.04   25.42
   7   1   4  151.83   32.09
   7   1   4  125.29   30.93
   1   5  22   -8.86   16.74
  -1   5 -22   46.82   22.00
  -1  -5 -22   -8.22   17.45
   1   5  22    3.64   16.59
   1  -5  22   21.23   22.05
   1  -5  22   25.92   17.87
  -2 -10 -10   55.70   19.33
   2 -10  10  114.69   29.63
   2 -10  10  102.58   28.34
   2 -10  10  103.75   29.57
  -6  -5  11  299.17   38.29
  -6  -5  11  220.36   34.90
   6  -5 -11  223.24   37.78
  -6   5  11  270.72   35.94
   6   5 -11  209.44   35.49
   6   5 -11  185.87   37.19
   6   5 -11  226.55   37.48
   6  -5 -11  183.57   31.51
   5   8   4   91.29   27.63
   5  -8   4  172.76   31.08
  -5  -8  -4  129.43   29.27
   5   8   4  104.23   35.59
   5  -8   4  207.13   34.40
   4   9  -9  594.91   47.96
   4  -9  -9  590.77   50.40
   4  -9  -9  627.65   49.71
   4   9  -9  633.01   48.77
  -4  -9   9  646.71   48.29
   6   1  12   20.41   18.11
   6  -1  12   25.19   18.59
   6   1  12   49.58   24.61
   6  -1  12   26.44   20.71
   1   7 -20  101.71   27.89
   1   7 -20   95.65   28.50
  -1   7  20   86.11   31.81
  -1   7  20  101.90   30.87
  -1  -7  20   91.30   28.57
   1   7 -20   45.70   20.84
   1  -7 -20  118.78   32.53
   5   5  13  103.81   41.17
   5  -5  13  201.22   34.27
   5   5  13  183.31   32.91
   5  -5  13  148.65   27.41
   5   5  13  161.89   33.18
  -3   9 -11    7.71   16.66
   3  -9  11   38.64   26.20
   3   9  11   30.08   21.37
   3  -9  11   98.49   27.45
   3  -9  11    8.00   18.48
   3   9  11   14.71   16.36
   0 -11   8  436.85   44.68
   0  11  -8  337.35   84.25
   0 -11   8  393.56   41.68
   0 -11  -8  439.81   42.89
   0 -11  -8  367.36   38.50
   0  11  -8  383.64   45.16
   7  -3  -4  138.60   31.56
   7   3  -4   53.40   29.58
   7  -3  -4   95.77   28.74
  -7   3   4   30.13   23.87
  -7  -3   4   69.20   30.09
   7   3  -4   78.58   28.54
   7   3  -4   62.49   17.53
  -7  -3   4   81.34   28.79
  -7   0   9   72.58   28.50
   7   0  -9   89.96   28.85
   7   0  -9   45.28   24.43
   7   0  -9   27.97   27.17
  -7   0   9   56.59   27.72
   0   7  20  464.92   47.57
   0  -7  20  491.49   50.54
   0  -7 -20  497.65   47.93
   0  -7  20  415.66   41.94
   0  -7  20  369.13   39.92
   0   7 -20  407.96   41.55
   0   7  20  487.86   49.90
   0   7 -20  431.38   42.08
   0   7 -20  488.27   48.76
  -7  -2  -3   18.53   18.86
   7  -2   3   42.21   21.04
   7  -2   3   71.23   28.28
   7   2   3  119.90   30.93
   7   2   3   21.13   18.11
   7   2   3   54.39   25.76
   3   9 -13   14.43   18.59
  -3   9  13   -0.70   19.34
   3  -9 -13  -21.57   17.50
  -3  -9  13   -7.37   19.05
   3   9 -13   -7.75   14.07
   3   9 -13  -12.31   15.44
   3  -9 -13    5.83   17.31
   3  -9 -13   28.29   23.43
   1 -11   7   31.17   19.13
   1 -11   7   25.40   18.49
   1 -11   7   51.24   21.11
  -1 -11  -7   30.88   21.04
  -1  11  -7   46.15   19.77
  -3   8 -14  275.12   40.35
   3  -8  14  255.10   32.22
   3   8  14  286.16   40.51
   3  -8  14  365.98   40.62
   3   8  14  314.28   38.68
   3  -8  14  255.47   38.87
  -1  10 -12  497.59   45.37
   1 -10  12  464.16   44.23
   1  10  12  477.21   42.74
   1 -10  12  464.84   42.82
  -1 -10 -12  411.14   42.00
  -1  10 -12  316.14   87.84
   1 -10  12  448.98   43.86
   1 -10  12  433.39   43.30
   2   6 -21   17.64   17.80
  -2  -6  21   88.96   23.17
   2  -6 -21   47.95   19.05
  -2  -6  21   87.64   29.20
   2  -6 -21   65.47   25.99
  -2   6  21   59.36   25.51
   2   6 -21   88.08   31.42
   2   6 -21   74.42   33.41
  -2   6  21   62.84   22.92
  -2  -6  21  107.71   26.44
   0   1  25  435.42   43.85
   0   1 -25  428.99   45.47
   0  -1 -25  459.07   45.69
   0  -1  25  411.87   42.54
   7   3   0   52.61   26.31
  -7  -3   0  112.84   29.89
   7   3   0   91.68   28.07
   7  -3   0  103.43   26.51
   7  -3   0   80.75   25.75
  -7  -3   0   87.34   27.04
   7   3   0   97.47   29.10
   7  -3   0   62.07   22.70
   2 -11  -5  530.56   46.55
   2 -11  -5  582.64   48.76
   2 -11  -5  584.61   52.62
   1  -4  23  138.09   31.50
  -1   4 -23  154.21   31.89
   1  -4  23  141.14   29.12
  -1  -4 -23  205.04   40.90
   1   4  23  147.45   29.05
   1   4  23  162.03   31.66
   1   4  23  154.46   31.02
  -6   1  16  306.90   45.02
   6  -1 -16  263.94   39.12
  -6  -1  16  318.64   45.42
   6   1 -16  268.28   36.84
  -6   1  16  225.22   34.30
  -6  -1  16  332.93   42.44
   6   1 -16  350.50   51.01
   6  -1 -16  303.72   41.11
   6   1 -16  233.21   31.68
  -2  -9  15   67.46   30.48
   2   9 -15   77.72   28.38
  -2  -9  15   79.75   28.05
  -2  -9  15   96.00   31.71
   2  -9 -15   58.29   21.55
   2   9 -15   99.78   30.01
   2  -9 -15   32.77   20.88
  -2   9  15   65.44   24.95
   6   6   4   26.24   18.39
   6  -6   4   -0.41   17.81
   6  -6   4   19.44   15.32
   6  -6   4   27.42   16.33
  -6  -6  -4    0.54   20.08
  -6  -6  -4   -3.40   18.16
   3   8 -16  101.26   28.09
   3  -8 -16   83.38   27.34
  -3  -8  16  102.54   32.93
  -3  -8  16   35.38   23.32
  -3  -8  16   54.97   19.46
   3  -8 -16   41.20   19.48
  -3   8  16   59.54   29.09
   3   8 -16   72.99   24.47
  -3  -3 -21   81.04   26.52
   3   3  21   45.60   19.01
  -3   3 -21   46.67   21.77
   3  -3  21   64.38   23.93
   3   3  21   41.29   21.42
   3  -3  21   18.22   16.30
  -7  -3   5   70.01   27.59
   7   3  -5   44.74   20.49
   7  -3  -5   75.02   29.38
   7   3  -5  103.00   33.03
   7   3  -5    8.10    4.96
  -7  -3   5   18.40   19.56
  -7   3   5   84.86   24.31
   7  -3  -5   78.24   28.88
   2   5  21   68.05   29.27
  -2   5 -21   89.34   30.87
  -2  -5 -21    7.91   17.65
   2   5  21    2.69   15.77
   2  -5  21   20.16   26.26
  -6  -6   8  351.68   42.34
   6  -6  -8  407.37   42.01
  -6  -6   8  361.14   37.90
   6   6  -8  383.63   38.90
   6   6  -8  474.78   53.65
   6  -6  -8  408.21   39.14
   2 -11   4  413.96   41.25
   2 -11   4  391.38   42.22
  -2  11  -4  409.73   42.48
   2 -11   4  409.88   42.37
  -7   1   9   42.87   18.73
  -7  -1   9   60.73   30.22
   7  -1  -9   34.65   20.84
   7   1  -9   36.63   27.15
  -7  -1   9   34.86   18.52
   7   1  -9   69.83   25.58
  -7   1   9   30.55   18.25
   7  -1  -9  122.40   31.54
   7   1  -9   93.31   34.63
   0  -9  16  385.90   44.61
   0   9  16  333.98   50.07
   0  -9 -16  357.94   43.93
   0   9 -16  325.06   42.03
   0  -9  16  413.03   42.44
   0   9 -16  349.11   47.53
   0  -9  16  373.35   42.88
   0   9  16  299.46   38.73
   0   9 -16  168.80   72.73
   5   7 -12   16.22   22.11
  -5  -7  12   33.35   26.76
  -5   7  12   28.51   18.67
   5   7 -12    3.06   17.79
   5  -7 -12    2.82   15.68
   5  -7 -12    9.69   16.50
   5  -7 -12   35.35   18.61
   5   7 -12   21.94   13.61
  -1   6 -21  166.28   35.10
   1   6  21  177.90   33.99
   1   6  21  149.29   34.06
   1  -6  21  184.07   35.03
   1  -6  21  230.56   40.89
  -1  -6 -21  136.10   30.61
  -7   2   8   55.44   24.47
   7  -2  -8   41.53   25.05
  -7   2   8   71.17   21.89
   7   2  -8   47.85   19.62
  -7  -2   8   75.73   27.06
   7   2  -8   36.45   22.69
  -7  -2   8   37.54   20.53
  -7  -2   8   44.87   16.49
   7   2  -8   81.70   28.49
  -3   3  23  210.27   32.88
  -3   3  23  176.62   35.06
   3  -3 -23  186.20   33.77
   3   3 -23  243.07   40.95
  -3  -3  23  177.07   32.12
   3  -3 -23  164.00   31.30
   3   3 -23  233.24   39.28
   1 -11  -8  110.74   29.43
  -1 -11   8  181.01   32.86
  -1 -11   8  135.34   30.02
   1  11  -8  126.99   29.29
   1  11  -8  102.25   24.76
   1 -11  -8  162.35   32.20
   3   6  18   20.39   20.59
  -3   6 -18   47.93   22.56
   3  -6  18   -5.78   16.32
   3  -6  18   19.92   24.81
   3   0  22  997.37   61.82
  -3   0 -22  952.34   57.99
   0  10  13  725.79   50.90
   0 -10 -13  780.52   55.89
   0  10 -13  596.26  147.94
   0 -10  13  675.13   49.58
   0  10 -13  509.54  146.40
   0 -10  13  744.10   52.96
   0 -10  13  711.35   52.51
   0  10 -13  803.86   61.71
   4   7 -16  348.88   43.88
   4   7 -16  321.40   37.07
   4  -7 -16  356.40   41.03
  -4  -7  16  322.51   41.08
   4  -7 -16  328.32   39.94
   4   7 -16  335.20   42.00
  -4   7  16  330.06   42.37
  -4  -7  16  384.21   48.51
  -2  -4 -22   55.96   20.75
   2   4  22   74.67   28.76
   2  -4  22   62.77   19.68
   2   4  22   17.24   16.09
   2   4  22   94.46   27.17
   2  -4  22   73.08   18.86
  -2   4 -22   46.18   20.62
  -2  -3  24   99.50   30.45
  -2   3  24   95.22   27.10
   2   3 -24   98.65   28.53
  -2   3  24  168.03   33.73
   2  -3 -24  121.70   28.64
   2   3 -24  138.78   29.63
  -1  -9  16  116.33   29.87
  -1  -9  16  107.98   32.03
  -1   9  16  111.18   33.27
   1  -9 -16   83.41   25.10
  -1  -9  16   60.18   26.20
   1   9 -16   90.84   23.36
   1   9 -16  145.73   33.69
   1  -9 -16  102.54   28.01
   1   9 -16  113.14   29.51
   7   3   1  217.37   34.17
   7   3   1  206.46   36.51
  -7  -3  -1  231.01   34.07
  -7  -3  -1  159.32   32.07
   7   3   1  227.23   39.46
   7  -3   1  261.86   41.97
   7  -3   1  262.44   41.86
   5   0 -20   42.86   19.34
   5   0 -20    6.57   19.15
  -5   0  20   17.97   19.21
  -5   0  20   16.58   17.76
   7   0   5   14.68   26.31
   7   0   5   -9.16   17.24
   5   8  -8  428.17   45.79
   5  -8  -8  330.35   42.56
  -5  -8   8  358.28   40.49
   5   8  -8  207.53   78.49
   5  -8  -8  363.53   40.84
   5  -8  -8  312.80   35.12
   4  -9   7  523.16   45.62
   4   9   7  500.74   41.89
   4   9   7  319.16  131.94
   3 -10   7   20.03   15.99
  -3  10  -7   72.63   27.49
   3 -10   7   81.17   27.51
   3 -10   7   69.39   21.36
   3 -10   7   49.21   20.19
   3   6 -20   27.41   19.27
   3   6 -20    6.27   20.42
   3  -6 -20   -0.53   19.04
  -3  -6  20   25.22   28.67
  -3   6  20   14.90   21.15
   3   6 -20    7.61   16.94
   3  -6 -20    8.33   16.05
  -3   6  20    7.99   21.70
  -3  -6  20   17.08   19.64
  -3  -6  20   -4.17   17.49
   4   4  18 1222.93   62.77
   4   4  18 1137.51   62.49
   4  -4  18 1258.90   66.95
   4   4  18 1068.74   63.51
  -4  -6  18   89.73   28.87
   4   6 -18  104.59   32.57
   4  -6 -18   34.68   27.71
  -4  -6  18   77.12   22.54
   4   6 -18   54.07   21.61
   4   6 -18   92.57   26.93
   4   6 -18   80.91   29.22
   4  -6 -18   78.93   31.57
  -4   6  18    8.74   22.04
  -4   6  18   59.07   21.77
   3 -10  -9  185.03   31.99
   3  10  -9  133.01   55.56
   3 -10  -9  209.00   35.49
   3 -10  -9  196.79   36.91
  -3 -10   9  234.20   35.05
   6   3  11  537.53   83.32
  -6  -3 -11  751.17   51.43
   6  -3  11  682.78   51.77
   6  -3  11  602.44   49.12
   6   3  11  747.71   59.99
   3   0 -24  683.60   51.80
  -3   0  24  756.83   57.30
   3   0 -24  781.71   57.75
  -3   0  24  714.93   51.10
   4   2 -22   92.17   29.14
   4   2 -22  115.38   34.41
   4  -2 -22   38.89   20.82
   4  -2 -22   34.71   21.65
  -4   2  22   13.02   18.41
  -4   2  22   77.37   26.85
  -4  -2  22   38.67   21.96
   5  -7   9   88.52   25.47
   5  -7   9  155.68   33.41
   5   7   9   63.71   23.39
   5   7   9   80.70   27.10
   5   7   9   94.24   25.06
   5  -7   9  122.59   29.01
  -1 -10  13  840.85   59.22
  -1 -10  13  768.83   53.28
   1 -10 -13  751.02   55.35
   1  10 -13  803.60   57.03
   1 -10 -13  759.36   55.39
   1  10 -13  727.22   52.15
  -1 -10  13  647.77   48.45
   1  10 -13  509.52  130.78
   7   3  -6   88.35   31.38
   7   3  -6  100.34   29.63
   7  -3  -6   85.80   27.97
  -7  -3   6   67.98   29.59
   7  -3  -6   71.08   27.37
  -7  -3   6   62.87   21.40
  -7   3   6  105.67   28.84
   5  -8   5   66.16   20.28
   5   8   5   77.49   26.33
   5  -8   5   29.95   19.21
   5   8   5   62.69   29.87
  -5  -8  -5   86.76   26.56
   3  -1  22   69.18   22.74
  -3  -1 -22   80.73   25.86
  -3   1 -22  127.36   29.82
   3   1  22  113.04   31.51
   2  -9  14  286.31   34.96
  -2  -9 -14  335.03   38.64
   2  -9  14  416.89   44.82
   2  -9  14  367.08   42.12
  -2   9 -14  409.16   42.84
   2   9  14  343.23   38.16
   2  -9  14  400.76   43.51
  -2   9 -14  236.75   67.81
   4  -8  11   10.42   18.06
   4   8  11   29.09   24.23
   4   8  11   -9.36   18.62
   4  -8  11   19.92   16.74
   4  -8  11   34.64   16.15
   1   2 -25  217.74   33.46
  -1  -2  25  235.40   35.71
   1   2 -25  177.83   34.97
  -1   2  25  184.38   32.90
   1  -2 -25  219.05   36.52
  -1   2  25  174.83   30.35
   2 -11  -6  269.00   40.96
   2 -11  -6  267.69   41.36
   2 -11  -6  245.06   35.79
  -5  -1  20   16.38   18.22
   5  -1 -20   22.33   23.08
   5   1 -20    9.16   18.76
  -5  -1  20  -14.25   14.80
  -5   1  20  -10.51   17.59
   5   1 -20    6.17   19.75
  -5   1  20   -7.58   17.42
   5   1 -20   10.22   19.04
   5  -1 -20   -2.38   20.11
   7   1   5  140.05   31.07
  -7  -1  -5  139.83   28.51
   7  -1   5  121.73   33.97
   7   1   5  116.17   28.32
   7   1   5  111.29   28.57
   7  -1   5  144.84   34.02
   5   4 -18  145.18   30.75
  -5   4  18  167.42   35.74
   5  -4 -18  174.43   34.90
  -5   4  18  139.21   37.28
   5  -4 -18  106.13   34.04
   5   4 -18  170.42   33.99
   5   4 -18  110.02   26.67
   5   4 -18  166.75   39.70
  -5  -4  18  140.42   30.05
   7   2   4   46.96   29.71
  -7  -2  -4    0.01   19.92
  -7  -2  -4   25.90   21.36
   7   2   4   58.17   24.00
   7  -2   4   72.66   27.10
   7  -2   4   13.71   19.25
   7   2   4   54.89   25.67
   2   0 -25  193.17   35.59
  -2   0  25  181.52   32.45
   6  -3 -15  183.64   37.80
  -6  -3  15  179.88   33.44
  -6   3  15  217.66   41.03
   6   3 -15  190.52   37.46
   6  -3 -15  165.57   33.77
   6   3 -15  242.92   40.06
  -6   3  15  205.21   36.11
   6   3 -15  151.99   32.45
  -6  -3  15  200.40   35.85
   6  -2  12   28.89   21.84
   6  -2  12   68.43   26.37
   6   2  12   41.14   21.80
   4   5  17  224.13   36.97
   4  -5  17  143.40   27.62
   4   5  17  157.97   30.34
   4   5  17  231.10   42.21
   4  -5  17  212.33   33.63
   2  -6  20  214.95   34.51
   2   6  20  183.03   33.66
   2  -6  20  176.62   30.82
  -2  -6 -20  166.56   33.38
   2   6  20  200.31   37.13
  -2   6 -20  184.77   36.17
   5   3 -19  729.37   56.59
  -5   3  19  692.90   52.83
   5   3 -19  788.19   64.69
   5   3 -19  638.73   50.54
  -5   3  19  652.02   55.04
   5  -3 -19  675.38   54.03
   5  -3 -19  677.37   53.66
  -5  -3  19  700.66   53.03
   3   1 -24  484.63   48.84
  -3   1  24  483.98   43.94
   3  -1 -24  483.66   47.25
  -3  -1  24  430.65   44.53
   3   1 -24  423.04   43.71
   3  -1 -24  364.42   40.00
   2  10 -12  103.27   32.79
   2 -10 -12   77.36   30.55
  -2 -10  12   98.55   29.68
   2  10 -12   81.20   29.65
  -2 -10  12   55.66   20.69
   2 -10 -12  125.13   30.55
  -2 -10  12   52.96   19.36
   2 -10 -12   70.22   20.40
  -1   5  23   71.39   29.90
   1   5 -23   18.76   18.17
   1  -5 -23    8.58   21.17
  -1  -5  23   15.70   23.79
   1   5 -23   24.66   19.63
  -1  -5  23   17.45   19.86
  -1   5  23   81.59   28.96
  -7   0  10   31.62   20.78
   7   0 -10   87.64   29.38
   7   0 -10   39.08   18.80
  -7   0  10   85.82   29.10
   7   0 -10   84.77   28.84
   7  -3   2   76.65   28.48
   7  -3   2   79.06   32.86
  -7  -3  -2   76.02   27.14
   7   3   2   46.92   27.94
   7   3   2   39.18   19.97
   7   3   2  105.51   27.65
  -7  -3  -2   45.12   22.56
   2 -11   5  410.47   42.79
   2 -11   5  466.86   44.26
   2 -11   5  425.35   45.92
  -2  11  -5  417.23   42.80
   6   5   8  105.93   32.38
   6   5   8  141.21   30.56
   6  -5   8  115.24   30.08
  -6  -5  -8  172.26   32.05
   6  -5   8  134.56   29.89
   4  -9 -10  867.56   58.27
  -4  -9  10  787.69   54.55
   4  -9 -10  834.17   55.23
   4   9 -10  757.06   55.22
   4   9 -10  864.64   57.57
   4   0  20    2.95   19.18
   0   2  25  498.98   47.20
   0   2 -25  500.58   47.34
   0  -2 -25  482.55   48.61
   0  -2  25  450.63   46.15
   5   0  17   21.90   18.47
   4  -3  19  506.66   47.47
   4   3  19  558.52   47.04
   6  -6   5   44.84   20.71
  -6  -6  -5   94.73   31.13
   6   6   5   21.34   16.77
   6  -6   5   33.79   21.92
  -6  -6  -5   28.41   21.88
   6  -6   5   25.06   15.25
  -5  -6  15  -21.98   16.36
   5  -6 -15    3.40   20.07
   5   6 -15    6.03   19.60
   5   6 -15   33.45   19.63
  -5   6  15   -9.70   20.33
   5  -6 -15   18.80   21.63
   5   6 -15    4.91   15.97
   5   6 -15   21.36   19.17
  -6  -2  16  127.68   28.26
   6   2 -16  176.13   41.05
   6  -2 -16  179.00   33.89
  -6  -2  16  226.56   36.83
   6   2 -16  193.11   41.20
  -6  -2  16  202.09   34.86
  -6   2  16  216.45   37.91
  -6   2  16  168.90   33.43
   6   2 -16  192.05   32.98
   6  -2 -16  134.89   28.57
   0  11  -9  326.94   41.46
   0 -11   9  347.01   41.63
   0  11  -9  213.43   59.98
   0 -11   9  366.58   41.32
   0 -11  -9  361.71   41.00
   1 -11   8  355.37   40.27
   1 -11   8  404.09   41.32
   1 -11   8  453.37   50.94
  -1  11  -8  390.97   40.99
  -1 -11  -8  432.02   43.56
   6  -4  10  952.56   58.11
  -6  -4 -10  869.90   59.07
   6   4  10  972.50   60.66
   6  -4  10 1054.64   62.08
   6   4  10  603.65  183.85
  -2  -1  25  309.90   40.13
  -2   1  25  313.81   43.37
   2  -1 -25  333.61   47.75
   2   1 -25  310.73   41.15
   1  -3  24   40.72   19.86
  -1  -3 -24   66.65   29.08
   1   3  24   58.92   19.94
   1   3  24   48.14   17.96
  -1   3 -24   75.49   25.92
   0   5 -23   90.54   27.01
   0  -5  23   90.69   24.68
   0   5  23  130.32   36.25
   0  -5 -23  120.30   33.50
   0   5  23   92.33   27.62
   0   5 -23   77.35   34.26
   0  -5  23   43.28   26.56
   6   6  -9  315.25   42.39
   6   6  -9  172.10   29.50
  -6  -6   9  199.67   36.94
  -6  -6   9  190.17   31.14
   6  -6  -9  168.45   30.62
   6  -6  -9  288.10   39.34
   1  -8  18  712.23   54.90
  -1   8 -18  632.98   50.54
  -1  -8 -18  645.94   51.15
   1   8  18  753.06   56.26
   1   8  18  696.17   52.91
   1  -8  18  654.28   51.18
  -1   8 -18  640.61   49.34
   6  -5 -12  553.31   50.74
  -6  -5  12  522.53   46.43
   6  -5 -12  540.57   47.91
   6   5 -12  585.72   53.83
   6   5 -12  525.11   56.19
  -6  -5  12  501.40   44.94
   6   5 -12  517.45   48.35
  -6   5  12  476.26   47.46
   7   2  -9   64.15   27.68
  -7  -2   9    8.42   20.16
  -7   2   9   -0.24   16.62
  -7  -2   9   28.78   19.72
  -7  -2   9    1.87   13.87
   7   2  -9   46.73   23.55
   7  -2  -9  -20.34   17.88
   7  -2  -9   24.45   18.79
  -7   2   9    3.86   13.88
   7   2  -9    5.87   16.93
  -2   8  18   29.59   28.78
   2   8 -18   71.81   30.04
   2   8 -18   67.53   27.60
  -2   8  18   73.79   25.77
   2  -8 -18   15.56   18.07
   2  -8 -18   -3.67   19.15
  -2  -8  18   30.55   23.46
   2   8 -18   20.55    7.28
  -2  -8  18   21.74   19.87
  -1   4  24   57.62   20.01
  -1   4  24   42.76   22.17
   1   4 -24   55.30   21.50
   1   4 -24   46.00   26.16
   1  -4 -24   33.14   23.20
  -1  -4  24   51.74   21.91
   7  -3  -7  160.89   31.77
  -7  -3   7  164.63   34.38
  -7  -3   7  161.82   36.17
   7   3  -7  161.51   32.05
   7   3  -7  193.36   35.08
  -7   3   7  165.38   31.88
  -7  -3   7  146.53   32.22
   7  -3  -7  184.51   33.20
   7   1 -10   31.50   24.92
   7   1 -10   39.47   27.05
   7  -1 -10   28.80   19.11
  -7   1  10   33.85   20.15
  -7  -1  10   29.75   19.08
  -7   1  10   19.05   19.38
   7   1 -10   51.65   23.50
  -7  -1  10   80.73   28.61
   7  -1 -10   30.07   19.47
   5   4  15  157.50   47.23
   5  -4  15  293.00   37.88
   5   4  15  287.26   37.54
   5  -4  15  229.53   32.49
   5   4  15  262.09   35.79
   6  -4 -14   17.21   21.20
  -6   4  14   37.06   16.94
  -6  -4  14   49.21   22.48
  -6   4  14   87.64   27.36
   6   4 -14   21.00   19.43
  -6  -4  14   34.88   18.47
   6   4 -14   34.64   20.53
   6  -4 -14   28.83   20.59
   6   4 -14   36.39   25.93
   4   1  20   13.94   19.75
   4  -1  20    2.33   16.21
   5   1  17   74.92   30.87
   5  -1  17   63.44   25.77
   2  -3  23   41.81   19.83
   2   3  23   40.50   22.02
  -2  -3 -23   10.52   18.98
  -2   3 -23   26.95   21.44
   2   3  23   20.79   16.93
  -2  10 -11   76.19   28.38
   2 -10  11  107.13   29.66
   2 -10  11   69.89   21.07
  -2  10 -11   69.03   18.78
   2 -10  11   71.29   27.14
  -1  -6  22  135.09   27.65
   1   6 -22  147.47   26.09
   1   6 -22  198.94   33.80
  -1   6  22  205.15   31.99
  -1  -6  22  195.14   33.14
  -1   6  22  166.49   30.99
  -1  -6  22  195.79   35.16
   1  -6 -22  167.02   34.95
   5   3  16   97.17   29.88
   5  -3  16  105.63   29.85
   5   3  16   56.52   22.39
  -4  -8  14  105.02   30.72
  -4   8  14   78.58   24.07
   4   8 -14   37.50   20.92
   4   8 -14   62.78   19.94
   4  -8 -14  126.13   31.00
  -4  -8  14   50.60   24.48
   4  -8 -14   57.97   24.98
   5  -8  -9   32.83   24.94
   5  -8  -9   43.25   22.00
   5   8  -9   14.78   14.99
   5  -8  -9   30.11   19.03
   5   8  -9   27.40   20.31
  -5  -8   9   27.20   18.90
   5  -6  12   19.34   17.87
   5   6  12  -15.38   19.67
   5   6  12  -14.92   14.36
   5  -6  12   30.60   18.40
   5   6  12   17.89   21.27
  -2   7  20   16.82   21.74
  -2  -7  20   22.48   17.33
  -2  -7  20   52.55   24.77
   2  -7 -20   14.41   17.52
   2   7 -20   20.86   10.62
   2   7 -20   -6.54   19.58
  -2  -7  20   38.30   29.53
   2  -7 -20   35.13   26.59
   5  -5 -17   24.47   21.30
   5  -5 -17  -12.69   19.37
   5   5 -17   34.00   26.99
  -5   5  17    4.51   17.68
  -5  -5  17   25.46   22.12
   5   5 -17   19.33   22.83
   5   5 -17    7.48   15.83
  -5   5  17   61.06   27.41
   5   5 -17   28.47   31.80
   0   4 -24   76.88   25.90
   0  -4  24  102.73   30.69
   0  -4 -24  131.19   30.23
   0   4  24   94.06   24.07
   1 -11  -9  158.69   32.02
   1  11  -9  171.63   33.05
  -1 -11   9  123.77   29.62
   1  11  -9   88.88   34.50
   1 -11  -9  112.98   28.54
   7   0   6  340.61   40.04
   7   0   6  384.91   41.91
   6   0  13  174.77   32.86
   6   0  13  170.64   31.38
   2 -11  -7   53.94   20.23
   2 -11  -7   36.26   26.93
   0  -6 -22   34.94   26.14
   0  -6  22   76.66   22.94
   0  -6  22   22.00   20.03
   0   6 -22   33.82   18.11
   0   6 -22   34.55   23.27
   0   6  22   47.02   22.60
   0   6  22   65.11   27.18
   7   3   3  245.68   36.39
   7   3   3  210.11   37.37
   7  -3   3  209.43   34.73
  -7  -3  -3  195.10   36.59
  -7  -3  -3  204.33   33.99
   7  -3   3  233.06   38.16
   4   7  14  165.86   33.31
   4  -7  14  139.92   29.92
   4  -7  14  189.43   34.60
   4   7  14  124.39   32.18
  -3   9 -12  162.99   33.17
   3  -9  12  137.91   29.80
   3  -9  12  124.96   32.15
   3   9  12  109.31   25.85
   3  -9  12  157.65   33.55
   3   9  12  103.90   23.15
   1   0  25   31.84   24.18
  -1   0 -25   -3.68   20.76
   1  -7  20   54.74   27.73
  -1   7 -20   19.37   19.43
   1   7  20    8.53   16.91
   1  -7  20   32.88   21.30
  -1  -7 -20   37.76   27.18
   1   7  20   60.16   26.33
  -3  -2 -22  131.35   29.98
   3   2  22  165.89   32.31
  -3   2 -22  183.41   34.71
   3  -2  22  196.26   36.30
  -4   4  21  202.54   33.40
   4   4 -21  170.91   37.35
   4   4 -21  156.05   33.81
  -4   4  21  141.78   32.72
  -4  -4  21  136.68   31.87
   4  -4 -21  142.82   32.81
   4  -4 -21  123.67   31.80
   3 -10   8  122.74   29.60
   3 -10   8  169.20   34.29
  -3  10  -8   72.88   26.70
   3 -10   8  144.98   30.00
   5   8   6   27.03   17.80
   5  -8   6   -2.94   18.41
   5  -8   6    0.65   15.83
   5   8   6    9.21    6.91
   4   9   8  632.27   50.78
   4   9   8  498.00   43.31
   4  -9   8  495.47   45.40
   4  -9   8  507.76   50.27
   5   2 -20  133.51   31.44
   5   2 -20  115.55   27.45
  -5  -2  20  133.77   31.76
  -5   2  20  137.39   32.94
   5  -2 -20  111.47   33.77
  -5   2  20  108.67   29.85
   5   2 -20  104.55   30.64
  -5  -2  20   82.52   26.82
   5  -2 -20  136.55   34.32
   7   2   5   37.52   22.91
   7   2   5   47.88   20.55
  -7  -2  -5   56.37   22.29
   7  -2   5   82.54   27.35
  -7  -2  -5   51.68   23.75
   7  -2   5   58.32   21.95
   3   9 -14  314.19  110.30
   3  -9 -14  508.86   47.90
   3  -9 -14  452.12   43.45
   3   9 -14  498.64   54.99
  -3  -9  14  609.60   57.49
   3   9 -14  481.95   44.00
  -3  -9  14  511.62   46.17
  -3 -10  10  784.17   55.91
   3  10 -10  490.69  170.11
   3 -10 -10  815.71   56.04
   3 -10 -10  826.24   56.78
   2   0  24   44.99   21.25
  -2   0 -24    7.17   21.07
   6   0 -17  220.71   42.93
  -6   0  17  228.79   40.37
  -6   0  17  202.37   36.45
   6   0 -17  185.02   37.56
   1 -10  13  630.02   53.46
  -1  10 -13  317.78  146.69
  -1  10 -13  571.77   48.37
   1 -10  13  517.04   47.97
   1 -10  13  473.93   46.34
   1  10  13  495.75   45.43
  -1 -10 -13  596.14   55.36
   5  -7 -13    4.29   16.71
   5  -7 -13    8.51   19.12
   5   7 -13   26.98   17.45
   5   7 -13   17.02   21.53
  -5  -7  13    4.93   17.86
  -5   7  13    9.43   17.84
   5   7 -13    5.59   12.04
  -2  11  -6   22.10   18.46
   2 -11   6   41.94   20.54
   2 -11   6   23.82   16.94
   7   1   6   58.24   21.84
   7   1   6   45.84   27.58
   7  -1   6   69.04   31.25
   7   1   6   35.78   18.66
   7  -1   6   -6.46   18.79
   1  -9  16  388.84   43.76
   1   9  16  486.82   45.68
   1  -9  16  391.27   43.91
   1   9  16  382.33   39.18
  -1   9 -16  446.60   43.97
  -1  -9 -16  361.97   42.63
   1  -9  16  504.02   51.83
  -1   9 -16  259.28   62.23
  -1   9 -16  399.62   41.73
   6  -1  13   79.92   30.45
   6   1  13  139.02   33.04
  -3  -2  24  113.05   28.30
   3   2 -24   21.05   21.52
   3  -2 -24   73.58   24.11
  -3   2  24   77.01   28.35
   4 -10  -1   20.16   15.75
   4 -10  -1   16.58   17.74
   4 -10  -1   38.83   27.90
   6  -7  -2  432.20   43.25
  -6  -7   2  377.99   47.84
  -6  -7   2  443.04   43.03
   6   7  -2  269.27   83.13
   4 -10  -2   22.25   18.12
   4 -10  -2   30.81   19.07
   4 -10  -2   11.57   17.25
   4   5 -20   35.70   18.03
  -4   5  20   80.35   29.44
  -4  -5  20   24.58   18.98
  -4  -5  20   86.27   33.48
  -4   5  20   26.27   19.48
   4   5 -20   40.77   25.43
   4   5 -20   18.82   21.10
   4   5 -20   70.63   25.98
   4  -5 -20   61.63   29.65
   4  -5 -20   43.04   20.90
   4   6  16   14.18   18.46
   4  -6  16   34.29   20.23
   4   6  16  -13.85   16.94
   4   6  16   15.38   15.47
   4  -6  16   40.88   20.71
   2   8  17  386.59   42.60
   2   8  17  299.69   38.40
  -2   8 -17  314.62   38.85
  -2  -8 -17  325.22   41.31
   2  -8  17  336.92   36.09
   2  -8  17  409.09   42.38
  -6  -7   1  372.55   44.85
  -6  -7   1  363.12   39.96
   6  -7  -1  368.54   45.89
   6   7  -1  241.60   79.96
   7  -4  -2   30.61   20.84
  -7  -4   2   43.77   21.29
   7   4  -2   27.58   18.41
   7  -4  -2   63.74   25.76
   7   4  -2   59.90   20.59
   7   4  -2   52.52   30.70
  -7  -4   2   76.08   27.32
   6   7  -3  221.81   33.60
   6  -7  -3  260.00   38.85
  -6  -7   3  210.40   33.76
   6   7  -3  136.53   50.52
   5   5  14   -3.47   18.36
   5   5  14    0.48   17.61
   5  -5  14    7.65   19.17
   5   5  14    6.45    7.14
   5  -5  14    2.90   19.05
  -7   3   8    4.70   17.80
  -7  -3   8   10.10   17.93
   7   3  -8   22.26   19.28
   7  -3  -8    0.77   17.39
   7   3  -8    1.97   16.47
  -7  -3   8  -10.66   18.35
   7   3  -8   45.20   21.41
  -7  -3   8   22.01   20.75
   4 -10   0  144.83   37.65
   4 -10   0  126.39   31.70
  -1   1 -25   -2.47   20.59
  -1  -1 -25   10.37   22.06
   1   1  25   33.48   26.49
   1  -1  25    9.82   20.14
   7  -4  -3   48.81   25.65
  -7  -4   3  159.14   37.15
  -7  -4   3   82.91   28.39
   7   4  -3   93.97   31.31
   7  -4  -3   65.68   23.58
   7   4  -3   49.84   24.40
   7   4  -3   67.10   20.17
   3  -7  17  123.19   30.55
  -3   7 -17   51.10   27.28
   3  -7  17   82.59   29.33
   3   7  17  110.89   30.01
  -6  -6  -6  122.93   32.08
   6   6   6   81.04   28.67
   6  -6   6   56.18   19.65
   6  -6   6   78.81   21.94
   1  -8 -19   34.35   19.32
  -1  -8  19   12.02   21.31
  -1  -8  19   25.24   16.83
  -1  -8  19   42.41   21.73
  -1   8  19   62.12   27.16
   1   8 -19   21.17   25.06
   1   8 -19   39.85   26.05
  -1   8  19   54.91   22.41
   7   4  -1   21.72   16.23
   7   4  -1   27.94   19.21
   7  -4  -1   13.86   18.76
  -7  -4   1   13.93   19.74
   7  -4  -1   17.74   17.75
  -7  -4   1   47.06   25.92
   7   4  -1   18.77   19.36
   4 -10  -3   23.96   18.26
   4 -10  -3   44.66   26.30
   4 -10  -3    3.89   17.15
   0   8 -19   18.17   18.71
   0  -8  19   19.24   17.42
   0   8 -19   13.04   17.43
   0   8  19  -13.59   17.36
   0   8 -19   22.33   22.88
   0  -8 -19    6.77   20.39
   0  -8  19   35.20   18.23
   0  -8  19   19.93   22.35
   0   8  19    7.40   21.24
   7   0 -11   -2.94   17.52
  -7   0  11    6.08   19.69
   7   0 -11    3.28   17.48
  -7   0  11    9.29   16.95
   2  -2 -25    8.04   18.96
   2   2 -25   33.55   29.38
  -2  -2  25   15.49   17.39
  -2   2  25    9.31   18.55
   2   1  24   71.69   26.16
  -2   1 -24   28.78   22.11
   2  -1  24   24.99   19.01
  -2  -1 -24   14.55   19.59
   6   1 -17   42.97   36.14
  -6  -1  17   74.16   30.44
   6  -1 -17   41.09   21.66
  -6   1  17   22.25   18.81
  -6   1  17   63.41   29.46
  -6  -1  17   49.62   28.97
   6   1 -17   53.18   30.04
   6  -1 -17   50.87   24.21
   6   7   0   83.40   28.93
  -6  -7   0  146.26   32.51
  -6  -7   0  115.51   33.93
   6  -7   0  126.92   28.51
  -3   8 -15  185.86   38.93
   3  -8  15  206.77   34.40
   3   8  15  251.75   37.80
   3  -8  15  293.09   42.25
   7   4  -4  142.18   34.82
  -7  -4   4  161.14   35.49
   7   4  -4  201.25   33.95
   7  -4  -4  198.58   35.66
   7   4  -4  145.34   35.04
  -7  -4   4  256.42   42.82
   7  -4  -4  142.66   31.17
  -3   7  19   -1.29   18.40
  -3  -7  19   14.81   18.11
   3   7 -19   16.60   17.56
  -3   7  19   51.17   26.45
  -3  -7  19   20.21   19.31
  -3  -7  19   44.04   19.82
   3   7 -19   14.57   20.59
   3  -7 -19   34.71   21.80
   3   7 -19   10.54   18.75
   5   7  10  202.17   35.15
   5   7  10  277.32   36.21
   5  -7  10  229.86   33.56
   5   7  10  104.55   40.65
   5  -7  10  192.13   35.49
  -2  -9  16  166.76   29.51
  -2   9  16  198.13   34.68
   2   9 -16  188.09   33.03
   2   9 -16  166.09   34.81
   2  -9 -16  143.65   32.43
  -2  -9  16  140.06   33.26
   2   9 -16  208.11   35.71
   2  -9 -16  140.52   31.04
   6  -7  -4  414.22   49.33
   6   7  -4  353.39   43.44
   6   7  -4  287.69   60.49
  -6  -7   4  347.63   41.29
  -6  -6  10   52.43   21.03
   6   6 -10   80.82   28.22
   6  -6 -10   43.34   20.31
   6   6 -10   64.42   26.72
   6  -6 -10   42.63   20.87
   6   6 -10   52.75   20.06
   4   3 -22   10.60   20.03
  -4   3  22   18.53   18.86
   4  -3 -22   12.65   19.43
   4   3 -22    4.35   20.82
  -4  -3  22   13.33   16.97
   4  -3 -22   34.05   22.65
  -4   3  22   60.22   30.13
   7   2 -10   26.64   24.03
   7  -2 -10   10.46   20.00
  -7  -2  10    4.54   18.40
   7   2 -10   23.50   18.95
  -7   2  10    7.83   16.01
  -7  -2  10   22.51   21.35
   7   2 -10   11.50   18.85
  -7   2  10   17.40   16.19
   4 -10   1   41.72   21.87
  -4   0  23 1246.57   68.56
   4   0 -23 1225.26   72.15
   4   0 -23 1216.20   69.54
   2   7  19   31.88   19.40
   2  -7  19   59.24   29.01
   2   7  19   69.50   26.90
  -2   7 -19   64.43   29.71
  -2  -7 -19   62.40   27.62
   2  -7  19   33.39   21.68
   0  10 -14  336.42  129.73
   0 -10  14  633.75   51.50
   0 -10 -14  592.44   49.14
   0  10 -14  672.34   54.42
   0 -10  14  534.57   46.87
   0  10 -14  534.17   49.54
   0 -10  14  551.90   47.58
   4   9 -11  229.65   39.19
   4   9 -11  213.71   35.00
   4  -9 -11  194.33   34.85
   4  -9 -11  193.09   33.75
  -4  -9  11  176.12   34.37
   3   8 -17  103.56   25.78
  -3   8  17   87.18   35.09
   3   8 -17  183.95   32.90
  -3  -8  17  132.87   33.41
  -3  -8  17  165.50   31.42
   3  -8 -17  111.63   29.43
   3   8 -17  194.82   36.11
   4  -2  20   77.76   20.72
   4   2  20  127.59   34.07
  -7  -4   0  107.72   29.07
   7   4   0   97.66   35.81
   7  -4   0   67.80   24.86
   7   4   0  111.12   28.46
  -7  -4   0  180.92   37.76
   7  -4   0  116.72   31.26
   5  -2  17   55.11   25.16
   5   2  17   10.91   19.36
  -1  11  -9  294.72  104.78
  -1  11  -9  394.46   42.28
  -1 -11  -9  385.86   42.75
   1 -11   9  503.33   46.56
   1 -11   9  458.97   45.17
  -1  -3  25   46.58   21.52
   1   3 -25   59.68   21.80
  -1   3  25   38.82   21.45
   1  -3 -25   96.03   37.12
   3  -5  20   47.99   21.23
   3   5  20   81.54   28.72
  -3   5 -20   34.39   21.30
   4 -10  -4   69.15   29.06
   4 -10  -4   68.92   21.00
   0 -11  10   89.75   31.76
   0 -11  10  170.96   33.43
   0  11 -10   95.26   31.76
   0  11 -10  123.55   32.16
   0 -11 -10   98.72   28.75
   2   5 -23   26.44   21.13
  -2  -5  23    4.99   17.88
   2   5 -23   28.46   26.54
  -2   5  23    9.84   19.19
  -2   5  23   47.26   30.32
   2  -5 -23   19.07   18.96
   7  -1 -11   30.09   25.83
   7  -1 -11   30.37   20.03
   7   1 -11   11.48   19.15
   7   1 -11  -12.65   19.26
  -7  -1  11   12.38   20.11
  -7  -1  11    5.95   17.93
  -7   1  11   39.92   27.64
  -7   1  11   25.81   28.54
  -7  -3  -4  106.20   32.27
   7   3   4   26.54   19.13
   7   3   4   64.69   32.00
   7  -3   4    4.81   17.78
  -7  -3  -4   32.70   20.77
   7  -3   4   31.22   27.63
  -3   4 -21   62.08   23.13
   3   4  21   68.09   28.11
   3  -4  21   76.07   27.41
   3   4  21   47.08   21.85
   6  -5   9   15.21   18.97
   6   5   9   21.87   13.64
   6   5   9   -5.80   15.96
   6  -5   9    5.45   17.33
  -6  -5  -9    1.61   15.17
   6  -3  12   88.63   28.78
   6   3  12   93.96   30.28
   6  -3  12   71.14   21.93
   1  10 -14   66.71   27.69
  -1 -10  14   19.96   18.19
  -1 -10  14   32.97   22.72
   1  10 -14   29.29   17.53
  -1 -10  14   58.45   29.15
   1 -10 -14   36.91   18.86
   7   4  -5  140.45   45.08
   7   4  -5  233.27   36.97
   7  -4  -5  259.55   37.03
  -7  -4   5  267.01   43.34
   7  -4  -5  281.52   41.53
  -7  -4   5  277.51   39.68
   7   4  -5  281.41   38.87
  -6  -7  -1   46.96   20.93
   6   7   1   46.57   22.42
   6  -7   1   31.44   18.15
  -6  -7  -1   32.59   23.84
   4   8  12   58.10   25.28
   4  -8  12   43.62   28.58
   4  -8  12   27.06   18.94
   4   8  12   31.77   19.68
   2 -11  -8  149.85   29.31
   2 -11  -8  148.37   32.03
   2 -11  -8  173.74   33.22
   4  -7 -17  167.12   29.32
  -4  -7  17  210.78   34.76
   4  -7 -17  191.19   33.65
   4   7 -17  171.31   35.60
  -4   7  17  190.11   34.44
  -4  -7  17  211.74   40.05
   4   7 -17  235.07   40.17
  -5  -8  10   88.63   28.56
   5   8 -10   69.44   20.64
   5  -8 -10   54.89   19.47
   5   8 -10   82.73   32.52
   5  -8 -10   76.79   26.22
   6  -7  -5  158.25   32.84
  -6  -7   5  148.23   32.82
   6   7  -5  213.00   33.91
  -3   5  22   19.72   25.42
   3   5 -22   23.11   21.11
  -3  -5  22   24.61   19.75
   3   5 -22   12.37   28.04
  -3   5  22   68.00   23.22
  -2 -10  13  299.37   39.29
  -2 -10  13  330.94   41.72
   2 -10 -13  333.27   44.90
   2 -10 -13  365.22   41.50
   2  10 -13  390.60   45.31
  -2 -10  13  379.69   41.26
   2  10 -13  289.03   37.98
  -4  -1  23   54.92   21.24
   4  -1 -23   62.49   23.25
   4   1 -23   90.87   32.41
  -4   1  23   75.46   27.96
   4  -1 -23   39.30   22.21
   4   1 -23   86.81   30.83
   0  -9  17  122.08   32.29
   0   9 -17   94.60   30.55
   0   9 -17   83.28   27.66
   0   9  17   67.20   22.19
   0  -9  17  119.50   37.48
   0  -9 -17  100.31   33.31
   0   9 -17   95.78   32.98
   0  -9  17   96.09   26.16
   0   3 -25   85.55   30.98
   0  -3 -25   96.87   28.28
   0   3  25   94.37   28.23
   0  -3  25   78.44   28.30
   4 -10   2   37.00   20.69
   4 -10   2   11.83   18.57
   3   4 -23   50.36   24.11
  -3  -4  23   94.70   32.08
   3   4 -23   62.39   26.03
   3  -4 -23   81.22   29.61
  -3   4  23  107.12   32.60
  -3   4  23   88.94   29.93
  -6  -5  13  237.33   38.63
   6   5 -13  308.42   46.04
   6  -5 -13  202.21   35.52
   6   5 -13  135.44   51.75
   6   5 -13  234.48   42.76
  -6   5  13  214.03   33.64
   6  -5 -13  249.92   38.38
  -1  -9  17  -16.65   16.88
   1  -9 -17    9.98   24.03
  -1   9  17   -5.69   21.20
   1   9 -17   35.15   27.06
   1   9 -17   13.13   21.43
  -1  -9  17    9.19   18.56
  -1  -9  17   13.01   20.49
  -2   4  24   95.77   28.63
  -2   4  24   90.09   27.29
  -2  -4  24   43.09   22.23
   2  -4 -24   88.56   25.98
   2   4 -24   67.29   24.47
  -1  -7  21  173.29   33.77
  -1  -7  21  216.74   33.68
  -1   7  21  179.16   34.32
  -1   7  21  153.35   30.15
   1   7 -21  208.32   36.35
   1  -7 -21  202.26   34.24
  -6   3  16   19.41   22.60
   6   3 -16   40.72   24.14
  -6  -3  16   12.81   20.02
   6  -3 -16   21.75   20.48
  -6  -3  16    9.40   18.31
  -6   3  16    6.34   18.91
   6  -3 -16   10.02   20.10
   6   3 -16   40.29   26.27
   7   4   1  362.46   41.61
   7   4   1  276.34   39.78
  -7  -4  -1  303.53   38.20
   7  -4   1  383.56   50.20
  -7  -4  -1  335.02   47.89
   7   0   7   72.33   22.12
   1  11 -10  274.41   77.60
  -1 -11  10  532.59   52.71
   1 -11 -10  461.33   46.38
   1  11 -10  314.85  106.83
   0  -7  21    9.08   18.84
   0   7  21   18.85   24.40
   0   7  21  -23.49   16.47
   0   7 -21  -39.39   22.22
   0  -7  21  -17.18   16.35
   0   7 -21   -0.18   16.05
   0  -7 -21    5.93   21.36
   7  -2   6   44.48   20.70
   7   2   6   37.31   22.84
   7   2   6   30.84   18.90
   7  -2   6   18.26   18.63
  -7  -2  -6   42.50   19.61
   5   8   7  120.33   48.57
   5  -8   7  149.69   26.14
   5   8   7   73.89   43.95
   5  -8   7  163.03   35.52
   2 -11   7   55.87   26.61
  -2  11  -7   -9.38   16.60
   2 -11   7   54.72   29.15
   2 -11   7   37.33   23.96
   2  -9  15  962.62   62.84
   2   9  15  900.78   57.92
   2   9  15  940.87   58.71
   2  -9  15  930.09   59.93
   2  -9  15  997.92   61.60
  -2   9 -15  894.54   58.36
   4 -10  -5   60.33   23.53
   6  -2  13   86.32   29.48
   6   2  13   48.94   21.62
   6   4  11  122.01   34.00
   6   4  11  130.01   32.75
  -6  -4 -11  122.86   32.56
   6  -4  11  179.54   33.99
   6  -4  11   98.96   31.09
   7  -3  -9  259.05   39.64
  -7  -3   9  234.87   36.97
  -7  -3   9  193.26   35.78
  -7  -3   9  262.65   36.86
   7   3  -9  267.24   49.70
   7   3  -9  228.22   36.68
  -7   3   9  308.13   46.57
  -3  11   1   11.36    7.01
   3 -11  -1   37.87   19.57
   3 -11  -1    9.16   18.43
   0 -12   0  192.37   32.75
   0  12   0  153.71   66.07
  -1   0  26    3.03   18.72
  -7  -4   6  387.72   47.27
   7   4  -6  401.08   43.81
   7  -4  -6  361.60   48.19
  -7  -4   6  447.25   45.44
   7   4  -6  392.85   45.17
  -2   6  22  123.00   29.03
  -2  -6  22   37.10   19.84
   2   6 -22   54.77   26.94
   2   6 -22  110.83   34.36
  -2  -6  22   40.93   28.24
  -2   6  22   75.68   32.36
   4  -6 -19   53.44   30.95
   4   6 -19   67.54   28.93
   4   6 -19   17.38   16.38
  -4  -6  19    9.59   19.18
   4   6 -19   44.94   22.27
  -4   6  19   37.94   28.30
   4   6 -19    9.15   20.13
  -4   6  19   18.19   18.96
  -4  -6  19   27.45   28.83
   4  -6 -19   60.67   27.30
   3 -11   0  139.56   31.20
  -3  11   0  157.88   33.47
   3 -11   0  131.39   30.47
   3 -11   0  193.52   34.51
   3 -11  -2   58.15   19.94
   3 -11  -2  123.48   32.44
  -3  11   2   65.96   17.59
  -1   2 -25   51.54   31.73
  -1  -2 -25   25.31   21.19
   1  -2  25   31.90   27.19
   1   2  25   46.28   30.67
   0 -12   1   -4.44   16.87
   0 -12  -1   27.77   18.60
   0 -12   1    5.35   16.46
   0  12   1   13.88    9.26
   0  12  -1   12.39   11.82
   6   7   2   16.04   21.69
   6  -7   2    3.00   17.44
  -6  -7  -2   29.42   18.81
  -6  -7  -2   12.10   19.56
   5  -6 -16  125.37   34.67
   5  -6 -16  159.04   36.73
  -5   6  16   51.05   22.83
   5   6 -16  131.12   34.55
   5   6 -16   53.11   29.29
  -5  -6  16   75.51   23.83
  -3  10  -9  217.66   35.99
   3 -10   9  189.42   31.94
   3 -10   9  228.81   38.51
  -1   5 -23   13.11   20.34
  -1  -5 -23   -5.55   16.89
   1   5  23    3.25   19.24
  -6  -7   6   36.04   20.93
   6  -7  -6   32.36   20.57
   6   7  -6   -7.92   19.04
   7   1   7   14.32   19.09
   7  -1   7   20.17   19.91
   7  -1   7    8.22   19.19
  -5   0  21   12.00   19.23
   5   0 -21   10.08   22.33
   5   0 -21   23.81   24.99
   2 -10  12  168.50   30.78
   2 -10  12  233.63   36.43
  -2  10 -12  204.00   34.64
   2 -10  12  246.45   34.91
  -6   4  15  322.25   39.33
   6   4 -15  209.24   32.15
  -6  -4  15  302.63   39.95
   6   4 -15  304.37   41.98
   6   4 -15  170.60   61.59
   6  -4 -15  296.81   43.48
   3   6  19  110.01   26.65
   3  -6  19  138.83   36.14
  -3   6 -19   56.95   28.15
   3  -6  19   93.59   28.14
   3 -10 -11   95.69   29.72
   3 -10 -11  164.52   37.34
   3  10 -11   57.01   27.69
   4  -9   9  570.18   48.99
   4   9   9  406.93   98.30
   4  -9   9  651.72   52.10
  -2  -2 -24   25.83   20.47
   2   2  24   96.23   30.28
   2  -2  24   60.77   27.47
  -2   2 -24   81.99   31.96
  -6   2  17  288.22   37.25
  -6  -2  17  240.93   37.93
   6  -2 -17  238.80   37.33
   6   2 -17  238.76   38.72
  -6   2  17  258.08   40.30
   6  -2 -17  247.18   39.36
   5  -4 -19  302.66   41.40
  -5   4  19  250.12   37.70
   5   4 -19  213.50   32.31
  -5  -4  19  270.77   35.56
   5  -4 -19  192.19   30.70
  -5   4  19  284.69   39.33
   5   4 -19  207.80   39.31
   4 -10   3   19.17   17.95
   4 -10   3   -6.89   15.58
  -3  11  -1   -5.62   16.43
   3 -11   1   20.95   17.87
   3 -11   1   43.84   21.58
   3 -11   1   35.27   17.24
   0 -12   2   40.56   19.80
   0  12   2   28.56    7.58
   0  12  -2   52.55   28.96
   0 -12   2   55.01   26.08
   5  -9  -2  129.06   30.15
   3 -11  -3   91.10   30.65
   3 -11  -3  140.85   29.91
   5  -9  -1   12.20   17.50
   7  -4   2  676.07   57.96
  -7  -4  -2  644.47   50.99
   7   4   2  647.70   54.56
   7   4   2  627.84   55.61
  -7  -4  -2  671.94   52.99
   6   6   7   10.36    8.46
   6   6   7    6.13   16.27
  -6  -6  -7   21.58   21.64
   6  -6   7  -13.04   16.93
  -1  -1  26  231.58   34.39
   1  -1 -26  208.23   37.10
  -3   6  21   18.56   21.25
   3  -6 -21    6.51   19.61
   3   6 -21    9.47   16.58
  -3  -6  21    4.28   18.77
   3   6 -21   -5.29   17.62
  -3  -6  21    4.05   20.37
  -3  -6  21   37.42   19.65
  -3   6  21   -8.47   18.85
   0   0  26   30.37   26.59
   0   0 -26   24.11   19.91
   4  -8 -15   13.19   18.08
   4   8 -15   30.13   19.07
  -4  -8  15   31.80   20.53
  -4   8  15   -2.39   16.83
   4  -8 -15   -2.44   17.85
   3   3  22    5.69   18.71
   4   4  19   36.68   20.20
   4  -4  19   74.73   30.14
   5  -9  -3  116.38   29.74
   5  -9  -3   84.19   29.57
  -2  -5 -22   59.44   27.09
   2  -5  22   52.39   21.36
   2   5  22   39.70   21.14
  -2   5 -22   51.65   23.48
   5  -9   0    5.92   17.03
   5  -3 -20  149.43   35.16
  -5   3  20  132.17   30.82
  -5   3  20  135.30   33.23
   5   3 -20  154.65   35.56
   5   3 -20  201.43   39.33
  -5  -3  20  164.16   33.87
   5  -3 -20  129.73   34.24
   7   3   5  271.53   37.96
  -7  -3  -5  257.03   37.96
  -7  -3  -5  234.76   40.16
   7  -3   5  249.07   35.97
   7  -3   5  260.01   39.13
   7   3   5  244.89   39.83
  -7   0  12  194.08   37.52
   7   0 -12  157.78   34.12
  -7   0  12  182.18   29.43
   7  -2 -11  109.19   33.70
   7   2 -11   34.90   19.96
   7   2 -11   24.17   23.48
  -7  -2  11   38.05   20.66
  -7   2  11   10.03   15.93
   7   2 -11   36.66   27.29
  -7  -2  11   31.83   28.36
  -5  -1  21   42.77   26.69
  -5   1  21   16.35   18.88
   5   1 -21   33.19   22.99
   5  -1 -21   55.93   32.39
   5   1 -21   10.20   21.75
   5  -1 -21   34.36   31.01
  -1  -6 -22  168.34   36.73
  -1   6 -22  181.41   36.42
   1   6  22  152.56   37.37
   1  -6  22  181.01   34.88
   1   6  22  143.32   32.60
  -6  -6  11  219.56   39.09
   6   6 -11  230.62   37.09
   6  -6 -11  245.49   37.37
   6   6 -11  223.62   35.73
   6  -6 -11  246.85   38.36
  -1  -4 -24   71.80   28.32
  -1   4 -24   43.89   23.11
   1   4  24   71.08   28.76
   1  -4  24   55.35   25.80
   4 -10  -6   28.99   21.95
   4 -10  -6   10.71   17.85
   5   6  13   95.18   33.05
   5  -6  13  127.31   33.18
   5   6  13  200.38   34.23
   5  -6  13  156.56   31.16
   5   6  13  189.55   36.02
   4   5  18  174.79   33.22
   4  -5  18  199.92   32.51
   4   5  18  204.32   35.34
   5   7 -14   12.63    9.69
   5  -7 -14   17.58   21.62
   5   7 -14  -15.36   18.43
   5   7 -14   13.15   17.84
   5  -7 -14   18.69   21.24
  -5  -7  14   33.58   18.63
   3   3 -24   20.12   30.46
   3  -3 -24   -4.02   18.53
  -3   3  24  -10.23   18.41
   3   3 -24    1.29   20.77
  -3  -3  24    0.22   16.36
   3  -9  13  175.56   34.25
  -3   9 -13  130.06   30.63
   3 -11   2  441.37   44.50
   3 -11   2  474.42   46.97
   3 -11   2  479.32   54.05
  -7  -4   7   31.17   18.60
   7  -4  -7   24.22   19.59
   7   4  -7    6.00   18.49
  -7  -4   7   13.12   18.31
   7   4  -7    2.06   15.94
  -7  -4   7   14.55   19.27
   0 -12   3  317.30   45.51
   0 -12   3  253.33   36.12
   0  12  -3  330.16   42.22
   3 -11  -4  494.63   44.68
   3 -11  -4  433.09   42.29
   4  -2 -23  191.73   36.98
   4   2 -23  201.94   36.48
  -4   2  23  212.28   34.57
   4   2 -23  225.00   43.29
  -4  -2  23  213.11   43.40
   4  -2 -23  241.17   45.04
   5  -9  -4    1.74   16.34
   5  -9  -4   20.81   20.86
   0   1  26   56.48   30.39
   0  -1 -26   41.85   26.87
   0   1 -26   14.09   20.78
   0  -1  26   10.36   18.02
   6  -7   3   32.62   25.09
  -6  -7  -3   41.51   26.26
  -6  -7  -3   12.02   18.67
   6  -7   3   31.72   27.99
   6   7   3   31.04   30.07
   2 -11  -9   48.25   28.07
   2 -11  -9   67.91   30.04
  -2  -4 -23   19.61   19.11
  -2   4 -23   20.93   21.68
   3   9 -15  106.68   33.52
   3   9 -15  235.82   41.64
  -3  -9  15  217.23   36.63
  -3  -9  15  211.85   35.69
   3  -9 -15  202.97   35.94
   5  -9   1  174.79   35.89
   3   0  23    9.46   17.82
   5   0  18   33.60   20.19
   6  -7  -7  135.76   38.91
   6   7  -7  105.20   32.92
  -6  -7   7   91.72   28.24
   1 -11  10  322.73   39.42
   1 -11  10  237.00   34.08
  -1 -11 -10  273.08   38.95
  -1  11 -10  261.22   36.67
   5   4  16   82.28   28.15
   5  -4  16   71.12   27.12
   4   9 -12   69.51   32.94
   4  -9 -12   46.33   21.69
   4   9 -12   27.94   18.59
  -4  -9  12   44.03   26.35
   1 -12   0  106.10   30.35
   1 -12   0   59.83   26.31
  -1 -10 -14  429.16   45.11
   1 -10  14  428.52   45.14
   1 -10  14  466.74   44.06
   1 -12  -1   14.36   18.84
;
loop_
_symmetry_equiv_pos_site_id
_space_group_symop_operation_xyz
1 +X,+Y,+Z
2 -X,1/2+Y,-Z
loop_
_atom_site_label
_atom_site_type_symbol
_atom_site_fract_x
_atom_site_fract_y
_atom_site_fract_z
_atom_site_U_iso_or_equiv
_atom_site_adp_type
_atom_site_occupancy
_atom_site_site_symmetry_multiplicity
_atom_site_calc_flag
_atom_site_refinement_flags
O1 O 0.3793(2) 0.86810(12) 0.76145(5) 0.02038(19) Uani 1 2 d .
O2 O 0.2184(3) 0.46159(13) 0.61684(6) 0.0279(2) Uani 1 2 d .
O3 O 0.2520(2) 1.11772(14) 0.64281(6) 0.0268(2) Uani 1 2 d .
O4 O 0.4879(3) 0.74378(14) 0.56294(6) 0.0281(2) Uani 1 2 d .
O5 O 0.6526(2) 0.88106(18) 0.92945(7) 0.0350(3) Uani 1 2 d .
O7 O -0.1727(2) 0.38787(15) 0.79511(8) 0.0314(2) Uani 1 2 d .
O8 O 0.7953(2) 0.50154(15) 0.50728(7) 0.0286(2) Uani 1 2 d .
N22 N 0.2714(2) 0.41425(14) 0.78392(6) 0.0177(2) Uani 1 2 d .
C9 C 0.5058(3) 0.86880(16) 0.69103(7) 0.0189(2) Uani 1 2 d .
C10 C 0.2659(3) 0.73191(17) 0.87523(8) 0.0199(2) Uani 1 2 d .
C11 C 0.0574(3) 0.33146(17) 0.80583(8) 0.0196(2) Uani 1 2 d .
C12 C 0.2531(3) 0.57757(15) 0.74737(7) 0.0168(2) Uani 1 2 d .
C13 C 0.4283(3) 0.83138(18) 0.93720(8) 0.0224(2) Uani 1 2 d .
C14 C 0.3607(3) 0.74636(16) 0.63339(7) 0.0195(2) Uani 1 2 d .
C15 C 0.3692(3) 0.57198(16) 0.66847(7) 0.0184(2) Uani 1 2 d .
C16 C 0.5118(3) 1.04869(17) 0.66251(8) 0.0237(3) Uani 1 2 d .
C17 C 0.2951(4) 0.8623(3) 1.01025(9) 0.0373(4) Uani 1 2 d .
C18 C 0.1147(3) 0.1671(2) 0.84522(11) 0.0304(3) Uani 1 2 d .
C19 C 0.3968(3) 0.71042(15) 0.80017(7) 0.0173(2) Uani 1 2 d .
H2 H 0.25362 0.36227 0.62976 0.0335 Uiso 1 2 calc R
H3 H 0.19509 1.08732 0.59791 0.0321 Uiso 1 2 calc R
H4 H 0.41178 0.81249 0.53154 0.0338 Uiso 1 2 calc R
H9 H 0.6949 0.82972 0.70264 0.0227 Uiso 1 2 calc R
H10A H 0.09054 0.78782 0.86337 0.0239 Uiso 1 2 calc R
H10B H 0.23076 0.61981 0.89622 0.0239 Uiso 1 2 calc R
H12 H 0.05928 0.60875 0.7385 0.0202 Uiso 1 2 calc R
H14 H 0.16968 0.78208 0.62212 0.0234 Uiso 1 2 calc R
H15 H 0.55953 0.53282 0.67589 0.0221 Uiso 1 2 calc R
H16A H 0.60752 1.11845 0.70336 0.0285 Uiso 1 2 calc R
H16B H 0.6144 1.05312 0.61645 0.0285 Uiso 1 2 calc R
H17A H 0.11427 0.90661 0.99694 0.0448 Uiso 1 2 calc R
H17B H 0.40075 0.94336 1.04264 0.0448 Uiso 1 2 calc R
H17C H 0.28377 0.75713 1.03869 0.0448 Uiso 1 2 calc R
H18A H 0.26843 0.11407 0.82407 0.0364 Uiso 1 2 calc R
H18B H -0.0427 0.09442 0.83645 0.0364 Uiso 1 2 calc R
H18C H 0.1558 0.18531 0.90093 0.0364 Uiso 1 2 calc R
H19 H 0.58937 0.67875 0.81206 0.0208 Uiso 1 2 calc R
H22 H 0.43029 0.36714 0.79213 0.0212 Uiso 1 2 calc R
H8A H 0.69582 0.57016 0.52867 0.0343 Uiso 1 2 calc R
H8B H 0.9337 0.48619 0.53845 0.0343 Uiso 1 2 calc R
loop_
_atom_site_aniso_label
_atom_site_aniso_U_11
_atom_site_aniso_U_22
_atom_site_aniso_U_33
_atom_site_aniso_U_12
_atom_site_aniso_U_13
_atom_site_aniso_U_23
O1 0.0283(5) 0.0133(4) 0.0200(4) 0.0015(4) 0.0047(3) 0.0002(3)
O2 0.0438(6) 0.0133(4) 0.0239(5) 0.0011(4) -0.0109(4) -0.0010(4)
O3 0.0375(6) 0.0165(4) 0.0255(5) 0.0050(4) -0.0012(4) 0.0001(4)
O4 0.0454(6) 0.0207(5) 0.0194(4) 0.0090(4) 0.0084(4) 0.0028(4)
O5 0.0256(5) 0.0466(8) 0.0327(6) -0.0078(5) 0.0024(4) -0.0076(5)
O7 0.0147(4) 0.0282(6) 0.0518(7) 0.0015(4) 0.0054(4) 0.0086(5)
O8 0.0330(5) 0.0268(5) 0.0247(5) 0.0062(5) -0.0041(4) -0.0073(4)
N22 0.0142(4) 0.0143(4) 0.0243(5) 0.0021(4) 0.0010(4) 0.0030(4)
C9 0.0220(5) 0.0150(5) 0.0199(5) 0.0010(4) 0.0030(4) 0.0009(4)
C10 0.0206(6) 0.0192(6) 0.0201(5) -0.0002(4) 0.0026(4) 0.0004(4)
C11 0.0175(5) 0.0163(5) 0.0251(6) 0.0004(4) 0.0033(4) -0.0008(5)
C12 0.0164(5) 0.0134(5) 0.0202(5) 0.0018(4) -0.0002(4) 0.0019(4)
C13 0.0233(6) 0.0238(6) 0.0198(6) 0.0012(5) -0.0000(4) 0.0013(5)
C14 0.0258(6) 0.0146(5) 0.0181(5) 0.0037(5) 0.0023(4) 0.0008(4)
C15 0.0239(6) 0.0127(5) 0.0179(5) 0.0025(4) -0.0013(4) -0.0004(4)
C16 0.0310(7) 0.0157(6) 0.0245(6) -0.0025(5) 0.0026(5) 0.0020(5)
C17 0.0334(8) 0.0578(12) 0.0210(6) -0.0079(8) 0.0040(5) -0.0084(7)
C18 0.0298(7) 0.0193(6) 0.0440(8) 0.0046(5) 0.0143(6) 0.0093(6)
C19 0.0193(5) 0.0140(5) 0.0187(5) 0.0006(4) 0.0018(4) 0.0006(4)
loop_
_atom_type_symbol
_atom_type_description
_atom_type_scat_dispersion_real
_atom_type_scat_dispersion_imag
_atom_type_scat_source
C C 0.0033 0.0016
;
International Tables for Crystallography
(Vol. C, Tables 4.2.6.8 and 6.1.1.4)
;
H H 0.0000 0.0000
;
International Tables for Crystallography
(Vol. C, Table 6.1.1.4)
;
N N 0.0061 0.0033
;
International Tables for Crystallography
(Vol. C, Tables 4.2.6.8 and 6.1.1.4)
;
O O 0.0106 0.0060
;
International Tables for Crystallography
(Vol. C, Tables 4.2.6.8 and 6.1.1.4)
;
loop_
_geom_angle_atom_site_label_1
_geom_angle_atom_site_label_2
_geom_angle_atom_site_label_3
_geom_angle
_geom_angle_publ_flag
C9 O1 C19 113.16(10) yes
C11 N22 C12 123.18(11) yes
O1 C9 C14 109.53(11) yes
O1 C9 C16 107.79(11) yes
C14 C9 C16 114.49(11) yes
C13 C10 C19 114.95(12) yes
O7 C11 N22 122.30(13) yes
O7 C11 C18 121.73(13) yes
N22 C11 C18 115.96(12) yes
N22 C12 C15 110.42(10) yes
N22 C12 C19 110.81(10) yes
C15 C12 C19 110.83(11) yes
O5 C13 C10 122.47(14) yes
O5 C13 C17 121.84(14) yes
C10 C13 C17 115.68(13) yes
O4 C14 C9 110.16(11) yes
O4 C14 C15 109.29(11) yes
C9 C14 C15 109.34(10) yes
O2 C15 C12 110.83(11) yes
O2 C15 C14 108.90(10) yes
C12 C15 C14 109.30(11) yes
O3 C16 C9 113.50(12) yes
O1 C19 C10 106.87(10) yes
O1 C19 C12 109.02(10) yes
C10 C19 C12 111.90(11) yes
C15 O2 H2 109.474 no
C16 O3 H3 109.466 no
C14 O4 H4 109.469 no
H8A O8 H8B 107.042 no
C11 N22 H22 118.409 no
C12 N22 H22 118.407 no
O1 C9 H9 108.295 no
C14 C9 H9 108.291 no
C16 C9 H9 108.289 no
C13 C10 H10A 108.528 no
C13 C10 H10B 108.525 no
C19 C10 H10A 108.534 no
C19 C10 H10B 108.538 no
H10A C10 H10B 107.529 no
N22 C12 H12 108.227 no
C15 C12 H12 108.225 no
C19 C12 H12 108.229 no
O4 C14 H14 109.347 no
C9 C14 H14 109.346 no
C15 C14 H14 109.342 no
O2 C15 H15 109.262 no
C12 C15 H15 109.256 no
C14 C15 H15 109.264 no
O3 C16 H16A 108.865 no
O3 C16 H16B 108.872 no
C9 C16 H16A 108.863 no
C9 C16 H16B 108.870 no
H16A C16 H16B 107.717 no
C13 C17 H17A 109.467 no
C13 C17 H17B 109.474 no
C13 C17 H17C 109.465 no
H17A C17 H17B 109.478 no
H17A C17 H17C 109.474 no
H17B C17 H17C 109.469 no
C11 C18 H18A 109.480 no
C11 C18 H18B 109.474 no
C11 C18 H18C 109.467 no
H18A C18 H18B 109.472 no
H18A C18 H18C 109.464 no
H18B C18 H18C 109.472 no
O1 C19 H19 109.664 no
C10 C19 H19 109.655 no
C12 C19 H19 109.667 no
loop_
_geom_bond_atom_site_label_1
_geom_bond_atom_site_label_2
_geom_bond_distance
_geom_bond_publ_flag
O1 C9 1.4274(17) yes
O1 C19 1.4282(16) yes
O2 C15 1.4236(17) yes
O3 C16 1.4255(19) yes
O4 C14 1.4300(18) yes
O5 C13 1.2109(19) yes
O7 C11 1.2355(17) yes
N22 C11 1.3447(18) yes
N22 C12 1.4517(17) yes
C9 C14 1.5337(18) yes
C9 C16 1.523(2) yes
C10 C13 1.5125(19) yes
C10 C19 1.521(2) yes
C11 C18 1.497(2) yes
C12 C15 1.5369(19) yes
C12 C19 1.5375(17) yes
C13 C17 1.506(2) yes
C14 C15 1.5213(19) yes
O2 H2 0.840 no
O3 H3 0.840 no
O4 H4 0.840 no
O8 H8A 0.849 no
O8 H8B 0.847 no
N22 H22 0.880 no
C9 H9 1.000 no
C10 H10A 0.990 no
C10 H10B 0.990 no
C12 H12 1.000 no
C14 H14 1.000 no
C15 H15 1.000 no
C16 H16A 0.990 no
C16 H16B 0.990 no
C17 H17A 0.980 no
C17 H17B 0.980 no
C17 H17C 0.980 no
C18 H18A 0.980 no
C18 H18B 0.980 no
C18 H18C 0.980 no
C19 H19 1.000 no
loop_
_geom_contact_atom_site_label_1
_geom_contact_atom_site_label_2
_geom_contact_distance
_geom_contact_publ_flag
_geom_contact_site_symmetry_2
O1 O3 2.8960(17) no .
O1 O5 3.1038(19) no .
O1 C13 3.050(2) no .
O1 C15 2.8642(19) no .
O2 O4 2.8336(19) no .
O2 N22 2.910(2) no .
O3 O4 3.546(2) no .
O3 C14 3.028(2) no .
O4 C16 2.985(2) no .
O5 C19 2.8284(19) no .
O7 C12 2.8048(19) no .
N22 C10 2.996(2) no .
C9 C12 2.867(2) no .
C10 C11 3.546(2) no .
C11 C15 3.538(2) no .
C11 C19 3.482(2) no .
C14 C19 2.896(2) no .
O1 C18 3.155(2) no 1_565
O2 O3 2.791(2) no 1_545
O2 O8 2.7302(18) no 1_455
O3 O2 2.791(2) no 1_565
O3 O8 2.754(2) no 2_656
O3 N22 3.4039(19) no 1_565
O3 C11 3.519(2) no 1_565
O4 O8 2.7085(19) no .
O4 O8 2.7252(18) no 2_656
O5 C10 3.504(2) no 1_655
O5 C17 3.391(2) no 1_655
O7 N22 2.7804(18) no 1_455
O7 C12 3.2886(19) no 1_455
O7 C15 3.3642(19) no 1_455
O7 C17 3.493(3) no 2_547
O7 C19 3.369(2) no 1_455
O8 O2 2.7302(18) no 1_655
O8 O3 2.754(2) no 2_646
O8 O4 2.7085(19) no .
O8 O4 2.7252(18) no 2_646
O8 C14 3.222(2) no 2_646
O8 C16 3.215(2) no 2_646
N22 O3 3.4039(19) no 1_545
N22 O7 2.7804(18) no 1_655
C10 O5 3.504(2) no 1_455
C10 C18 3.592(3) no 1_565
C11 O3 3.519(2) no 1_545
C12 O7 3.2886(19) no 1_655
C13 C18 3.430(2) no 1_565
C14 O8 3.222(2) no 2_656
C15 O7 3.3642(19) no 1_655
C16 O8 3.215(2) no 2_656
C17 O5 3.391(2) no 1_455
C17 O7 3.493(3) no 2_557
C18 O1 3.155(2) no 1_545
C18 C10 3.592(3) no 1_545
C18 C13 3.430(2) no 1_545
C19 O7 3.369(2) no 1_655
O1 H3 3.3894 no .
O1 H10A 2.4710 no .
O1 H10B 3.2078 no .
O1 H12 2.6296 no .
O1 H14 2.6351 no .
O1 H15 3.2350 no .
O1 H16A 2.5592 no .
O1 H16B 3.2336 no .
O2 H4 3.3583 no .
O2 H12 2.6055 no .
O2 H14 2.5786 no .
O2 H22 3.2157 no .
O3 H4 3.2587 no .
O3 H9 3.2983 no .
O3 H14 2.7358 no .
O4 H2 3.5062 no .
O4 H3 3.2001 no .
O4 H9 2.6366 no .
O4 H15 2.5857 no .
O4 H16B 2.6983 no .
O5 H10A 3.0321 no .
O5 H10B 2.9899 no .
O5 H17A 3.0446 no .
O5 H17B 2.4812 no .
O5 H17C 2.9392 no .
O5 H19 2.5975 no .
O7 H10B 3.1534 no .
O7 H12 2.3772 no .
O7 H18A 3.1189 no .
O7 H18B 2.5230 no .
O7 H18C 2.8532 no .
O7 H22 3.0298 no .
N22 H2 2.6995 no .
N22 H10A 3.4479 no .
N22 H10B 2.5721 no .
N22 H15 2.6453 no .
N22 H18A 2.5014 no .
N22 H18B 3.1815 no .
N22 H18C 2.8337 no .
N22 H19 2.6662 no .
C9 H3 2.7602 no .
C9 H4 2.7992 no .
C9 H12 3.2173 no .
C9 H15 2.7171 no .
C9 H19 2.5945 no .
C10 H12 2.6851 no .
C10 H17A 2.6994 no .
C10 H17B 3.3743 no .
C10 H17C 2.8356 no .
C10 H22 3.3907 no .
C11 H2 3.3036 no .
C11 H10B 2.8779 no .
C11 H12 2.5079 no .
C12 H2 2.6704 no .
C12 H9 3.1447 no .
C12 H10A 2.8012 no .
C12 H10B 2.6167 no .
C12 H14 2.7209 no .
C13 H19 2.6796 no .
C14 H2 3.1195 no .
C14 H3 2.9009 no .
C14 H12 2.7070 no .
C14 H16A 3.4040 no .
C14 H16B 2.7921 no .
C14 H19 3.2478 no .
C15 H4 3.0798 no .
C15 H9 2.6617 no .
C15 H19 2.7635 no .
C15 H22 2.6943 no .
C16 H4 2.9618 no .
C16 H14 2.7846 no .
C17 H10A 2.7221 no .
C17 H10B 2.7683 no .
C18 H22 2.4859 no .
C19 H9 2.5443 no .
C19 H14 3.2413 no .
C19 H15 2.7675 no .
C19 H22 2.7564 no .
H2 H12 2.9559 no .
H2 H14 3.3866 no .
H2 H15 2.1497 no .
H2 H22 2.8727 no .
H3 H4 2.7518 no .
H3 H14 2.4836 no .
H3 H16A 2.6400 no .
H3 H16B 2.1124 no .
H4 H9 3.1707 no .
H4 H14 2.0864 no .
H4 H15 3.3882 no .
H4 H16B 2.5745 no .
H9 H14 2.8862 no .
H9 H15 2.5021 no .
H9 H16A 2.3517 no .
H9 H16B 2.3412 no .
H9 H19 2.3512 no .
H10A H12 2.5896 no .
H10A H17A 2.4969 no .
H10A H17B 3.5682 no .
H10A H17C 3.1139 no .
H10A H19 2.8651 no .
H10B H12 2.7914 no .
H10B H17A 2.9748 no .
H10B H17C 2.6950 no .
H10B H18C 3.4988 no .
H10B H19 2.4632 no .
H10B H22 2.9466 no .
H12 H14 2.5520 no .
H12 H15 2.8865 no .
H12 H19 2.8910 no .
H12 H22 2.7809 no .
H14 H15 2.8845 no .
H14 H16B 3.1168 no .
H15 H19 2.6266 no .
H15 H22 2.5466 no .
H18A H22 2.2691 no .
H18B H22 3.3621 no .
H18C H22 2.8376 no .
H19 H22 2.6307 no .
O1 H9 3.4973 no 1_455
O1 H18A 2.3398 no 1_565
O1 H18B 3.1545 no 1_565
O1 H18B 3.5566 no 1_665
O2 H3 3.0139 no 1_545
O2 H4 3.5165 no 2_646
O2 H15 3.5906 no 1_455
O2 H8A 3.0327 no 1_455
O2 H8A 3.0808 no .
O2 H8B 1.8867 no 1_455
O3 H2 1.9700 no 1_565
O3 H16A 3.4859 no 1_455
O3 H16B 3.2249 no 1_455
O3 H18A 3.1377 no 1_565
O3 H22 3.3254 no 1_565
O3 H8A 3.0341 no 2_656
O3 H8B 3.3635 no 2_656
O4 H3 3.5635 no 2_646
O4 H14 3.4861 no 1_655
O4 H16B 3.4606 no 2_646
O4 H8A 1.8663 no .
O4 H8A 3.1496 no 2_656
O4 H8B 3.4514 no 1_455
O4 H8B 3.0969 no .
O4 H8B 3.2590 no 2_656
O5 H10A 2.6736 no 1_655
O5 H10B 3.5785 no 2_657
O5 H17A 2.5005 no 1_655
O5 H17B 3.5493 no 2_647
O5 H17C 3.0708 no 2_657
O5 H18A 3.1408 no 1_565
O5 H18B 2.8816 no 1_665
O5 H18C 3.4833 no 1_565
O5 H18C 3.5713 no 1_665
O5 H18C 3.3918 no 2_657
O7 H15 2.6273 no 1_455
O7 H16A 2.8399 no 1_445
O7 H17A 3.5948 no 2_547
O7 H17B 3.1655 no 2_547
O7 H17C 3.1644 no 2_547
O7 H19 2.6436 no 1_455
O7 H22 1.9908 no 1_455
O8 H2 3.1805 no 1_655
O8 H3 1.9543 no 2_646
O8 H4 3.1949 no .
O8 H4 1.9201 no 2_646
O8 H14 3.4391 no 1_655
O8 H14 2.8682 no 2_646
O8 H15 3.2640 no .
O8 H16B 2.8574 no 2_646
N22 H16A 3.2905 no 1_545
N22 H17B 3.2985 no 2_647
C9 H12 3.5024 no 1_655
C9 H18A 3.3319 no 1_565
C10 H17B 3.1152 no 2_647
C10 H18A 3.1846 no 1_565
C10 H18B 3.3260 no 1_565
C10 H19 3.4884 no 1_455
C11 H15 3.5840 no 1_455
C11 H16A 3.2239 no 1_445
C11 H17C 3.3771 no 2_547
C11 H22 3.1402 no 1_455
C12 H9 3.4760 no 1_455
C12 H15 3.5953 no 1_455
C13 H17A 3.5459 no 1_655
C13 H17B 3.2311 no 2_647
C13 H18A 3.0523 no 1_565
C13 H18B 3.5044 no 1_565
C13 H18C 3.1811 no 1_565
C13 H18C 3.5352 no 2_657
C14 H8A 2.9450 no .
C14 H8B 3.3109 no 1_455
C15 H12 3.5668 no 1_655
C15 H8A 3.0487 no .
C15 H8B 3.0657 no 1_455
C16 H2 2.8555 no 1_565
C16 H18A 3.2015 no 1_565
C16 H22 3.4477 no 1_565
C16 H8A 3.3860 no 2_656
C17 H10B 3.4346 no 2_657
C17 H18C 3.2428 no 1_565
C17 H18C 3.1825 no 2_557
C17 H18C 3.3394 no 2_657
C17 H22 3.5727 no 2_657
C18 H10A 3.0550 no 1_545
C18 H16A 3.3901 no 1_445
C18 H17A 3.3575 no 1_545
C18 H17C 3.0503 no 2_547
C18 H17C 3.5382 no 2_647
C19 H10A 3.5982 no 1_655
C19 H17B 3.5375 no 2_647
C19 H18A 3.3268 no 1_565
H2 O3 1.9700 no 1_545
H2 O8 3.1805 no 1_455
H2 C16 2.8555 no 1_545
H2 H3 2.2807 no 1_545
H2 H4 3.4159 no 2_646
H2 H16A 2.8559 no 1_545
H2 H16B 3.0847 no 1_545
H2 H8A 3.5683 no 1_455
H2 H8A 3.3867 no .
H2 H8B 2.3634 no 1_455
H3 O2 3.0139 no 1_565
H3 O4 3.5635 no 2_656
H3 O8 1.9543 no 2_656
H3 H2 2.2807 no 1_565
H3 H16B 2.9681 no 1_455
H3 H8A 2.3156 no 2_656
H3 H8B 3.5655 no 1_465
H3 H8B 2.5261 no 2_656
H4 O2 3.5165 no 2_656
H4 O8 3.1949 no .
H4 O8 1.9201 no 2_656
H4 H2 3.4159 no 2_656
H4 H16B 3.2942 no 2_646
H4 H8A 2.4082 no .
H4 H8A 2.3511 no 2_656
H4 H8B 3.5521 no 1_455
H4 H8B 2.4511 no 2_656
H9 O1 3.4973 no 1_655
H9 C12 3.4760 no 1_655
H9 H10A 3.2836 no 1_655
H9 H12 2.5752 no 1_655
H9 H14 2.8928 no 1_655
H9 H18B 3.3215 no 1_665
H10A O5 2.6736 no 1_455
H10A C18 3.0550 no 1_565
H10A C19 3.5982 no 1_455
H10A H9 3.2836 no 1_455
H10A H18A 2.8613 no 1_565
H10A H18B 2.5738 no 1_565
H10A H18C 3.2571 no 1_565
H10A H19 2.7271 no 1_455
H10B O5 3.5785 no 2_647
H10B C17 3.4346 no 2_647
H10B H17A 3.1508 no 2_547
H10B H17B 2.4817 no 2_647
H10B H19 3.4347 no 1_455
H12 C9 3.5024 no 1_455
H12 C15 3.5668 no 1_455
H12 H9 2.5752 no 1_455
H12 H15 2.7029 no 1_455
H12 H19 2.8354 no 1_455
H14 O4 3.4861 no 1_455
H14 O8 3.4391 no 1_455
H14 O8 2.8682 no 2_656
H14 H9 2.8928 no 1_455
H14 H16B 3.5208 no 1_455
H14 H8A 3.2277 no 1_455
H14 H8A 3.5969 no 2_656
H14 H8B 2.9647 no 1_455
H14 H8B 3.2287 no 2_656
H15 O2 3.5906 no 1_655
H15 O7 2.6273 no 1_655
H15 O8 3.2640 no .
H15 C11 3.5840 no 1_655
H15 C12 3.5953 no 1_655
H15 H12 2.7029 no 1_655
H15 H16A 3.3553 no 1_545
H15 H8A 2.7205 no .
H15 H8B 3.1885 no .
H16A O3 3.4859 no 1_655
H16A O7 2.8399 no 1_665
H16A N22 3.2905 no 1_565
H16A C11 3.2239 no 1_665
H16A C18 3.3901 no 1_665
H16A H2 2.8559 no 1_565
H16A H15 3.3553 no 1_565
H16A H18A 2.8163 no 1_565
H16A H18B 2.7715 no 1_665
H16A H22 2.7154 no 1_565
H16B O3 3.2249 no 1_655
H16B O4 3.4606 no 2_656
H16B O8 2.8574 no 2_656
H16B H2 3.0847 no 1_565
H16B H3 2.9681 no 1_655
H16B H4 3.2942 no 2_656
H16B H14 3.5208 no 1_655
H16B H8A 2.8355 no 2_656
H17A O5 2.5005 no 1_455
H17A O7 3.5948 no 2_557
H17A C13 3.5459 no 1_455
H17A C18 3.3575 no 1_565
H17A H10B 3.1508 no 2_557
H17A H17C 3.4631 no 2_557
H17A H18A 3.5742 no 1_565
H17A H18B 3.1966 no 1_565
H17A H18C 2.8027 no 1_565
H17A H18C 2.9241 no 2_557
H17B O5 3.5493 no 2_657
H17B O7 3.1655 no 2_557
H17B N22 3.2985 no 2_657
H17B C10 3.1152 no 2_657
H17B C13 3.2311 no 2_657
H17B C19 3.5375 no 2_657
H17B H10B 2.4817 no 2_657
H17B H17C 3.3475 no 2_657
H17B H18C 3.2762 no 1_565
H17B H18C 3.1223 no 2_657
H17B H19 3.1432 no 2_657
H17B H22 2.9750 no 2_657
H17C O5 3.0708 no 2_647
H17C O7 3.1644 no 2_557
H17C C11 3.3771 no 2_557
H17C C18 3.0503 no 2_557
H17C C18 3.5382 no 2_657
H17C H17A 3.4631 no 2_547
H17C H17B 3.3475 no 2_647
H17C H18A 3.3184 no 2_657
H17C H18B 2.8863 no 2_557
H17C H18C 2.5890 no 2_557
H17C H18C 2.9592 no 2_657
H17C H22 3.2641 no 2_657
H18A O1 2.3398 no 1_545
H18A O3 3.1377 no 1_545
H18A O5 3.1408 no 1_545
H18A C9 3.3319 no 1_545
H18A C10 3.1846 no 1_545
H18A C13 3.0523 no 1_545
H18A C16 3.2015 no 1_545
H18A C19 3.3268 no 1_545
H18A H10A 2.8613 no 1_545
H18A H16A 2.8163 no 1_545
H18A H17A 3.5742 no 1_545
H18A H17C 3.3184 no 2_647
H18A H18B 3.4401 no 1_655
H18B O1 3.5566 no 1_445
H18B O1 3.1545 no 1_545
H18B O5 2.8816 no 1_445
H18B C10 3.3260 no 1_545
H18B C13 3.5044 no 1_545
H18B H9 3.3215 no 1_445
H18B H10A 2.5738 no 1_545
H18B H16A 2.7715 no 1_445
H18B H17A 3.1966 no 1_545
H18B H17C 2.8863 no 2_547
H18B H18A 3.4401 no 1_455
H18B H22 3.4556 no 1_455
H18C O5 3.5713 no 1_445
H18C O5 3.4833 no 1_545
H18C O5 3.3918 no 2_647
H18C C13 3.1811 no 1_545
H18C C13 3.5352 no 2_647
H18C C17 3.2428 no 1_545
H18C C17 3.1825 no 2_547
H18C C17 3.3394 no 2_647
H18C H10A 3.2571 no 1_545
H18C H17A 2.8027 no 1_545
H18C H17A 2.9241 no 2_547
H18C H17B 3.2762 no 1_545
H18C H17B 3.1223 no 2_647
H18C H17C 2.5890 no 2_547
H18C H17C 2.9592 no 2_647
H19 O7 2.6436 no 1_655
H19 C10 3.4884 no 1_655
H19 H10A 2.7271 no 1_655
H19 H10B 3.4347 no 1_655
H19 H12 2.8354 no 1_655
H19 H17B 3.1432 no 2_647
H22 O3 3.3254 no 1_545
H22 O7 1.9908 no 1_655
H22 C11 3.1402 no 1_655
H22 C16 3.4477 no 1_545
H22 C17 3.5727 no 2_647
H22 H16A 2.7154 no 1_545
H22 H17B 2.9750 no 2_647
H22 H17C 3.2641 no 2_647
H22 H18B 3.4556 no 1_655
H8A O2 3.0808 no .
H8A O2 3.0327 no 1_655
H8A O3 3.0341 no 2_646
H8A O4 1.8663 no .
H8A O4 3.1496 no 2_646
H8A C14 2.9450 no .
H8A C15 3.0487 no .
H8A C16 3.3860 no 2_646
H8A H2 3.3867 no .
H8A H2 3.5683 no 1_655
H8A H3 2.3156 no 2_646
H8A H4 2.4082 no .
H8A H4 2.3511 no 2_646
H8A H14 3.2277 no 1_655
H8A H14 3.5969 no 2_646
H8A H15 2.7205 no .
H8A H16B 2.8355 no 2_646
H8B O2 1.8867 no 1_655
H8B O3 3.3635 no 2_646
H8B O4 3.0969 no .
H8B O4 3.4514 no 1_655
H8B O4 3.2590 no 2_646
H8B C14 3.3109 no 1_655
H8B C15 3.0657 no 1_655
H8B H2 2.3634 no 1_655
H8B H3 3.5655 no 1_645
H8B H3 2.5261 no 2_646
H8B H4 3.5521 no 1_655
H8B H4 2.4511 no 2_646
H8B H14 2.9647 no 1_655
H8B H14 3.2287 no 2_646
H8B H15 3.1885 no .
loop_
_geom_hbond_atom_site_label_D
_geom_hbond_atom_site_label_H
_geom_hbond_atom_site_label_A
_geom_hbond_site_symmetry_A
_geom_hbond_distance_DA
_geom_hbond_distance_DH
_geom_hbond_distance_HA
_geom_hbond_angle_DHA
_geom_hbond_publ_flag
O2 H2 O3 1_545 2.791(2) 0.840 1.970 165.3 no
O3 H3 O8 2_656 2.754(2) 0.840 1.954 158.7 no
O4 H4 O8 2_656 2.7252(18) 0.840 1.920 160.2 no
O8 H8A O4 . 2.7085(19) 0.849 1.866 170.9 no
O8 H8B O2 1_655 2.7302(18) 0.847 1.887 173.4 no
N22 H22 O7 1_655 2.7804(18) 0.880 1.991 148.7 no
loop_
_geom_torsion_atom_site_label_1
_geom_torsion_atom_site_label_2
_geom_torsion_atom_site_label_3
_geom_torsion_atom_site_label_4
_geom_torsion
_geom_torsion_publ_flag
C9 O1 C19 C10 177.39(8) no
C9 O1 C19 C12 -61.49(12) no
C19 O1 C9 C14 63.64(12) no
C19 O1 C9 C16 -171.21(8) no
C11 N22 C12 C15 -122.75(12) no
C11 N22 C12 C19 114.07(12) no
C12 N22 C11 O7 1.26(19) no
C12 N22 C11 C18 -177.90(9) no
O1 C9 C14 O4 -179.09(9) no
O1 C9 C14 C15 -58.97(13) no
O1 C9 C16 O3 -63.99(13) no
C14 C9 C16 O3 58.15(15) no
C16 C9 C14 O4 59.73(14) no
C16 C9 C14 C15 179.85(10) no
C13 C10 C19 O1 -73.40(13) no
C13 C10 C19 C12 167.32(10) no
C19 C10 C13 O5 -4.46(18) no
C19 C10 C13 C17 176.64(10) no
N22 C12 C15 O2 62.85(12) no
N22 C12 C15 C14 -177.11(8) no
N22 C12 C19 O1 178.71(9) no
N22 C12 C19 C10 -63.29(12) no
C15 C12 C19 O1 55.75(13) no
C15 C12 C19 C10 173.76(9) no
C19 C12 C15 O2 -173.97(9) no
C19 C12 C15 C14 -53.94(12) no
O4 C14 C15 O2 -63.31(13) no
O4 C14 C15 C12 175.48(9) no
C9 C14 C15 O2 176.04(10) no
C9 C14 C15 C12 54.83(13) no
