#------------------------------------------------------------------------------
#$Date: 2016-04-05 22:23:06 +0300 (Tue, 05 Apr 2016) $
#$Revision: 181782 $
#$URL: svn://www.crystallography.net/cod/cif/7/15/49/7154986.cif $
#------------------------------------------------------------------------------
#
# This file is available in the Crystallography Open Database (COD),
# http://www.crystallography.net/
#
# All data on this site have been placed in the public domain by the
# contributors.
#
data_7154986
loop_
_publ_author_name
'van de Wouw, H. L.'
'Lee, J. Y.'
'Siegler, M. A.'
'Klausen, R. S.'
_publ_section_title
;
 Innocent BN bond substitution in anthracene derivatives.
;
_journal_issue                   12
_journal_name_full               'Organic &amp; biomolecular chemistry'
_journal_page_first              3256
_journal_page_last               3263
_journal_paper_doi               10.1039/c5ob02309b
_journal_volume                  14
_journal_year                    2016
_chemical_absolute_configuration unk
_chemical_formula_moiety         'C18 H14 B N'
_chemical_formula_sum            'C18 H14 B N'
_chemical_formula_weight         255.11
_chemical_name_systematic
;
 ?
;
_space_group_crystal_system      monoclinic
_space_group_IT_number           4
_space_group_name_Hall           'P 2yb'
_space_group_name_H-M_alt        'P 1 21 1'
_symmetry_space_group_name_Hall  'P 2yb'
_symmetry_space_group_name_H-M   'P 1 21 1'
_atom_sites_solution_hydrogens   mixed
_atom_sites_solution_primary     direct
_atom_sites_solution_secondary   difmap
_audit_creation_method           SHELXL-2013
_audit_update_record
;
2015-11-05 deposited with the CCDC.
2016-02-23 downloaded from the CCDC.
;
_cell_angle_alpha                90
_cell_angle_beta                 93.408(4)
_cell_angle_gamma                90
_cell_formula_units_Z            2
_cell_length_a                   7.5827(3)
_cell_length_b                   5.8864(3)
_cell_length_c                   14.3622(7)
_cell_measurement_reflns_used    4047
_cell_measurement_temperature    110(2)
_cell_measurement_theta_max      72.14
_cell_measurement_theta_min      5.81
_cell_volume                     639.92(5)
_computing_cell_refinement
;
CrysAlisPro, Agilent Technologies,
Version 1.171.36.32 (release 02-08-2013 CrysAlis171 .NET)
(compiled Aug  2 2013,16:46:58)
;
_computing_data_collection
;
CrysAlisPro, Agilent Technologies,
Version 1.171.36.32 (release 02-08-2013 CrysAlis171 .NET)
(compiled Aug  2 2013,16:46:58)
;
_computing_data_reduction
;
CrysAlisPro, Agilent Technologies,
Version 1.171.36.32 (release 02-08-2013 CrysAlis171 .NET)
(compiled Aug  2 2013,16:46:58)
;
_computing_molecular_graphics    'SHELXTL v6.10 (Sheldrick, 2008)'
_computing_publication_material  'SHELXTL v6.10 (Sheldrick, 2008)'
_computing_structure_refinement  'SHELXL-2013 (Sheldrick, 2013)'
_computing_structure_solution    'SHELXS-2013 (Sheldrick, 2013)'
_diffrn_ambient_temperature      110(2)
_diffrn_measured_fraction_theta_full 0.998
_diffrn_measured_fraction_theta_max 0.999
_diffrn_measurement_device_type  'SuperNova, Dual, Cu at zero, Atlas'
_diffrn_measurement_method       '\w scans'
_diffrn_radiation_monochromator  mirror
_diffrn_radiation_source         'SuperNova (Cu) X-ray Source'
_diffrn_radiation_type           CuK\a
_diffrn_radiation_wavelength     1.54178
_diffrn_reflns_av_R_equivalents  0.0218
_diffrn_reflns_av_unetI/netI     0.0184
_diffrn_reflns_Laue_measured_fraction_full 0.998
_diffrn_reflns_Laue_measured_fraction_max 0.999
_diffrn_reflns_limit_h_max       9
_diffrn_reflns_limit_h_min       -9
_diffrn_reflns_limit_k_max       7
_diffrn_reflns_limit_k_min       -6
_diffrn_reflns_limit_l_max       17
_diffrn_reflns_limit_l_min       -17
_diffrn_reflns_number            7322
_diffrn_reflns_point_group_measured_fraction_full 0.912
_diffrn_reflns_point_group_measured_fraction_max 0.910
_diffrn_reflns_theta_full        67.679
_diffrn_reflns_theta_max         71.899
_diffrn_reflns_theta_min         3.082
_exptl_absorpt_coefficient_mu    0.576
_exptl_absorpt_correction_T_max  0.986
_exptl_absorpt_correction_T_min  0.816
_exptl_absorpt_correction_type   analytical
_exptl_absorpt_process_details
;
CrysAlisPro, Agilent Technologies,
Version 1.171.36.32 (release 02-08-2013 CrysAlis171 .NET)
(compiled Aug  2 2013,16:46:58)
Analytical numeric absorption correction using a multifaceted crystal
            model based on expressions derived by R.C. Clark & J.S. Reid.
(Clark, R. C. & Reid, J. S. (1995). Acta Cryst. A51, 887-897)
;
_exptl_crystal_colour            colorless
_exptl_crystal_density_diffrn    1.324
_exptl_crystal_description       plate
_exptl_crystal_F_000             268
_exptl_crystal_size_max          0.50
_exptl_crystal_size_mid          0.40
_exptl_crystal_size_min          0.02
_refine_diff_density_max         0.167
_refine_diff_density_min         -0.154
_refine_diff_density_rms         0.032
_refine_ls_abs_structure_details
;
 Flack x determined using 846 quotients [(I+)-(I-)]/[(I+)+(I-)]
 (Parsons and Flack (2004), Acta Cryst. A60, s61).
;
_refine_ls_extinction_method     none
_refine_ls_goodness_of_fit_ref   1.045
_refine_ls_hydrogen_treatment    constr
_refine_ls_matrix_type           full
_refine_ls_number_parameters     188
_refine_ls_number_reflns         2277
_refine_ls_number_restraints     757
_refine_ls_restrained_S_all      0.908
_refine_ls_R_factor_all          0.0355
_refine_ls_R_factor_gt           0.0343
_refine_ls_shift/su_max          0.000
_refine_ls_shift/su_mean         0.000
_refine_ls_structure_factor_coef Fsqd
_refine_ls_weighting_details
;
 w=1/[\s^2^(Fo^2^)+(0.0622P)^2^+0.0737P]
 where P=(Fo^2^+2Fc^2^)/3
;
_refine_ls_weighting_scheme      calc
_refine_ls_wR_factor_gt          0.0941
_refine_ls_wR_factor_ref         0.0957
_reflns_Friedel_coverage         0.649
_reflns_Friedel_fraction_full    0.806
_reflns_Friedel_fraction_max     0.799
_reflns_number_gt                2191
_reflns_number_total             2277
_reflns_threshold_expression     'I > 2\s(I)'
_cod_data_source_file            c5ob02309b2.cif
_cod_data_source_block           1c
_cod_depositor_comments
'Adding full bibliography for 7154985--7154990.cif.'
_cod_database_code               7154986
_shelx_space_group_comment
;
The symmetry employed for this shelxl refinement is uniquely defined
by the following loop, which should always be used as a source of
symmetry information in preference to the above space-group names.
They are only intended as comments.
;
_shelxl_version_number           2013-2
_shelx_res_file
;
TITL xs0347a in P21
CELL  1.54178    7.5827    5.8864   14.3622    90.000    93.408    90.000
ZERR        2    0.0003    0.0003    0.0007     0.000     0.004     0.000
LATT  -1
SYMM             - X ,    0.50000 + Y ,            - Z
SFAC  C  H  B  N
UNIT    36   28   2   2

TEMP -163

ACTA
HTAB
BOND
BOND $H
CONF
WPDB

L.S. 6
FMAP 2
PLAN 10
OMIT -2 143.8

rem constraints
EADP C1 C1'
EADP C2 C2'
EADP C3 C3'
EADP C4 C4'
EADP C5 C5'
EADP C6 C6'
EADP C7 C7'
EADP C8 C8'
EADP C9 C9'
EADP C10 C10'
EADP C11 C11'
EADP C12 C12'
EADP C13 C13'
EADP C14 C14'
EADP C15 C15'
EADP C16 C16'
EADP C17 C17'
EADP C18 C18'
EADP B1 B1'
EADP N1 N1'

rem restraints
SIMU 0.01 C1 > N1'

WGHT    0.062200    0.073700
FVAR      13.40809   0.89536
PART 1
C1    1    0.234787    0.549808    0.558642    21.00000    0.01260    0.01965 =
         0.02098    0.00031    0.00042   -0.00121
C2    1    0.210233    0.702799    0.629263    21.00000    0.01408    0.01607 =
         0.02454    0.00200    0.00336    0.00156
AFIX  43
H2    2    0.147797    0.839977    0.615837    21.00000   -1.20000
AFIX   0
C3    1    0.276633    0.658319    0.721249    21.00000    0.01659    0.01736 =
         0.02370    0.00022    0.00403    0.00021
C4    1    0.256047    0.815730    0.795277    21.00000    0.01767    0.02142 =
         0.02346   -0.00103    0.00161   -0.00020
AFIX  43
H4    2    0.194309    0.954077    0.783267    21.00000   -1.20000
AFIX   0
C5    1    0.324610    0.768969    0.883561    21.00000    0.02127    0.02684 =
         0.02335   -0.00141    0.00032   -0.00072
AFIX  43
H5    2    0.309526    0.875159    0.932260    21.00000   -1.20000
AFIX   0
C6    1    0.417555    0.564657    0.903139    21.00000    0.02302    0.03045 =
         0.02354    0.00293   -0.00267    0.00125
AFIX  43
H6    2    0.465328    0.535408    0.964619    21.00000   -1.20000
AFIX   0
C7    1    0.439102    0.408827    0.834069    21.00000    0.02032    0.02484 =
         0.02471    0.00441   -0.00108    0.00192
AFIX  43
H7    2    0.501656    0.271976    0.847968    21.00000   -1.20000
AFIX   0
C8    1    0.368295    0.450198    0.741188    21.00000    0.01573    0.02088 =
         0.02393    0.00469    0.00098    0.00101
C9    1    0.385463    0.293337    0.668924    21.00000    0.01485    0.01753 =
         0.02777    0.00420    0.00354    0.00138
AFIX  43
H9    2    0.442697    0.152484    0.682242    21.00000   -1.20000
AFIX   0
C10   1    0.320851    0.338641    0.578231    21.00000    0.01483    0.01455 =
         0.02560   -0.00044    0.00438   -0.00086
C11   1    0.346634    0.177574    0.503734    21.00000    0.01398    0.01448 =
         0.03104    0.00063    0.00265   -0.00006
AFIX  43
H11   2    0.398817    0.034393    0.518607    21.00000   -1.20000
AFIX   0
C12   1    0.298297    0.225858    0.413529    21.00000    0.01848    0.01737 =
         0.02832   -0.00339    0.00453   -0.00160
AFIX  43
H12   2    0.316510    0.117112    0.366178    21.00000   -1.20000
AFIX   0
C13   1    0.169773    0.538392    0.284898    21.00000    0.01345    0.01886 =
         0.02569   -0.00247    0.00213   -0.00086
C14   1    0.084758    0.745325    0.262343    21.00000    0.01735    0.01999 =
         0.02486   -0.00148    0.00216   -0.00099
AFIX  43
H14   2    0.052728    0.843278    0.311123    21.00000   -1.20000
AFIX   0
C15   1    0.046516    0.809691    0.169900    21.00000    0.02053    0.02325 =
         0.02704    0.00240    0.00195   -0.00015
AFIX  43
H15   2   -0.011584    0.949894    0.156426    21.00000   -1.20000
AFIX   0
C16   1    0.092993    0.669714    0.097396    21.00000    0.02128    0.02962 =
         0.02403    0.00343    0.00174   -0.00157
AFIX  43
H16   2    0.066177    0.713117    0.034433    21.00000   -1.20000
AFIX   0
C17   1    0.179636    0.464277    0.117938    21.00000    0.02325    0.02834 =
         0.02472   -0.00350    0.00407    0.00002
AFIX  43
H17   2    0.213009    0.368070    0.068875    21.00000   -1.20000
AFIX   0
C18   1    0.216725    0.401366    0.210228    21.00000    0.01944    0.02212 =
         0.02404   -0.00213    0.00281   -0.00016
AFIX  43
H18   2    0.275611    0.261472    0.223242    21.00000   -1.20000
AFIX   0
B1    3    0.213751    0.457357    0.387837    21.00000    0.01363    0.01917 =
         0.02512   -0.00265    0.00267   -0.00057
N1    4    0.182129    0.598925    0.465699    21.00000    0.01691    0.01624 =
         0.02213   -0.00015    0.00125    0.00271
AFIX  43
H1    2    0.125081    0.727132    0.454463    21.00000   -1.20000
AFIX   6

PART 2
C1'   1    0.202075    0.541958    0.441042   -21.00000    0.01260    0.01965 =
         0.02098    0.00031    0.00042   -0.00121
C2'   1    0.132746    0.696704    0.378595   -21.00000    0.01408    0.01607 =
         0.02454    0.00200    0.00336    0.00156
H2'   2    0.084521    0.835338    0.399460   -21.00000   -1.20000
C3'   1    0.133620    0.648329    0.283068   -21.00000    0.01659    0.01736 =
         0.02370    0.00022    0.00403    0.00021
C4'   1    0.069398    0.808185    0.216238   -21.00000    0.01767    0.02142 =
         0.02346   -0.00103    0.00161   -0.00020
H4'   2    0.025197    0.949403    0.236822   -21.00000   -1.20000
C5'   1    0.068974    0.766545    0.124678   -21.00000    0.02127    0.02684 =
         0.02335   -0.00141    0.00032   -0.00072
H5'   2    0.025593    0.875832    0.080347   -21.00000   -1.20000
C6'   1    0.134493    0.556731    0.096139   -21.00000    0.02302    0.03045 =
         0.02354    0.00293   -0.00267    0.00125
H6'   2    0.128316    0.520275    0.031590   -21.00000   -1.20000
C7'   1    0.205375    0.406695    0.157264   -21.00000    0.02032    0.02484 =
         0.02471    0.00441   -0.00108    0.00192
H7'   2    0.257733    0.271599    0.135495   -21.00000   -1.20000
C8'   1    0.202984    0.447357    0.253368   -21.00000    0.01573    0.02088 =
         0.02393    0.00469    0.00098    0.00101
C9'   1    0.269802    0.284118    0.319474   -21.00000    0.01485    0.01753 =
         0.02777    0.00420    0.00354    0.00138
H9'   2    0.315004    0.143411    0.298941   -21.00000   -1.20000
C10'  1    0.268645    0.330460    0.412147   -21.00000    0.01483    0.01455 =
         0.02560   -0.00044    0.00438   -0.00086
C11'  1    0.329281    0.170069    0.481582   -21.00000    0.01398    0.01448 =
         0.03104    0.00063    0.00265   -0.00006
H11'  2    0.353576    0.019620    0.462117   -21.00000   -1.20000
C12'  1    0.354208    0.219991    0.573701   -21.00000    0.01848    0.01737 =
         0.02832   -0.00339    0.00453   -0.00160
H12'  2    0.409800    0.112736    0.615253   -21.00000   -1.20000
C13'  1    0.322867    0.534559    0.716584   -21.00000    0.01345    0.01886 =
         0.02569   -0.00247    0.00213   -0.00086
C14'  1    0.257537    0.738135    0.747805   -21.00000    0.01735    0.01999 =
         0.02486   -0.00148    0.00216   -0.00099
H14'  2    0.192708    0.834111    0.705021   -21.00000   -1.20000
C15'  1    0.284207    0.805715    0.839881   -21.00000    0.02053    0.02325 =
         0.02704    0.00240    0.00195   -0.00015
H15'  2    0.238257    0.946046    0.860365   -21.00000   -1.20000
C16'  1    0.376453    0.668705    0.899705   -21.00000    0.02128    0.02962 =
         0.02403    0.00343    0.00174   -0.00157
H16'  2    0.393733    0.712646    0.963239   -21.00000   -1.20000
C17'  1    0.446829    0.465403    0.871093   -21.00000    0.02325    0.02834 =
         0.02472   -0.00350    0.00407    0.00002
H17'  2    0.513943    0.370959    0.913522   -21.00000   -1.20000
C18'  1    0.416243    0.404526    0.778892   -21.00000    0.01944    0.02212 =
         0.02404   -0.00213    0.00281   -0.00016
H18'  2    0.463087    0.264713    0.758405   -21.00000   -1.20000
B1'   3    0.293424    0.446787    0.610397   -21.00000    0.01363    0.01917 =
         0.02512   -0.00265    0.00267   -0.00057
N1'   4    0.209493    0.579869    0.536524   -21.00000    0.01691    0.01624 =
         0.02213   -0.00015    0.00125    0.00271
H1'   2    0.155021    0.702994    0.554395   -21.00000   -1.20000
AFIX   0
HKLF 4

REM  xs0347a in P21
REM R1 =  0.0343 for    2191 Fo > 4sig(Fo)  and  0.0355 for all    2277 data
REM    188 parameters refined using    757 restraints

END

WGHT      0.0622      0.0737

REM Instructions for potential hydrogen bonds

REM No hydrogen bonds found for HTAB generation

REM Highest difference peak  0.167,  deepest hole -0.154,  1-sigma level  0.032
Q1    1   0.1977  0.5014  0.3357  11.00000  0.05    0.17
Q2    1   0.4432  0.9384  0.8018  11.00000  0.05    0.12
Q3    1   0.0630  0.9233  0.3390  11.00000  0.05    0.12
Q4    1   0.3491  0.2739  0.5432  11.00000  0.05    0.12
Q5    1   0.3052  0.4533  0.5622  11.00000  0.05    0.12
Q6    1   0.3595  0.4111  0.7939  11.00000  0.05    0.09
Q7    1   0.2935  0.7024  0.6653  11.00000  0.05    0.09
Q8    1   0.0181  0.2860  0.1220  11.00000  0.05    0.09
Q9    1   0.4076  0.5337  0.9804  11.00000  0.05    0.09
Q10   1   0.1431  0.4097  0.1635  11.00000  0.05    0.09
;
_shelx_res_checksum              66351
_shelx_hkl_file
;
   0  -5  -8 5793.53 285.336  30
   0  -5  -9 7817.46 324.449  30
   0  -5 -10 12852.2 390.292  30
   0  -5 -11 2830.22 177.520  30
   0  -5 -12 983.590 82.7102   7
   0  -5 -12 1178.84 108.509  30
   0  -4   0 5767.70 450.380   5
   0  -4   1 320.137 119.538   5
   0  -4  -1 399.257 130.678   5
   0  -4   2 5925.79 481.615   5
   0  -4   2 6081.34 477.962  26
   0  -4  -2 5887.69 456.135   5
   0  -4  -3 11361.1 632.758   5
   0  -4   3 8853.74 600.043  26
   0  -4  -4 7387.48 505.112   5
   0  -4   4 6524.91 538.791  26
   0  -4   5 681.977 223.694  26
   0  -4  -5 616.460 153.604   5
   0  -4  -6 8156.18 540.835   5
   0  -4   6 5968.98 606.897  26
   0  -4  -9 24305.3 631.633  30
   0  -4 -10 2212.60 211.332  30
   0  -4 -11 1105.20 149.509  30
   0  -4 -12 113.468 67.6149   7
   0  -4 -12 54.7433 66.4062  30
   0  -4 -13 4109.93 231.917  30
   0  -4 -13 3787.24 183.451   7
   0  -4 -14 2376.57 155.490  30
   0  -3   0 112.793 94.4632   5
   0  -3   0 18.9007 89.4666  26
   0  -3   0 84.0214 55.7993  23
   0  -3   1 17113.4 589.028  23
   0  -3  -1 17663.6 672.973   5
   0  -3  -1 17353.4 562.360  26
   0  -3   1 16930.4 628.146  26
   0  -3  -1 18549.2 517.802  23
   0  -3   2 58319.5 1250.77  26
   0  -3  -2 56178.5 1189.16   5
   0  -3  -3 117.266 75.8409   5
   0  -3   3 167.655 107.514  26
   0  -3  -4 6396.84 407.878   5
   0  -3  -5 16871.6 670.649   5
   0  -3  -6 3847.60 339.017   5
   0  -3   7 544.476 162.270  24
   0  -3  -7 521.725 153.288   5
   0  -3   8 35026.4 1310.22  24
   0  -3  -8 35777.1 1092.28   5
   0  -3   9 1714.15 323.116  24
   0  -3  -9 2169.95 188.495   8
   0  -3  -9 2304.11 305.426   5
   0  -3 -10 4121.80 265.947   8
   0  -3 -10 4126.92 269.293  30
   0  -3 -11 1056.85 147.022   8
   0  -3 -11 1059.68 158.859  30
   0  -3 -12 1115.01 150.714  30
   0  -3 -12 1029.74 139.329   8
   0  -3 -12 1126.33 126.499   7
   0  -3 -13 54.9480 71.4708  30
   0  -3 -13 136.164 59.1264   7
   0  -3 -13 65.3663 82.5624   8
   0  -3 -14 306.856 101.006   8
   0  -3 -14 383.069 97.6734  30
   0  -3 -15 781.319 108.001  30
   0  -3 -15 519.836 110.675   8
   0  -3 -16 8244.88 251.574   8
   0  -3 -16 8979.10 253.151  30
   0  -2   0 55389.6 814.430  23
   0  -2   0 58646.8 876.470  26
   0  -2  -1 105907. 1083.29  23
   0  -2  -1 100629. 1075.39  26
   0  -2  -2 179263. 1305.18  26
   0  -2  -2 179901. 1271.80  23
   0  -2  -2 177439. 1687.30   5
   0  -2   3 18388.6 419.387  22
   0  -2  -3 18218.7 394.924  26
   0  -2  -3 18515.5 410.810  23
   0  -2  -3 19070.9 559.767   5
   0  -2  -4 36172.2 777.904   5
   0  -2  -4 36072.9 569.809  26
   0  -2   4 36197.2 623.725  22
   0  -2   4 34475.6 604.825   6
   0  -2  -4 37214.4 631.597  23
   0  -2  -5 202703. 1900.91   5
   0  -2   5 203465. 1623.27  22
   0  -2  -6 14014.7 523.964   5
   0  -2   6 13073.5 447.008  22
   0  -2  -7 5076.08 351.267   5
   0  -2  -7 4592.38 316.066  23
   0  -2   7 5449.67 322.212  22
   0  -2   8 10434.9 491.882  22
   0  -2   8 11238.2 695.186  24
   0  -2  -8 10210.6 537.814   5
   0  -2   9 659.505 141.384  22
   0  -2  -9 321.288 123.565   5
   0  -2   9 287.616 135.782  24
   0  -2 -10 2599.16 298.829   5
   0  -2 -10 2563.47 208.144  30
   0  -2 -10 2687.32 207.885   8
   0  -2  10 2292.67 362.954  24
   0  -2 -11 30895.0 608.114   7
   0  -2 -11 28869.1 1011.68   5
   0  -2 -11 30111.5 703.906   8
   0  -2 -11 29708.9 688.634  30
   0  -2 -12 13341.0 406.946   7
   0  -2 -12 14094.0 487.636  30
   0  -2 -12 13584.9 492.714   8
   0  -2 -13 8016.03 375.251  30
   0  -2 -13 8137.27 402.226   8
   0  -2 -14 523.105 114.700  30
   0  -2  14 315.961 104.633  29
   0  -2 -14 456.674 125.269   8
   0  -2 -15 2429.06 181.262  30
   0  -2 -15 2497.29 202.664   8
   0  -2 -16 1772.54 156.856   8
   0  -2 -16 1684.49 137.490  30
   0  -2 -17-75.1447 57.3597   8
   0  -1  -1 752.715 64.8770  23
   0  -1  -1 789.685 69.0890  26
   0  -1  -2 5579.78 170.086  26
   0  -1  -2 5664.48 109.325   3
   0  -1   2 5396.85 182.416  22
   0  -1  -2 5509.30 174.404  23
   0  -1  -3 11778.9 277.838  26
   0  -1  -3 12224.3 198.656   3
   0  -1   3 11918.5 294.614  22
   0  -1  -3 11902.2 333.608   5
   0  -1  -3 11216.2 297.269  23
   0  -1   4 3050.13 124.716   6
   0  -1  -4 2864.85 183.218   5
   0  -1  -4 2693.11 177.109  23
   0  -1  -5 699.973 105.621  23
   0  -1  -5 1032.09 116.046   5
   0  -1   5 880.128 110.264  22
   0  -1  -6 50382.7 861.141   5
   0  -1   6 49920.9 852.790  22
   0  -1  -7 50181.4 985.339  23
   0  -1   7 53175.4 990.107  22
   0  -1   8 25100.5 1002.14  24
   0  -1  -8 25548.5 645.685   4
   0  -1   8 26323.2 774.052  22
   0  -1  -8 26518.3 750.667   5
   0  -1  -9 3752.71 311.591   5
   0  -1   9 3739.68 337.778  22
   0  -1   9 3235.63 397.654  24
   0  -1 -10 4584.98 373.270   5
   0  -1  10 4342.73 466.469  24
   0  -1  10 4548.15 397.349  22
   0  -1  11 93639.3 2192.78  24
   0  -1 -11 92670.5 1145.31  30
   0  -1  11 91189.0 1859.34  22
   0  -1 -11 92851.3 1189.69   8
   0  -1 -12 7421.41 360.879  30
   0  -1 -12 7877.26 377.957   8
   0  -1 -13 32008.5 737.117  30
   0  -1 -13 32620.7 773.337   8
   0  -1 -13 32759.0 789.428  12
   0  -1 -14 4216.52 267.750  30
   0  -1 -14 3847.15 275.397  12
   0  -1  14 3500.73 330.806  29
   0  -1 -14 3757.91 281.941   8
   0  -1  15 18.0826 90.3488  29
   0  -1 -15-51.2376 78.6901  30
   0  -1 -15 108.702 91.1177  12
   0  -1 -15 33.7039 84.6245   8
   0  -1 -16 684.492 125.372   8
   0  -1 -16 897.224 106.152  30
   0  -1  16 504.858 114.335  29
   0  -1  17 706.413 111.976  29
   0  -1 -17 652.271 112.104   8
   0   0  -1 122361. 516.729  23
   0   0  -1 123938. 459.206   2
   0   0   2 92551.8 652.165  22
   0   0  -2 90810.0 635.180  23
   0   0   3 242208. 1352.52  22
   0   0  -3 242823. 1373.09  23
   0   0  -3 245728. 1197.32   5
   0   0  -4 22995.0 427.824   5
   0   0  -4 23439.3 513.450  23
   0   0   4 23226.9 493.971  22
   0   0  -5 32220.7 693.532  23
   0   0  -5 33318.0 588.548   5
   0   0  -6 77224.8 986.714   5
   0   0   6 78047.7 1111.07  22
   0   0   7 21505.9 655.575  22
   0   0   7 22141.8 760.098  24
   0   0  -7 20972.8 577.287   5
   0   0   8 6721.90 467.119  24
   0   0   8 6535.41 404.941  22
   0   0  -8 6649.34 368.057   5
   0   0  -8 6695.46 368.527   4
   0   0  -9-149.259 96.3858   4
   0   0   9 112.847 92.2193  22
   0   0   9 7.41882 73.9376  24
   0   0  -9-7.38828 60.9068   5
   0   0 -10 14576.7 792.165   1
   0   0 -10 13008.3 614.282   5
   0   0  10 13309.7 727.435  22
   0   0 -10 15975.6 659.135   4
   0   0  10 13772.0 789.500  24
   0   0 -11 19783.1 553.792   9
   0   0  11 20472.9 928.181  22
   0   0 -11 21361.6 994.668   1
   0   0 -11 21930.0 827.353   4
   0   0  11 20042.3 954.523  24
   0   0 -12 112.735 135.572   1
   0   0 -12 1.51752 107.048   8
   0   0  12 51.7542 84.4442  32
   0   0  12 101.341 122.263  22
   0   0 -12 192.227 88.1862  30
   0   0  12 410.776 170.319  24
   0   0 -13 15791.1 594.231  12
   0   0 -13 15530.0 541.842   8
   0   0  13 16291.2 562.102  32
   0   0 -14 1779.58 199.335   8
   0   0 -14 1462.37 202.384  12
   0   0  14 1420.14 223.444  29
   0   0 -15 467.811 127.170   8
   0   0 -15 234.343 103.141  12
   0   0  15 182.345 104.210  29
   0   0 -16 2801.89 222.777   8
   0   0  16 2841.20 276.942  29
   0   0  17 3513.38 241.067  29
   0   0 -17 3841.61 194.794  12
   0   1   0 33.5723 28.1869   2
   0   1   0 21.5478 26.3006   4
   0   1   0-34.5287 28.3983  27
   0   1   1 716.308 60.2736   2
   0   1  -1 684.844 67.8117  25
   0   1  -1 734.184 62.6129   2
   0   1  -1 738.807 73.0978  27
   0   1  -1 733.758 64.7797   4
   0   1   1 695.068 78.7462  27
   0   1  -2 5234.85 184.349   2
   0   1   2 4964.01 205.061  22
   0   1   2 6198.74 266.513  27
   0   1  -2 5400.44 201.029   4
   0   1  -2 5296.10 214.429  27
   0   1  -2 5548.56 199.563   1
   0   1   2 5214.31 144.908  24
   0   1  -2 4464.38 147.281  25
   0   1   3 10706.7 361.270  25
   0   1   3 11224.3 350.838  22
   0   1  -3 11373.2 309.169   2
   0   1  -3 12225.6 332.624   1
   0   1   3 12196.4 292.373  24
   0   1  -4 3243.07 199.932   1
   0   1  -4 2886.19 180.029   2
   0   1   4 2943.55 201.239  22
   0   1   4 2594.63 205.856  25
   0   1   4 3005.50 184.623  24
   0   1  -5 864.037 123.254   4
   0   1   5 904.019 118.083  24
   0   1   5 914.351 127.949  22
   0   1  -5 930.566 131.819   1
   0   1   5 867.776 132.534  25
   0   1  -5 636.554 106.876   2
   0   1  -6 48956.5 997.584   1
   0   1   6 51012.3 958.820  24
   0   1  -6 48487.6 852.388   2
   0   1   6 50705.6 1027.69  22
   0   1  -6 51013.5 961.112   4
   0   1   7 54340.1 1120.88  24
   0   1   7 53046.8 1182.07  22
   0   1  -7 53177.0 1154.04   1
   0   1  -7 51579.7 1034.58   4
   0   1   8 26525.1 855.077  24
   0   1  -8 26591.8 811.548   4
   0   1   8 26809.6 905.641  22
   0   1  -8 26318.6 882.682   1
   0   1   9 3520.04 345.224  24
   0   1  -9 3968.64 381.634   1
   0   1  -9 3701.25 326.748   4
   0   1   9 3747.43 384.068  22
   0   1 -10 4684.32 425.053   1
   0   1  10 4299.45 434.301  22
   0   1 -10 4892.46 406.985   4
   0   1 -11 94326.1 1869.74   4
   0   1  11 81378.3 2293.19  27
   0   1 -11 87436.6 1137.66   9
   0   1  11 90693.4 2086.31  22
   0   1  11 86633.7 1295.71  32
   0   1 -11 88584.7 1143.76   8
   0   1 -12 7694.41 362.969   8
   0   1 -12 7521.51 414.213  12
   0   1  12 7553.62 405.964  32
   0   1 -13 31446.3 834.046  12
   0   1  13 30335.4 832.357  32
   0   1 -13 30996.7 744.758   8
   0   1  14 3500.85 329.601  29
   0   1  14 4104.72 296.596  32
   0   1 -14 3922.24 273.366   8
   0   1 -14 3357.22 279.982  12
   0   1  15 108.104 93.5635  32
   0   1  15 62.0049 84.8361  29
   0   1 -15 77.4597 83.6596  12
   0   1  16 668.019 138.609  29
   0   1  16 919.121 125.716  32
   0   1 -16 832.740 127.577  12
   0   1  17 718.424 115.420  29
   0   1 -17 1033.83 111.112  12
   0   2   0 49912.5 672.588   4
   0   2   0 50811.5 648.551   2
   0   2   0 51219.9 851.965  27
   0   2   0 51379.7 859.448  25
   0   2   1 86777.1 823.789   2
   0   2   1 86872.1 1177.63  25
   0   2   1 89150.3 1179.30  27
   0   2  -1 88193.5 947.415   4
   0   2  -1 88598.9 1090.40  27
   0   2  -1 87100.6 889.680   2
   0   2  -2 165405. 1314.42   2
   0   2   2 160815. 1141.91   2
   0   2  -2 164565. 1395.04   4
   0   2   2 163782. 1709.56  25
   0   2  -2 163865. 1375.93  25
   0   2  -2 161819. 1520.10  27
   0   2   3 17269.8 579.096  25
   0   2  -3 17263.8 419.243  25
   0   2  -3 16125.6 516.391  27
   0   2  -3 16238.6 482.081   4
   0   2  -3 16331.5 447.677   2
   0   2   3 16237.7 387.696   2
   0   2   3 17303.5 605.240  27
   0   2   4 31552.6 583.413   2
   0   2  -4 33951.9 537.256  25
   0   2  -4 31619.0 727.224   4
   0   2   4 33451.3 901.057  27
   0   2   4 33119.7 775.594  22
   0   2  -4 32310.9 667.158   2
   0   2  -4 33820.5 659.024   1
   0   2   4 33571.8 854.497  25
   0   2   5 185624. 2023.09  22
   0   2   5 188401. 2374.48  27
   0   2  -5 191484. 1733.03   1
   0   2   5 187076. 2158.73  25
   0   2  -5 181540. 1738.93   2
   0   2  -5 178828. 1887.69   4
   0   2   6 13319.2 597.966  22
   0   2  -6 12935.0 504.032   2
   0   2   6 12725.4 621.202  25
   0   2   6 13381.8 705.147  27
   0   2  -6 13596.2 521.503   1
   0   2  -6 13582.8 572.017   4
   0   2   7 5540.65 453.141  25
   0   2   7 4753.21 484.929  27
   0   2   7 4779.61 401.862  22
   0   2  -7 4712.88 355.075   2
   0   2  -7 5881.43 419.684   4
   0   2   8 10325.5 655.040  22
   0   2  -8 10599.0 587.419   4
   0   2   8 8806.95 688.553  27
   0   2   9 510.525 207.595  22
   0   2  -9 351.245 138.394   4
   0   2   9 277.137 165.045  27
   0   2 -10 2170.12 202.330  17
   0   2 -10 2325.29 224.620  12
   0   2  10 1927.09 366.520  27
   0   2  10 2230.31 204.334  11
   0   2  10 1929.03 225.492  32
   0   2  10 2213.65 336.328  22
   0   2 -10 2347.13 314.305   4
   0   2 -11 26217.1 735.675  12
   0   2 -11 28683.4 1109.74   4
   0   2  11 27558.2 711.587  11
   0   2  11 27681.5 788.039  32
   0   2 -11 25431.6 668.926  17
   0   2  12 12485.4 542.412  32
   0   2  12 12155.7 559.163  29
   0   2 -12 12574.6 521.700  12
   0   2  12 11798.7 474.414  11
   0   2  13 7569.72 434.378  29
   0   2  13 7549.08 369.948  11
   0   2  13 8350.78 443.051  32
   0   2 -13 7551.42 414.317  12
   0   2  14 337.479 113.783  29
   0   2 -14 511.434 125.432  12
   0   2  14 514.187 123.405  32
   0   2 -15 1921.61 209.409  19
   0   2 -15 2319.01 208.942  12
   0   2  15 2253.36 216.777  32
   0   2 -16 1084.46 129.081  19
   0   2 -16 1710.45 160.008  12
   0   2  16 1281.65 160.180  29
   0   2  16 1737.44 158.319  32
   0   2  17 12.7916 40.8097  29
   0   2  17 40.2039 47.6587  32
   0   2 -17 91.5951 60.1464  12
   0   3   0 25.7554 48.0894  27
   0   3   0 3.03528 66.7656  25
   0   3   0 11.8394 37.6506   2
   0   3  -1 15266.4 447.229   2
   0   3   1 15724.9 630.987  25
   0   3   1 15356.4 409.662   2
   0   3  -1 15304.7 498.603   4
   0   3  -1 15691.8 566.034  27
   0   3  -1 15284.2 574.223  25
   0   3   1 16084.7 614.661  27
   0   3   2 50745.2 1147.80  27
   0   3  -2 50266.9 1021.25  27
   0   3  -2 48322.8 968.252   4
   0   3  -2 51634.9 1027.03  25
   0   3   2 49946.4 1180.38  25
   0   3  -2 53079.6 891.118   2
   0   3  -3 190.164 69.1793  27
   0   3   3 122.775 80.9915  27
   0   3   3 140.734 83.4868  25
   0   3  -3 75.8991 52.2987  25
   0   3  -3 128.279 66.9505   4
   0   3  -3 175.293 72.6738   2
   0   3  -4 5985.30 347.262   2
   0   3   4 5530.66 426.675  27
   0   3   4 6037.75 451.715  25
   0   3  -4 6157.94 393.788   4
   0   3  -5 14394.4 646.023   4
   0   3   5 14021.7 752.872  27
   0   3  -5 15358.8 587.282   2
   0   3   5 14555.4 740.487  25
   0   3   6 3099.93 378.052  27
   0   3  -6 3386.35 301.126   2
   0   3   6 3380.23 386.758  25
   0   3  -6 3078.19 323.862   4
   0   3  -7 498.372 148.053   4
   0   3   7 687.325 199.024  27
   0   3  -7 658.062 144.546   2
   0   3   7 416.047 156.664  25
   0   3  -8 36523.6 1234.11   4
   0   3   8 33097.7 1469.96  27
   0   3  -9 1757.75 186.735  12
   0   3  -9 1883.89 277.610   4
   0   3  -9 2037.60 187.294  17
   0   3   9 1801.19 217.202  32
   0   3   9 1401.76 312.906  27
   0   3 -10 3203.42 246.509  17
   0   3  10 3384.90 299.267  32
   0   3 -10 3891.45 294.701  12
   0   3  10 3183.07 274.000  11
   0   3  11 771.837 146.859  11
   0   3 -11 815.489 138.701  17
   0   3  11 1060.17 182.513  32
   0   3 -11 685.946 138.315  12
   0   3 -12 990.928 160.999  12
   0   3  12 996.532 159.849  32
   0   3  12 773.059 145.732  11
   0   3 -12 692.754 162.011  19
   0   3  13 107.826 72.5139  11
   0   3  13 80.6341 93.7527  32
   0   3 -13 29.2487 92.3469  12
   0   3 -13 169.099 77.8846  19
   0   3  14 335.680 107.512  32
   0   3 -14 408.163 103.079  12
   0   3 -14 217.938 95.1150  19
   0   3  14 165.135 51.7581  11
   0   3  15 643.456 83.6961  11
   0   3 -15 669.371 105.094  12
   0   3  15 744.608 113.664  32
   0   3 -15 359.860 97.4760  19
   0   3  16 9188.89 284.054  32
   0   3 -16 6110.94 226.238  19
   0   4   0 5353.46 437.003  25
   0   4   1 430.732 172.627  25
   0   4  -1 184.129 118.805  25
   0   4  -2 5552.70 328.531   2
   0   4   2 5518.21 477.450  25
   0   4  -3 8213.87 428.317   2
   0   4   3 9352.67 632.686  25
   0   4  -4 5964.81 385.965   2
   0   4   4 6704.13 557.805  25
   0   4   5 715.320 199.243  25
   0   4   5 517.295 121.767  18
   0   4  -5 857.902 176.268   2
   0   4   6 7289.96 386.294  18
   0   4   6 8536.74 697.774  25
   0   4  -6 6724.83 418.759  19
   0   4  -6 6524.09 445.505   2
   0   4   6 7387.75 363.305  10
   0   4  -6 7283.03 546.872   4
   0   4   7 10001.1 443.819  32
   0   4  -7 9514.63 637.552   4
   0   4   7 9737.35 470.607  18
   0   4   7 10354.2 417.998  10
   0   4  -7 10006.9 527.303  19
   0   4   8 60331.3 1098.22  32
   0   4   8 59710.4 1075.26  11
   0   4  -8 60253.6 1260.99  19
   0   4   9 20316.2 650.852  32
   0   4   9 21095.5 640.614  11
   0   4  -9 21085.7 740.683  19
   0   4  -9 20027.5 543.607  17
   0   4  10 1711.44 206.903  11
   0   4 -10 1924.22 194.739  17
   0   4 -10 2385.47 257.289  19
   0   4  10 1854.44 206.586  32
   0   4 -11 829.890 161.169  19
   0   4  11 855.528 142.404  11
   0   4  11 946.564 157.619  32
   0   4  12-95.5225 78.2943  32
   0   4 -12 130.395 86.2662  19
   0   4  12 48.0377 65.1949  11
   0   4 -13 3061.49 243.507  19
   0   4  13 3831.20 249.705  32
   0   4  13 3340.11 215.392  11
   0   4  14 2249.55 167.673  32
   0   4  14 1953.95 139.684  11
   0   5   0 39.4709 83.3001  10
   0   5   0-36.4706 75.7188  18
   0   5  -1 1482.60 175.299  10
   0   5   1 1661.16 191.884  18
   0   5  -1 1504.42 178.016  18
   0   5   1 1586.45 189.702  10
   0   5  -2 19618.2 615.974  18
   0   5  -2 18888.6 545.256  10
   0   5   2 20172.8 647.670  18
   0   5   2 20021.5 624.841  10
   0   5   3 79151.8 1232.09  10
   0   5   3 77110.4 1289.04  18
   0   5   4 10125.2 441.290  10
   0   5  -4 9868.20 426.068  18
   0   5   4 9897.61 474.203  18
   0   5   5 2438.23 255.980  18
   0   5   5 2940.91 247.136  10
   0   5   5 2553.15 214.318  11
   0   5  -5 2551.95 239.444  19
   0   5  -6 977.881 154.816  19
   0   5   6 1021.48 156.108  10
   0   5   6 989.454 175.031  18
   0   5   6 1115.24 155.644  11
   0   5   7 6438.80 392.916  18
   0   5  -7 6712.49 398.537  19
   0   5   7 6713.83 348.122  11
   0   5   7 6850.85 337.203  10
   0   5  -8 4976.20 343.344  19
   0   5   8 4705.72 288.875  11
   0   5   8 4483.75 262.223  10
   0   5   9 6867.84 338.711  11
   0   5  -9 5934.27 346.050  19
   0   5  10 10785.0 398.032  11
   0   5 -10 10436.4 440.581  19
   0   5  10 10984.1 379.257  32
   0   5  11 2201.06 174.634  11
   0   5  11 2368.05 169.771  32
   0   5 -12 712.160 107.366  19
   0   5  12 936.635 99.2985  32
   0   5  12 920.226 108.172  11
   0   6   0 267.456 73.2615  18
   0   6   0 225.095 84.0590  10
   0   6   1 4612.69 286.063  10
   0   6  -1 4137.93 274.583  18
   0   6  -1 4139.27 251.880  10
   0   6   1 4599.91 298.651  18
   0   6   2 4693.85 280.203  10
   0   6   2 4774.96 303.028  18
   0   6  -2 3988.08 233.549  10
   0   6  -2 4643.62 283.863  18
   0   6   3 1300.37 150.046  10
   0   6   3 1304.72 164.407  18
   0   6  -3 1176.37 142.526  18
   0   6  -4 490.347 98.0321  18
   0   6   4 590.252 116.183  10
   0   6   4 537.442 110.470  18
   0   6   5 878.414 138.089  18
   0   6   5 913.564 122.384  10
   0   6   6 3291.02 217.871  10
   0   6   7 374.048 81.2874  10
   0   6   7 479.168 80.6050  11
   0   6  -8 1859.58 141.456  19
   0   6   8 1917.40 137.108  11
   0   6   8 1705.03 123.504  10
   0   6  -9 1698.06 116.892  19
   0   6   9 1881.60 121.332  11
   0   7   0-14.6697 37.0648  18
   0   7   0 68.6434 47.0916  10
   0   7   1 1069.44 99.0610  10
   0   7  -1 999.059 94.2457  18
   0   7   1 1028.84 103.285  18
   0   7  -1 953.895 78.9404  10
   0   7  -2 768.162 81.6187  18
   0   7   2 716.071 83.5077  10
   0   7   3 2019.57 126.236  10
   0   7   4 811.142 82.6976  10
   1  -6  -9 2084.48 116.098  30
   1  -6  -8 3779.83 170.968  30
   1  -6  -7 507.233 80.7646  30
   1  -5 -12-20.5558 51.0371  30
   1  -5 -12-48.0236 34.4271   7
   1  -5 -11 1043.27 116.151  30
   1  -5 -10 14085.9 413.604  30
   1  -5  -9 4771.61 255.655  30
  -1  -5  -8 2059.46 168.004  30
  -1  -5  -9 2522.45 188.612  30
  -1  -5 -10 784.549 97.1603  30
  -1  -5 -11 1284.66 110.949   7
  -1  -5 -11 1368.48 119.210  30
  -1  -5 -12 828.332 92.3147  30
  -1  -5 -12 666.521 71.8811   7
   1  -4 -14 2273.84 150.839  30
   1  -4 -14 2044.16 141.098   8
   1  -4 -13 71.8592 63.1785  30
   1  -4 -13-47.6875 81.7425   8
   1  -4 -12 771.539 98.7739   7
   1  -4 -12 914.481 122.901  30
   1  -4 -12 697.602 121.278   8
   1  -4 -11 290.962 90.1295  30
   1  -4 -11 249.200 86.0148   8
   1  -4 -10 49551.7 839.403   8
   1  -4  -9 19022.5 515.683   8
   1  -4  -6 2664.78 319.059   5
  -1  -4   6 1810.74 304.491  26
   1  -4  -5 3966.96 395.321   5
  -1  -4   5 3121.63 394.170  23
  -1  -4   5 2847.87 372.906  26
  -1  -4   4 57318.0 1594.69  23
   1  -4  -4 57916.9 1477.23   5
  -1  -4   3 71681.5 1517.19   5
   1  -4  -3 73444.3 1682.46   5
  -1  -4   3 73500.0 1593.46   6
  -1  -4   3 69334.3 1665.55  23
   1  -4  -2 24272.4 972.631   5
  -1  -4   2 25051.6 895.808   5
  -1  -4   1 14235.4 675.408   5
   1  -4  -1 14172.5 746.381   5
   1  -4   0 1456.78 241.067  26
   1  -4   0 1547.64 259.133   5
  -1  -4   0 1319.61 197.144   5
   1  -4   1 855.229 217.370  26
  -1  -4  -1 1071.27 195.420   5
   1  -4   1 666.272 188.852   5
   1  -4   2 90.4145 97.5389  26
  -1  -4  -2 169.715 107.695   5
   1  -4   3 5290.26 502.875  26
  -1  -4  -3 5177.94 417.795   5
  -1  -4  -4 169.342 103.835   5
   1  -4   4 184.810 114.279  26
   1  -4   5 1029.54 229.385  26
  -1  -4  -5 1069.08 202.525   5
   1  -4   6 12364.0 904.109  26
  -1  -4  -6 14569.3 717.751   5
  -1  -4  -7 11847.9 415.530  30
  -1  -4  -8 28687.9 652.402  30
  -1  -4  -9 62734.0 982.721  30
  -1  -4 -10 12683.7 450.731  30
  -1  -4 -11 2888.32 220.844  30
  -1  -4 -12 1790.97 164.616  30
  -1  -4 -12 1561.46 143.320   7
  -1  -4 -13 1000.64 100.422   7
  -1  -4 -13 1092.31 128.182  30
  -1  -4 -14 2370.26 148.313  30
  -1  -4 -14 2277.95 119.332   7
   1  -3 -16 10426.2 297.330   8
   1  -3 -16 12132.2 268.491  30
   1  -3 -15 2807.69 176.930  30
   1  -3 -15 3230.93 195.688   8
   1  -3 -14 344.106 93.6575  30
   1  -3 -14 287.341 93.3625   8
   1  -3 -13 2325.55 195.168  30
   1  -3 -13 1871.83 198.842   8
   1  -3 -12 3573.68 257.655  30
   1  -3 -12 3699.77 269.106   8
   1  -3 -11 4056.77 281.869   8
   1  -3 -11 4199.04 268.411  30
   1  -3 -10 8059.92 366.233   8
   1  -3  -9 9549.32 568.435   5
  -1  -3   9 9507.24 729.682  24
  -1  -3   8 3762.04 453.317  24
   1  -3  -8 3720.80 335.419   5
   1  -3  -7 704.289 148.767   5
  -1  -3   7 844.322 208.250  24
  -1  -3   6 627.592 210.016  24
   1  -3  -6 559.714 124.936   5
   1  -3  -5 11491.4 570.161   5
  -1  -3   5 9245.54 556.554  24
  -1  -3   4 3411.03 303.832  24
   1  -3  -4 3790.76 336.105   5
  -1  -3   4 3766.08 300.643   6
  -1  -3   3 9426.62 443.706  24
   1  -3  -3 10140.2 453.333  26
   1  -3  -2 109287. 1767.04   5
   1  -3  -2 107829. 1545.96  26
  -1  -3   2 108401. 1637.71   5
  -1  -3   2 113172. 1848.72  23
   1  -3  -1 8636.27 509.394   5
  -1  -3   1 8339.72 414.420  26
   1  -3  -1 9162.79 483.729  26
  -1  -3   1 9195.92 504.399  23
  -1  -3   1 9417.25 480.263   5
  -1  -3   0 12977.3 543.217   5
  -1  -3   0 13131.8 571.179  23
   1  -3   0 13284.3 601.191  26
   1  -3   1 143252. 2056.91  26
  -1  -3  -1 139639. 1778.92   5
  -1  -3  -1 143496. 1828.80  23
  -1  -3  -2 27994.8 763.237  23
   1  -3   2 29421.5 969.294  26
  -1  -3  -2 27774.9 791.296   5
  -1  -3  -3 69355.4 1165.52  23
   1  -3   3 72164.8 1579.84  26
  -1  -3  -3 70778.9 1295.82   5
   1  -3   3 74346.2 1270.77  22
   1  -3   4 46285.8 1340.32  26
  -1  -3  -4 45585.3 964.348  23
  -1  -3  -4 46340.5 1064.50   5
   1  -3   4 46007.7 976.944  22
  -1  -3  -5 13622.9 547.762  23
   1  -3   5 13873.7 791.662  26
   1  -3   5 14031.8 546.516  22
  -1  -3  -5 13899.1 606.992   5
  -1  -3  -6 904.283 175.268   5
   1  -3   6 846.678 144.415  22
   1  -3   6 822.126 237.330  26
   1  -3   7 16093.8 923.068  26
  -1  -3  -7 15656.0 709.422   5
  -1  -3  -8 78279.2 1690.34   5
   1  -3   8 80703.1 2172.24  26
   1  -3   9 734.688 264.632  24
   1  -3   9 419.153 183.432  26
  -1  -3  -9 895.353 205.997   5
  -1  -3  -9 482.058 106.886  30
  -1  -3 -10 345.367 101.823  30
  -1  -3 -10 316.051 95.7058   8
  -1  -3 -11 3554.62 262.636  30
  -1  -3 -11 3669.30 262.911   8
  -1  -3 -12 1787.53 195.125  30
  -1  -3 -12 1739.83 156.292   7
  -1  -3 -12 1456.37 172.577   8
  -1  -3 -13 1783.84 184.664  30
  -1  -3 -13 2008.72 163.913   7
  -1  -3 -13 1464.40 167.925   8
  -1  -3 -14 2395.05 184.871  30
  -1  -3 -14 2278.58 150.114   7
  -1  -3 -15 1567.45 139.039  30
  -1  -3 -15 1363.06 129.676   8
  -1  -3 -15 1560.80 108.091   7
   1  -2 -17 560.782 88.3675   8
   1  -2 -16 1013.15 101.383  30
   1  -2 -16 1298.39 138.583   8
   1  -2 -15 1437.69 147.493  30
   1  -2 -15 1246.33 150.331   8
   1  -2 -14 3540.06 250.645   8
  -1  -2  14 3266.20 291.245  29
   1  -2 -14 3950.83 241.867  30
   1  -2 -13 16874.1 548.943   8
   1  -2 -13 16509.1 513.500  30
   1  -2 -12 2522.60 214.385  30
   1  -2 -12 2561.41 228.109   8
   1  -2 -11 3644.06 245.658  30
   1  -2 -11 3108.46 241.528   8
   1  -2 -11 3484.76 241.063   9
  -1  -2  10 3673.90 447.045  24
   1  -2 -10 4630.20 286.105   8
  -1  -2   9 11883.3 765.468  24
   1  -2  -9 11842.1 578.996   5
   1  -2  -8 12622.0 544.973   5
  -1  -2   8 13076.9 751.272  24
  -1  -2   7 16493.8 780.100  24
   1  -2  -7 15338.1 562.883   5
   1  -2  -6 16820.3 567.499  26
  -1  -2   6 17845.7 765.362  24
   1  -2  -6 17515.6 576.351   5
   1  -2  -5 55013.5 1012.34  26
  -1  -2   5 56890.0 727.921  22
   1  -2  -5 55311.6 998.683   5
  -1  -2   5 53451.1 904.801   6
  -1  -2   4 6453.02 391.434  24
  -1  -2   4 7591.12 341.026   6
   1  -2  -4 8337.18 385.505   5
  -1  -2   4 7172.49 219.342  22
   1  -2  -4 7620.81 353.315  26
  -1  -2   3 10808.0 204.541  22
   1  -2  -3 11887.1 431.805  26
  -1  -2   3 12175.1 430.639   6
   1  -2  -3 12668.1 473.153   5
  -1  -2   3 10936.6 436.362  24
   1  -2  -2 14218.1 507.505   5
   1  -2  -2 13879.4 474.664  26
  -1  -2   2 13035.6 415.903  24
  -1  -2   1 829.137 153.641  23
  -1  -2   1 526.496 79.4277  24
   1  -2  -1 870.116 159.173  26
  -1  -2   1 690.173 148.232   5
   1  -2   0 8524.20 238.858  23
  -1  -2   0 10115.1 381.848   5
  -1  -2   0 8492.55 206.473  24
   1  -2   0 11265.0 458.252  26
  -1  -2   0 10619.5 435.269  23
  -1  -2  -1 138597. 938.795  26
  -1  -2  -1 134875. 1403.65   5
  -1  -2  -2 12590.8 425.145   5
   1  -2   2 13563.1 548.502  26
  -1  -2  -2 13076.2 465.170  23
   1  -2   3 1538.71 171.825  22
  -1  -2  -3 1288.65 152.443   5
   1  -2   3 1364.32 199.674  26
  -1  -2  -3 1439.18 154.530  23
  -1  -2  -4 25401.2 657.850  23
  -1  -2  -4 26896.2 486.988   3
   1  -2   4 26544.5 667.675  22
  -1  -2  -4 26823.4 670.095   5
  -1  -2  -5 29432.8 740.708   5
  -1  -2  -5 30282.8 531.240   3
   1  -2   5 30399.0 731.960  22
  -1  -2  -6 2311.00 238.814  23
  -1  -2  -6 2514.34 238.986   5
   1  -2   6 2827.39 244.127  22
  -1  -2  -7 687.189 138.285  23
   1  -2   7 808.059 157.279  22
  -1  -2  -7 743.570 161.717   5
  -1  -2  -8 381.870 139.170   5
   1  -2   8 240.095 84.1088  22
  -1  -2  -8 343.783 124.397  23
  -1  -2  -9 2492.84 285.755  23
  -1  -2  -9 2672.97 307.821   5
   1  -2   9 2857.86 286.922  22
  -1  -2 -10 8420.37 571.769   5
  -1  -2 -10 8720.30 363.069   8
  -1  -2 -10 8588.93 365.549  30
   1  -2  10 8451.65 682.252  24
   1  -2  10 8043.38 514.839  22
  -1  -2 -11 76417.2 1007.17   7
  -1  -2 -11 77474.4 1141.83   8
  -1  -2 -11 76318.1 1142.31  30
  -1  -2 -12 2042.51 208.705   8
  -1  -2 -12 1972.09 182.588   7
  -1  -2 -12 2132.73 223.221  30
  -1  -2 -13 5711.73 339.428   8
  -1  -2 -13 5857.09 281.561   7
  -1  -2 -13 5954.53 334.641  30
  -1  -2 -14 6805.66 334.323  30
  -1  -2 -14 6460.08 351.308   8
  -1  -2 -14 6574.34 278.466   7
  -1  -2 -15 1664.00 127.609   7
  -1  -2 -15 1748.71 159.768  30
  -1  -2 -15 1722.67 176.305   8
   1  -2  16 58.7011 67.2965  16
  -1  -2 -16 204.979 68.9604  30
  -1  -2 -16 112.698 75.2258   8
  -1  -1  17 830.601 121.461  29
   1  -1 -17 825.732 120.895   8
   1  -1 -16 1103.75 130.881  12
   1  -1 -16 913.590 138.782   8
  -1  -1  16 919.278 160.891  29
   1  -1 -15-22.6598 94.6488   8
   1  -1 -15 64.2309 85.0496  12
  -1  -1  15 103.353 80.9767  29
   1  -1 -14 3140.98 257.592   8
   1  -1 -14 3200.44 230.762  30
   1  -1 -13 2302.36 217.011   8
   1  -1 -13 2367.31 197.926  30
   1  -1 -12 84536.4 1109.77  30
   1  -1 -12 86906.9 1200.68   8
   1  -1 -12 83208.3 1200.84   9
   1  -1 -11 45865.8 830.877   9
   1  -1 -11 44866.9 762.945  30
   1  -1 -11 45344.1 827.492   8
  -1  -1  11 44006.3 1540.26  24
   1  -1 -11 45444.0 1571.94   1
  -1  -1  11 40950.9 1260.63  22
   1  -1 -10 1782.86 311.040   1
  -1  -1  10 1423.43 295.486  24
  -1  -1  10 1499.77 242.222  22
   1  -1  -9 1594.27 189.808   5
  -1  -1   9 1554.98 235.116  22
  -1  -1   9 1429.51 275.952  24
  -1  -1   8 7587.30 439.264  22
   1  -1  -8 7328.46 366.115   5
  -1  -1   8 6543.77 540.501  24
  -1  -1   7 101426. 1870.01  24
   1  -1  -7 97444.2 1216.19   5
   1  -1  -7 96280.0 1138.72   4
  -1  -1   7 102380. 1397.10  22
   1  -1  -6 18326.3 477.790   5
  -1  -1   6 19543.7 543.593  22
   1  -1  -6 17643.2 422.449   4
   1  -1  -6 17656.4 578.313  26
  -1  -1   6 17485.3 487.992   6
  -1  -1   6 18037.2 708.204  24
   1  -1  -5 124433. 971.040   4
   1  -1  -5 122776. 1410.00  26
   1  -1  -5 126380. 1155.05   5
  -1  -1   5 126880. 1646.83  24
  -1  -1   5 126298. 1232.09   6
  -1  -1   5 125699. 1173.01  22
   1  -1  -4 10189.2 235.300   4
  -1  -1   4 9674.49 419.054  24
  -1  -1   4 9798.07 271.911  22
  -1  -1   4 9955.85 337.491   6
   1  -1  -4 10227.2 379.338  26
   1  -1  -4 9862.76 319.667   5
   1  -1  -3 20987.8 449.590   5
   1  -1  -3 21005.3 499.480  26
  -1  -1   3 19916.8 319.031  22
  -1  -1   3 20807.2 528.870  24
  -1  -1   3 20771.0 457.916   6
  -1  -1   2 233889. 779.068  22
   1  -1  -2 234345. 1490.13   5
  -1  -1   2 235387. 1531.42  24
   1  -1  -2 231669. 1569.47  26
   1  -1  -1 294319. 1772.46  26
  -1  -1   1 293974. 1425.66  24
  -1  -1   1 298151. 1276.91   5
  -1  -1  -1 233257. 1272.79   5
  -1  -1  -1 244180. 1661.95  23
  -1  -1  -2 8430.26 304.623  23
   1  -1   3 5041.45 247.994  22
  -1  -1  -3 4736.57 242.402  23
  -1  -1  -3 5101.37 228.980   5
  -1  -1  -4 3820.55 184.163   3
   1  -1   4 3625.44 217.683  22
  -1  -1  -4 3477.11 217.038   5
  -1  -1  -4 3603.52 230.616  23
  -1  -1  -5 3388.83 241.474  23
  -1  -1  -5 3441.03 233.886   5
  -1  -1  -5 3756.42 198.073   3
   1  -1   5 3641.66 238.537  22
  -1  -1  -6 161504. 1719.19   5
  -1  -1  -6 143319. 1294.37   3
   1  -1   6 151172. 1626.43  22
  -1  -1  -7 14180.2 547.149   5
  -1  -1  -7 12735.6 526.239  23
   1  -1   7 14219.8 542.546  22
  -1  -1  -8 5585.24 401.226  23
  -1  -1  -8 6285.94 407.257   5
   1  -1   9 1389.01 213.586  22
  -1  -1  -9 1280.75 217.853  23
  -1  -1  -9 1106.97 201.994   5
   1  -1  10 11263.8 737.215  24
   1  -1  10 10799.3 602.889  22
  -1  -1 -10 10851.6 608.290   5
  -1  -1 -11 97521.8 1291.95   8
   1  -1  11 100150. 1941.94  22
  -1  -1 -11 98615.2 1251.07  30
   1  -1  11 100473. 1500.21  29
   1  -1  11 100785. 2280.20  24
  -1  -1 -11 100942. 1110.02   7
  -1  -1 -12 11908.7 472.776   8
  -1  -1 -12 11652.2 397.262   7
   1  -1  12 11449.1 546.793  29
  -1  -1 -12 11380.8 459.330  30
  -1  -1 -13 5180.25 273.475   7
  -1  -1 -13 5607.87 338.473   8
   1  -1  13 5773.64 398.187  29
  -1  -1 -13 5886.11 329.651  30
  -1  -1 -14 1537.71 194.493   8
  -1  -1 -14 1323.95 172.482  30
  -1  -1 -14 1370.71 135.783   7
   1  -1  14 1463.81 198.574  29
   1  -1  15 224.054 85.5255  29
  -1  -1 -15 375.711 112.835   8
  -1  -1 -15 444.354 102.137  30
   1  -1  16 1077.57 164.403  29
  -1  -1 -16 1419.97 133.938  30
  -1  -1 -16 1198.81 155.238   8
   1  -1  17 5617.61 277.809  16
  -1  -1 -17 5896.68 197.574  30
   1   0 -17 1729.41 136.345  12
  -1   0  17 1628.85 174.078  29
   1   0 -16 28.7654 80.1977   8
   1   0 -16-18.9899 77.3288  12
  -1   0  16-104.085 65.0499  29
  -1   0  15 568.932 124.006  32
   1   0 -15 756.701 139.503  12
   1   0 -15 755.323 139.765   8
   1   0 -14 894.724 138.668   8
  -1   0  14 779.221 146.987  32
  -1   0  13 9877.61 458.022  32
   1   0 -13 10231.7 427.438   8
   1   0 -13 9665.75 424.217   9
   1   0 -12 52631.5 923.454   8
  -1   0  12 52551.9 1006.59  32
  -1   0  12 52274.7 1651.54  24
   1   0 -12 52269.6 936.937   9
  -1   0  12 51559.9 1574.80  22
   1   0 -12 53743.9 1683.26   1
   1   0 -11 49040.3 1551.32   1
  -1   0  11 46091.9 1425.10  22
  -1   0  11 47379.3 1520.89  24
   1   0 -11 48666.0 843.968   9
  -1   0  10 2405.17 361.895  24
   1   0 -10 2155.76 324.418   1
   1   0 -10 2717.11 288.462   4
  -1   0  10 2172.78 311.520  22
   1   0  -9 643.371 180.466   1
  -1   0   9 692.039 185.447  24
   1   0  -9 791.928 163.017   4
  -1   0   9 727.350 185.622  22
  -1   0   8 145.429 103.576  24
  -1   0   8 85.7794 72.9631  22
   1   0  -8 345.781 123.798   1
   1   0  -8 236.883 90.2563   4
   1   0  -8 144.723 52.1760   5
  -1   0   7 165.571 83.3142  22
  -1   0   7 151.531 101.748  24
   1   0  -7 65.8381 40.1806   5
   1   0  -7 167.648 86.8457   4
   1   0  -7 90.1491 107.399   1
   1   0  -6 5297.42 279.423   4
  -1   0   6 5292.08 305.870  22
   1   0  -6 5201.22 388.476   1
   1   0  -6 5563.86 228.730   5
  -1   0   6 5357.69 363.510  24
   1   0  -5 8647.85 245.394   5
  -1   0   5 7226.43 385.021  24
   1   0  -5 7750.32 301.848   4
  -1   0   5 7978.20 218.549  25
  -1   0   5 8282.66 337.838  22
   1   0  -4 286.698 88.3194   1
   1   0  -4 214.938 70.5410  26
  -1   0   4 282.356 80.2878  24
  -1   0   4 224.465 37.2459  25
   1   0  -4 283.897 42.4463   5
  -1   0   4 259.051 61.0324  22
   1   0  -4 300.705 64.2501   4
  -1   0   3 539.911 81.3087  22
  -1   0   3 452.486 59.2555  25
  -1   0   3 496.727 87.6762  24
  -1   0   3 448.769 91.7114   6
   1   0  -3 578.914 94.6728   1
   1   0  -3 547.824 83.1474   4
   1   0  -3 623.167 52.0450   5
  -1   0   2 720.805 90.3702  24
   1   0  -2 693.828 81.7285   1
   1   0  -2 614.219 78.2255   4
  -1   0   2 621.619 68.9832  22
   1   0  -2 728.302 35.5259   5
  -1   0   2 681.350 60.4272  25
   1   0  -1 3446.10 136.561  27
   1   0  -1 3513.81 155.298   1
  -1   0   1 3432.15 154.073  24
  -1   0   0 2269.29 114.608  23
  -1   0   0 2391.00 83.8280   5
   1   0   0 2149.88 105.847   1
  -1   0   0 2088.62 112.181  24
   1   0   0 2255.53 101.088  27
  -1   0  -1 42990.3 454.288   2
   1   0   1 42994.2 499.584  26
  -1   0  -1 42522.1 495.430  23
   1   0   1 42101.2 488.021  22
  -1   0  -1 41236.4 419.866   6
  -1   0  -2 31203.8 474.679  23
   1   0   2 30170.5 463.473  22
  -1   0  -2 30259.5 378.181   2
  -1   0  -3 1687.04 117.489   3
  -1   0  -3 1391.89 80.8776   6
  -1   0  -3 1595.86 95.9821   2
   1   0   3 1689.62 129.428  22
  -1   0  -3 1612.37 129.719  23
   1   0   4 7499.61 287.887  22
  -1   0  -4 7229.33 260.509   3
  -1   0  -4 7051.90 225.527   2
  -1   0  -4 6773.78 290.575   5
  -1   0  -4 6664.57 289.025  23
  -1   0  -5 2.10741 33.2796  23
  -1   0  -5-7.87765 32.8182   2
  -1   0  -5 28.2817 47.2336   5
  -1   0  -5 43.9761 46.0924   3
  -1   0  -5 6.57660 12.3268   6
   1   0   5 16.8823 40.2838  22
  -1   0  -6 1890.93 150.542   2
  -1   0  -6 1862.06 187.183   5
  -1   0  -6 1294.65 153.987  23
   1   0   6 1813.93 177.306  22
  -1   0  -7 1270.37 175.171   5
   1   0   7 1432.50 185.175  22
  -1   0  -7 905.393 170.244  23
  -1   0  -8 119.440 65.3811  23
  -1   0  -8 93.7870 88.2006   5
   1   0   8-49.0856 74.7258  22
  -1   0  -9 866.584 180.990   5
   1   0   9 1038.09 192.748  22
   1   0   9 937.094 213.922  24
  -1   0 -10 155.631 97.7227   5
   1   0  10 352.847 129.329  22
   1   0  10 263.226 111.951  24
  -1   0 -10 410.692 154.579   4
  -1   0 -11 46.6791 98.2691   8
   1   0  11-144.151 189.248  27
   1   0  11 109.877 109.426  24
   1   0  11 100.938 109.840  22
  -1   0 -11 49.4020 88.6367   5
  -1   0 -11 22.7842 91.4418  30
  -1   0 -11 136.375 107.070   4
  -1   0 -11 47.2244 110.612  12
  -1   0 -12-13.2300 86.4262   7
   1   0  12 22.4383 90.0207  29
  -1   0 -12 139.130 106.217   8
  -1   0 -12-2.81975 122.117  12
  -1   0 -12 170.298 99.1612  30
  -1   0 -13-0.83934 105.132   8
  -1   0 -13 67.5791 83.4402  30
   1   0  13-42.9182 108.892  29
  -1   0 -13 171.344 96.6269  12
  -1   0 -14 31.7702 81.8648  30
   1   0  14-12.4137 101.542  29
  -1   0 -14-161.444 115.461   8
  -1   0 -14 34.0847 104.668  12
  -1   0 -15 44.0616 69.5743  30
   1   0  15-28.5567 83.1119  29
  -1   0 -15 1.54265 88.4608  12
  -1   0 -15 64.6510 102.212   8
  -1   0 -16 68.2953 83.1606  12
   1   0  16 168.917 93.9075  29
   1   0  17 4523.29 245.196  29
  -1   1  17 979.134 106.355  32
  -1   1  17 851.735 119.631  29
   1   1 -17 1011.32 111.490  12
  -1   1  16 717.523 123.043  32
  -1   1  16 525.460 141.863  29
   1   1 -16 915.328 133.056  12
   1   1 -15 75.8049 85.5741  12
  -1   1  15-83.3252 100.685  29
  -1   1  15-29.6517 77.0245  32
   1   1 -15 91.9084 81.2430   8
  -1   1  14 3623.16 293.549  32
   1   1 -14 3287.43 284.743  12
   1   1 -14 3075.18 223.528   8
  -1   1  13 2241.13 234.410  32
   1   1 -13 2294.75 213.900   8
   1   1 -13 2052.12 200.343   9
   1   1 -12 79490.0 1149.57   9
  -1   1  12 81722.0 1324.36  32
   1   1 -12 78915.7 1190.69  17
   1   1 -12 81507.5 1098.97   8
   1   1 -11 41698.0 1395.98   1
   1   1 -11 43856.5 1322.58   4
  -1   1  11 40506.2 1435.25  22
   1   1 -11 42257.5 824.523  17
   1   1 -11 42350.8 785.208   9
  -1   1  11 41504.0 909.856  32
   1   1 -10 1771.12 264.342   4
  -1   1  10 1163.39 258.211  22
   1   1 -10 1939.88 306.967   1
  -1   1  10 1145.26 192.881  24
   1   1  -9 1515.27 254.342   1
  -1   1   9 1534.13 241.078  24
  -1   1   9 1429.18 262.641  22
   1   1  -9 1617.68 239.127   4
  -1   1   8 7057.53 481.272  24
   1   1  -8 7472.78 524.380   1
   1   1  -8 7645.12 476.535   4
  -1   1   8 7428.77 502.829  22
   1   1  -7 96743.4 1681.37   1
  -1   1   7 91853.7 1538.08  24
   1   1  -7 98274.8 1517.60   4
  -1   1   7 98369.5 1365.46  25
  -1   1   7 93037.5 1598.71  22
   1   1  -6 17128.6 581.263   4
  -1   1   6 17670.5 552.919  25
   1   1  -6 17494.7 646.642   1
  -1   1   6 17735.4 600.626  24
  -1   1   6 16676.5 613.296  22
   1   1  -5 118287. 1376.26   4
  -1   1   5 120244. 1500.47  22
  -1   1   5 119301. 1352.80  25
   1   1  -5 125039. 1569.98   1
  -1   1   5 126201. 1448.07  24
  -1   1   4 9619.53 364.713  25
   1   1  -4 9546.73 364.147   4
   1   1  -4 9880.70 418.710   1
  -1   1   4 9692.43 379.093  24
  -1   1   4 9722.13 384.624  22
   1   1  -3 20452.6 551.820  27
  -1   1   3 18921.0 482.214  25
   1   1  -3 20567.4 552.115   1
   1   1  -3 19549.3 487.089   4
  -1   1   2 221623. 1502.20  25
   1   1  -2 221664. 1501.40   4
  -1   1   2 220304. 1468.06  24
  -1   1   1 288341. 1611.37  24
   1   1  -1 285705. 1679.05   4
  -1   1   1 289917. 800.022   3
  -1   1  -1 217111. 1089.86   3
  -1   1  -1 215725. 1353.24  25
   1   1   1 214750. 922.671  22
  -1   1  -1 217215. 1432.43   2
   1   1   2 7403.11 228.093  22
  -1   1  -2 8226.78 255.455  23
  -1   1  -2 7958.08 242.268   3
  -1   1  -2 8297.29 281.243  25
  -1   1  -2 7721.31 272.721   2
  -1   1  -3 4405.23 209.600  25
  -1   1  -3 4557.53 206.345   3
   1   1   3 4863.45 297.737  27
  -1   1  -3 4284.01 214.665   2
  -1   1  -3 4763.31 233.708  23
   1   1   3 4783.10 216.998  22
  -1   1  -4 3505.84 235.643  23
  -1   1  -4 3095.07 194.405   2
   1   1   4 3592.07 292.281  27
   1   1   4 3752.55 230.242  22
   1   1   5 3711.60 334.422  27
  -1   1  -5 3528.02 224.038   2
   1   1   5 3569.58 238.131  22
  -1   1  -6 151223. 1493.81   2
   1   1   6 145281. 2248.30  27
   1   1   6 149930. 1685.72  22
  -1   1  -6 149375. 1268.84  25
  -1   1  -7 15178.5 575.763   1
   1   1   7 13104.1 747.780  27
   1   1   7 14725.0 560.952  24
  -1   1  -7 14234.9 512.845   2
   1   1   7 14226.5 580.914  22
  -1   1  -8 6957.74 397.648   2
   1   1   8 6673.16 440.273  22
  -1   1  -8 7416.25 452.720   1
   1   1   8 7063.34 426.624  24
   1   1   9 807.795 240.184  27
  -1   1  -9 1669.69 235.477   4
   1   1   9 1458.39 256.823  22
   1   1  10 9472.15 759.563  27
  -1   1 -10 11431.7 614.075   4
   1   1  10 11569.6 680.775  22
  -1   1 -11 92591.0 1274.29   8
   1   1  11 98218.5 1359.46  32
  -1   1 -11 105418. 1970.97   4
  -1   1 -11 96283.2 1377.80  12
   1   1  11 87569.8 2384.34  27
   1   1  11 98139.4 1530.89  29
   1   1  11 102718. 2162.75  22
  -1   1 -12 11590.5 465.675   8
  -1   1 -12 11418.0 502.545  12
   1   1  12 10932.5 542.945  29
   1   1  12 11127.4 486.020  32
  -1   1 -13 5537.75 334.728   8
   1   1  13 5497.39 407.424  29
  -1   1 -13 5923.95 366.991  12
   1   1  13 5567.24 341.794  32
  -1   1 -14 1227.63 186.852  12
   1   1  14 1167.73 201.253  29
   1   1  14 1332.90 176.325  32
   1   1  15 413.031 123.770  29
   1   1  15 370.003 106.926  32
  -1   1 -15 448.105 129.273  12
   1   1  16 1619.68 141.308  32
  -1   1 -16 1525.33 149.182  12
   1   1  17 5160.36 250.355  16
   1   1  17 5661.35 265.085  29
  -1   2  17 803.537 83.7516  32
   1   2 -17 897.110 96.3053  12
   1   2 -16 487.444 115.477  19
  -1   2  16 1156.53 132.672  32
   1   2 -16 1070.09 128.076  12
  -1   2  16 680.313 116.745  29
  -1   2  15 893.717 149.882  29
  -1   2  15 1125.98 160.273  32
   1   2 -15 1229.26 161.805  12
  -1   2  14 3752.86 286.770  32
  -1   2  14 3093.25 281.784  29
   1   2 -14 4091.62 285.570  12
  -1   2  13 15604.4 606.271  32
   1   2 -13 15992.8 592.191  12
  -1   2  13 15443.1 520.449  11
   1   2 -12 2692.41 232.296  17
  -1   2  12 2158.79 244.665  32
  -1   2  12 2021.98 203.341  11
   1   2 -11 3238.28 215.525   9
  -1   2  11 2874.95 288.374  32
   1   2 -11 3101.52 236.360  17
   1   2 -10 4471.17 269.371  17
   1   2 -10 4476.35 451.265   4
  -1   2  10 3645.54 290.363  32
   1   2  -9 11723.0 694.013   4
  -1   2   9 9452.73 725.142  27
   1   2  -8 12394.8 670.526   1
   1   2  -8 13645.2 704.832   4
  -1   2   8 12030.9 650.864  25
   1   2  -7 14869.5 686.483   1
  -1   2   7 13219.3 788.164  27
  -1   2   7 14108.3 654.980  25
   1   2  -7 13793.9 649.250   4
  -1   2   6 16258.9 784.052  27
   1   2  -6 15473.5 646.168   4
   1   2  -6 17991.9 689.514   1
  -1   2   6 16705.8 682.559  25
  -1   2   6 16793.9 552.055  24
  -1   2   5 49959.7 1201.97  27
   1   2  -5 47889.0 1049.54   4
  -1   2   5 49947.1 1127.17  25
   1   2  -5 50712.5 1056.71   1
  -1   2   5 52945.3 901.701  24
   1   2  -4 7213.07 334.180   2
  -1   2   4 7192.92 406.583  25
  -1   2   4 7792.81 320.404  24
   1   2  -4 7185.36 374.552   1
   1   2  -4 6688.73 363.488   4
  -1   2   4 7039.49 405.841  27
   1   2  -4 6772.14 404.557  27
   1   2  -3 10680.2 471.260  27
   1   2  -3 10302.6 434.816   4
  -1   2   3 11146.7 478.901  25
  -1   2   3 12150.0 374.963  24
  -1   2   3 10904.3 428.490   2
  -1   2   3 10727.3 431.775  27
   1   2  -3 11641.7 388.127   2
   1   2  -2 12628.5 509.614  27
  -1   2   2 12712.8 444.218   2
   1   2  -2 13438.7 370.142   2
  -1   2   2 14422.3 393.873  24
   1   2  -2 15092.8 441.623  25
  -1   2   2 12677.2 487.730  25
   1   2  -2 12767.6 459.527   4
  -1   2   2 13000.2 434.244  27
  -1   2   1 540.349 96.8031  27
   1   2  -1 704.788 176.315  25
  -1   2   1 348.052 43.1590   4
  -1   2   1 797.904 146.344   2
   1   2  -1 484.558 92.4786   2
  -1   2   1 559.372 161.210  25
   1   2  -1 831.517 171.163  27
   1   2  -1 492.516 140.516   4
  -1   2   0 9987.32 370.663   2
   1   2   0 9631.49 230.905   2
  -1   2   0 9235.98 389.101  25
  -1   2   0 9666.32 272.242  27
  -1   2   0 10163.6 243.676   4
   1   2   0 9785.98 441.617  27
   1   2   0 10327.0 400.170  25
  -1   2  -1 128548. 1333.98   2
   1   2   1 132432. 1684.15  27
  -1   2  -1 131206. 942.033  27
  -1   2  -1 126986. 1381.50  25
   1   2   1 127610. 670.688   2
   1   2   1 127077. 1503.18  25
  -1   2  -2 11937.6 416.632  25
   1   2   2 12193.6 496.294  25
   1   2   2 11970.5 525.797  27
  -1   2  -2 12142.7 413.108   2
   1   2   3 1223.01 190.952  27
  -1   2  -3 1266.88 146.306  25
   1   2   3 1259.56 180.913  25
  -1   2  -3 1226.09 145.588   2
   1   2   3 1237.46 145.484  22
   1   2   4 24198.6 855.739  27
   1   2   4 25172.6 644.888  22
  -1   2  -4 22953.6 552.263  25
  -1   2  -4 22890.5 609.177   2
  -1   2  -5 28497.8 600.688  25
   1   2   5 26116.8 943.049  27
  -1   2  -5 26681.0 691.931   2
   1   2   5 26969.7 745.781  22
  -1   2  -6 2104.97 228.552   2
   1   2   6 2360.48 304.635  27
  -1   2  -6 2701.76 258.933   4
   1   2   6 2328.36 248.878  22
   1   2   7 721.884 230.284  27
  -1   2  -7 625.753 145.518   2
   1   2   7 740.965 178.629  22
  -1   2  -7 882.629 164.020   4
  -1   2  -8 286.927 124.901   2
  -1   2  -8 377.542 141.808   4
   1   2   8 279.758 145.050  22
   1   2   8 151.449 134.711  27
   1   2   9 2472.24 386.600  27
  -1   2  -9 2227.27 274.982   2
   1   2   9 2156.61 324.619  22
  -1   2  -9 2803.63 315.737   4
   1   2  10 7937.54 414.819  29
   1   2  10 8263.56 384.414  11
  -1   2 -10 8547.23 421.692  12
   1   2  10 7687.58 686.416  27
   1   2  10 7982.86 410.513  32
  -1   2 -10 8031.02 576.014   4
   1   2  10 8103.33 621.188  22
   1   2  11 74695.3 1165.10  11
   1   2  11 73794.6 1302.97  29
  -1   2 -11 72497.8 1235.29  12
   1   2  11 72815.7 1263.38  32
  -1   2 -12 1640.19 224.894  12
   1   2  12 1941.83 227.189  29
   1   2  12 1824.20 223.374  32
   1   2  12 1592.96 200.197  11
   1   2  13 5557.79 359.993  32
   1   2  13 5492.07 380.593  29
  -1   2 -13 6000.56 370.463  12
  -1   2 -13 5331.00 348.807  19
   1   2  13 5857.02 315.477  11
  -1   2 -14 6568.26 359.184  12
   1   2  14 6793.59 366.808  32
   1   2  14 5489.83 372.022  29
   1   2  14 6397.68 294.919  11
  -1   2 -15 1089.69 143.545  19
   1   2  15 1094.23 161.176  29
   1   2  15 1704.53 176.674  32
  -1   2 -15 1576.67 169.442  12
   1   2  16 251.586 62.7876  32
   1   2  16 206.965 80.3553  29
  -1   2 -16 302.683 83.5198  12
   1   2  16 234.555 54.8740  16
  -1   3  16 11608.5 323.922  32
   1   3 -16 10658.0 261.006  12
  -1   3  15 2379.66 142.855  11
   1   3 -15 2898.61 185.388  12
  -1   3  15 3001.83 204.413  32
   1   3 -15 2211.39 200.709  19
   1   3 -14 176.514 84.0021  12
   1   3 -14 160.148 77.6116  19
  -1   3  14 250.175 71.1498  11
  -1   3  14 315.335 101.310  32
   1   3 -13 2063.50 213.026  12
  -1   3  13 2069.91 217.427  32
  -1   3  13 1941.40 192.292  11
   1   3 -12 3500.87 257.814  17
  -1   3  12 3744.59 298.289  32
   1   3 -12 3575.66 261.103  12
  -1   3  12 2974.37 266.756  11
  -1   3  11 3947.81 310.215  32
   1   3 -11 3786.94 282.052  12
   1   3 -11 3699.87 265.749  17
  -1   3  10 6979.60 410.867  32
   1   3 -10 7069.25 367.735  17
   1   3 -10 7542.94 384.644  12
  -1   3   9 9389.04 446.237  32
   1   3  -9 10839.1 717.892   4
   1   3  -9 9684.29 408.843  17
  -1   3   8 3052.38 400.797  25
   1   3  -8 4257.13 429.058   4
  -1   3   8 3229.39 431.486  27
  -1   3   7 735.806 226.202  25
   1   3  -7 578.202 154.391   4
  -1   3   7 524.625 166.561  27
  -1   3   6 552.054 177.378  25
   1   3  -6 304.499 112.775   4
  -1   3   6 528.648 139.245  27
  -1   3   5 9833.88 571.576  27
  -1   3   5 10408.7 629.751  25
   1   3  -5 10333.4 573.454   4
   1   3  -4 3394.76 347.950  27
  -1   3   4 3372.09 306.957  27
  -1   3   4 3732.66 372.283  25
   1   3  -4 3341.92 270.186   2
   1   3  -4 3448.75 323.596   4
   1   3  -3 10258.3 429.863   2
  -1   3   3 9219.05 406.185   2
  -1   3   3 9967.73 477.262  27
   1   3  -3 10400.3 531.833   4
  -1   3   3 10545.0 579.138  25
   1   3  -3 9429.80 534.709  27
   1   3  -2 98810.1 1529.65   4
  -1   3   2 99382.1 1320.09   2
   1   3  -2 98535.9 1649.44  27
  -1   3   2 102110. 1732.09  25
  -1   3   2 100876. 1393.16  27
  -1   3   1 8277.65 486.498  25
   1   3  -1 9393.10 475.857  25
   1   3  -1 8274.28 496.469  27
   1   3  -1 7690.26 297.815   2
  -1   3   1 8193.63 383.956   2
   1   3   0 12099.3 550.604  25
  -1   3   0 11624.3 554.437  25
  -1   3   0 11150.5 442.744   2
   1   3   0 11410.3 573.213  27
   1   3   1 125312. 1945.92  27
   1   3   1 124128. 1847.60  25
  -1   3  -1 122970. 1732.56  25
  -1   3  -1 121938. 1462.23   2
  -1   3  -2 25550.6 684.703   2
  -1   3  -2 25891.9 777.961  25
   1   3   2 26456.0 935.426  27
   1   3   2 27067.4 907.463  25
  -1   3  -2 25889.8 645.777   4
   1   3   3 63596.3 1510.96  27
  -1   3  -3 63046.0 1101.78   2
  -1   3  -3 62992.4 1081.59   4
  -1   3  -3 63394.7 1191.79  25
  -1   3  -4 40336.8 953.110   4
   1   3   4 40750.6 1264.25  27
  -1   3  -4 40218.3 929.718   2
  -1   3  -5 12466.8 576.953   4
   1   3   5 12392.6 735.873  27
  -1   3  -5 12322.0 547.680   2
   1   3   6 861.960 213.261  27
  -1   3  -6 637.820 138.910   2
  -1   3  -6 785.037 175.431   4
  -1   3  -7 15052.2 655.200   2
   1   3   7 14670.9 897.548  27
  -1   3  -7 15651.0 736.746   4
  -1   3  -8 77686.9 1338.63  19
   1   3   8 71524.5 1202.08  32
  -1   3  -8 81241.7 1735.77   4
   1   3   8 72270.0 2204.13  27
  -1   3  -8 81478.5 1596.87   2
   1   3   8 75396.3 1139.10  11
  -1   3  -9 631.003 77.4760  17
  -1   3  -9 693.921 156.245   2
  -1   3  -9 665.579 135.470  19
   1   3   9 533.719 194.727  27
   1   3   9 721.571 139.262  32
  -1   3  -9 532.274 130.747  12
   1   3   9 624.171 121.142  11
  -1   3  -9 531.897 146.929   4
   1   3  10 346.480 120.306  32
  -1   3 -10 248.530 121.390  19
  -1   3 -10 209.823 122.128  12
   1   3  10 176.515 100.151  11
  -1   3 -11 3242.14 268.877  12
  -1   3 -11 2646.16 301.362  19
   1   3  11 3471.69 292.764  32
   1   3  11 2954.51 255.098  11
  -1   3 -12 1001.13 199.394  19
   1   3  12 1467.15 177.741  11
   1   3  12 1611.28 186.684  32
  -1   3 -12 1603.67 193.028  12
  -1   3 -13 1561.78 182.777  12
  -1   3 -13 921.357 177.714  19
   1   3  13 1054.47 154.895  29
   1   3  13 1760.53 176.439  11
   1   3  13 1968.00 211.157  32
  -1   3 -14 1597.83 190.845  19
   1   3  14 2174.66 194.438  32
  -1   3 -14 1996.48 173.542  12
   1   3  14 2049.37 161.293  11
  -1   3 -15 1196.27 127.671  19
   1   3  15 1638.60 151.139  32
   1   4 -14 1694.59 155.955  19
  -1   4  14 2088.98 160.538  32
  -1   4  14 1776.73 128.280  11
   1   4 -13 5.82060 54.8167  19
  -1   4  13 201.735 89.6421  32
  -1   4  13 53.5442 60.4604  11
   1   4 -12 488.717 120.914  19
  -1   4  12 917.381 143.079  32
  -1   4  12 750.235 119.250  11
   1   4 -11 208.494 94.8251  19
   1   4 -11 165.465 85.9692  17
  -1   4  11 140.769 90.5426  32
  -1   4  11 194.239 94.0524  11
  -1   4  10 44185.7 941.834  32
   1   4 -10 42575.4 1017.03  19
   1   4 -10 42402.2 835.060  17
  -1   4  10 43074.9 925.088  11
   1   4  -9 16336.1 517.021  17
  -1   4   9 16375.2 567.423  32
   1   4  -9 16025.2 640.582  19
  -1   4   8 29082.7 811.241  18
   1   4  -8 30034.1 695.017  17
   1   4  -8 28538.5 853.062  19
   1   4  -7 7786.15 337.901  17
   1   4  -7 7011.13 449.068  19
  -1   4   7 7710.92 382.507  10
  -1   4   7 6489.38 400.252  18
   1   4  -7 8287.96 621.595   4
  -1   4   6 2277.71 225.546  18
  -1   4   6 2071.86 201.926  10
   1   4  -6 1973.88 309.785   4
  -1   4   6 2192.38 362.786  25
   1   4  -6 2226.27 231.252  19
   1   4  -5 3001.01 338.199   4
  -1   4   5 3077.83 233.461  10
  -1   4   5 3704.18 272.880  18
  -1   4   5 3411.39 410.975  25
  -1   4   4 51217.2 1546.95  25
   1   4  -3 65812.2 1545.03  27
  -1   4   3 64293.0 1680.22  25
  -1   4   2 21116.6 940.182  25
   1   4  -2 21619.0 879.129  27
   1   4  -1 12212.5 663.174  27
  -1   4   1 12715.2 705.020  25
   1   4   0 1614.69 264.308  25
  -1   4   0 1266.05 231.254  25
   1   4   0 1290.07 221.784  27
  -1   4   0 1181.91 152.756   2
   1   4   1 674.252 139.027  27
  -1   4  -1 739.306 136.441   2
  -1   4  -1 852.600 200.276  25
   1   4   1 688.683 167.139  25
   1   4   2 145.920 84.6227  27
  -1   4  -2 3.52295 66.1899   2
   1   4   2 129.173 107.152  25
  -1   4  -2 72.1782 114.923  25
   1   4   3 5487.17 545.097  25
  -1   4  -3 4492.44 346.483   2
   1   4   3 4593.76 463.980  27
  -1   4  -4 155.523 73.8306   2
   1   4   4 143.428 80.2353  27
   1   4   5 854.953 127.237  10
   1   4   5 1080.31 149.435  18
  -1   4  -5 959.065 161.240  19
   1   4   5 883.951 202.866  27
   1   4   5 962.655 134.444  11
  -1   4  -5 757.645 153.189   2
   1   4   6 11461.1 809.060  27
   1   4   6 11911.4 454.620  11
   1   4   6 12625.5 479.265  32
  -1   4  -6 11608.8 559.483  19
   1   4   6 12640.4 520.623  18
   1   4   6 13499.5 463.599  10
  -1   4  -6 12014.8 631.737   2
   1   4   7 9381.42 386.660  10
  -1   4  -7 9832.82 513.967  19
  -1   4  -7 8767.97 403.896  14
   1   4   7 9789.25 456.340  32
   1   4   7 9177.39 411.145  11
   1   4   8 23659.5 683.101  11
   1   4   8 23758.4 709.123  32
  -1   4  -8 25870.5 707.779  14
  -1   4  -8 24746.3 816.025  19
  -1   4  -9 52546.4 1177.50  19
   1   4   9 52630.2 1059.67  32
   1   4   9 55325.2 1028.77  11
   1   4  10 11329.9 489.142  32
  -1   4 -10 12142.5 559.615  19
   1   4  10 11919.4 481.101  11
   1   4  11 2619.11 237.982  32
  -1   4 -11 2062.60 242.622  19
   1   4  11 2083.10 203.681  11
   1   4  12 1582.58 171.455  32
  -1   4 -12 1355.17 171.254  19
   1   4  12 1680.23 164.784  11
  -1   4 -13 857.646 131.511  19
   1   4  13 959.338 132.164  32
   1   4  13 888.146 115.946  11
   1   4  14 2147.07 154.630  32
  -1   4 -14 1526.80 133.996  19
   1   5 -12 29.5351 45.1886  19
  -1   5  12-25.2201 43.8249  11
   1   5 -11 644.619 112.048  19
  -1   5  11 693.207 104.646  11
  -1   5  10 10689.5 406.042  11
   1   5 -10 9591.54 426.646  19
  -1   5   9 3795.61 257.771  11
   1   5  -9 3058.79 259.355  19
  -1   5   8 5876.70 328.577  11
   1   5  -8 6282.51 380.158  19
  -1   5   8 5738.14 301.464  10
  -1   5   7 8716.45 396.354  10
   1   5  -7 7967.09 421.446  19
  -1   5   7 8339.17 423.062  18
  -1   5   7 7848.08 378.359  11
  -1   5   6 831.899 145.851  10
  -1   5   6 676.459 153.810  18
  -1   5   5 11754.8 511.626  18
  -1   5   5 12651.9 502.323  10
  -1   5   4 33472.0 859.906  18
  -1   5   4 34937.8 831.776  10
  -1   5   3 39891.6 967.297  18
  -1   5   3 40685.9 895.260  10
  -1   5   2 14167.2 528.572  10
  -1   5   2 14209.6 557.441  18
   1   5  -2 13978.4 464.539  10
   1   5  -2 14210.1 492.195  18
   1   5  -1 3140.84 242.355  10
  -1   5   1 3203.64 260.885  10
   1   5  -1 3026.46 233.991  18
  -1   5   1 3097.73 269.198  18
   1   5   0 5454.31 321.496  10
  -1   5   0 4924.16 337.998  18
  -1   5   0 5465.21 337.570  10
   1   5   0 5391.94 317.132  18
   1   5   1 4176.59 292.710  18
  -1   5  -1 3646.39 258.613  10
  -1   5  -1 3543.61 285.707  18
   1   5   1 4169.77 277.045  10
   1   5   2 17234.7 561.693  10
  -1   5  -2 16787.0 529.753  10
   1   5   2 18006.7 601.142  18
   1   5   3 45023.1 904.446  10
   1   5   3 43977.4 985.687  18
   1   5   4 3240.32 245.447  10
   1   5   4 2833.56 264.222  18
  -1   5  -4 2892.41 255.354  19
   1   5   5 528.518 107.582  10
   1   5   5 240.137 103.307  18
  -1   5  -5 346.621 116.879  19
   1   5   5 348.058 102.335  11
   1   5   6 1724.56 186.518  10
   1   5   6 1733.35 211.531  18
  -1   5  -6 2223.38 237.366  19
   1   5   6 1809.41 176.181  11
  -1   5  -7 241.476 97.1735  19
   1   5   7 293.754 86.7545  10
   1   5   7 334.388 90.7864  11
   1   5   8 1368.75 149.233  10
  -1   5  -8 1922.48 209.451  19
   1   5   8 1563.81 166.775  11
   1   5   8 1762.52 181.763  32
   1   5   9 1926.40 172.756  32
   1   5   9 1874.42 176.691  11
  -1   5  -9 1503.31 196.812  19
   1   5  10 606.756 95.4206  32
  -1   5 -10 752.871 130.501  19
   1   5  10 743.367 118.926  11
  -1   5 -11 1008.81 124.816  19
   1   5  11 1099.90 120.010  11
   1   5  11 1274.30 126.859  32
  -1   5 -12 688.784 96.3712  19
   1   5  12 704.621 88.1080  32
   1   5  12 613.570 84.7201  11
  -1   6   9 1450.21 109.902  11
  -1   6   8 2537.36 152.144  10
  -1   6   8 2800.73 163.626  11
  -1   6   7 303.070 78.9216  10
  -1   6   7 247.053 59.5426  11
  -1   6   6 694.661 109.678  10
  -1   6   6 558.183 100.878  18
  -1   6   5 2982.26 216.208  10
  -1   6   5 2983.08 233.877  18
  -1   6   4 4544.97 278.393  10
  -1   6   4 4205.28 292.067  18
  -1   6   3 2446.59 213.591  10
  -1   6   3 2282.87 224.097  18
   1   6  -2 2817.05 195.505  10
  -1   6   2 3061.75 251.112  18
   1   6  -2 2957.14 205.701  18
  -1   6   2 3169.49 243.494  10
   1   6  -1 1077.48 138.514  10
  -1   6   1 1141.69 153.681  10
  -1   6   1 1116.84 163.370  18
   1   6  -1 1237.83 141.044  18
   1   6   0 419.905 94.9404  18
  -1   6   0 321.033 97.8991  18
   1   6   0 537.908 115.193  10
  -1   6   0 378.012 92.2221  10
  -1   6  -1 23569.2 589.204  10
   1   6   1 24239.2 622.081  10
   1   6   1 23964.3 645.330  18
  -1   6  -1 24116.5 682.551  18
   1   6   2 15089.1 490.646  10
  -1   6  -2 14224.1 428.708  10
   1   6   2 15819.9 522.971  18
  -1   6  -2 15085.6 532.920  18
   1   6   3 35417.7 738.390  10
  -1   6  -3 36933.8 806.124  18
   1   6   4 21825.1 566.094  10
   1   6   4 22212.1 630.499  18
  -1   6  -5 7346.99 340.267  18
   1   6   5 7132.59 311.450  10
  -1   6  -5 7117.29 302.649  19
   1   6   6 981.522 119.442  10
  -1   6  -6 895.773 113.227  18
  -1   6  -6 1017.20 136.621  19
  -1   6  -7 347.441 78.3429  19
   1   6   7 295.335 62.5511  10
  -1   6  -8 124.720 53.0360  19
   1   6   8 192.638 45.3170  11
   1   6   8 248.348 55.7157  10
  -1   6  -9 3905.71 177.529  19
  -1   7   4 239.048 48.0672  10
  -1   7   3 897.712 97.6071  18
  -1   7   3 1057.34 94.9612  10
  -1   7   2 18985.1 392.101  10
  -1   7   2 18660.4 426.775  18
  -1   7   1 4696.44 200.937  10
  -1   7   1 4699.56 219.736  18
  -1   7   0 869.130 85.3379  10
   1   7   0 792.840 79.0484  10
  -1   7   0 946.020 102.049  18
  -1   7  -1 2249.92 151.258  18
  -1   7  -1 2101.54 109.734  10
   1   7   1 2483.92 143.068  10
  -1   7  -2 972.846 97.1269  18
   1   7   2 930.521 88.5708  10
  -1   7  -3 140.764 40.7863  18
   1   7   3 182.318 45.9149  10
   1   7   4 345.779 50.0074  10
   2  -6  -9 3085.99 137.732  30
   2  -6  -8 4779.22 186.360  30
  -2  -6  -8 2439.41 130.735   7
   2  -5 -12 238.000 53.6399  30
   2  -5 -11 5924.40 239.963  30
   2  -5 -10 39140.8 675.015  30
  -2  -5 -10 1746.47 135.807   7
  -2  -5 -11 100.993 46.5751   7
  -2  -5 -12 93.9768 35.6707   7
   2  -4 -14 437.599 68.3940  30
   2  -4 -14 580.033 85.6164   8
   2  -4 -13 95.6622 59.4363  30
   2  -4 -13 79.0671 65.3118   8
   2  -4 -12 393.541 93.9307  30
   2  -4 -12 353.306 86.6583   8
   2  -4 -11 423.436 95.1453  30
   2  -4 -11 249.680 94.8203   8
   2  -4 -10 4539.91 269.536   8
   2  -4  -9 27922.8 665.919   8
   2  -4  -8 9117.28 377.304   8
   2  -4  -7 9803.43 375.530   8
  -2  -4   6 893.465 242.584  23
   2  -4  -6 1209.83 230.345   5
   2  -4  -5 2020.93 264.949   5
  -2  -4   5 1922.92 326.000  23
   2  -4  -4 55994.2 1499.11   5
  -2  -4   4 55723.0 1449.99   6
  -2  -4   4 53387.1 1654.28  23
  -2  -4   3 25140.1 984.456   6
  -2  -4   3 24785.2 1084.11  23
   2  -4  -3 24794.7 1008.94   5
   2  -4  -2 15800.4 742.252  26
   2  -4  -2 16100.0 831.391   5
  -2  -4   2 15849.3 842.345  23
  -2  -4   2 15748.2 788.289   6
  -2  -4   1 1920.65 277.240   6
   2  -4  -1 1780.44 267.865  26
   2  -4  -1 1719.65 287.362   5
  -2  -4   1 1799.67 263.335  23
  -2  -4   0 1117.63 201.042  23
  -2  -4   0 1366.30 200.451   5
   2  -4   0 1194.90 246.037   5
   2  -4   0 1260.57 242.400  26
  -2  -4  -1 3225.07 307.610   5
   2  -4   1 3023.30 379.486  26
  -2  -4  -1 3273.83 340.666  23
   2  -4   2 2244.12 344.081  26
  -2  -4  -2 2316.96 267.645   5
   2  -4   2 2705.68 237.632  22
  -2  -4  -3 1236.66 201.197   5
   2  -4   3 950.878 214.028  26
   2  -4   4 4476.72 508.954  26
  -2  -4  -4 5025.97 394.220   5
  -2  -4  -5 1504.86 226.602   5
   2  -4   5 1217.98 285.659  26
  -2  -4  -8 20030.1 537.878  30
  -2  -4  -9 6284.25 314.812  30
  -2  -4 -10 1816.99 174.669  30
  -2  -4 -11-152.832 80.6243  30
  -2  -4 -11-6.17651 60.3827   7
  -2  -4 -12 2552.46 180.663  30
  -2  -4 -12 2410.12 166.520   7
  -2  -4 -13 10.6615 61.1878  30
  -2  -4 -13 129.010 42.7732   7
  -2  -4 -14 5898.57 202.252  30
  -2  -4 -14 5908.89 182.150   7
   2  -3 -15 1865.22 129.552  30
   2  -3 -15 1768.89 145.654   8
   2  -3 -14 2498.72 196.130   8
   2  -3 -14 2182.97 160.957  30
   2  -3 -13 6410.97 335.514   8
   2  -3 -13 7695.49 320.495  30
   2  -3 -12 929.958 149.038   8
   2  -3 -12 1172.82 152.329  30
   2  -3 -11 3048.20 238.713   8
   2  -3 -10 7998.13 390.099   8
   2  -3  -9 1405.68 166.814   8
   2  -3  -9 1484.65 290.875   1
  -2  -3   9 1483.49 310.292  24
   2  -3  -8 930.508 247.311   1
   2  -3  -8 764.867 127.172   8
  -2  -3   8 774.818 231.164  24
   2  -3  -7 2147.75 250.279   5
  -2  -3   7 1638.82 299.305  24
   2  -3  -6 1101.72 188.697   5
  -2  -3   6 1276.04 246.938  24
   2  -3  -5 7008.42 437.647  26
  -2  -3   5 5630.09 447.688  24
   2  -3  -5 6755.58 444.290   5
  -2  -3   5 6682.24 445.326   6
   2  -3  -4 26543.0 891.486   5
  -2  -3   4 25877.0 868.919   6
   2  -3  -4 26879.1 870.755  26
  -2  -3   4 24635.1 1048.67  23
  -2  -3   3 27534.8 884.621   6
   2  -3  -3 25866.5 864.053  26
   2  -3  -3 26779.2 910.680   5
  -2  -3   3 26572.6 1041.54  23
  -2  -3   2 58065.6 1287.07   6
   2  -3  -2 55079.7 1328.53   5
   2  -3  -2 53224.7 1253.51  26
  -2  -3   2 55905.9 1453.48  23
  -2  -3   2 56743.3 1003.39   5
  -2  -3   1 971.830 176.501  23
  -2  -3   1 897.044 138.431   5
   2  -3  -1 659.664 139.008  26
  -2  -3   0 2032.97 196.509   5
   2  -3   0 2132.60 277.294  26
  -2  -3   0 2316.55 285.838  23
  -2  -3  -1 8347.38 408.816   5
   2  -3   1 8574.76 551.976  26
  -2  -3  -1 8606.62 518.343  23
   2  -3   2 3563.65 373.623  26
  -2  -3  -2 3660.55 329.360  23
  -2  -3  -2 3725.05 281.993   5
  -2  -3  -3 12545.6 597.897  23
  -2  -3  -3 13476.1 551.800   5
   2  -3   3 14135.2 645.711  22
   2  -3   3 13824.1 757.536  26
  -2  -3  -4 45185.6 1058.94   5
   2  -3   4 44813.1 1417.33  26
  -2  -3  -4 43418.4 1106.51  23
   2  -3   4 46783.5 1178.73  22
   2  -3   5 6437.79 583.634  26
  -2  -3  -5 6630.23 424.227   5
   2  -3   5 7303.67 463.848  22
  -2  -3  -5 6355.18 429.707  23
  -2  -3  -6 12954.9 627.316   5
   2  -3   6 13442.9 879.267  26
  -2  -3  -6 12612.8 617.676  23
   2  -3   6 14122.1 647.953  22
  -2  -3  -7 99863.4 1874.20   5
  -2  -3  -7 85878.2 1704.50  23
   2  -3   7 98981.7 1784.45  22
   2  -3   7 87772.7 2245.46  26
   2  -3   8 35779.0 1065.26  22
  -2  -3  -8 37670.4 1178.95   5
   2  -3   8 33869.1 1422.07  26
  -2  -3  -8 35333.1 711.321  30
  -2  -3  -9 1909.74 195.890  30
  -2  -3 -10 697.274 128.857  30
  -2  -3 -11 3118.31 220.405   7
  -2  -3 -11 2944.97 236.058  30
  -2  -3 -12 6375.05 336.062  30
  -2  -3 -12 5952.78 289.248   7
  -2  -3 -12 5457.08 307.944   8
  -2  -3 -13 314.678 80.7129   7
  -2  -3 -13 329.095 108.435  30
  -2  -3 -13 224.320 85.1557   8
  -2  -3 -14 1401.78 148.129  30
  -2  -3 -14 1306.34 117.864   7
  -2  -3 -15 134.942 65.0346  30
  -2  -3 -15 198.366 56.7374   7
   2  -2 -16 670.670 116.333   8
  -2  -2  15 3786.08 292.437  29
   2  -2 -15 4298.53 268.922   8
   2  -2 -14 5953.77 334.911   8
   2  -2 -14 6686.86 286.178  30
   2  -2 -13 5935.34 293.804  30
   2  -2 -13 5630.84 317.439   8
   2  -2 -12 79.2004 103.396   8
   2  -2 -12 287.869 116.018  30
   2  -2 -12 304.288 121.170   9
   2  -2 -11 168.164 74.2531  30
   2  -2 -11-19.0647 108.764   9
   2  -2 -11 64.4641 94.1396   8
   2  -2 -10 1261.15 139.508   9
   2  -2 -10 1257.62 261.892   1
   2  -2 -10 1474.18 184.943   8
  -2  -2  10 894.174 291.631  24
  -2  -2   9 14295.7 901.212  24
   2  -2  -9 15038.9 865.541   1
   2  -2  -8 14015.0 796.757   1
  -2  -2   8 14649.0 829.924  24
   2  -2  -7 44507.9 1136.18  26
   2  -2  -7 43571.1 910.820   5
  -2  -2   7 43171.7 1293.34  24
   2  -2  -6 69845.5 1407.47  26
  -2  -2   6 72878.1 1314.86   6
   2  -2  -6 71327.5 1160.21   5
   2  -2  -5 60967.4 1248.56  26
  -2  -2   5 58506.9 1298.47  24
   2  -2  -5 61120.1 1068.68   5
  -2  -2   5 63009.2 1195.12   6
   2  -2  -4 13132.1 499.297   5
  -2  -2   4 12200.5 545.410  24
  -2  -2   4 12550.1 521.420   6
   2  -2  -4 12741.1 549.550  26
  -2  -2   3 5216.01 215.108   5
   2  -2  -3 4750.21 318.385   5
   2  -2  -3 4591.09 319.089  26
  -2  -2   3 4612.22 301.900  24
  -2  -2   3 4731.60 321.901   6
  -2  -2   2-0.67397 70.7758   6
  -2  -2   2 26.2868 38.7992   5
  -2  -2   2 78.3255 64.3025  24
  -2  -2   2-16.0962 81.0260  23
   2  -2  -2 83.3268 64.8143   1
   2  -2  -2 100.801 64.0484  26
  -2  -2   1 6408.55 365.539   6
   2  -2  -1 6036.23 380.884  26
  -2  -2   1 5916.45 267.605  24
  -2  -2   1 5927.41 264.433   5
   2  -2  -1 5899.63 238.873   1
  -2  -2   1 6459.00 398.984  23
   2  -2   0 5138.79 359.975  26
  -2  -2   0 5884.80 262.537   5
  -2  -2   0 5331.10 213.170  24
  -2  -2   0 5865.62 369.883  23
  -2  -2  -1 119858. 1219.62   5
  -2  -2  -1 121219. 1716.23  23
   2  -2   1 118884. 1755.54  26
  -2  -2  -2 9078.31 362.601   5
   2  -2   2 8951.75 504.246  26
  -2  -2  -2 9117.24 454.512  23
  -2  -2  -3 1017.45 142.872   5
   2  -2   3 1126.96 197.104  26
   2  -2   3 1306.09 175.504  22
  -2  -2  -3 1090.11 158.085  23
  -2  -2  -4 52690.0 1101.10  23
   2  -2   4 51439.7 1326.39  26
   2  -2   4 53275.1 1116.34  22
  -2  -2  -4 53515.2 1006.62   5
   2  -2   5 231.502 147.329  26
  -2  -2  -5 241.664 80.7579  23
  -2  -2  -5 423.181 117.389   5
   2  -2   5 322.467 103.734  22
  -2  -2  -5 240.089 72.8395   3
  -2  -2  -6 85.0724 83.7502   5
   2  -2   6 65.8587 115.983  26
  -2  -2  -6 171.205 72.2107   3
  -2  -2  -6 27.1620 50.1173  23
   2  -2   6 45.6156 57.3102  22
  -2  -2  -7 10843.6 570.889   5
   2  -2   7 9390.43 683.009  26
  -2  -2  -7 9286.41 550.639  23
   2  -2   7 9938.61 549.449  22
  -2  -2  -8 9061.80 551.731  23
  -2  -2  -8 11511.8 614.406   5
   2  -2   8 9857.07 744.477  26
   2  -2   8 10894.6 574.821  22
  -2  -2  -9 14885.3 471.855  30
  -2  -2  -9 14137.5 720.675   5
   2  -2   9 13309.5 855.887  26
   2  -2   9 14385.3 687.379  22
  -2  -2 -10 54472.6 949.628  30
  -2  -2 -10 55373.5 951.270   8
  -2  -2 -10 54354.9 1457.48   5
   2  -2  10 52232.8 1755.99  26
  -2  -2 -10 55736.1 867.641   7
   2  -2  10 57677.6 1447.29  22
  -2  -2 -11 45569.6 908.974  30
  -2  -2 -11 46452.8 823.258   7
  -2  -2 -11 46050.6 907.444   8
  -2  -2 -12 2830.52 258.776   8
  -2  -2 -12 3058.81 250.038  30
  -2  -2 -12 3012.68 220.468   7
  -2  -2 -13 1612.82 196.246   8
  -2  -2 -13 1669.48 183.266  30
  -2  -2 -13 1614.90 162.384   7
  -2  -2 -14 455.128 118.674   8
  -2  -2 -14 538.401 105.989  30
  -2  -2 -14 514.067 88.5563   7
   2  -2  15 485.203 107.664  16
  -2  -2 -15 599.629 102.863  30
  -2  -2 -15 635.097 91.6326   7
  -2  -2 -16-51.7367 54.8450  30
   2  -2  16-64.5337 59.3203  16
   2  -1 -17 293.019 80.1309   8
  -2  -1  17 313.493 80.7463  29
   2  -1 -16 579.170 106.406   8
  -2  -1  16 580.045 111.067  29
   2  -1 -16 695.294 113.618  12
   2  -1 -15 216.748 102.337   8
   2  -1 -14 101.744 85.8281   9
   2  -1 -14 285.616 117.268   8
   2  -1 -13 2077.48 207.884   9
   2  -1 -13 1832.54 187.786   8
  -2  -1  12 48394.1 962.700  32
   2  -1 -12 46822.0 885.469   8
   2  -1 -12 45971.4 879.658   9
   2  -1 -11 12734.6 440.959   9
   2  -1 -11 12358.3 443.202   8
  -2  -1  11 11963.7 473.575  32
   2  -1 -11 11289.6 790.053   1
  -2  -1  11 11364.7 811.833  24
   2  -1 -10 1028.31 260.498   1
  -2  -1  10 769.694 246.539  24
  -2  -1   9 1955.98 332.893  24
   2  -1  -9 2099.55 321.068   1
   2  -1  -8 4162.63 427.091   1
  -2  -1   8 3203.97 392.264  24
  -2  -1   8 3425.54 310.390  22
  -2  -1   7 3563.64 303.517   6
  -2  -1   7 3491.27 370.902  24
   2  -1  -7 3694.34 349.224  26
   2  -1  -7 4277.68 403.781   1
  -2  -1   7 3359.06 268.819  22
   2  -1  -6 14597.0 390.343   5
   2  -1  -6 13926.6 604.149  26
   2  -1  -6 14547.3 656.949   1
  -2  -1   6 13474.9 635.301  24
  -2  -1   6 13758.9 552.468   6
  -2  -1   6 13420.2 460.376  22
  -2  -1   5 58693.0 1186.63  24
   2  -1  -5 60762.4 1174.39  26
  -2  -1   5 58929.5 1075.45   6
   2  -1  -5 60339.0 763.870   5
   2  -1  -4 35566.6 846.102  26
   2  -1  -4 36972.9 604.192   5
   2  -1  -4 35586.7 845.466   1
  -2  -1   4 37984.2 865.896  24
  -2  -1   4 35377.4 826.257   6
  -2  -1   3 9722.48 411.479  24
   2  -1  -3 9159.08 395.058   1
   2  -1  -3 10049.9 332.061   5
   2  -1  -3 9520.14 420.402  26
  -2  -1   3 9602.66 406.464   6
   2  -1  -2 245601. 2022.33  26
  -2  -1   2 234310. 785.220   5
  -2  -1   2 239823. 1857.79  24
   2  -1  -2 239725. 1760.31   1
  -2  -1   2 247075. 1931.83   6
  -2  -1   0 397853. 2313.62   6
  -2  -1   0 379787. 1577.29   5
   2  -1   0 388926. 1608.88   1
  -2  -1   0 373165. 1977.91  24
   2  -1   0 409338. 2628.43  26
  -2  -1   0 398242. 2615.07  23
  -2  -1  -1 242419. 1819.30   6
   2  -1   1 241679. 2083.42  26
  -2  -1  -1 243479. 2058.47  23
  -2  -1  -1 241729. 1433.36   5
  -2  -1  -1 237502. 1528.25  24
  -2  -1  -2 30073.0 665.285   6
   2  -1   2 28902.4 744.103  26
  -2  -1  -2 29826.2 581.198   5
  -2  -1  -2 27923.6 682.453  23
  -2  -1  -3 3459.02 224.604   5
   2  -1   3 3191.17 182.877  27
   2  -1   3 3208.15 267.143  26
  -2  -1  -3 3131.12 242.192  23
   2  -1   3 3425.66 241.664  22
  -2  -1  -4 8932.36 389.814   5
   2  -1   4 8714.83 461.327  26
  -2  -1  -4 8632.89 405.686  23
   2  -1   4 8421.36 381.274  22
  -2  -1  -5 5867.34 304.795   3
  -2  -1  -5 6429.25 337.239   5
   2  -1   5 5962.37 336.491  22
   2  -1   5 6032.06 431.334  26
  -2  -1  -5 5106.86 361.356  23
  -2  -1  -6 15862.4 525.109   3
  -2  -1  -6 15641.6 575.047   5
   2  -1   6 14452.4 699.514  26
  -2  -1  -6 13706.6 584.578  23
   2  -1   6 15628.7 582.572  22
  -2  -1  -7 4358.95 287.695   3
   2  -1   7 3432.94 399.494  26
  -2  -1  -7 3899.12 337.082   5
  -2  -1  -7 3358.42 328.789  23
   2  -1   7 4602.01 345.680  22
  -2  -1  -8 6423.95 452.937   5
   2  -1   8 6668.91 529.988  26
   2  -1   8 6826.33 439.310  22
  -2  -1  -9 8054.66 567.460   5
   2  -1   9 6557.42 593.673  27
   2  -1   9 8655.44 637.815  26
  -2  -1  -9 7661.70 525.913  23
   2  -1   9 9943.48 565.904  22
  -2  -1 -10 11864.6 446.252   8
  -2  -1 -10 11514.8 438.298  30
   2  -1  10 12361.6 496.814  29
  -2  -1 -10 11875.6 390.355   7
  -2  -1 -10 10694.1 662.510   5
   2  -1  10 10625.6 747.560  26
   2  -1  10 12077.1 667.648  22
  -2  -1 -10 10818.4 663.678  23
  -2  -1 -11 12676.9 486.428   8
  -2  -1 -11 12285.8 470.001  30
   2  -1  11 12666.2 542.876  29
  -2  -1 -11 12258.3 419.262   7
   2  -1  12 30410.1 872.215  29
  -2  -1 -12 30549.0 760.271  30
  -2  -1 -12 30378.9 784.103   8
  -2  -1 -12 30889.0 688.551   7
   2  -1  13 2013.01 243.050  29
  -2  -1 -13 1912.87 217.416   8
  -2  -1 -13 2008.57 183.121   7
  -2  -1 -13 2160.93 214.141  30
  -2  -1 -14 992.739 170.541   8
  -2  -1 -14 1299.71 147.369   7
  -2  -1 -14 1190.24 162.274  30
   2  -1  14 1318.42 200.234  29
  -2  -1 -15 346.169 71.6570   7
  -2  -1 -15 397.372 84.1367  30
   2  -1  16 150.259 76.6990  16
   2  -1  16 42.2937 63.1009  29
  -2  -1 -16 67.4849 61.9191  30
  -2   0  17 3951.28 234.028  29
   2   0 -17 4241.19 208.051  12
  -2   0  16 312.512 79.5208  32
   2   0 -16 414.298 91.5128   8
   2   0 -16 402.120 106.024  12
  -2   0  15 6691.39 353.225  32
   2   0 -15 6089.24 299.834   8
   2   0 -14 25235.3 658.250   9
   2   0 -14 25448.3 634.615   8
  -2   0  14 24828.8 708.052  32
   2   0 -13 33475.4 735.033   8
  -2   0  13 33476.6 841.397  32
   2   0 -13 33595.8 770.214   9
  -2   0  12 100784. 1449.84  32
   2   0 -12 104619. 1326.66   9
   2   0 -12 104340. 1261.64   8
   2   0 -11 3726.13 248.634   9
   2   0 -11 3473.10 422.547   1
   2   0 -11 3669.11 238.263   8
  -2   0  11 3399.92 434.959  24
  -2   0  11 3320.68 288.286  32
   2   0 -10 23496.2 1070.10   1
  -2   0  10 25266.6 1119.55  24
   2   0  -9 2934.65 306.794   4
  -2   0   9 2114.41 299.761  22
  -2   0   9 2259.19 368.494  24
   2   0  -9 2468.70 352.353   1
  -2   0   8 5305.27 475.601  24
   2   0  -8 5618.20 383.126   4
  -2   0   8 4496.87 372.942  22
   2   0  -8 5578.02 483.223   1
   2   0  -7 10152.7 586.630   1
   2   0  -7 10392.5 483.166   4
  -2   0   7 10212.9 601.957  24
  -2   0   7 10070.5 501.562  22
  -2   0   6 12007.7 591.260  24
   2   0  -6 12436.3 485.369   4
   2   0  -6 11537.8 580.884   1
  -2   0   6 11843.3 487.559  22
   2   0  -5 97.5219 72.3413   1
  -2   0   5 254.311 97.0667  24
   2   0  -5 198.948 76.7035   4
  -2   0   5 86.3765 46.1473  25
   2   0  -5 89.1716 62.6328  26
   2   0  -4 4460.37 317.238   1
  -2   0   4 4530.09 309.411  24
   2   0  -4 4673.87 297.826  26
  -2   0   4 4331.99 195.621  25
  -2   0   4 4644.52 303.801   6
   2   0  -4 5075.09 274.924   4
   2   0  -3 10486.1 405.911  26
  -2   0   3 9654.46 407.466   6
   2   0  -3 9642.80 412.610   1
  -2   0   3 9856.98 406.592  24
  -2   0   3 9786.21 300.634  25
   2   0  -2 58295.8 923.057   1
   2   0  -2 58429.0 812.868  27
   2   0  -2 60260.2 881.870  26
  -2   0   2 56599.8 916.041  24
   2   0   0 620871. 2369.13  27
  -2   0   0 596513. 2658.61   6
  -2   0  -1 97928.2 953.751   5
   2   0   1 101073. 1047.52  26
  -2   0  -1 101117. 1019.94   2
  -2   0  -1 99968.9 1151.12  24
   2   0   1 100581. 1010.90  27
  -2   0  -1 99052.3 1053.00  23
  -2   0  -1 101626. 1045.19   6
   2   0   2 127850. 1257.63  26
  -2   0  -2 129171. 1227.72   5
  -2   0  -2 127853. 1230.69  23
   2   0   2 130755. 1283.43  27
  -2   0  -2 128590. 1093.44   2
   2   0   2 127005. 1199.50  22
  -2   0  -2 128872. 1161.09   6
  -2   0  -3 4265.25 254.230   5
   2   0   3 3633.28 229.270  26
  -2   0  -3 3662.90 179.777   2
   2   0   3 3892.28 251.571  27
  -2   0  -3 3514.09 227.619  23
   2   0   3 3675.39 217.089  22
  -2   0  -3 3771.42 181.302   6
  -2   0  -4 37579.5 715.716   3
  -2   0  -4 36478.6 780.742   5
  -2   0  -4 38223.5 567.008   2
   2   0   4 38615.1 876.196  27
   2   0   4 37750.7 758.613  26
  -2   0  -4 35538.0 762.419  23
  -2   0  -4 35142.8 513.859   6
   2   0   4 38009.8 728.787  22
  -2   0  -5 81293.6 1124.22   3
  -2   0  -5 81648.1 1221.03   5
   2   0   5 87591.1 1491.86  27
   2   0   5 83109.8 1260.15  26
  -2   0  -5 77447.5 1198.02  23
   2   0   5 82059.4 1172.52  22
  -2   0  -5 85290.5 904.501   2
  -2   0  -6 362326. 2502.32   3
  -2   0  -6 368477. 2836.57   5
   2   0   6 355851. 3370.59  27
   2   0   6 331871. 2880.18  26
   2   0   6 356638. 2614.50  22
  -2   0  -7 5992.49 286.905   2
  -2   0  -7 5589.84 343.134   3
   2   0   7 4787.14 434.371  27
   2   0   7 5082.36 367.904  26
  -2   0  -7 5706.98 387.921   5
  -2   0  -7 4777.19 347.367  23
   2   0   7 6076.84 370.292  22
  -2   0  -8 1131.72 206.258   5
   2   0   8 670.653 221.817  27
  -2   0  -8 1044.41 198.027  23
   2   0   8 1156.61 183.286  22
  -2   0  -9 6938.62 515.517   5
   2   0   9 4919.44 548.267  27
  -2   0  -9 5898.15 497.412  23
   2   0   9 7817.46 508.710  22
  -2   0 -10 1602.46 280.612   5
   2   0  10 886.955 291.101  27
   2   0  10 1614.29 243.480  22
  -2   0 -11 519.858 140.329  30
  -2   0 -11 978.915 179.516   8
   2   0  11 483.484 149.483  29
   2   0  11 321.707 187.728  27
  -2   0 -11 715.492 141.627   7
  -2   0 -11 921.782 176.789  12
   2   0  11 921.868 198.798  22
  -2   0 -12 6610.23 323.407   7
  -2   0 -12 7490.38 394.463  12
  -2   0 -12 6856.12 360.049  30
   2   0  12 6756.21 433.525  29
  -2   0 -12 6808.21 388.818   8
  -2   0 -13 2845.36 260.273   8
   2   0  13 2868.20 292.566  29
  -2   0 -13 3012.63 243.113  30
  -2   0 -13 2748.62 209.568   7
  -2   0 -13 3334.07 264.579  12
  -2   0 -14 1984.33 181.848   7
  -2   0 -14 1961.01 197.857  12
   2   0  14 1829.62 226.182  29
  -2   0 -14 1916.93 198.393  30
   2   0  15 3261.68 274.031  29
  -2   0 -15 3193.75 224.546  30
  -2   0 -15 3409.82 235.260  12
  -2   0 -16 458.043 90.8011  30
   2   0  16 397.997 105.404  16
   2   0  16 388.186 94.8449  29
   2   0  17 10589.5 318.867  29
   2   0  17 9746.60 341.634  16
  -2   1  17 486.933 73.2398  32
   2   1 -17 622.641 94.4465  12
  -2   1  16 646.740 112.376  32
   2   1 -16 672.059 118.048  12
  -2   1  15 248.262 89.8663  32
   2   1 -15 435.034 127.918  12
  -2   1  14 49.5694 81.0013  32
   2   1 -14 206.726 103.826   9
   2   1 -13 2253.73 215.845   9
   2   1 -13 1893.10 207.090  17
  -2   1  13 1653.75 222.082  32
   2   1 -12 43041.5 846.866   9
  -2   1  12 43433.3 988.503  32
   2   1 -12 43520.8 872.738  17
   2   1 -11 12096.5 734.575   4
   2   1 -11 11803.3 422.373   9
   2   1 -11 11392.6 436.353  17
  -2   1  11 11231.0 490.074  32
  -2   1  11 11604.6 741.407  24
   2   1 -11 11896.6 781.012   1
  -2   1  10 934.009 245.289  24
   2   1 -10 1294.04 297.947   1
   2   1 -10 677.619 205.996   4
   2   1  -9 2432.91 345.530   1
  -2   1   9 1671.05 290.481  24
   2   1  -9 2260.76 296.848   4
   2   1  -8 3676.40 391.566   1
   2   1  -8 3634.63 341.276   4
  -2   1   8 3154.24 379.954  24
  -2   1   7 3793.76 276.942  25
   2   1  -7 3853.74 379.207   1
  -2   1   7 3633.72 349.921  24
   2   1  -7 3559.65 324.367   4
  -2   1   6 14237.0 617.755  24
   2   1  -6 13188.5 568.892   4
  -2   1   6 12799.5 489.563  25
   2   1  -6 14101.3 653.381   1
   2   1  -5 53533.0 1224.36   1
  -2   1   5 57377.3 993.193  25
  -2   1   5 58280.1 1155.41  24
   2   1  -5 54182.7 1080.55   4
   2   1  -4 34633.2 917.610   1
  -2   1   4 35208.5 855.955  24
  -2   1   4 35300.3 742.195  25
   2   1  -4 35985.1 833.357   4
   2   1  -4 35322.4 879.595  27
  -2   1   3 9148.33 412.858  24
  -2   1   3 8762.64 365.208  25
   2   1  -3 9477.92 431.070  27
   2   1  -3 9846.65 463.917   1
   2   1  -3 10142.6 426.863   4
   2   1  -2 229657. 2003.06   1
  -2   1   2 229066. 1763.69  25
   2   1  -2 233692. 2001.12  27
  -2   1   2 233631. 1958.51  24
  -2   1   1 999999. 4048.17  24
   2   1   0 381569. 2537.72  27
   2   1   0 391075. 1724.89  26
  -2   1   0 399345. 2382.26  25
  -2   1   0 399893. 2511.10  24
  -2   1   0 397152. 2490.93   2
  -2   1   0 410846. 1405.01  23
   2   1   0 394680. 1240.85  22
   2   1   1 225623. 2035.17  27
  -2   1  -1 226794. 1878.05   2
   2   1   1 233071. 1081.37  26
  -2   1  -1 233410. 1860.87  25
  -2   1  -1 238223. 1295.24  23
   2   1   1 229766. 1199.43  22
  -2   1  -1 223921. 1454.44   3
  -2   1  -2 25981.3 533.631   3
  -2   1  -2 26234.4 623.834   2
   2   1   2 27097.6 736.041  27
  -2   1  -2 26380.3 499.212  23
   2   1   2 25872.7 463.129  22
  -2   1  -3 2672.14 185.869  23
  -2   1  -3 2811.56 196.722   3
   2   1   3 2931.53 266.928  27
  -2   1  -3 3104.17 216.909   2
   2   1   3 3058.00 182.986  22
  -2   1  -4 7005.57 332.741   3
   2   1   4 8741.77 343.621  22
   2   1   4 7668.92 472.534  27
  -2   1  -4 8063.91 333.872   2
  -2   1  -4 6761.52 322.610  23
  -2   1  -5 5554.76 304.053   3
   2   1   5 5221.17 435.729  27
  -2   1  -5 5246.11 337.181  23
  -2   1  -5 5680.56 290.644   2
   2   1   5 6046.53 317.390  22
   2   1   6 12577.6 732.720  27
  -2   1  -6 12349.3 576.555  23
  -2   1  -6 15288.3 505.733   2
   2   1   6 15161.9 554.232  22
  -2   1  -7 4621.03 298.015   2
   2   1   7 3419.78 418.111  27
   2   1   7 4003.09 319.674  22
  -2   1  -8 6844.88 392.053   2
   2   1   8 6197.34 439.212  22
  -2   1  -9 9600.37 499.917   2
   2   1   9 8523.65 566.745  22
  -2   1 -10 10906.4 397.416   7
  -2   1 -10 11281.0 456.812   8
  -2   1 -10 11442.0 439.774  30
   2   1  10 11791.6 505.516  29
   2   1  10 11337.9 461.431  32
  -2   1 -10 11630.7 473.999  12
   2   1  10 11290.5 681.627  22
  -2   1 -11 11810.6 490.063   8
   2   1  11 11849.5 548.869  29
  -2   1 -11 11747.0 426.793   7
  -2   1 -11 11496.4 458.689  30
  -2   1 -11 12583.6 516.380  12
   2   1  11 12449.0 492.295  32
   2   1  12 29730.9 899.846  29
  -2   1 -12 30172.9 744.521  30
  -2   1 -12 27828.4 666.485   7
   2   1  12 32303.1 797.907  32
  -2   1 -12 31695.1 822.504  12
  -2   1 -13 2228.57 206.573  30
  -2   1 -13 2043.65 232.719  12
   2   1  13 2031.26 249.604  29
   2   1  13 1928.15 208.267  32
   2   1  14 966.827 188.164  29
   2   1  14 1427.93 166.699  32
  -2   1 -14 1283.13 157.200  30
  -2   1 -14 1414.01 183.853  12
  -2   1 -15 346.745 81.7041  30
   2   1  15 151.902 100.501  29
  -2   1 -15 264.398 105.716  12
   2   1  16 46.2322 59.8809  29
   2   1  16 24.6186 56.1544  16
  -2   2  16 468.138 98.8432  29
  -2   2  16 688.888 97.5660  32
   2   2 -16 645.512 110.140  12
  -2   2  15 5008.88 299.167  32
   2   2 -15 4961.64 280.251  12
  -2   2  14 6764.21 369.676  32
   2   2 -14 6968.41 365.848  12
  -2   2  13 5344.49 358.102  32
   2   2 -13 5037.26 308.420  17
   2   2 -13 5283.24 293.856   9
  -2   2  12 80.2445 111.038  32
   2   2 -12 182.864 107.816   9
   2   2 -12 182.587 91.0781  17
  -2   2  11-11.5770 107.697  32
   2   2 -11-17.4814 110.656   9
   2   2 -11 119.649 91.1432  17
  -2   2  10 1030.45 190.399  32
   2   2 -10 1314.17 246.550   1
   2   2 -10 1306.65 158.055   9
  -2   2  10 790.785 231.235  27
   2   2 -10 1269.19 174.770  17
  -2   2  10 1125.33 199.005  28
   2   2 -10 1054.32 259.131   4
   2   2  -9 15971.2 868.747   1
   2   2  -9 15578.4 847.448   4
  -2   2   8 10939.2 738.368  27
  -2   2   8 12556.8 661.486  25
   2   2  -8 13436.2 737.236   4
   2   2  -8 13354.4 745.946   1
  -2   2   7 42985.9 1160.43  25
  -2   2   7 42762.0 1115.20  24
   2   2  -7 39161.1 1183.07   4
   2   2  -7 41736.5 1236.05   1
   2   2  -6 67095.1 1473.69   1
  -2   2   6 67772.1 1394.37  25
  -2   2   6 67695.6 1502.88  27
   2   2  -6 66216.7 1458.99   4
  -2   2   6 68736.5 1331.86  24
  -2   2   5 58223.1 1151.83  24
   2   2  -5 55753.9 1269.16   4
   2   2  -5 56348.3 1339.28  27
  -2   2   5 59457.7 1223.59  27
   2   2  -5 56562.4 1288.93   1
  -2   2   5 57797.4 1254.98  25
   2   2  -4 12596.4 572.608   4
   2   2  -4 12530.6 582.342   1
   2   2  -4 11966.6 591.899  27
  -2   2   4 12335.5 483.855  27
  -2   2   4 11822.9 559.479  25
  -2   2   4 12674.7 522.352  24
  -2   2   3 3892.61 305.198   2
   2   2  -3 4311.88 342.568  27
  -2   2   3 4917.56 310.272  24
  -2   2   3 3790.39 240.410  27
  -2   2   3 4400.33 338.565  25
   2   2  -3 4829.18 340.143   4
   2   2  -2 42.3397 51.1602  27
  -2   2   2 32.7326 60.4609   2
  -2   2   2 118.355 68.4259  24
  -2   2   2 49.6486 58.4387  25
  -2   2   1 6043.64 353.109   2
   2   2  -1 5786.12 377.129  27
  -2   2   1 5350.81 341.778  25
  -2   2   0 4903.70 317.839  25
  -2   2   0 5122.76 319.540   2
   2   2   0 5197.46 357.749  27
  -2   2  -1 109653. 1455.42   2
   2   2   1 106978. 1684.01  27
  -2   2  -2 8397.23 405.127  25
  -2   2  -2 8748.31 410.884   2
   2   2   2 8114.50 477.876  27
  -2   2  -3 1006.95 154.539   2
   2   2   3 1037.85 189.459  27
  -2   2  -3 947.350 143.496  25
   2   2   3 652.343 123.442  22
   2   2   4 48720.2 1289.10  27
  -2   2  -4 47158.3 963.323   2
   2   2   4 50334.7 894.627  22
  -2   2  -4 45346.9 943.217  25
  -2   2  -5 210.909 76.1872   2
   2   2   5 242.927 133.549  27
  -2   2  -5 256.184 77.4523  25
   2   2   5 426.132 115.183  22
   2   2   6 196.219 119.312  22
   2   2   6 33.6631 92.7494  27
  -2   2  -6 12.9265 60.2578   2
  -2   2  -7 9778.95 499.634   2
   2   2   7 9765.15 757.310  27
   2   2   7 9402.80 549.388  22
  -2   2  -8 10069.4 534.951   2
   2   2   8 9776.51 767.190  27
   2   2   8 10145.6 621.854  22
   2   2   9 13251.0 510.374  32
  -2   2  -9 13654.2 649.277   2
   2   2   9 12777.7 883.165  27
  -2   2  -9 15123.7 738.831   4
  -2   2  -9 14032.0 509.397  12
   2   2   9 13844.7 482.746  11
   2   2   9 14011.1 743.744  22
   2   2  10 51292.5 1042.17  32
  -2   2 -10 51579.7 1055.82  19
   2   2  10 52747.0 1083.62  29
  -2   2 -10 49280.5 923.794  30
  -2   2 -10 49960.8 1016.83  12
   2   2  10 52121.4 960.005  11
   2   2  10 52322.0 1539.72  22
   2   2  11 44737.5 987.946  32
   2   2  11 43866.9 1033.78  29
  -2   2 -11 42857.0 869.351  30
  -2   2 -11 45626.8 988.304  19
  -2   2 -11 42965.7 975.556  12
   2   2  11 44641.5 909.299  11
   2   2  12 2842.43 249.224  32
   2   2  12 2949.59 275.707  29
  -2   2 -12 2673.10 238.549  19
  -2   2 -12 2663.51 262.804  12
   2   2  12 2635.88 229.117  11
   2   2  13 1784.77 205.623  32
  -2   2 -13 1812.57 216.499  12
   2   2  13 1452.46 202.495  29
  -2   2 -13 1631.43 190.252  14
  -2   2 -13 1253.17 164.426  19
  -2   2 -14 602.349 114.823  12
   2   2  14 489.426 125.168  29
   2   2  14 343.160 88.5065  16
   2   2  14 561.722 101.709  32
   2   2  15 524.996 105.379  29
   2   2  15 450.894 108.009  16
   2   2  15 713.114 107.176  32
   2   2  16-32.5646 45.2142  32
   2   2  16 74.1337 47.9082  29
  -2   3  15 1804.66 154.174  32
   2   3 -15 1471.02 152.971  19
   2   3 -15 1705.45 131.662  12
  -2   3  14 2100.69 192.447  32
   2   3 -14 2073.49 165.716  12
  -2   3  14 1932.07 152.228  11
   2   3 -13 6249.92 323.634  17
  -2   3  13 7097.08 376.124  32
   2   3 -13 5945.99 301.303  12
  -2   3  13 5133.65 295.643  11
   2   3 -12 849.877 144.252  17
   2   3 -12 921.133 158.699  12
  -2   3  12 925.041 161.495  32
  -2   3  11 2894.09 269.011  32
   2   3 -11 2689.38 234.485  17
   2   3 -11 2554.81 229.759  12
  -2   3  10 6885.69 405.420  32
   2   3 -10 6376.21 354.735  17
  -2   3   9 1243.67 187.161  32
   2   3  -9 1188.07 166.475  17
   2   3  -9 1232.84 172.019  21
  -2   3   8 625.988 138.980  28
  -2   3   8 824.461 146.201  32
   2   3  -8 828.922 125.696  21
  -2   3   8 965.449 270.199  25
   2   3  -8 1073.28 266.218   4
  -2   3   7 1665.95 315.448  25
   2   3  -7 2690.26 368.134   4
  -2   3   6 710.379 199.047  25
   2   3  -6 1362.11 232.344   4
   2   3  -5 5644.21 485.953  27
  -2   3   5 6281.73 438.236   2
  -2   3   5 6093.71 497.653  25
   2   3  -5 6232.88 485.459   4
   2   3  -4 23137.6 946.414  27
  -2   3   4 25564.6 969.374  25
  -2   3   4 24482.6 833.385   2
   2   3  -4 22819.9 884.932   4
   2   3  -3 24658.8 950.699  27
  -2   3   3 24367.3 813.922   2
  -2   3   3 25464.0 941.602  25
  -2   3   2 51966.0 1309.65  25
  -2   3   2 51034.5 1146.85   2
   2   3  -2 50617.5 1335.75  27
  -2   3   1 876.896 177.141  25
   2   3  -1 955.697 189.231  27
  -2   3   1 937.933 169.261   2
  -2   3   0 1978.65 222.294   2
  -2   3   0 2122.59 264.356  25
   2   3   0 2176.92 280.545  27
   2   3   1 8099.14 545.181  27
  -2   3  -1 7793.01 427.581   2
  -2   3  -1 7246.16 465.258  25
   2   3   2 3553.26 373.705  27
  -2   3  -2 3027.92 308.789  25
  -2   3  -2 3180.41 277.178   2
   2   3   3 12294.1 723.357  27
  -2   3  -3 11259.2 560.374  25
  -2   3  -3 11843.2 476.455   4
  -2   3  -3 11290.4 520.007   2
   2   3   4 40484.1 1371.40  27
  -2   3  -4 40378.3 971.355   4
  -2   3  -4 41096.5 1082.93  25
  -2   3  -4 39306.1 1000.73   2
   2   3   5 5985.01 553.661  27
  -2   3  -5 6987.00 442.573   4
  -2   3  -5 5714.42 401.649   2
   2   3   6 11147.4 785.145  27
  -2   3  -6 13039.1 623.043   4
  -2   3  -6 12625.9 607.484   2
  -2   3  -7 86111.8 1619.72   2
   2   3   7 86073.2 2274.12  27
  -2   3  -7 89786.1 1713.30   4
   2   3   8 32574.3 1463.54  27
  -2   3  -8 34341.1 1059.90   2
  -2   3  -8 33520.7 845.839  14
  -2   3  -8 35296.1 1130.09   4
  -2   3  -8 33787.8 900.649  19
  -2   3  -8 32809.9 802.138  12
   2   3   8 32225.6 754.430  11
   2   3   9 1763.87 213.331  32
  -2   3  -9 1780.44 209.840  14
  -2   3  -9 1748.93 237.927  19
  -2   3  -9 1809.92 219.313  12
   2   3   9 1571.74 184.396  11
  -2   3 -10 452.961 140.672  19
  -2   3 -10 494.129 128.614  14
   2   3  10 530.377 129.772  32
  -2   3 -10 498.255 139.001  12
   2   3  10 603.429 132.754  11
  -2   3 -11 2763.55 249.124  12
   2   3  11 2593.46 233.895  29
  -2   3 -11 2388.11 251.111  19
  -2   3 -11 2676.88 236.270  14
   2   3  11 2900.68 271.734  32
   2   3  11 2601.72 243.758  11
  -2   3 -12 5497.62 344.733  19
   2   3  12 5866.44 330.061  29
   2   3  12 6147.99 330.949  11
   2   3  12 6105.41 356.972  32
  -2   3 -12 5104.92 312.210  14
  -2   3 -12 5793.21 334.246  12
  -2   3 -13 372.256 105.908  19
   2   3  13 317.646 107.180  32
   2   3  13 120.790 85.6307  29
   2   3  13 370.421 91.6144  11
  -2   3 -14 1018.16 123.903  19
   2   3  14 1163.48 123.580  29
   2   3  14 1402.26 146.849  32
   2   3  15 173.637 66.5462  32
  -2   4  14 533.588 80.7568  32
  -2   4  14 448.215 72.1877  11
  -2   4  13-70.5198 65.4392  32
   2   4 -13 75.3366 71.2219  19
  -2   4  13 55.2022 59.0090  11
   2   4 -12 396.695 99.9468  17
  -2   4  12 256.194 86.8860  32
   2   4 -12 147.202 83.3250  19
  -2   4  12 249.380 84.1913  11
  -2   4  11 153.036 69.0324  32
   2   4 -11 294.163 88.0847  17
   2   4 -11 205.283 96.5810  19
  -2   4  10 3872.62 273.436  32
   2   4 -10 3791.84 271.535  17
   2   4  -9 22706.2 640.035  17
   2   4  -9 22351.0 589.826  21
   2   4  -8 7379.47 355.828  17
  -2   4   8 7301.30 376.051  10
  -2   4   8 7411.88 390.497  18
   2   4  -8 7346.23 343.287  21
  -2   4   7 8234.12 394.397  10
  -2   4   7 7933.40 414.657  18
   2   4  -6 1128.59 143.582  21
  -2   4   6 662.711 139.705  18
  -2   4   6 1094.99 189.017  28
   2   4  -5 2376.67 187.008  21
  -2   4   5 2290.37 230.656  28
  -2   4   5 1941.45 197.416  18
  -2   4   5 1767.02 326.003  25
  -2   4   5 2046.54 211.572  31
  -2   4   4 54593.7 1007.56  18
   2   4  -4 52376.1 1550.26  27
  -2   4   4 52246.3 990.339  31
  -2   4   4 52368.9 1599.22  25
   2   4  -3 23012.6 1006.30  27
  -2   4   3 23719.8 1059.53  25
   2   4  -2 14548.5 813.030  27
  -2   4   2 14461.4 807.320  25
   2   4  -1 1615.64 274.911  27
  -2   4   1 1946.34 295.846  25
  -2   4   1 1728.84 199.956   2
  -2   4   0 1150.44 189.253   2
   2   4   0 1245.89 247.817  27
  -2   4   0 982.599 219.874  25
  -2   4  -1 2960.42 286.877   2
  -2   4  -1 2973.59 349.745  25
   2   4   1 3141.79 385.068  27
   2   4   2 2132.55 321.896  27
  -2   4  -2 2615.16 332.807  25
  -2   4  -2 2024.91 240.432   2
  -2   4  -3 1385.53 201.629   2
   2   4   3 974.309 212.842  27
  -2   4  -4 4175.28 281.947  14
   2   4   4 4555.83 267.662  10
  -2   4  -4 4453.23 318.249  19
   2   4   4 4592.87 502.001  27
   2   4   4 4498.67 286.157  18
  -2   4  -4 4176.93 359.952   2
  -2   4  -5 1171.23 178.959  19
   2   4   5 1304.11 157.001  10
   2   4   5 955.236 205.666  27
  -2   4  -5 1264.13 172.226  14
   2   4   5 1384.78 176.260  32
   2   4   5 1199.47 145.899  11
  -2   4  -5 1434.43 229.052   2
   2   4   6 3178.18 240.713  10
  -2   4  -6 3350.83 277.692  14
  -2   4  -6 3562.09 319.972  19
   2   4   6 3221.21 254.410  32
   2   4   6 3281.56 243.356  11
   2   4   7 19024.9 541.576  10
  -2   4  -7 18465.5 726.125  19
  -2   4  -7 18452.8 629.798  14
   2   4   7 18973.8 638.991  32
   2   4   7 17814.2 566.456  11
  -2   4  -8 17211.1 667.770  19
  -2   4  -8 18815.8 643.413  14
   2   4   8 17135.1 613.813  32
   2   4   8 17037.6 577.151  11
  -2   4  -9 5518.30 388.184  19
   2   4   9 5735.14 357.924  32
  -2   4  -9 5708.96 343.987  14
   2   4   9 5489.51 330.835  11
  -2   4 -10 1340.39 197.818  19
   2   4  10 1629.27 185.853  32
  -2   4 -10 1705.55 188.470  14
   2   4  10 1749.79 191.493  11
   2   4  11 12.4918 70.6743  32
  -2   4 -11 2.44815 63.2116  19
   2   4  11-26.3805 67.0153  11
   2   4  12 2439.49 204.333  32
   2   4  12 2546.96 195.471  11
   2   4  13 131.637 69.9681  32
  -2   4 -13 20.9664 41.8069  19
  -2   4 -14 4765.57 185.873  19
   2   4  14 4957.52 211.467  15
   2   5 -12 172.018 52.8882  19
  -2   5  12 265.996 64.0677  11
   2   5 -11 4294.67 227.824  19
  -2   5  11 5066.77 244.396  11
   2   5 -10 30860.5 572.790  17
  -2   5  10 30790.1 657.083  11
  -2   5   9 11542.4 361.795  10
   2   5  -9 10068.1 410.775  19
   2   5  -9 11296.2 371.882  17
  -2   5   9 11077.1 416.836  11
   2   5  -8 8954.65 344.528  17
  -2   5   8 8116.00 359.314  10
  -2   5   8 7790.94 372.589  18
  -2   5   7 10349.1 435.287  10
   2   5  -7 10243.4 377.240  17
  -2   5   7 9894.18 434.285  18
  -2   5   6 2567.04 229.430  10
   2   5  -6 2260.74 183.353  17
  -2   5   6 2717.50 238.129  18
   2   5  -5 5357.92 279.922  21
  -2   5   5 4943.68 322.388  10
  -2   5   5 4751.78 327.308  18
   2   5  -4 45641.6 836.912  21
  -2   5   4 44527.3 955.225  10
  -2   5   4 45927.8 1014.79  18
   2   5  -3 5730.86 291.764  10
  -2   5   3 6240.12 359.478  10
  -2   5   3 6462.82 382.379  18
  -2   5   3 6511.86 358.553  31
   2   5  -2 11279.0 410.468  10
  -2   5   2 12048.0 493.979  10
  -2   5   2 12581.3 490.739  31
  -2   5   2 11954.8 523.410  18
   2   5  -1 3561.56 255.308  10
  -2   5   1 3436.47 267.905  10
  -2   5   1 3630.25 294.958  18
  -2   5   1 3512.76 253.943  31
   2   5   0 1384.25 164.450  10
  -2   5   0 1323.16 159.271  19
   2   5   0 1507.64 159.672  18
  -2   5   0 1282.71 152.006  31
  -2   5   0 1379.23 177.049  10
  -2   5   0 1000.49 165.455  18
   2   5   1 3011.18 246.852  10
  -2   5  -1 2886.81 231.557  10
  -2   5  -1 3103.13 235.734  19
   2   5   1 3081.48 242.265  18
   2   5   2 28495.6 705.631  10
  -2   5  -2 26620.0 715.814  19
  -2   5  -2 26960.6 668.588  10
   2   5   3 30262.3 728.617  10
   2   5   3 29887.1 769.000  18
  -2   5  -3 30526.1 785.367  19
   2   5   4 4372.73 278.191  10
  -2   5  -4 4505.28 308.712  19
  -2   5  -5 826.160 156.969  19
   2   5   5 787.440 126.204  10
   2   5   5 723.205 120.507  11
   2   5   6 1524.43 173.879  10
   2   5   6 1417.52 158.343  11
   2   5   6 1739.39 193.499  32
  -2   5  -6 1882.65 213.549  19
   2   5   7 413.391 89.8056  10
  -2   5  -7 437.163 115.655  19
   2   5   7 565.762 119.238  32
   2   5   7 455.099 100.462  11
   2   5   8 3216.69 231.063  32
  -2   5  -8 3180.34 278.897  19
   2   5   8 3506.96 232.266  11
   2   5   8 3223.49 197.746  10
   2   5   9 1666.38 172.137  32
  -2   5  -9 1562.60 177.683  19
   2   5   9 1648.92 161.530  11
   2   5  10 1609.02 152.966  32
  -2   5 -10 1590.07 157.599  19
   2   5  10 1526.09 148.898  11
  -2   5 -11 52.1827 49.5959  19
   2   5  11 62.2221 41.8832  15
  -2   5 -12 71.9252 40.1191  19
   2   5  12 95.3181 40.9664  15
  -2   6   9 2346.87 129.428  11
  -2   6   8 3648.38 169.392  10
  -2   6   8 3731.55 178.871  11
  -2   6   7 506.945 85.5150  10
  -2   6   7 489.394 79.1012  11
  -2   6   6 221.189 62.1558  10
  -2   6   6 185.370 70.4535  18
  -2   6   5 105.696 65.4751  18
  -2   6   5 16.1179 56.3075  10
  -2   6   4 251.129 74.5627  10
  -2   6   4 327.295 92.6429  18
  -2   6   3 2491.62 212.415  10
  -2   6   3 2356.01 222.093  18
   2   6  -2 428.840 82.0927  10
  -2   6   2 633.546 112.077  10
  -2   6   2 728.526 131.943  18
   2   6  -1 570.859 100.712  10
  -2   6   1 686.306 134.877  10
  -2   6   1 577.173 113.088  18
   2   6   0 1130.11 133.377  10
  -2   6   0 990.636 137.892  10
  -2   6   0 1190.37 157.079  18
   2   6   1 13201.4 436.886  10
  -2   6  -1 12482.2 423.846  10
  -2   6  -1 12400.5 494.821  18
   2   6   2 7379.97 324.846  10
  -2   6  -2 6363.79 279.145  10
  -2   6  -2 6646.67 280.307  19
  -2   6  -2 7022.80 367.161  18
   2   6   3 3519.68 223.379  10
  -2   6  -3 3740.27 215.654  19
  -2   6  -3 3779.01 259.536  18
  -2   6  -4 889.979 128.879  18
   2   6   4 896.830 120.639  10
  -2   6  -4 889.972 121.317  19
   2   6   5 4720.62 239.700  10
  -2   6  -5 4374.48 244.054  19
  -2   6  -5 4666.36 276.220  18
  -2   6  -6 71.1553 60.7453  19
   2   6   6 67.4019 51.4877  10
  -2   6  -6 36.8072 53.6075  18
  -2   6  -7 1214.87 129.398  19
  -2   6  -7 1296.78 118.849  18
   2   6   7 1484.76 114.931  10
  -2   6  -8 1736.95 130.885  19
   2   6   8 1836.43 103.704  10
  -2   6  -9 15021.6 313.973  19
  -2   7   3 2630.90 134.993  10
  -2   7   3 2624.75 144.441  18
  -2   7   2 8593.35 250.877  10
  -2   7   2 8490.55 269.751  18
  -2   7   1 1758.25 113.814  10
  -2   7   1 1655.88 126.062  18
  -2   7   0 2114.75 112.059  10
  -2   7   0 2278.85 148.733  18
   2   7   0 2181.00 113.164  10
  -2   7  -1 6211.55 236.948  18
   2   7   1 6293.42 202.827  10
  -2   7  -2 951.777 97.5698  18
   2   7   2 854.894 77.5861  10
   3  -6  -8 2179.68 125.025  30
  -3  -6  -6 401.031 60.9148   7
  -3  -6  -7 663.153 66.0763   7
   3  -5 -11 11040.9 296.888  30
   3  -5 -10 12469.1 303.604   8
   3  -5  -9 18131.9 399.095   8
  -3  -5  -8 14347.6 389.488   7
  -3  -5  -9 25531.0 488.726   7
  -3  -5 -10 1335.46 108.692   7
  -3  -5 -11 335.826 56.1030   7
   3  -4 -13 538.980 81.4058  30
   3  -4 -13 338.474 86.9588   8
   3  -4 -12 1513.79 133.746  30
   3  -4 -12 1688.66 147.105   8
   3  -4 -11 2839.32 204.198   8
   3  -4 -10 3924.46 256.886   8
   3  -4  -9 12744.4 448.659   8
   3  -4  -8 4538.84 269.438   8
   3  -4  -7 1911.26 180.442   8
   3  -4  -6 7402.70 337.589   8
   3  -4  -5 19272.9 514.981   8
   3  -4  -4 200515. 2864.47   5
  -3  -4   4 197581. 3364.49  23
  -3  -4   4 193950. 2951.92   6
   3  -4  -3 11003.9 673.800  26
   3  -4  -3 13121.2 747.399   5
  -3  -4   3 12655.2 838.771  23
  -3  -4   3 13296.3 770.730   6
   3  -4  -2 4398.19 460.672   5
   3  -4  -2 3825.36 415.220  26
  -3  -4   2 5495.22 548.719  23
  -3  -4   2 4294.47 444.320   6
  -3  -4   1 25846.3 1072.39   6
   3  -4  -1 26908.0 1139.87   5
  -3  -4   1 28662.1 1187.07  23
  -3  -4   0 1843.12 283.208   6
  -3  -4   0 1987.97 303.159  23
   3  -4   0 1690.26 285.840  26
  -3  -4  -1 1544.96 296.933   6
   3  -4   1 1605.50 282.550  26
  -3  -4  -1 1834.11 275.339  23
  -3  -4  -2 16083.3 889.003   6
   3  -4   2 13394.3 850.227  26
  -3  -4  -2 14962.6 772.944  23
   3  -4   2 15254.3 802.220  22
  -3  -4  -3 4105.48 464.291   6
  -3  -4  -3 4198.42 361.039   5
   3  -4   3 3720.52 472.200  26
  -3  -4  -3 3912.66 385.812  23
   3  -4   3 4531.16 446.335  22
  -3  -4  -9 5700.45 279.956   7
  -3  -4 -10 410.155 97.5714  30
  -3  -4 -10 403.044 81.0829   7
  -3  -4 -11-54.7379 66.4700  30
  -3  -4 -11 186.232 67.1581   7
  -3  -4 -12 97.7945 60.8231  30
  -3  -4 -12 160.715 66.8203   7
  -3  -4 -13 3141.46 144.930  30
  -3  -4 -13 3160.80 149.070   7
   3  -3 -15 5959.32 229.399   8
   3  -3 -14 5339.24 217.545  30
   3  -3 -14 5639.32 255.516   8
   3  -3 -13 1492.52 136.420  30
   3  -3 -13 1661.98 170.486   8
   3  -3 -12 5030.10 267.739  30
   3  -3 -12 5041.41 283.864   8
   3  -3 -11 11209.8 449.536   8
   3  -3 -10 4917.01 293.745   8
   3  -3  -9 10069.3 411.732   8
   3  -3  -8 1217.99 154.209   8
   3  -3  -7 2602.08 197.785   8
  -3  -3   7 1917.95 364.131  23
  -3  -3   6 391.377 161.043   6
   3  -3  -6 837.248 222.731  26
  -3  -3   6 605.015 192.328  23
   3  -3  -5 3417.03 311.078   5
   3  -3  -5 3105.69 334.539  26
  -3  -3   5 3210.71 423.594  23
  -3  -3   5 3070.57 370.031   6
   3  -3  -4 22552.9 851.926   5
   3  -3  -4 21028.1 873.822  26
  -3  -3   4 23201.6 1094.65  23
  -3  -3   4 22077.5 912.552   6
   3  -3  -3 2578.12 295.982   5
   3  -3  -3 2716.75 327.752  26
  -3  -3   3 3041.95 381.878  23
  -3  -3   3 2773.15 329.346   6
   3  -3  -2 5734.41 469.945  26
  -3  -3   2 6408.53 531.142  23
  -3  -3   2 5649.15 447.427   6
  -3  -3   1 180.476 101.162   6
   3  -3  -1 162.091 108.645  26
  -3  -3   1 367.142 158.256  23
  -3  -3   0 4552.48 401.727   6
   3  -3   0 4528.65 432.710  26
  -3  -3   0 4587.95 428.295  23
  -3  -3  -1 15952.4 766.304   6
   3  -3   1 16919.7 854.986  26
  -3  -3  -1 15890.7 784.787  23
  -3  -3  -1 16302.6 558.658   5
  -3  -3  -2 21137.7 893.350   6
  -3  -3  -2 21752.7 682.034   5
   3  -3   2 20151.2 957.346  26
  -3  -3  -2 20057.9 853.429  23
  -3  -3  -3 16124.9 776.412   6
  -3  -3  -3 17302.6 653.915   5
   3  -3   3 17797.3 940.248  26
  -3  -3  -3 17132.4 783.247  23
   3  -3   3 18025.6 822.017  22
  -3  -3  -4 23851.7 963.356   6
   3  -3   4 25462.9 1156.70  26
  -3  -3  -4 26875.6 869.960   5
  -3  -3  -4 25416.8 951.708  23
   3  -3   4 27545.5 1015.28  22
  -3  -3  -5 471.013 148.757   6
  -3  -3  -5 412.141 108.587   5
   3  -3   5 543.227 201.314  26
  -3  -3  -5 656.154 181.830  23
   3  -3   5 509.038 146.728  22
  -3  -3  -6 2920.84 331.626   6
   3  -3   6 3292.75 489.766  26
  -3  -3  -6 3189.83 323.334   5
  -3  -3  -6 2852.35 332.544  23
   3  -3   6 2772.47 324.303  22
  -3  -3  -7 112983. 1968.34   5
   3  -3   7 106027. 2613.39  26
  -3  -3  -7 106938. 2037.81  23
  -3  -3  -8 5034.05 289.897  30
  -3  -3  -9 28555.0 679.045  30
  -3  -3  -9 29503.8 650.184   7
  -3  -3 -10 49659.9 911.036  30
  -3  -3 -10 50201.2 849.535   7
  -3  -3 -11 2849.39 223.590  30
  -3  -3 -11 3015.27 209.059   7
  -3  -3 -12 1669.91 172.030  30
  -3  -3 -12 1657.26 152.780   7
  -3  -3 -13 1133.07 126.656  30
  -3  -3 -13 1100.85 120.191   7
  -3  -3 -14 1791.51 145.587  30
  -3  -3 -14 1738.45 124.455   7
   3  -2 -16 1258.91 132.772   8
   3  -2 -15 676.931 117.399   8
   3  -2 -14 3810.67 255.772   8
   3  -2 -13 5425.07 284.069   9
   3  -2 -13 5028.49 304.404   8
   3  -2 -12 3678.63 251.928   9
   3  -2 -12 3216.01 220.610  30
   3  -2 -12 3680.39 260.424   8
   3  -2 -11 7894.95 348.975   9
   3  -2 -11 8187.40 385.796   8
   3  -2 -10 3315.65 234.488   9
   3  -2 -10 3295.56 247.436   8
   3  -2  -9 12839.7 437.364   8
   3  -2  -9 11825.7 476.969  13
  -3  -2   9 12318.0 845.404  24
   3  -2  -9 12538.6 839.577   1
   3  -2  -8 12527.5 719.561  26
  -3  -2   8 12295.7 785.178  24
   3  -2  -8 12907.3 782.590   1
   3  -2  -7 15871.0 772.276  26
  -3  -2   7 15520.6 808.204  24
   3  -2  -7 16354.2 803.397   1
  -3  -2   7 15703.8 751.326   6
  -3  -2   6 1357.44 226.535   6
   3  -2  -6 1128.62 214.544   1
   3  -2  -6 1315.93 234.340  26
  -3  -2   6 1109.31 223.214  24
   3  -2  -5 5311.24 320.831   5
  -3  -2   5 4664.62 413.199  24
   3  -2  -5 5150.38 429.490  26
   3  -2  -5 4674.44 388.379   1
  -3  -2   5 5460.92 427.823   6
  -3  -2   4 6439.15 526.239  23
   3  -2  -4 7375.74 392.584   5
   3  -2  -4 7006.68 473.034  26
  -3  -2   4 6413.26 437.861  24
  -3  -2   4 6865.42 460.415   6
   3  -2  -4 5518.59 394.239   1
  -3  -2   3 47283.6 1083.61  24
   3  -2  -3 47467.2 1036.02   5
   3  -2  -3 47559.7 1193.68  26
  -3  -2   3 48384.7 1348.19  23
  -3  -2   3 48569.8 1187.22   6
   3  -2  -2 69521.5 1433.74  26
  -3  -2   2 71026.8 1217.63  24
  -3  -2   2 71669.0 1576.04  23
  -3  -2   2 71496.0 1400.93   6
   3  -2  -1 112711. 1834.13  26
  -3  -2   1 110176. 1368.91  24
  -3  -2   1 112790. 1940.47  23
  -3  -2   1 112333. 1743.98   6
  -3  -2   0 172722. 2131.26   6
  -3  -2   0 176339. 1464.92   5
   3  -2   0 172794. 2326.72  26
  -3  -2  -1 116807. 1756.14   6
  -3  -2  -1 113730. 1889.68  23
  -3  -2  -1 120830. 1328.81   5
   3  -2   1 115716. 1947.48  26
  -3  -2  -2 18417.6 708.615   6
  -3  -2  -2 18661.3 584.893   5
   3  -2   2 17092.0 777.893  26
  -3  -2  -2 16465.5 711.417  23
  -3  -2  -3 2837.99 286.535   6
  -3  -2  -3 2961.30 257.439   5
   3  -2   3 2575.78 324.180  26
  -3  -2  -3 2576.73 294.310  23
   3  -2   3 2917.64 290.717  22
  -3  -2  -4 5975.29 399.955   6
  -3  -2  -4 6472.19 391.914   5
   3  -2   4 6146.79 525.782  26
  -3  -2  -4 5629.64 429.436  23
   3  -2   4 6589.10 449.290  22
  -3  -2  -5 5240.28 384.747   6
  -3  -2  -5 5629.36 380.555   5
   3  -2   5 5370.70 524.546  26
  -3  -2  -5 5193.03 415.658  23
   3  -2   5 5747.39 411.412  22
  -3  -2  -5 5732.98 358.225   3
  -3  -2  -6 5511.49 358.725   3
  -3  -2  -6 5472.27 394.377   5
   3  -2   6 5309.11 531.593  26
   3  -2   6 5531.93 411.569  22
  -3  -2  -6 4780.30 407.498  23
  -3  -2  -7 50143.1 1264.41   5
   3  -2   7 49830.6 1620.04  26
  -3  -2  -7 47909.5 1331.39  23
   3  -2   7 53581.2 1355.03  22
  -3  -2  -8 2125.94 191.483  30
  -3  -2  -8 2018.20 272.709   5
   3  -2   8 2148.61 369.074  26
  -3  -2  -8 2186.62 171.921   7
  -3  -2  -8 1713.13 273.400  23
   3  -2   8 2189.90 280.399  22
  -3  -2  -9 6541.43 339.635  30
   3  -2   9 6108.94 611.148  26
  -3  -2  -9 6300.91 297.919   7
   3  -2   9 6265.79 488.942  22
  -3  -2 -10 56820.7 1011.99  30
  -3  -2 -10 56650.7 1005.78   8
  -3  -2 -10 57610.9 912.941   7
  -3  -2 -11 16627.5 557.100  30
  -3  -2 -11 15867.5 545.565   8
   3  -2  11 16848.2 653.977  16
  -3  -2 -11 16687.5 504.662   7
  -3  -2 -12 4936.73 301.301  30
   3  -2  12 4035.17 331.717  16
  -3  -2 -12 4589.66 267.941   7
  -3  -2 -13 8004.88 369.026  30
  -3  -2 -13 7709.20 323.467   7
   3  -2  13 7199.75 408.263  16
  -3  -2 -14 467.524 102.846  30
  -3  -2 -14 488.949 85.5944   7
  -3  -2 -15 162.077 51.2171   7
   3  -2  15 222.230 69.6340  16
  -3  -2 -15 167.842 56.9973  30
   3  -1 -16 1476.69 143.171   8
   3  -1 -16 2457.19 165.175  12
  -3  -1  15 700.209 103.200  32
   3  -1 -15 607.170 109.996   8
   3  -1 -14 14595.9 471.716   9
   3  -1 -14 14215.4 467.529   8
  -3  -1  14 13860.9 485.056  32
  -3  -1  13 546.466 127.724  32
   3  -1 -13 457.570 112.822   9
   3  -1 -13 644.947 116.465   8
  -3  -1  12 23298.9 700.112  32
   3  -1 -12 23024.8 621.041   9
   3  -1 -12 23201.7 620.220   8
   3  -1 -11 13917.8 480.023   9
  -3  -1  11 13304.0 568.312  32
   3  -1 -11 14068.9 496.434   8
   3  -1 -10 1773.87 339.548   1
   3  -1 -10 1940.55 189.909   9
   3  -1 -10 1808.62 176.804   8
  -3  -1  10 1852.99 345.719  24
   3  -1  -9 442.063 178.523   1
  -3  -1   9 526.680 209.751  24
   3  -1  -8 3651.96 416.087   1
  -3  -1   8 3036.71 379.717  24
   3  -1  -7 16267.8 754.829  26
  -3  -1   7 15400.1 786.817  24
  -3  -1   7 14887.4 721.048   6
   3  -1  -7 15263.0 765.742   1
   3  -1  -6 126835. 2054.48   1
   3  -1  -6 131803. 2054.00  26
  -3  -1   6 130203. 2130.99  24
  -3  -1   6 129441. 2030.46   6
   3  -1  -5 5182.80 386.930   1
  -3  -1   5 5137.47 398.238  24
   3  -1  -5 5547.90 417.481  26
  -3  -1   5 4938.62 388.753   6
   3  -1  -4 4363.20 326.954   1
   3  -1  -4 5151.43 226.897   5
   3  -1  -4 4726.48 368.237  26
  -3  -1   4 4496.55 238.871  25
  -3  -1   4 4767.53 359.931  24
  -3  -1   4 4786.33 367.403   6
   3  -1  -3 1721.66 224.357  26
   3  -1  -3 1627.97 211.153   1
  -3  -1   3 1587.85 211.687  24
  -3  -1   3 1726.34 241.532  23
  -3  -1   3 1737.12 221.687   6
  -3  -1   2 45893.2 988.370  24
   3  -1  -2 46267.5 1038.69  26
   3  -1  -2 49008.8 941.573   1
  -3  -1   2 48808.2 1120.83  23
  -3  -1   2 47572.3 1050.76   6
   3  -1  -1 392093. 2389.31   1
  -3  -1   1 397942. 3123.35  23
   3  -1  -1 397525. 2988.74  26
  -3  -1   1 395071. 2926.61   6
  -3  -1   0 4368.32 218.466   5
  -3  -1   0 3874.56 293.331  24
   3  -1   0 4418.72 344.358  26
  -3  -1   0 4714.34 363.299  23
  -3  -1   0 3898.33 320.438   6
   3  -1   1 28351.6 826.217  26
  -3  -1  -1 28501.7 551.298   2
  -3  -1  -1 30387.3 630.415   5
  -3  -1  -1 28294.9 694.307  24
  -3  -1  -1 27422.0 801.320  23
  -3  -1  -1 26193.7 747.193   6
  -3  -1  -2 1083.72 142.870   5
  -3  -1  -2 1478.77 107.245   2
   3  -1   2 1369.34 194.573  26
  -3  -1  -2 1111.73 165.095  23
  -3  -1  -2 1225.63 174.306   6
   3  -1   3 6025.48 414.753  26
  -3  -1  -3 5654.40 324.356   5
  -3  -1  -3 5350.74 355.296  23
   3  -1   3 6119.40 369.854  22
  -3  -1  -3 5578.06 330.926   6
  -3  -1  -4 11198.9 477.702   5
   3  -1   4 11008.3 579.548  26
  -3  -1  -4 10862.6 521.247  23
   3  -1   4 10584.4 492.897  22
  -3  -1  -4 10904.2 443.956   6
  -3  -1  -5 42072.3 1006.46   5
   3  -1   5 43712.1 1265.27  26
  -3  -1  -5 41974.4 1075.07  23
   3  -1   5 44051.6 1025.03  22
  -3  -1  -5 44115.1 998.980   3
  -3  -1  -5 42565.5 868.551   6
  -3  -1  -6 14754.2 586.918   3
  -3  -1  -6 14680.9 637.776   5
   3  -1   6 14439.6 763.333  26
  -3  -1  -6 13698.7 646.062  23
   3  -1   6 15540.8 640.987  22
  -3  -1  -7 6726.23 418.714   3
  -3  -1  -7 6747.64 466.270   5
   3  -1   7 7029.01 538.076  26
  -3  -1  -7 5717.08 456.572  23
   3  -1   7 7585.48 474.372  22
  -3  -1  -8 707.779 158.915   5
   3  -1   8 731.714 183.425  26
  -3  -1  -8 648.486 169.077  23
   3  -1   8 949.413 180.739  22
  -3  -1  -8 862.419 160.093   3
  -3  -1  -9 14.5547 84.1909  30
   3  -1   9-19.6747 74.0944  29
  -3  -1  -9-72.8027 84.9996   5
  -3  -1  -9 46.8293 142.404   8
  -3  -1  -9-22.1964 99.6091   7
  -3  -1  -9-23.0068 65.4121  23
   3  -1   9 20.6144 89.8194  22
  -3  -1 -10 7882.40 404.607   8
  -3  -1 -10 8362.53 394.284  30
   3  -1  10 7295.64 411.215  29
  -3  -1 -10 7798.67 343.175   7
  -3  -1 -11 6164.61 357.218  30
  -3  -1 -11 6070.51 353.313   8
   3  -1  11 6037.68 381.491  29
  -3  -1 -11 6623.77 325.201   7
  -3  -1 -12 7698.01 411.715   8
  -3  -1 -12 8662.39 416.041  30
   3  -1  12 7745.76 452.598  29
  -3  -1 -12 8696.28 370.532   7
  -3  -1 -13 469.372 131.250  30
   3  -1  13 252.159 115.519  29
  -3  -1 -13 268.127 80.8782   7
  -3  -1 -14 216.146 71.5902  30
   3  -1  14 184.400 86.1182  29
   3  -1  14 278.688 107.474  16
  -3  -1 -14 258.472 76.2577   7
   3  -1  15 1292.61 173.700  16
   3  -1  15 1382.73 161.448  29
  -3  -1 -15 1613.81 155.309  30
  -3  -1 -15 1638.42 140.921   7
   3  -1  16 2896.18 158.386  29
  -3  -1 -16 3290.98 175.507  30
   3  -1  16 3033.37 195.152  16
  -3   0  17 454.348 81.2898  29
   3   0 -17 636.441 87.6373  12
  -3   0  16 1159.10 134.892  32
   3   0 -16 1146.05 129.804  12
   3   0 -15 537.487 102.195   8
  -3   0  15 400.688 106.044  32
   3   0 -15 611.712 114.251   9
  -3   0  14 2832.83 248.649  32
   3   0 -14 2912.83 218.990   8
   3   0 -14 2980.38 233.269   9
  -3   0  13 67236.3 1201.31  32
   3   0 -13 67777.4 975.646   8
   3   0 -13 66552.7 1066.19   9
   3   0 -12 125406. 1472.88   9
  -3   0  12 127633. 1673.80  32
   3   0 -12 126398. 1353.73   8
   3   0 -11 16621.8 530.839   9
  -3   0  11 14962.2 575.211  32
   3   0 -11 16286.3 478.937   8
   3   0 -10 2284.97 388.395   1
   3   0 -10 2232.41 195.564   9
  -3   0  10 2759.45 433.796  24
   3   0  -9 451.280 176.607   1
  -3   0   9 232.135 122.580  24
   3   0  -8 1131.91 259.794   1
  -3   0   8 1197.88 262.018  24
   3   0  -7 1041.70 207.936   1
  -3   0   7 822.426 212.424  24
   3   0  -6 6418.96 463.771   1
   3   0  -6 6341.34 458.725  26
  -3   0   6 5879.21 462.795  24
   3   0  -5 12020.3 609.732   1
  -3   0   5 10930.7 396.752  25
  -3   0   5 12120.5 613.516  24
   3   0  -5 11925.0 576.730  26
  -3   0   5 12652.6 623.818   6
  -3   0   4 136.484 103.413   6
  -3   0   4 212.589 82.4790  25
  -3   0   4 204.195 97.0050  24
   3   0  -4 166.628 86.0612  26
   3   0  -4 179.662 78.7752   1
  -3   0   3 8610.66 390.347  25
   3   0  -3 9518.78 476.387   1
   3   0  -3 9030.97 443.969  26
  -3   0   3 7801.81 430.464  23
  -3   0   3 9039.24 465.759  24
  -3   0   3 8634.63 470.273   6
  -3   0   2 134.757 78.4505   6
   3   0  -2 237.722 96.5643   1
   3   0  -2 305.047 82.5082  27
   3   0  -2 339.657 92.1678  26
  -3   0   2 225.182 87.9765  24
  -3   0   2 235.936 86.4054  23
  -3   0   1 77.6308 58.6797   6
   3   0  -1 42.0931 66.6950   1
   3   0  -1 64.5971 37.8494  27
  -3   0   1 100.063 66.7695  24
   3   0  -1 86.4699 62.1085  26
  -3   0   1 168.556 79.1919  23
  -3   0   0 569.154 112.375   6
   3   0   0 725.523 105.580  27
  -3   0   0 491.653 110.502  24
  -3   0   0 494.705 102.753  23
   3   0   0 585.056 111.732  26
   3   0   1 8968.41 360.314  27
  -3   0  -1 9478.89 390.996   2
   3   0   1 8270.66 372.904  26
  -3   0  -1 8674.93 429.463  24
  -3   0  -1 8639.04 378.467  23
  -3   0  -1 8692.32 427.844   6
  -3   0  -2 21.2798 57.0033   6
   3   0   2 46.0464 56.8218  27
  -3   0  -2 136.203 67.7570   2
  -3   0  -2 10.9391 45.6542   5
   3   0   2-45.6430 58.6190  26
  -3   0  -2 34.4394 59.1480  23
   3   0   2 37.0046 61.8988  22
  -3   0  -3 4801.72 333.500   5
   3   0   3 5392.75 319.015  27
  -3   0  -3 5765.62 279.840   2
   3   0   3 5527.49 318.770  26
  -3   0  -3 5118.14 321.112  23
  -3   0  -3 5471.56 291.932   6
   3   0   3 5487.58 303.239  22
  -3   0  -4 1610.64 216.696   5
   3   0   4 1832.12 211.228  27
   3   0   4 1762.49 197.533  26
  -3   0  -4 1848.25 153.338   2
  -3   0  -4 1438.12 197.925  23
  -3   0  -4 1960.83 176.216   6
   3   0   4 2036.76 199.614  22
  -3   0  -4 1978.70 203.021   3
  -3   0  -5 13473.3 531.508   3
  -3   0  -5 12608.3 585.214   5
   3   0   5 14210.9 565.573  26
   3   0   5 12930.4 614.654  27
  -3   0  -5 14035.7 402.468   2
  -3   0  -5 12919.3 565.000  23
   3   0   5 12930.4 530.188  22
  -3   0  -6 658.021 145.013   3
  -3   0  -6 724.844 168.553   5
   3   0   6 369.514 148.040  27
  -3   0  -6 317.518 123.887  23
   3   0   6 700.027 132.340  22
  -3   0  -7 3778.97 367.497   5
  -3   0  -7 3889.15 319.316   3
   3   0   7 3203.10 368.221  27
  -3   0  -7 3000.85 330.367  23
   3   0   7 4015.81 328.011  22
  -3   0  -8 1668.05 273.696   5
  -3   0  -8 1944.68 257.066   3
  -3   0  -8 1449.51 246.255  23
   3   0   8 2124.01 258.439  22
  -3   0  -9 1902.04 297.197   5
   3   0   9 1311.01 281.792  27
  -3   0  -9 1341.82 283.894  23
   3   0   9 2180.80 278.558  22
  -3   0 -10 9952.45 435.650  30
  -3   0 -10 9365.37 446.341   8
   3   0  10 8797.78 482.731  29
  -3   0 -10 9490.70 380.333   7
  -3   0 -10 10364.0 437.978  12
  -3   0 -10 8353.33 621.638  23
   3   0  10 9876.88 612.512  22
  -3   0 -11 12668.7 507.741  30
   3   0  11 12326.7 564.984  29
  -3   0 -11 12896.0 459.615   7
  -3   0 -11 13546.6 514.492  12
  -3   0 -12 5530.17 319.643   7
  -3   0 -12 5999.04 351.060  30
  -3   0 -12 6305.87 360.733  12
   3   0  12 5173.64 383.081  29
   3   0  13 1162.41 173.612  29
  -3   0 -13 1171.57 174.820  12
  -3   0 -13 1132.16 151.496   7
  -3   0 -13 1079.39 166.778  30
   3   0  14 22.6869 71.4584  29
  -3   0 -14 90.6473 59.5703   7
   3   0  14-93.4420 90.5217  16
  -3   0 -14-0.81838 86.2567  30
   3   0  15 165.190 85.8513  29
   3   0  15-13.9901 74.6382  16
  -3   0 -15-41.8865 86.3836  30
   3   0  16 851.029 108.953  29
   3   0  16 781.767 117.778  16
  -3   0 -16 907.478 96.3285  30
  -3   1  16 2120.20 174.401  32
   3   1 -16 2140.44 176.180  12
   3   1 -15 792.451 124.628   9
  -3   1  15 464.666 112.163  32
   3   1 -14 14241.7 469.063   9
  -3   1  14 14140.8 529.202  32
   3   1 -13 558.389 120.853   9
  -3   1  13 487.532 130.763  32
   3   1 -13 435.955 108.791  17
  -3   1  12 21277.1 706.988  32
   3   1 -12 21184.6 594.048  17
   3   1 -12 21469.5 611.371   9
  -3   1  11 11719.8 542.893  32
   3   1 -11 12924.9 470.295  17
   3   1 -11 13246.3 482.090   9
  -3   1  10 1834.78 321.339  24
   3   1 -10 2160.63 348.573   1
   3   1 -10 2018.17 189.940  17
   3   1 -10 1706.02 175.784   9
  -3   1  10 1622.51 215.467  32
   3   1  -9 434.866 161.438   1
  -3   1   9 450.286 187.300  24
   3   1  -9 818.709 213.969   4
   3   1  -8 3465.18 423.232   1
  -3   1   8 3496.11 417.090  24
   3   1  -8 3147.06 358.920   4
   3   1  -7 14968.2 807.550   1
  -3   1   7 15164.5 781.108  24
   3   1  -6 132278. 2252.21   1
  -3   1   6 130821. 1694.11  25
  -3   1   6 126077. 2126.49  24
  -3   1   5 4905.70 332.584  25
   3   1  -5 5391.36 434.172   1
  -3   1   5 5068.79 406.077  24
   3   1  -4 4271.14 359.692  27
  -3   1   4 4469.47 313.760  25
  -3   1   4 4597.06 364.259  24
   3   1  -4 4678.15 366.806   1
   3   1  -3 1689.40 210.645   1
   3   1  -3 1561.13 210.051  27
   3   1  -3 1361.46 188.072  26
  -3   1   3 1441.37 173.930  25
  -3   1   3 1715.49 214.864  24
  -3   1   2 46939.0 956.819  25
   3   1  -2 46459.3 915.960  26
   3   1  -2 46278.8 1034.82  27
   3   1  -2 46451.2 1066.74   1
  -3   1   2 45488.6 1066.14  24
  -3   1   2 48603.4 635.497  23
  -3   1   1 396582. 3023.53   2
  -3   1   1 396174. 3058.93  24
   3   1  -1 394246. 2976.58  27
  -3   1   1 391953. 2849.44  25
   3   1  -1 400057. 2394.29  26
  -3   1   1 399701. 1798.93  23
   3   1  -1 391622. 1734.14  22
   3   1   0 4260.42 322.057  27
   3   1   0 4202.18 241.772  26
  -3   1   0 4726.55 361.199  25
  -3   1   0 4447.68 352.934  24
  -3   1   0 4520.18 221.518  23
   3   1   0 4014.35 213.778  22
  -3   1   0 4477.10 325.599   2
  -3   1  -1 27519.6 759.819   2
   3   1   1 26321.9 789.364  27
  -3   1  -1 27705.2 781.233  25
   3   1   1 28993.8 550.752  26
  -3   1  -1 27042.9 547.678  23
   3   1   1 25749.5 498.951  22
   3   1   2 1310.57 116.489  26
  -3   1  -2 1350.64 166.389   2
   3   1   2 1338.72 191.814  27
  -3   1  -2 1014.90 128.874  23
   3   1   2 1333.96 128.146  22
  -3   1  -2 1398.44 157.765   3
  -3   1  -3 6049.14 321.018   3
   3   1   3 5434.24 391.673  27
  -3   1  -3 5696.47 337.106   2
  -3   1  -3 5712.86 295.444  23
   3   1   3 5742.47 279.581  22
  -3   1  -4 10826.8 462.096   3
   3   1   4 10719.0 581.697  27
  -3   1  -4 10751.5 443.548   2
  -3   1  -4 9076.05 419.225  23
   3   1   4 10759.1 411.120  22
  -3   1  -5 43393.7 945.262   3
   3   1   5 40914.4 1208.44  27
  -3   1  -5 43260.3 880.587   2
   3   1   5 42729.0 895.494  22
  -3   1  -6 13583.1 569.033   3
   3   1   6 13473.4 785.507  27
  -3   1  -6 12646.1 580.536  23
  -3   1  -6 14890.0 530.573   2
   3   1   6 14487.2 571.121  22
   3   1   7 5789.43 566.449  27
  -3   1  -7 6573.48 449.426  23
   3   1   7 6850.71 432.833  22
  -3   1  -7 6955.46 382.343   2
  -3   1  -8 924.229 149.354   2
   3   1   8 447.788 191.351  27
   3   1   8 839.556 178.635  22
   3   1   9 78.5058 108.197  29
   3   1   9 102.361 162.099  27
  -3   1  -9 65.9282 83.8942  30
  -3   1  -9 88.8433 81.0855   7
  -3   1  -9 41.2188 118.498  12
   3   1   9-14.3076 104.116  22
   3   1  10 7534.70 388.111  32
  -3   1 -10 7557.88 392.448  30
   3   1  10 7612.29 444.085  29
  -3   1 -10 6965.49 342.761   7
  -3   1 -10 7076.84 397.131  12
   3   1  10 7720.84 548.435  22
   3   1  11 6201.96 339.038  32
   3   1  11 5853.64 396.506  29
  -3   1 -11 5440.35 317.944   7
  -3   1 -11 6297.93 353.872  30
  -3   1 -11 6470.73 370.460  12
   3   1  12 8776.39 405.733  32
   3   1  12 7896.83 474.015  29
  -3   1 -12 8803.80 425.223  30
  -3   1 -12 7965.75 371.318   7
  -3   1 -12 8822.95 438.259  12
  -3   1 -13 187.671 108.791  12
  -3   1 -13 318.048 108.252  30
   3   1  13 360.939 117.367  29
   3   1  14 51.3013 87.2264  29
   3   1  14 187.779 76.6184  16
   3   1  15 1446.36 173.861  29
   3   1  15 1396.13 174.053  16
  -3   1 -15 1817.62 145.709  30
   3   1  16 3136.07 185.374  29
   3   1  16 2905.29 178.155  16
  -3   2  16 1965.89 151.105  32
   3   2 -16 1841.37 138.159  12
  -3   2  15 505.319 105.850  29
  -3   2  15 657.457 116.591  32
   3   2 -15 741.188 122.274  12
  -3   2  14 3940.24 273.970  32
   3   2 -14 4009.70 230.812   9
   3   2 -13 4952.30 263.552   9
   3   2 -13 4354.15 267.800  17
  -3   2  13 5003.53 335.734  32
  -3   2  12 3376.23 292.731  32
   3   2 -12 2996.55 219.125   9
   3   2 -12 3346.27 262.647  17
  -3   2  11 6782.71 402.220  32
   3   2 -11 7225.18 372.768  17
  -3   2  11 6681.03 417.914  28
   3   2 -11 6825.06 322.210   9
  -3   2  10 2763.49 257.861  32
   3   2 -10 2835.39 239.868  17
  -3   2  10 2390.15 253.946  28
   3   2 -10 3098.03 229.673   9
   3   2  -9 11361.3 439.614  20
   3   2  -9 11882.4 772.812   1
  -3   2   9 12180.3 503.272  32
   3   2  -9 13180.3 412.982   9
  -3   2   9 10970.8 493.823  28
   3   2  -9 11564.4 465.940  21
   3   2  -8 12641.2 762.562   1
  -3   2   8 12064.1 695.591  24
   3   2  -8 12194.4 739.504   4
   3   2  -7 15623.2 824.127   1
  -3   2   7 16305.0 778.192  24
  -3   2   7 15699.6 732.860  25
   3   2  -6 1069.97 234.709   1
  -3   2   6 1115.46 219.287  25
  -3   2   6 1165.36 202.630  24
   3   2  -5 4778.50 443.812  27
   3   2  -5 5124.86 435.049   1
  -3   2   5 4415.51 380.662  25
  -3   2   5 5319.96 423.257  24
   3   2  -4 6236.82 477.221  27
  -3   2   4 6759.57 480.859   2
  -3   2   4 6561.80 450.984  25
  -3   2   4 6758.52 454.498  24
   3   2  -3 44738.8 1235.35  27
  -3   2   3 44833.7 1179.68   2
  -3   2   3 45080.3 1127.28  25
  -3   2   3 45690.2 1143.77  24
  -3   2   2 69588.1 1443.54   2
   3   2  -2 67143.3 1471.09  27
  -3   2   2 69721.3 1398.19  25
  -3   2   2 71576.5 1408.94  24
  -3   2   1 110461. 1770.77   2
   3   2  -1 106275. 1844.18  27
  -3   2   1 108263. 1678.33  25
  -3   2   0 162566. 1363.28   3
  -3   2   0 164686. 2122.76   2
   3   2   0 160618. 2263.90  27
  -3   2   0 159852. 2032.21  25
  -3   2  -1 106538. 1186.71   3
  -3   2  -1 108661. 1678.21   2
   3   2   1 107731. 1893.45  27
  -3   2  -1 107650. 1677.82  25
  -3   2  -2 14788.5 483.047   3
  -3   2  -2 15550.3 639.431   2
   3   2   2 16096.5 757.468  27
  -3   2  -2 15861.7 653.548  25
  -3   2  -3 2141.35 208.193   3
   3   2   3 2543.93 324.223  27
  -3   2  -3 2330.63 251.445   2
  -3   2  -3 2402.16 271.419  25
   3   2   4 5404.53 473.384  27
  -3   2  -4 5673.00 431.173  25
  -3   2  -4 5639.51 402.240   2
   3   2   5 4619.77 484.822  27
  -3   2  -5 5060.74 400.010  25
  -3   2  -5 4790.92 365.289   2
   3   2   6 4653.45 506.590  27
  -3   2  -6 4614.60 355.455   2
   3   2   6 4942.35 348.052  22
   3   2   7 49139.7 1675.48  27
   3   2   7 48505.7 1193.05  22
  -3   2  -7 50507.4 1185.66   2
  -3   2  -8 2032.97 242.170   2
   3   2   8 1919.56 209.070  32
   3   2   8 2000.90 213.653  29
   3   2   8 1726.89 321.021  27
  -3   2  -8 1982.59 192.627  30
  -3   2  -8 2259.06 231.549  12
   3   2   8 2074.10 199.411  11
   3   2   8 2010.52 255.671  22
  -3   2  -9 4605.75 390.797   2
   3   2   9 5766.41 351.434  32
   3   2   9 5621.01 364.650  29
  -3   2  -9 6131.54 361.119  19
  -3   2  -9 5755.04 340.501  30
  -3   2  -9 5792.98 360.547  12
   3   2   9 5819.91 334.907  11
   3   2  10 54548.0 1071.98  32
  -3   2 -10 52615.7 1026.84  30
   3   2  10 51936.1 1127.35  29
   3   2  10 51555.8 1123.42  16
  -3   2 -10 51144.2 1064.79  12
   3   2  10 54706.4 1002.56  11
  -3   2 -11 16219.0 556.321  30
   3   2  11 16199.4 588.522  32
   3   2  11 16122.4 615.297  29
   3   2  11 15385.3 603.213  16
  -3   2 -11 16219.9 591.741  12
   3   2  12 4880.71 319.875  32
  -3   2 -12 4475.06 290.176  30
   3   2  12 4351.79 327.504  29
   3   2  12 3818.40 305.302  16
  -3   2 -12 4472.99 312.664  12
   3   2  13 7297.54 399.788  29
   3   2  13 6578.81 366.055  16
  -3   2 -13 7582.30 343.795  30
  -3   2 -13 6853.51 349.550  14
   3   2  14 390.543 95.6375  32
   3   2  14 439.120 110.843  29
  -3   2 -14 409.693 94.9438  30
   3   2  14 143.093 58.0098  16
   3   2  14 398.666 84.7178  15
  -3   2 -14 423.819 90.6472  14
   3   2  15 133.317 69.1143  29
  -3   2 -15 32.9053 43.0123  14
   3   2  15 158.213 63.6154  32
  -3   3  15 5927.58 250.171  32
   3   3 -15 4256.29 242.790  19
  -3   3  14 5085.10 270.624  32
   3   3 -14 4977.95 225.147  12
   3   3 -13 1341.24 151.656  17
  -3   3  13 1430.53 164.624  32
   3   3 -13 1305.29 129.671  12
  -3   3  13 995.671 133.417  11
  -3   3  12 4558.71 308.026  32
   3   3 -12 4725.86 285.606  17
  -3   3  11 9583.82 461.741  32
   3   3 -11 9928.53 437.910  17
  -3   3  10 4496.25 322.728  32
   3   3 -10 3730.70 282.433  17
  -3   3  10 4263.67 339.498  28
  -3   3   9 9710.93 447.975  32
  -3   3   9 9995.04 502.245  28
   3   3  -9 8843.36 411.120  21
  -3   3   8 1475.21 184.281  32
  -3   3   8 1253.24 189.815  28
   3   3  -8 1274.50 161.183  21
   3   3  -7 2747.22 221.662  21
  -3   3   7 2232.89 342.690  25
  -3   3   7 2487.79 239.470  28
  -3   3   6 747.716 183.752   2
  -3   3   6 590.487 203.078  25
  -3   3   5 2879.23 355.416   2
   3   3  -5 3020.81 381.604  27
  -3   3   5 3234.60 383.113  25
   3   3  -4 20448.6 963.025  27
  -3   3   4 20839.5 888.639   2
  -3   3   4 22340.8 957.519  25
   3   3  -3 2228.76 326.544  27
  -3   3   3 2703.01 300.016   2
  -3   3   3 2431.76 317.430  25
  -3   3   2 5626.03 436.282   2
   3   3  -2 5295.96 481.258  27
  -3   3   2 5452.48 455.286  25
  -3   3   1 275.181 112.653   2
   3   3  -1 313.881 121.915  27
  -3   3   1 279.537 105.397  25
   3   3   0 4014.09 418.738  27
  -3   3   0 4562.71 375.127   2
  -3   3   0 4156.96 398.762  25
   3   3   1 15034.2 808.881  27
  -3   3  -1 15971.3 702.407   2
  -3   3  -1 15200.6 747.268  25
   3   3   2 18791.4 932.025  27
  -3   3  -2 18828.8 756.110   2
  -3   3  -2 19355.8 834.512  25
   3   3   3 16083.8 881.028  27
  -3   3  -3 16509.9 753.879  25
  -3   3  -3 15365.7 678.979   2
   3   3   4 22994.0 1105.67  27
  -3   3  -4 25611.5 964.125  25
  -3   3  -4 23305.7 825.459   2
  -3   3  -5 367.433 126.808   2
   3   3   5 570.860 201.024  27
  -3   3  -6 3225.28 277.672  19
  -3   3  -6 2711.42 231.901  30
   3   3   6 3111.15 437.027  27
   3   3   6 2789.95 226.843  32
  -3   3  -6 3079.99 315.084   4
  -3   3  -6 2882.14 251.859  14
   3   3   6 2629.10 216.447  11
  -3   3  -6 2540.02 281.956   2
   3   3   7 97804.7 1455.38  32
  -3   3  -7 101118. 1549.26  19
   3   3   7 107110. 2637.83  27
  -3   3  -7 101173. 1524.23  14
  -3   3  -7 99170.3 1415.52  30
  -3   3  -7 109292. 1917.87   4
   3   3   7 99524.3 1312.06  11
  -3   3  -7 105163. 1861.59   2
   3   3   8 4076.78 307.871  32
  -3   3  -8 4187.30 341.715  19
  -3   3  -8 5056.78 336.329  30
  -3   3  -8 4743.71 345.485  14
   3   3   8 4321.18 294.303  11
   3   3   9 26210.9 762.406  32
  -3   3  -9 25784.0 791.137  19
  -3   3  -9 27090.7 723.364  30
  -3   3  -9 26585.0 781.590  14
   3   3   9 26963.1 707.780  11
   3   3  10 46627.8 1008.04  32
  -3   3 -10 46975.3 1002.63  19
  -3   3 -10 46036.9 908.900  30
   3   3  10 45127.5 928.553  29
  -3   3 -10 45963.0 994.906  14
   3   3  10 45958.5 940.540  11
   3   3  11 2905.47 250.823  32
  -3   3 -11 2730.24 236.819  19
   3   3  11 2776.43 238.147  29
  -3   3 -11 2908.02 243.484  14
  -3   3 -12 1551.32 164.506  19
   3   3  12 1426.95 161.878  29
  -3   3 -12 1653.41 177.558  14
   3   3  12 1461.87 179.501  32
  -3   3 -13 954.896 113.775  19
   3   3  13 1160.55 147.759  32
   3   3  13 952.833 115.155  29
  -3   3 -13 979.715 121.191  14
  -3   3 -14 1581.48 121.182  14
   3   3  14 1540.50 141.844  15
  -3   4  13 421.285 71.5916  32
   3   4 -13 391.440 83.1017  17
   3   4 -13 243.329 77.4312  19
  -3   4  13 329.279 67.4548  11
  -3   4  12 1495.93 145.388  32
   3   4 -12 1306.78 140.012  17
   3   4 -12 881.220 143.184  19
  -3   4  12 1123.39 138.342  11
   3   4 -11 1766.65 206.622  19
   3   4 -11 2360.76 195.950  17
   3   4 -10 3418.24 251.343  17
   3   4  -9 10624.0 434.905  17
   3   4  -9 10114.9 430.902  21
  -3   4   8 3686.52 261.502  10
   3   4  -8 3775.17 264.793  21
  -3   4   7 1730.01 240.421  28
   3   4  -7 1694.86 185.354  21
   3   4  -6 6808.36 346.950  21
  -3   4   6 6303.33 389.612  31
  -3   4   6 6754.44 397.615  28
  -3   4   6 6266.17 351.338  18
   3   4  -5 18672.1 571.509  21
  -3   4   5 17352.7 494.752  19
  -3   4   5 17831.7 597.874  18
  -3   4   5 17593.8 623.710  31
  -3   4   5 18415.3 613.753  28
  -3   4   4 181608. 1639.64  19
  -3   4   4 188412. 1971.52  31
   3   4  -4 190707. 3157.75  27
  -3   4   4 189024. 1887.41  18
  -3   4   4 187417. 1843.93  28
  -3   4   4 189906. 3155.61  25
  -3   4   3 11508.3 419.046  19
  -3   4   3 11475.4 483.298  31
  -3   4   3 11620.7 473.662  18
   3   4  -3 11871.7 775.454  27
  -3   4   3 11522.3 621.726   2
  -3   4   3 12036.3 787.798  25
   3   4  -3 11681.2 380.053  10
  -3   4   2 4076.85 255.734  19
  -3   4   2 4412.79 294.793  31
   3   4  -2 3746.22 446.091  27
  -3   4   2 4172.54 377.889   2
  -3   4   2 4373.81 466.549  25
   3   4  -2 4134.27 244.256  10
   3   4  -1 27036.9 618.359  10
  -3   4   1 24099.4 636.242  19
  -3   4   1 25322.3 714.583  31
   3   4  -1 24250.7 1125.00  27
  -3   4   1 24052.7 895.870   2
  -3   4   1 24796.7 1104.47  25
   3   4   0 1968.81 192.904  10
  -3   4   0 1995.66 190.896  19
  -3   4   0 2183.28 208.122  31
  -3   4   0 1677.12 237.457   2
   3   4   0 1579.84 293.950  27
  -3   4   0 2392.59 366.131  25
   3   4   1 1458.46 158.367  10
  -3   4  -1 1417.78 156.777  19
  -3   4  -1 1491.70 187.244  31
   3   4   1 1487.59 300.883  27
  -3   4  -1 1388.50 209.570   2
  -3   4  -1 1515.71 268.206  25
   3   4   2 14622.0 470.516  10
  -3   4  -2 13510.4 523.546  19
   3   4   2 14734.1 906.210  27
  -3   4  -2 14333.4 550.722  31
  -3   4  -2 13780.9 795.078  25
  -3   4  -2 13695.4 670.498   2
   3   4   3 4085.49 276.915  10
  -3   4  -3 3684.48 300.132  19
  -3   4  -3 3505.53 297.008  31
   3   4   3 3643.05 477.539  27
   3   4   3 3793.80 269.473  15
  -3   4  -3 3586.95 346.830   2
   3   4   4 4058.33 259.544  10
   3   4   4 3902.62 283.000  32
  -3   4  -4 3877.05 299.629  19
  -3   4  -4 3908.66 308.426  31
  -3   4  -4 3411.18 289.625  14
   3   4   4 4149.70 262.542  11
   3   4   5 6943.59 340.913  10
   3   4   5 6545.24 362.833  32
  -3   4  -5 6435.75 401.232  19
  -3   4  -5 6291.10 385.938  31
  -3   4  -5 6377.64 388.993  14
   3   4   5 6690.70 331.775  11
   3   4   6 649.319 107.155  10
   3   4   6 568.868 106.875  32
  -3   4  -6 754.740 144.446  19
  -3   4  -6 794.074 154.415  31
  -3   4  -6 664.185 152.900  14
   3   4   6 636.158 117.692  11
   3   4   7 7563.68 412.273  32
  -3   4  -7 7508.65 437.863  19
  -3   4  -7 7471.19 428.044  14
   3   4   7 7112.19 357.481  11
   3   4   7 7335.45 323.406  10
  -3   4  -8 4413.91 342.623  19
   3   4   8 5281.51 340.269  32
  -3   4  -8 5099.60 352.270  14
   3   4   8 5096.44 317.664  11
   3   4   9 4878.90 317.299  32
  -3   4  -9 4654.63 324.951  19
  -3   4  -9 4989.12 326.773  14
   3   4   9 5123.79 306.072  11
  -3   4 -10 416.904 113.806  19
   3   4  10 434.549 109.360  32
  -3   4 -10 221.205 88.1900  14
   3   4  11 59.7672 73.6213  32
  -3   4 -11 28.9585 60.0834  19
  -3   4 -12 19.7878 46.6449  19
   3   4  12 14.6792 52.5545  15
   3   4  12 69.3619 54.9144  32
  -3   4 -13 2662.70 137.944  19
   3   4  13 2810.27 165.965  15
   3   5 -11 8995.73 272.204  17
  -3   5  11 8235.80 290.080  11
   3   5 -10 10456.1 327.293  17
  -3   5  10 10217.5 358.705  11
  -3   5   9 14787.4 388.391  10
   3   5  -9 15332.0 433.306  17
  -3   5   8 8882.80 356.665  10
   3   5  -8 8838.56 347.664  17
   3   5  -8 8417.92 330.535  21
  -3   5   7 1456.62 146.160  18
  -3   5   7 1965.56 192.911  10
   3   5  -7 2025.67 179.927  17
   3   5  -7 1673.95 153.615  21
  -3   5   6 3161.23 254.906  10
  -3   5   6 3383.20 245.469  18
   3   5  -6 3239.70 224.730  21
   3   5  -5 582.969 102.715  21
  -3   5   5 363.449 94.9252  10
  -3   5   5 637.850 121.114  18
   3   5  -4 4175.90 262.548  21
  -3   5   4 4112.32 295.554  18
  -3   5   4 4412.51 308.823  31
  -3   5   3 4274.43 247.466  19
  -3   5   3 4505.86 307.962  31
  -3   5   3 4079.10 311.364  18
   3   5  -3 4354.82 241.727  10
  -3   5   2 3945.68 249.115  19
  -3   5   2 4490.48 316.024  18
  -3   5   2 4553.05 308.874  31
   3   5  -2 4180.82 257.612  10
   3   5  -1 277.315 80.9819  10
  -3   5   1 373.684 96.4507  19
  -3   5   1 253.291 87.0424  31
  -3   5   1 176.038 81.8601  18
   3   5   0 1116.88 147.855  10
  -3   5   0 1161.43 154.189  19
  -3   5   0 1079.43 153.704  31
  -3   5  -1 1239.18 160.655  19
  -3   5  -1 1347.59 170.175  31
   3   5   1 1280.74 159.700  10
  -3   5  -2 857.767 135.750  10
  -3   5  -2 1157.90 173.489  19
  -3   5  -2 1091.70 160.040  31
   3   5   2 1175.35 156.223  10
  -3   5  -3 169.289 92.4950  19
   3   5   3 92.4872 70.8904  10
  -3   5  -3 66.0993 63.8376  31
  -3   5  -4 2484.13 230.335  19
  -3   5  -4 2045.08 201.316  31
   3   5   4 2008.07 188.231  10
  -3   5  -5 686.798 141.537  19
   3   5   5 761.852 122.880  10
  -3   5  -6 315.223 110.943  19
   3   5   6 189.765 74.7526  10
   3   5   6 157.184 80.0122  15
  -3   5  -7 2278.44 224.739  19
   3   5   7 2043.93 190.070  15
   3   5   7 2335.51 171.655  10
   3   5   8 11045.7 409.053  15
  -3   5  -8 11506.4 441.356  19
   3   5   8 12012.0 337.290  10
  -3   5  -9 21927.5 554.819  19
   3   5   9 21069.3 531.388  15
  -3   5 -10 1155.69 120.712  19
   3   5  10 1093.42 112.729  15
  -3   5 -11 210.967 44.5645  19
   3   5  11 160.311 43.9078  15
  -3   6   8 1473.93 94.8063  10
  -3   6   8 1656.41 106.034  11
  -3   6   7 450.126 69.1431  10
  -3   6   7 445.768 67.1852  11
  -3   6   6 4627.83 231.858  10
  -3   6   6 4676.93 222.514  18
   3   6  -5 216.792 44.5136  21
  -3   6   5 260.082 83.8978  10
  -3   6   5 214.309 65.1318  18
  -3   6   4 1431.39 149.171  10
  -3   6   4 1217.05 142.368  18
   3   6  -4 1373.47 114.361  21
   3   6  -3 4382.91 218.335  21
  -3   6   3 4181.14 263.962  10
  -3   6   3 4050.76 261.604  18
   3   6  -2 8137.81 309.913  21
  -3   6   2 8228.00 365.532  10
  -3   6   2 8325.63 376.132  18
   3   6  -2 7328.26 277.639  10
   3   6  -1 656.915 96.5389  21
   3   6  -1 738.190 100.655  10
  -3   6   1 665.443 121.670  10
  -3   6   1 707.218 120.635  18
  -3   6   0 7981.89 341.913  10
  -3   6   0 8772.01 302.562  19
  -3   6   0 8336.34 381.978  18
   3   6   0 9249.97 345.532  10
  -3   6  -1 22832.5 543.438  10
  -3   6  -1 23629.7 516.887  19
  -3   6  -1 23535.9 643.380  18
  -3   6  -2 35073.1 611.853  10
  -3   6  -2 35781.7 647.437  19
  -3   6  -2 36799.5 792.340  18
   3   6   2 35269.4 660.926  10
  -3   6  -3 11116.5 370.391  19
  -3   6  -3 11256.5 437.976  18
   3   6   3 11782.8 373.413  10
  -3   6  -4 11380.0 372.094  19
  -3   6  -4 11583.6 432.521  18
   3   6   4 11543.3 356.767  10
   3   6   5 733.075 91.8122  10
  -3   6  -5 551.333 87.2178  19
  -3   6  -5 562.887 102.666  18
   3   6   6 196.213 45.7403  10
  -3   6  -6 232.846 67.2911  19
  -3   6  -6 145.965 49.9640  18
   3   6   7 276.869 49.0518  10
  -3   6  -7 463.465 69.3827  19
  -3   6  -7 447.896 70.8983  18
   4  -5 -10 4502.46 187.291  30
   4  -5 -10 4505.87 167.228   8
   4  -5  -9 5014.06 200.029   8
   4  -5  -8 13868.7 367.260   8
   4  -5  -7 3339.68 184.860   8
   4  -5  -6 637.842 92.9918   8
   4  -5  -5 3953.03 205.529   8
   4  -5  -4 7108.24 274.160   8
  -4  -5  -6 416.346 77.0417   7
  -4  -5  -7 2731.98 148.721   7
  -4  -5  -8 9101.52 254.298   7
  -4  -5  -9 2270.47 124.502   7
   4  -4 -13 936.503 95.4501   8
   4  -4 -12 460.133 78.9092  30
   4  -4 -12 533.075 88.9356   8
   4  -4 -11 2885.80 186.054   8
   4  -4 -10 152.234 81.3228   8
   4  -4  -9 235.061 92.7698   8
   4  -4  -8 994.147 130.493   8
   4  -4  -7 349.023 97.1939   8
   4  -4  -6 826.525 116.437   8
   4  -4  -5 21322.0 566.913   8
  -4  -4  -6 1346.93 139.291   7
  -4  -4  -7 1486.77 144.476   7
  -4  -4  -8 352.367 86.6937   7
  -4  -4  -9 396.532 76.6670   7
  -4  -4 -10 689.984 94.2404   7
  -4  -4 -11 484.061 71.1136   7
  -4  -4 -12 991.053 84.9997   7
   4  -3 -14 5550.12 224.774   8
   4  -3 -13 702.875 118.458   8
   4  -3 -12 850.798 109.130  30
   4  -3 -12 745.782 128.908   8
   4  -3 -11 6504.07 327.784   8
   4  -3 -10 5404.13 301.940   8
   4  -3  -9 12247.8 446.154   8
   4  -3  -8 3996.75 271.192   8
   4  -3  -7 1921.47 196.347   8
   4  -3  -6 34098.0 1266.17  26
  -4  -3   6 33392.7 1457.85  23
  -4  -3   6 32130.9 1288.60   6
   4  -3  -5 58575.6 1633.99  26
  -4  -3   5 60466.0 1933.97  23
  -4  -3   5 61087.9 1718.89   6
   4  -3  -4 20502.1 967.447  26
  -4  -3   4 20945.4 1102.47  23
  -4  -3   4 20663.2 991.172   6
   4  -3  -3 8233.82 540.545   5
   4  -3  -3 7631.02 583.209  26
  -4  -3   3 8489.29 687.491  23
  -4  -3   3 8184.71 617.109   6
   4  -3  -2 359.372 151.072  26
  -4  -3   2 368.152 162.788   6
   4  -3  -2 114.445 109.255   5
  -4  -3   2 176.709 105.703  23
   4  -3  -1 2661.03 332.791  26
  -4  -3   1 3026.59 397.674  23
  -4  -3   1 2330.47 316.573   6
   4  -3   0 2578.81 352.239  26
  -4  -3   0 2501.52 342.971  23
  -4  -3   0 2344.80 322.054   6
  -4  -3  -1 687.689 189.654   6
   4  -3   1 667.294 195.372  26
  -4  -3  -1 653.056 166.890  23
   4  -3   2 2451.29 378.593  26
  -4  -3  -2 2719.57 339.887  23
  -4  -3  -2 2399.11 334.637   6
   4  -3   3 6797.98 625.791  26
  -4  -3  -3 7066.72 540.057  23
   4  -3   3 7761.42 584.872  22
  -4  -3  -3 7158.92 547.149   6
   4  -3   4 9331.47 732.886  26
  -4  -3  -4 9324.40 634.848  23
   4  -3   4 10053.1 655.705  22
  -4  -3  -4 8859.74 607.362   6
  -4  -3  -5 13036.6 638.901   5
   4  -3   5 13870.5 921.991  26
  -4  -3  -5 13251.6 747.243  23
   4  -3   5 14281.5 772.267  22
  -4  -3  -5 11848.7 688.859   6
  -4  -3  -6 21704.0 523.310   7
  -4  -3  -7 43927.3 773.764   7
  -4  -3  -8 5064.90 278.275   7
  -4  -3  -9 5160.63 289.941  30
  -4  -3  -9 5097.69 270.870   7
  -4  -3 -10 20596.5 551.830  30
  -4  -3 -10 20700.4 523.619   7
  -4  -3 -11 9436.01 358.615  30
  -4  -3 -11 9262.99 341.216   7
  -4  -3 -12 1380.57 137.472  30
  -4  -3 -12 1405.36 131.972   7
  -4  -3 -13 9629.13 294.074  30
  -4  -3 -13 9698.84 288.046   7
   4  -2 -15 145.956 57.9290   8
   4  -2 -14 264.323 90.7221   8
   4  -2 -13 1284.20 150.459   9
   4  -2 -13 919.860 130.451   8
  -4  -2  12 3078.90 248.289  32
   4  -2 -12 3174.27 241.540   8
   4  -2 -12 3158.77 225.662   9
   4  -2 -11 6971.89 316.627   9
   4  -2 -11 6906.83 352.900   8
   4  -2 -10 2487.24 195.938   9
   4  -2 -10 2153.26 201.681   8
   4  -2 -10 1765.77 214.163  13
   4  -2  -9 6049.67 318.376   8
   4  -2  -9 6798.58 324.147   9
   4  -2  -8 10050.8 714.544   1
   4  -2  -8 11645.7 426.857   8
   4  -2  -8 10759.7 729.784  26
   4  -2  -8 11475.1 470.779  13
  -4  -2   8 9490.59 724.116  24
  -4  -2   8 8784.72 818.267  23
   4  -2  -7 5157.28 477.042   1
   4  -2  -7 5496.61 279.494   8
   4  -2  -7 4811.01 466.257  26
   4  -2  -7 5474.66 312.589  13
  -4  -2   7 5213.86 526.122  24
  -4  -2   7 4136.77 555.200  23
  -4  -2   7 4448.20 505.843   6
   4  -2  -6 2575.70 353.096  26
  -4  -2   6 2630.12 350.629  24
  -4  -2   6 2110.19 389.909  23
  -4  -2   6 2196.47 335.299   6
  -4  -2   5 1360.45 266.759   6
   4  -2  -5 1658.21 286.403  26
  -4  -2   5 1230.60 239.972  24
  -4  -2   5 1377.48 289.494  23
   4  -2  -4 3166.79 359.068  26
  -4  -2   4 2886.29 331.094  24
  -4  -2   4 2999.69 395.164  23
  -4  -2   4 3164.87 374.039   6
   4  -2  -3 96439.4 1925.42  26
  -4  -2   3 93262.8 1707.32  24
  -4  -2   3 95349.2 2093.53  23
  -4  -2   3 95861.9 1951.92   6
   4  -2  -2 58168.3 1475.56  26
  -4  -2   2 56685.9 1258.66  24
  -4  -2   2 58248.6 1602.70  23
  -4  -2   2 56177.4 1456.38   6
   4  -2  -1 67893.0 1599.36  26
  -4  -2   1 66516.4 1567.60   6
   4  -2   0 5570.75 474.400  26
  -4  -2   0 5612.24 481.128  23
  -4  -2   0 5386.70 448.989   6
   4  -2   1 20291.8 900.093  26
  -4  -2  -1 21058.4 894.710  23
  -4  -2  -1 21767.4 893.326   6
  -4  -2  -2 1382.25 197.207   5
   4  -2   2 1716.85 291.179  26
  -4  -2  -2 1456.05 261.381  23
  -4  -2  -2 1652.67 261.317   6
  -4  -2  -3 1463.97 201.818   5
   4  -2   3 1644.76 284.962  26
  -4  -2  -3 1414.02 243.996  23
   4  -2   3 1392.36 231.890  22
  -4  -2  -3 1464.07 229.191   6
  -4  -2  -4 667.100 158.719   6
  -4  -2  -4 796.332 168.392   5
   4  -2   4 848.915 229.406  26
  -4  -2  -4 682.811 166.538  23
   4  -2   4 1143.13 224.771  22
  -4  -2  -5 503.772 144.579   5
   4  -2   5 826.458 229.595  26
  -4  -2  -5 742.930 191.040  23
  -4  -2  -5 870.922 171.987   3
   4  -2   5 866.490 194.469  22
  -4  -2  -6 14702.0 665.099   3
  -4  -2  -6 15096.0 708.749   5
   4  -2   6 15730.3 926.575  26
  -4  -2  -6 14575.2 758.262  23
   4  -2   6 15229.7 746.038  22
  -4  -2  -7 86043.0 1621.04   3
  -4  -2  -7 82602.0 1744.23   5
  -4  -2  -7 79015.1 1105.49  30
   4  -2   7 86074.6 1446.84  16
   4  -2   7 78783.0 2100.34  26
  -4  -2  -7 80951.7 1027.67   7
  -4  -2  -7 80960.8 1864.20  23
   4  -2   7 88997.2 1861.61  22
  -4  -2  -8 5224.34 302.859  30
   4  -2   8 5060.37 370.363  16
  -4  -2  -8 5350.60 280.711   7
  -4  -2  -9 11925.1 464.130  30
  -4  -2  -9 11724.1 413.271   7
  -4  -2 -10 53045.7 977.045  30
   4  -2  10 51756.7 1118.86  16
  -4  -2 -10 52854.5 897.043   7
  -4  -2 -11 135.347 84.0497  30
   4  -2  11 230.046 99.9547  16
  -4  -2 -11 181.853 88.6147   7
  -4  -2 -12 665.459 119.694  30
   4  -2  12 810.864 137.821  16
  -4  -2 -12 749.972 106.045   7
  -4  -2 -13 156.280 64.8404  30
   4  -2  13 66.8449 58.3416  16
  -4  -2 -13 157.053 59.7817   7
  -4  -2 -14 1256.79 125.472  30
  -4  -2 -14 1025.48 105.983   7
   4  -2  14 984.267 118.310  16
   4  -1 -16 2880.12 154.598  12
  -4  -1  15 3472.79 209.114  32
   4  -1 -15 3388.84 196.081   9
   4  -1 -15 3095.48 182.360   8
   4  -1 -14 20151.2 515.394   9
  -4  -1  14 21259.8 578.928  32
  -4  -1  13 8238.42 402.503  32
   4  -1 -13 7263.83 333.268   9
   4  -1 -13 7875.96 339.337   8
  -4  -1  12 13191.6 539.823  32
   4  -1 -12 13120.0 460.018   9
   4  -1 -12 13253.7 452.600   8
   4  -1 -11 7268.13 368.897   9
   4  -1 -11 7522.98 357.144   8
   4  -1 -10 2764.14 229.638   9
   4  -1 -10 2781.24 219.251   8
   4  -1 -10 2204.98 252.640  13
   4  -1  -9 648.502 136.462   9
   4  -1  -9 493.550 100.075   8
   4  -1  -9 324.930 97.0064  13
   4  -1  -9 579.198 143.606   1
  -4  -1   9 602.539 218.811  24
   4  -1  -8 442.517 179.473  26
   4  -1  -8 378.488 174.898   1
  -4  -1   8 214.473 137.079  24
  -4  -1   8 241.610 134.248  23
   4  -1  -7 4458.68 450.702   1
   4  -1  -7 5131.98 486.648  26
  -4  -1   7 4788.22 491.203  24
  -4  -1   7 4370.99 483.604  23
  -4  -1   7 4113.07 452.534   6
   4  -1  -6 37405.5 1220.40   1
  -4  -1   6 37411.5 1273.17  24
   4  -1  -6 36245.1 1217.57  26
  -4  -1   6 35363.7 1289.27  23
  -4  -1   6 34503.6 1258.87   6
   4  -1  -5 3749.30 375.372   1
   4  -1  -5 3989.83 409.320  26
  -4  -1   5 3594.14 376.579  24
  -4  -1   5 3967.66 417.606  23
  -4  -1   5 3311.38 393.635   6
   4  -1  -4 4671.33 410.891  26
   4  -1  -4 4725.06 391.637   1
  -4  -1   4 4397.54 400.748  24
  -4  -1   4 4401.92 426.587  23
  -4  -1   4 4058.62 404.906   6
   4  -1  -3 77252.0 1582.20  26
  -4  -1   3 73412.9 1539.64  24
  -4  -1   3 74794.4 1649.95  23
   4  -1  -3 74194.2 1406.74   1
  -4  -1   3 75917.4 1649.57   6
   4  -1  -2 167890. 1992.52   1
   4  -1  -2 171410. 2302.71  26
  -4  -1   2 167484. 2219.83  24
  -4  -1   2 175656. 2464.78  23
  -4  -1   2 169791. 2401.65   6
   4  -1  -1 389732. 3428.76  26
  -4  -1   1 386224. 3314.51  24
  -4  -1   1 384113. 3553.89   6
   4  -1   0 156326. 2149.82  26
  -4  -1   0 156994. 2041.77  24
  -4  -1   0 152394. 2187.04  23
  -4  -1   0 153232. 2221.90   6
  -4  -1  -1 6215.75 346.221   5
   4  -1   1 7626.38 484.288  26
  -4  -1  -1 7491.02 481.840  23
  -4  -1  -1 7822.46 514.926   6
  -4  -1  -2 15400.3 592.381   5
   4  -1   2 16199.7 714.484  26
  -4  -1  -2 15003.2 687.234  23
   4  -1   2 16283.3 673.258  22
  -4  -1  -2 16714.0 687.681   6
  -4  -1  -3 3716.25 318.042   5
   4  -1   3 3308.88 350.560  26
  -4  -1  -3 3227.73 336.313  23
   4  -1   3 3544.34 320.681  22
  -4  -1  -3 4135.64 335.926   6
  -4  -1  -4 3460.32 314.605   5
   4  -1   4 3789.41 380.089  26
  -4  -1  -4 3874.37 365.407  23
   4  -1   4 4091.57 345.826  22
  -4  -1  -4 3691.17 315.195   6
  -4  -1  -5 29359.5 948.506   5
   4  -1   5 31621.9 1107.16  26
  -4  -1  -5 27070.5 996.604  23
   4  -1   5 29363.7 938.569  22
  -4  -1  -5 30018.2 946.953   3
  -4  -1  -6 6749.88 451.260   3
  -4  -1  -6 6181.51 463.728   5
   4  -1   6 6463.91 525.008  26
  -4  -1  -6 5794.16 478.033  23
   4  -1   6 6616.91 459.491  22
  -4  -1  -7 4833.03 401.335   3
  -4  -1  -7 4610.01 415.769   5
  -4  -1  -7 3500.55 405.293  23
   4  -1   7 4747.76 399.923  22
  -4  -1  -8 4938.38 455.544   5
  -4  -1  -8 5058.90 401.625   3
  -4  -1  -8 5080.02 304.260  30
   4  -1   8 4753.06 321.941  29
   4  -1   8 4202.33 363.895  16
  -4  -1  -8 5210.13 280.898   7
  -4  -1  -8 3950.08 415.304  23
   4  -1   8 5162.22 426.913  22
  -4  -1  -9 770.550 137.149  30
   4  -1   9 454.253 125.766  29
   4  -1   9 510.903 156.999  16
  -4  -1  -9 880.664 129.710   7
  -4  -1 -10 208.824 114.240  30
   4  -1  10 257.273 121.797  29
   4  -1  10 235.879 114.419  16
  -4  -1 -10 130.539 67.3664   7
  -4  -1 -11 2484.88 239.685  30
   4  -1  11 2137.66 263.037  16
   4  -1  11 2254.54 233.426  29
  -4  -1 -11 2447.70 211.959   7
  -4  -1 -12 2201.22 215.755  30
   4  -1  12 1840.16 212.485  29
   4  -1  12 1999.37 247.949  16
  -4  -1 -12 1652.40 172.161   7
  -4  -1 -13 170.922 100.761  30
   4  -1  13 7.40885 69.9034  29
   4  -1  13 211.140 105.589  16
  -4  -1 -13 178.900 81.6061   7
  -4  -1 -14 119.754 63.6927  30
   4  -1  14 105.405 71.4375  29
   4  -1  14 138.516 75.9989  16
  -4  -1 -14 86.1987 54.4786   7
  -4  -1 -15 173.513 65.1912  30
   4  -1  15 196.880 63.4098  16
   4  -1  15 156.523 49.9551  29
  -4   0  16 309.406 67.5178  32
  -4   0  15 31.8696 69.4829  32
   4   0 -15-132.043 88.7220   9
   4   0 -14 34854.4 704.931   9
  -4   0  14 36690.5 807.422  32
   4   0 -13 37454.2 770.209   9
  -4   0  13 35885.1 861.724  32
   4   0 -12 11052.7 441.349   9
  -4   0  12 10175.4 509.181  32
  -4   0  11 24044.6 779.397  32
   4   0 -11 25919.5 668.213   9
   4   0 -10 2837.98 222.463   9
   4   0  -9 1938.79 203.698  20
   4   0  -9 2288.10 202.447   9
   4   0  -9 2198.07 233.924  13
  -4   0   9 2141.58 369.879  24
   4   0  -9 2487.84 397.818   1
   4   0  -8 14964.2 880.235   1
  -4   0   8 14502.7 883.366  24
   4   0  -7 2591.85 361.280   1
  -4   0   7 2263.98 337.540  24
   4   0  -6 31887.3 1112.69  26
   4   0  -6 31195.6 1162.33   1
  -4   0   6 30494.7 1152.25  24
  -4   0   6 30608.2 1037.05  23
   4   0  -5 38026.5 1160.95  26
   4   0  -5 39869.5 1244.88   1
  -4   0   5 36102.2 1191.92  24
  -4   0   5 36287.4 1073.24  23
  -4   0   4 864.246 204.662   6
   4   0  -4 1042.69 203.124  26
   4   0  -4 959.878 181.451   1
  -4   0   4 884.126 150.357  25
  -4   0   4 945.630 198.766  24
  -4   0   4 881.322 171.477  23
  -4   0   3 1178.75 237.331   6
   4   0  -3 1363.66 207.984   1
   4   0  -3 1291.37 209.260  26
  -4   0   3 1304.96 193.151  25
  -4   0   3 1412.12 222.639  24
  -4   0   3 1536.22 210.417  23
  -4   0   2 220.737 153.548   6
   4   0  -2 124.999 86.6683   1
   4   0  -2 76.3145 60.7747  27
   4   0  -2 79.0399 82.5073  26
  -4   0   2 28.3158 61.9689  25
  -4   0   2 66.8062 78.4586  24
  -4   0   2 211.597 97.8768  23
  -4   0   1 226.059 137.720   6
   4   0  -1 140.884 64.9086  27
   4   0  -1 58.2158 61.0583  26
  -4   0   1 133.914 89.7290  24
  -4   0   1 126.913 50.5352  23
  -4   0   0 371.540 178.730   6
  -4   0   0 377.637 109.534   2
   4   0   0 846.511 129.187  27
   4   0   0 453.628 112.290  26
  -4   0   0 254.296 115.039  24
  -4   0   0 806.872 132.468  23
   4   0   1 2459.42 218.850  27
  -4   0  -1 2400.07 232.564   2
   4   0   1 2365.09 227.308  26
  -4   0  -1 2321.68 227.050  23
  -4   0  -1 2278.61 288.298   6
   4   0   1 2372.00 225.759  22
  -4   0  -2 12678.5 503.596   2
   4   0   2 13848.2 525.830  27
   4   0   2 12229.5 517.367  26
  -4   0  -2 12695.6 547.141  23
  -4   0  -2 12541.7 587.626   6
   4   0   2 12232.8 508.865  22
   4   0   3 8030.04 425.132  27
  -4   0  -3 7692.85 374.673   2
   4   0   3 7804.29 423.120  26
  -4   0  -3 7614.37 448.897  23
  -4   0  -3 7606.50 433.782   6
   4   0   3 8416.60 422.862  22
  -4   0  -4 1874.20 245.376  23
   4   0   4 1884.10 218.586  22
  -4   0  -4 2116.49 256.674   3
  -4   0  -5 198770. 2320.01   3
  -4   0  -5 200910. 2439.54  23
   4   0   5 201903. 2280.26  22
  -4   0  -6 13180.8 633.116   3
  -4   0  -6 11874.7 622.122  23
   4   0   6 12807.4 602.673  22
  -4   0  -7 139.743 127.870   3
  -4   0  -7 60.6979 101.958  23
   4   0   7 283.021 135.860  22
  -4   0  -8 17607.7 769.676   3
  -4   0  -8 17485.3 576.851  30
   4   0   8 18148.7 634.525  29
   4   0   8 16656.0 710.653  16
  -4   0  -8 17465.3 514.756   7
   4   0   8 18364.1 778.936  22
  -4   0  -9 94.1991 120.481  30
   4   0   9 0.81485 101.931  29
   4   0   9 31.5736 77.9344  16
  -4   0  -9 164.353 79.0535   7
  -4   0 -10 1561.53 194.032  30
   4   0  10 1223.99 203.707  29
   4   0  10 1177.65 223.271  16
  -4   0 -10 1672.44 192.063   7
  -4   0 -11 20214.1 641.135  30
   4   0  11 19630.6 700.730  29
   4   0  11 20478.0 756.429  16
  -4   0 -11 19575.2 581.724   7
  -4   0 -12 19707.4 616.327  30
   4   0  12 20794.3 684.373  29
   4   0  12 19968.2 727.372  16
  -4   0 -12 18956.8 563.780   7
  -4   0 -13 2846.14 228.175  30
   4   0  13 2672.36 243.828  29
   4   0  13 2255.49 261.158  16
  -4   0 -13 2454.33 190.972   7
  -4   0 -14 1103.52 138.991  30
   4   0  14 1238.25 154.332  29
   4   0  14 903.447 139.613  16
   4   0  15 125.880 62.4164  29
  -4   0 -15 110.292 73.0979  30
   4   0  15 40.1250 52.5214  16
  -4   1  16 2927.89 175.779  32
   4   1 -16 3061.65 173.133  12
  -4   1  15 3369.91 225.817  32
   4   1 -15 3317.62 198.243   9
  -4   1  14 19513.4 584.926  32
   4   1 -14 20091.4 516.022   9
  -4   1  13 7565.18 392.482  32
   4   1 -13 7205.50 313.804  17
   4   1 -13 7777.08 345.186   9
  -4   1  12 11731.9 524.377  32
   4   1 -12 13120.6 470.393   9
   4   1 -12 11655.3 419.677  17
   4   1 -11 7306.19 346.533  17
   4   1 -11 7047.67 361.862   9
  -4   1  11 6226.32 399.926  32
  -4   1  10 2130.86 257.479  32
   4   1 -10 2481.67 220.768   9
   4   1 -10 2519.50 197.113  17
  -4   1  10 2095.83 231.035  28
   4   1  -9 390.913 93.6077  20
   4   1  -9 452.809 103.122   9
  -4   1   9 325.343 139.785  28
   4   1  -9 301.898 144.457   1
  -4   1   9 263.861 120.075  24
   4   1  -8 366.723 93.3927  20
   4   1  -8 629.673 188.419   1
  -4   1   8 456.027 170.411  24
   4   1  -7 4796.48 466.136   1
  -4   1   7 4548.67 478.186  24
   4   1  -6 33741.1 1206.66   1
  -4   1   6 36110.9 1265.03  24
   4   1  -5 3682.12 393.198   1
  -4   1   5 3406.76 324.537  25
  -4   1   5 3569.92 384.820  24
   4   1  -4 4336.39 395.283  27
   4   1  -4 4432.36 405.706   1
  -4   1   4 4343.96 349.281  25
  -4   1   4 4146.11 402.905  24
   4   1  -3 74593.2 1519.86  27
   4   1  -3 75796.8 1415.51  26
  -4   1   3 73316.0 1398.42  25
  -4   1   3 77099.1 1674.61  24
  -4   1   2 167434. 2360.97   2
   4   1  -2 172301. 2237.72  27
   4   1  -2 167899. 2000.57  26
  -4   1   2 175434. 2184.13  25
  -4   1   2 171631. 2424.71  24
  -4   1   1 393177. 3479.83   2
   4   1  -1 385731. 3298.52  27
   4   1  -1 388490. 2768.27  26
  -4   1   1 389670. 3578.46  24
  -4   1   0 155085. 2147.38   2
   4   1   0 153954. 2100.03  27
   4   1   0 157316. 1643.57  26
  -4   1   0 161982. 2249.26  25
  -4   1   0 156911. 2269.07  24
  -4   1  -1 7658.65 466.735   2
   4   1   1 7150.07 469.821  27
  -4   1  -1 7567.70 506.648  25
  -4   1  -1 7587.87 337.537  23
  -4   1  -2 16384.5 652.448   2
   4   1   2 15673.5 699.104  27
  -4   1  -2 16958.4 758.577  25
  -4   1  -2 16696.3 541.671  23
   4   1   2 15506.2 479.639  22
  -4   1  -2 16567.5 606.447   3
  -4   1  -3 3560.72 293.198   3
   4   1   3 3453.06 351.417  27
  -4   1  -3 3825.88 309.054   2
  -4   1  -3 3412.04 367.556  25
  -4   1  -3 3592.47 265.593  23
   4   1   3 3628.67 243.696  22
  -4   1  -4 3993.31 317.508   3
   4   1   4 3374.84 388.694  27
  -4   1  -4 3943.34 299.449   2
  -4   1  -4 3717.08 290.992  23
   4   1   4 3546.67 255.777  22
  -4   1  -5 29770.9 892.016   3
   4   1   5 27340.8 1092.35  27
  -4   1  -5 30491.4 821.936   2
  -4   1  -5 26802.5 821.355  23
   4   1   5 28903.8 789.012  22
  -4   1  -6 6006.46 418.606   3
   4   1   6 5416.51 530.741  27
  -4   1  -6 6454.73 512.731  25
  -4   1  -6 6265.96 376.685   2
  -4   1  -6 5468.29 407.693  23
   4   1   6 6167.34 389.904  22
  -4   1  -7 3830.33 360.385   3
   4   1   7 4002.07 495.087  27
  -4   1  -7 4756.92 449.396  25
  -4   1  -7 3992.82 402.351  23
   4   1   7 4637.91 369.300  22
   4   1   8 4721.12 298.783  32
  -4   1  -8 5011.53 331.003  30
   4   1   8 5018.29 349.991  29
   4   1   8 4526.08 384.023  16
   4   1   8 3377.39 455.643  27
  -4   1  -8 4816.57 281.861   7
  -4   1  -8 3915.12 427.766  23
   4   1   8 5461.97 428.072  22
   4   1   9 791.420 146.206  32
  -4   1  -9 723.857 167.160  30
   4   1   9 615.234 158.009  29
   4   1   9 611.928 144.934  16
  -4   1  -9 517.839 116.174   7
   4   1  10 114.013 80.5108  32
   4   1  10 190.605 121.364  29
   4   1  10 231.751 137.156  16
   4   1  10 323.592 111.612  15
  -4   1 -10 249.155 87.2493   7
  -4   1 -10 214.381 133.943  30
  -4   1 -11 2940.89 274.135  30
   4   1  11 2312.55 259.091  29
   4   1  11 2179.70 262.151  16
   4   1  11 2122.76 217.062  15
   4   1  12 1777.50 224.386  29
   4   1  12 1984.29 240.291  16
  -4   1 -12 2541.55 235.494  30
  -4   1 -13 185.343 93.6261  30
   4   1  13 126.113 63.4197  29
   4   1  13 123.386 97.1137  16
   4   1  14 62.9340 70.0704  29
  -4   1 -14 304.778 92.6819  30
   4   1  14 234.470 86.0231  16
  -4   1 -15 154.727 61.9059  30
   4   1  15 244.197 65.1267  29
  -4   1 -15 223.575 63.7786  14
   4   1  15 134.377 59.0996  16
  -4   2  15 146.017 61.2387  32
  -4   2  15 65.2826 55.9824  29
   4   2 -15 143.513 57.6025  12
   4   2 -14 207.029 65.7838   9
  -4   2  14 138.305 78.8700  32
   4   2 -13 922.385 123.710  17
  -4   2  13 1040.78 156.430  32
   4   2 -13 1211.28 144.793   9
  -4   2  12 3035.94 258.515  32
   4   2 -12 3151.55 218.622   9
   4   2 -12 2973.37 225.070  17
  -4   2  11 5399.19 361.068  32
   4   2 -11 6267.08 318.930   9
   4   2 -11 5741.12 331.899  17
  -4   2  11 5498.35 383.518  28
  -4   2  10 1930.61 224.248  32
   4   2 -10 2270.35 221.860  17
  -4   2  10 2051.79 232.275  28
   4   2 -10 1979.99 182.040   9
   4   2  -9 4776.34 308.816  20
  -4   2   9 5029.47 345.843  32
   4   2  -9 5159.03 290.039   9
  -4   2   9 5156.20 363.877  28
   4   2  -9 5265.47 332.129  21
   4   2  -8 10519.9 435.081  20
  -4   2   8 11503.5 499.299  32
   4   2  -8 10726.0 383.135   9
   4   2  -8 10495.2 753.223   1
  -4   2   8 9181.61 470.435  28
  -4   2   8 11671.8 774.653  24
   4   2  -8 10528.4 448.442  21
   4   2  -7 5341.63 295.136  20
  -4   2   7 4479.17 308.781  28
   4   2  -7 5225.28 519.006   1
  -4   2   7 5165.40 502.399  24
   4   2  -7 4935.43 295.175  21
  -4   2   6 2582.29 371.173   2
  -4   2   6 2665.61 330.098  25
  -4   2   6 2351.85 337.581  24
  -4   2   5 1390.51 257.983   2
   4   2  -5 1418.32 268.424  27
  -4   2   5 1608.50 249.060  25
  -4   2   5 1538.36 270.556  24
  -4   2   4 2949.75 360.270   2
   4   2  -4 2818.31 362.121  27
  -4   2   4 3173.11 349.229  25
  -4   2   4 3551.72 378.093  24
  -4   2   3 92830.8 1940.08   2
   4   2  -3 88822.6 1897.14  27
  -4   2   3 93882.7 1842.72  25
  -4   2   3 96449.8 1924.41  24
  -4   2   2 55326.4 1457.43   2
   4   2  -2 54677.6 1457.96  27
  -4   2   2 57636.3 1413.09  25
  -4   2   2 57893.5 1475.41  24
  -4   2   1 63919.6 1539.84   2
   4   2  -1 62828.9 1561.04  27
  -4   2   1 63706.9 1489.02  25
  -4   2   0 4899.39 424.487   2
   4   2   0 5485.34 475.261  27
  -4   2   0 5176.36 433.033  25
  -4   2  -1 20699.1 610.601   3
  -4   2  -1 20457.7 841.995   2
   4   2   1 20288.9 906.744  27
  -4   2  -1 19353.2 834.696  25
  -4   2  -2 1665.47 204.182   3
   4   2   2 1675.57 280.160  27
  -4   2  -2 1656.53 250.603   2
  -4   2  -2 1700.44 274.148  25
  -4   2  -3 1350.27 174.657   3
   4   2   3 1186.55 252.951  27
  -4   2  -3 1550.70 224.483   2
  -4   2  -3 1462.26 252.066  25
  -4   2  -4 838.128 155.320   3
  -4   2  -4 681.115 149.137   2
   4   2   4 809.826 211.638  27
  -4   2  -4 845.920 211.794  25
  -4   2  -5 753.489 154.155   2
   4   2   5 770.890 221.182  27
  -4   2  -5 735.291 193.547  25
   4   2   6 14833.8 540.982  32
  -4   2  -6 14134.3 536.925  30
   4   2   6 13779.5 911.322  27
  -4   2  -6 13511.0 710.899  25
  -4   2  -6 14365.1 638.271   2
   4   2   7 77324.4 1253.02  32
  -4   2  -7 84032.1 1215.50  19
  -4   2  -7 81513.3 1367.20  30
   4   2   7 81000.7 1327.99  29
   4   2   7 73753.8 2237.69  27
  -4   2  -7 79489.5 1572.67   2
   4   2   8 5080.37 333.914  32
  -4   2  -8 5350.61 346.723  30
   4   2   8 5522.74 356.650  29
   4   2   8 5479.17 361.499  16
   4   2   9 11354.1 491.276  32
  -4   2  -9 11021.5 486.980  30
   4   2   9 10338.3 502.945  29
   4   2   9 10402.8 483.720  16
   4   2  10 52619.0 1028.41  32
  -4   2 -10 51492.4 1045.60  30
   4   2  10 51377.6 1077.42  29
   4   2  10 51801.9 1050.04  16
   4   2  11 185.207 73.8499  32
   4   2  11 355.016 109.881  29
   4   2  11 29.6615 71.2743  16
   4   2  11 185.718 85.0988  15
  -4   2 -11 189.433 109.019  30
   4   2  12 848.274 134.647  32
   4   2  12 581.491 130.227  29
   4   2  12 490.531 114.765  16
   4   2  12 478.854 114.750  15
  -4   2 -12 910.826 144.546  14
  -4   2 -12 747.448 144.088  30
   4   2  13 39.0016 64.1374  32
  -4   2 -13 185.524 89.7933  30
   4   2  13 76.3664 72.9380  29
   4   2  13 105.492 66.8880  16
   4   2  13 128.422 60.5618  15
  -4   2 -13 94.8345 57.0395  14
   4   2  14 1071.86 123.173  29
   4   2  14 797.082 87.3072  15
  -4   2 -14 1213.64 124.568  14
  -4   3  14 5691.39 241.854  32
  -4   3  13 586.504 111.452  32
   4   3 -13 666.314 114.301  17
  -4   3  13 319.058 74.5604  11
  -4   3  12 666.497 126.218  32
   4   3 -12 679.178 129.990  17
  -4   3  11 5964.45 336.647  32
   4   3 -11 5441.95 315.256  17
  -4   3  10 4725.10 309.475  32
   4   3 -10 4976.25 301.618  17
  -4   3  10 4904.93 350.454  28
   4   3  -9 10604.5 428.981  20
  -4   3   9 11671.3 473.374  32
  -4   3   9 10952.8 522.005  28
   4   3  -9 10719.6 469.884  21
   4   3  -8 3584.73 259.899  20
  -4   3   8 3189.12 286.423  28
   4   3  -8 3464.12 271.900  21
  -4   3   7 1575.45 201.743  31
   4   3  -7 1695.84 175.515  20
  -4   3   7 1340.15 199.607  28
   4   3  -7 1739.04 197.978  21
   4   3  -6 32453.3 773.373  21
   4   3  -6 32911.4 711.425  20
  -4   3   6 34508.3 844.395  31
  -4   3   6 31671.1 1251.46   2
  -4   3   6 30948.8 806.330  28
  -4   3   6 32404.1 1262.03  25
   4   3  -5 59038.7 1015.77  21
   4   3  -5 60079.4 949.385  20
  -4   3   5 59272.0 968.310  19
  -4   3   5 59090.4 1087.87  31
  -4   3   5 58512.9 1664.86   2
  -4   3   5 57044.3 1055.05  28
   4   3  -5 59837.8 1779.90  27
  -4   3   5 58540.6 1671.50  25
   4   3  -4 18972.7 560.002  21
  -4   3   4 20759.0 568.785  19
  -4   3   4 19712.7 624.989  31
  -4   3   4 19480.4 941.589   2
  -4   3   4 20066.4 601.020  28
   4   3  -4 19098.0 981.235  27
  -4   3   4 19220.5 972.472  25
  -4   3   3 7523.91 560.357   2
   4   3  -3 7346.36 598.658  27
  -4   3   3 7746.37 597.469  25
  -4   3   2 169.217 94.7156   2
   4   3  -2 199.245 112.627  27
  -4   3   2 97.0008 98.5996  25
   4   3  -1 2232.57 340.404  27
  -4   3   1 2503.25 311.505   2
  -4   3   1 2426.12 330.400  25
   4   3   0 2723.42 370.603  27
  -4   3   0 2682.90 321.399   2
  -4   3   0 2547.66 337.683  25
  -4   3  -1 600.087 150.983   2
   4   3   1 667.236 192.326  27
  -4   3  -1 510.599 150.136  25
   4   3   2 2413.86 357.988  27
  -4   3  -2 2167.65 268.646   2
  -4   3  -2 2456.95 343.474  25
  -4   3  -3 6977.91 365.461  19
   4   3   3 6789.98 611.324  27
   4   3   3 6884.80 356.583  15
  -4   3  -3 6725.10 366.328  14
  -4   3  -3 7281.67 575.144  25
  -4   3  -3 6610.01 481.722   2
   4   3   3 6822.67 308.654  10
   4   3   4 8359.94 409.149  32
  -4   3  -4 9438.29 441.825  19
   4   3   4 9282.88 724.532  27
   4   3   4 8879.63 431.280  15
  -4   3  -4 9007.73 433.347  14
  -4   3  -4 9725.20 665.606  25
  -4   3  -4 8827.31 548.827   2
   4   3   4 9236.66 365.880  10
   4   3   5 12199.8 511.766  32
  -4   3  -5 13097.8 541.654  19
   4   3   5 12633.9 867.490  27
   4   3   5 12986.1 554.724  15
  -4   3  -5 12615.9 526.456  14
  -4   3  -5 12210.6 640.916   2
   4   3   5 13496.3 444.700  10
   4   3   6 20061.6 668.919  32
  -4   3  -6 20223.4 677.986  19
  -4   3  -6 18494.6 668.127  14
   4   3   6 20043.2 537.381  10
   4   3   7 41259.6 955.863  32
  -4   3  -7 40596.1 958.513  19
  -4   3  -7 42430.8 1044.47  14
   4   3   8 4686.47 333.379  32
  -4   3  -8 4820.88 314.789  19
   4   3   8 4760.58 308.886  29
  -4   3  -8 5112.77 356.657  14
   4   3   9 4486.25 314.264  32
  -4   3  -9 4483.75 289.255  19
  -4   3  -9 4402.77 318.112  14
   4   3   9 4465.90 296.983  29
   4   3  10 20088.7 628.225  32
  -4   3 -10 18944.0 554.593  19
   4   3  10 19478.4 580.071  29
   4   3  10 19047.8 637.563  15
  -4   3 -10 19634.7 636.665  14
   4   3  11 9419.87 404.064  32
  -4   3 -11 8987.85 343.929  19
   4   3  11 8293.28 356.772  29
   4   3  11 8287.48 396.327  15
  -4   3 -11 9200.67 408.477  14
   4   3  12 1543.31 163.758  32
   4   3  12 1597.51 150.941  29
   4   3  12 1289.42 149.978  15
  -4   3 -12 1345.23 139.216  14
   4   3  13 9155.85 274.128  29
   4   3  13 8703.02 309.500  15
  -4   3 -13 9147.66 313.856  14
   4   4 -13 825.186 89.7612  17
  -4   4  13 499.811 66.4784  11
   4   4 -12 293.313 67.4197  19
   4   4 -12 415.180 88.6522  17
  -4   4  12 284.801 72.1438  11
   4   4 -11 1682.85 157.301  19
   4   4 -11 2291.74 177.391  17
   4   4 -10 12.9685 76.4460  17
   4   4  -9 418.243 113.756  21
   4   4  -9 392.078 104.499  17
   4   4  -8 819.476 133.628  21
  -4   4   8 874.284 168.979  28
   4   4  -7 306.500 97.4423  21
  -4   4   7 306.773 133.820  28
   4   4  -6 667.956 125.650  21
  -4   4   6 562.103 135.124  31
  -4   4   6 841.205 162.768  28
   4   4  -5 19299.0 607.788  21
  -4   4   5 19722.8 555.684  19
  -4   4   5 19420.7 664.743  31
  -4   4   5 19404.8 647.307  28
   4   4  -4 22915.7 658.523  21
  -4   4   4 24301.0 632.526  19
  -4   4   4 23737.2 728.533  31
  -4   4   4 24019.1 686.965  28
  -4   4   3 27673.4 692.214  19
  -4   4   3 28230.0 798.025  31
  -4   4   3 28692.6 723.777  28
   4   4  -3 26562.8 621.847  10
  -4   4   2 8834.12 387.516  19
  -4   4   2 8946.57 458.212  31
   4   4  -2 8378.40 351.831  10
   4   4  -1 136.883 62.5803  10
  -4   4   1 244.911 92.9076  19
  -4   4   1 194.004 102.705  31
  -4   4   0 2097.56 200.118  19
  -4   4   0 1558.24 211.794  31
   4   4   0 1640.22 175.932  10
  -4   4  -1 2482.65 227.538  19
  -4   4  -1 2334.68 246.317  31
   4   4   1 2404.78 201.716  10
  -4   4  -2 31664.1 820.535  19
  -4   4  -2 31808.7 904.654  31
   4   4   2 31464.6 737.526  15
   4   4   2 31248.9 710.447  10
  -4   4  -3 7109.95 390.307  19
  -4   4  -3 6955.92 428.464  31
   4   4   3 6611.73 362.663  15
   4   4   3 7101.57 337.866  10
  -4   4  -4 3577.23 290.056  19
  -4   4  -4 3698.79 319.422  31
   4   4   4 3524.70 277.814  15
  -4   4  -4 3423.14 295.377  14
   4   4   4 3640.85 250.419  10
  -4   4  -5 5211.09 347.863  19
  -4   4  -5 4860.23 367.212  31
   4   4   5 4871.92 337.583  15
  -4   4  -5 4882.31 343.059  14
   4   4   5 5370.27 298.194  10
   4   4   6 1139.58 134.001  10
  -4   4  -6 1239.41 177.504  19
  -4   4  -6 1151.75 198.121  31
   4   4   6 1114.19 174.530  15
  -4   4  -6 1311.27 202.311  14
  -4   4  -7 1087.93 175.750  19
   4   4   7 1134.21 128.452  10
  -4   4  -7 1197.63 181.653  31
   4   4   7 1049.43 169.762  15
  -4   4  -7 1386.03 201.062  14
  -4   4  -8 219.892 91.3262  19
  -4   4  -8 390.888 108.790  31
   4   4   8 300.817 101.448  15
  -4   4  -8 369.477 121.455  14
  -4   4  -9 408.941 86.3418  19
  -4   4  -9 370.160 99.6829  31
   4   4   9 273.917 85.0600  15
  -4   4  -9 283.381 79.3328  14
  -4   4 -10 489.336 92.0964  19
  -4   4 -10 486.559 88.0023  31
   4   4  10 402.316 88.5387  15
  -4   4 -10 425.305 97.1569  14
  -4   4 -11 430.539 73.0625  19
   4   4  11 502.382 92.7573  15
   4   4  12 1015.30 101.068  15
   4   5 -10 3783.32 181.046  17
  -4   5  10 3465.69 184.045  11
   4   5  -9 4319.53 219.905  17
  -4   5   8 10818.7 354.250  10
   4   5  -8 11063.2 368.144  17
   4   5  -8 10484.8 365.936  21
  -4   5   7 2774.67 207.066  10
   4   5  -7 2399.96 179.995  17
   4   5  -7 2443.76 188.758  21
   4   5  -6 507.059 95.0403  21
  -4   5   6 385.014 99.8039  10
   4   5  -5 3791.12 249.017  21
  -4   5   5 3272.13 226.047  18
   4   5  -4 6609.46 326.583  21
  -4   5   4 6278.11 290.878  19
  -4   5   4 6615.14 368.933  31
  -4   5   4 5712.37 316.032  18
   4   5  -3 2819.29 222.822  21
  -4   5   3 2881.28 198.829  19
  -4   5   3 2968.46 250.319  31
  -4   5   3 2678.74 229.535  18
   4   5  -3 2662.38 184.811  10
  -4   5   2 3831.34 245.646  19
  -4   5   2 4024.52 288.848  31
  -4   5   2 3267.80 263.530  18
   4   5  -2 3798.27 235.057  10
  -4   5   1 1323.61 158.201  19
   4   5  -1 1223.63 140.942  10
  -4   5   1 1241.56 173.425  31
  -4   5   1 1235.47 186.873  18
   4   5   0 233.921 66.4699  10
  -4   5   0 363.639 91.1202  19
  -4   5   0 360.400 98.0859  31
  -4   5  -1 1540.96 183.558  31
  -4   5  -1 1624.90 170.717  19
   4   5   1 1964.62 177.857  10
  -4   5  -2 9540.90 437.741  31
  -4   5  -2 9012.59 415.567  19
   4   5   2 9090.16 369.531  10
  -4   5  -3 4433.66 286.066  19
  -4   5  -3 4556.43 290.045  31
   4   5   3 3956.66 243.787  10
  -4   5  -4 4553.50 289.920  19
  -4   5  -4 4623.40 295.781  31
   4   5   4 4538.98 251.479  10
   4   5   5 760.307 103.847  10
  -4   5  -5 984.494 142.427  19
  -4   5  -5 919.838 131.956  31
   4   5   5 788.719 114.140  15
   4   5   6 411.609 89.7475  10
  -4   5  -6 378.350 89.9469  19
  -4   5  -6 412.362 91.1451  31
   4   5   6 286.889 76.6946  15
  -4   5  -7 2338.18 187.527  19
   4   5   7 2410.56 178.441  15
   4   5   7 2323.59 153.474  10
  -4   5  -8 8571.70 320.798  19
   4   5   8 7778.61 297.864  15
  -4   5  -9 2252.14 146.223  19
   4   5   9 1847.88 132.603  15
  -4   6   6 330.480 66.7002  10
   4   6  -6 371.166 62.5486  21
   4   6  -5 649.683 79.2101  21
  -4   6   5 558.214 84.8906  10
  -4   6   5 541.170 68.4778  18
  -4   6   4 1041.44 115.630  10
  -4   6   4 1038.91 106.507  18
   4   6  -4 1233.05 107.605  21
   4   6  -3 18352.9 421.333  21
  -4   6   3 17577.9 470.874  10
  -4   6   3 17118.3 441.663  18
   4   6  -2 1313.70 118.997  21
  -4   6   2 1312.62 144.381  10
   4   6  -2 1268.30 118.016  10
  -4   6   2 1286.00 135.969  18
   4   6  -1 93.5769 46.0754  21
  -4   6   1 44.9853 45.6494  18
   4   6  -1-45.1276 72.1333  10
  -4   6   1 22.3557 53.3672  10
  -4   6   1 114.256 50.3463  19
   4   6   0 622.714 90.9457  21
   4   6   0 507.410 84.6753  10
  -4   6   0 477.360 84.1638  10
  -4   6   0 599.541 80.1443  19
  -4   6   0 516.060 98.5886  18
  -4   6  -1 6360.95 253.691  10
  -4   6  -1 7182.40 268.142  19
  -4   6  -1 7476.06 281.141  31
  -4   6  -1 6620.50 312.499  18
   4   6   1 7243.48 275.103  10
  -4   6  -2 9548.78 315.045  19
  -4   6  -2 9411.90 366.135  18
   4   6   2 9320.69 302.026  10
  -4   6  -3 5539.36 236.086  19
  -4   6  -3 5723.88 279.014  18
   4   6   3 5515.24 227.297  10
   4   6   4 651.712 84.0337  10
  -4   6  -4 730.316 90.6676  19
  -4   6  -4 706.578 99.8940  18
   4   6   5 975.126 95.0673  10
  -4   6  -5 975.604 93.7912  19
  -4   6  -5 863.581 105.331  18
  -4   6  -6 1058.55 86.1163  19
  -4   6  -6 893.181 95.7594  18
   5  -5  -9 14269.7 264.604   8
   5  -5  -8 416.659 70.8468   8
   5  -5  -7 918.413 104.883   8
   5  -5  -6 1593.20 132.604   8
   5  -5  -5 11851.4 326.542   8
   5  -5  -4 2028.16 153.396   8
   5  -5  -3 855.969 112.232   8
   5  -5  -2 7652.81 283.074   8
   5  -4 -11 142.725 53.6812  30
   5  -4 -11 172.061 68.7746   8
   5  -4 -10 1072.50 118.365   8
   5  -4  -9 2445.94 177.590   8
   5  -4  -8 181.674 85.8464   8
   5  -4  -7 2561.98 192.384   8
   5  -4  -6 544.161 101.663   8
   5  -4  -5 65643.8 983.739   8
   5  -4   1 2223.78 190.773  13
  -5  -4  -8 18252.7 394.775   7
  -5  -4  -9 2690.46 148.947   7
  -5  -4 -10 1926.20 114.718   7
   5  -3 -13 949.996 110.901   8
   5  -3 -12 374.690 84.2035   8
   5  -3 -11 4021.11 252.746   8
   5  -3 -10 15539.0 476.429   8
   5  -3  -9 3073.15 227.883   8
   5  -3  -9 2849.07 220.669  13
   5  -3  -8 4673.21 265.250   8
   5  -3  -8 4618.94 282.896  13
   5  -3  -7 1348.97 162.432   8
   5  -3  -7 1376.44 172.717  13
   5  -3  -6 3407.07 256.333  13
   5  -3  -5 86942.1 1266.82  13
   5  -3  -4 30598.1 751.070  13
   5  -3  -3 29059.2 736.012  13
   5  -3  -2 12314.7 485.233  13
   5  -3  -1 5567.71 336.526  13
  -5  -3   1 5837.78 547.078  23
  -5  -3   0 7167.27 602.579  23
  -5  -3  -7 5921.51 273.558   7
  -5  -3  -8 29962.5 600.336   7
  -5  -3  -9 37745.1 662.015   7
  -5  -3 -10 15747.3 414.221   7
  -5  -3 -11 3802.06 187.492   7
  -5  -3 -12 67.7748 53.5991   7
   5  -2 -14 851.156 101.678   8
   5  -2 -13 8852.44 287.470   9
   5  -2 -13 8235.21 322.228   8
  -5  -2  12 5897.23 311.499  32
   5  -2 -12 5231.33 241.132   9
   5  -2 -12 5267.93 277.770   8
   5  -2 -11 2427.43 184.948   9
   5  -2 -11 2223.07 208.706   8
   5  -2 -10 640.132 127.247   9
   5  -2 -10 535.249 120.292   8
   5  -2 -10 514.018 130.888  13
   5  -2  -9 1166.56 137.212   9
   5  -2  -9 1314.77 159.462   8
   5  -2  -9 1018.46 177.262  13
   5  -2  -8 4687.20 253.561   9
   5  -2  -8 4505.58 272.190   8
   5  -2  -8 4392.39 310.754  13
   5  -2  -7 9958.95 400.105   8
   5  -2  -7 9553.39 452.663  13
   5  -2  -6 5873.89 347.064  13
  -5  -2   6 5375.27 515.490  24
  -5  -2   6 4991.67 568.584  23
  -5  -2   6 4777.34 587.209   6
   5  -2  -5 6580.17 573.981  26
   5  -2  -5 7023.30 374.563  13
  -5  -2   5 5762.10 516.339  24
  -5  -2   5 6399.80 628.036  23
  -5  -2   5 6056.71 591.352   6
  -5  -2   4 546.539 161.601   6
   5  -2  -4 690.055 197.000  26
   5  -2  -4 796.463 136.904  13
  -5  -2   4 647.885 219.416  23
   5  -2  -3 60032.9 1666.61  26
  -5  -2   3 59664.6 1742.18   6
   5  -2  -2 71350.3 1805.48  26
  -5  -2   2 72576.2 1915.89  23
  -5  -2   2 71419.7 1878.57   6
   5  -2  -1 52354.6 1554.29  26
  -5  -2   1 51034.3 1570.54  23
  -5  -2   1 51152.9 1594.44   6
   5  -2   0 93147.1 2063.92  26
  -5  -2   0 93697.2 2067.89  23
  -5  -2   0 93053.9 2153.74   6
   5  -2   1 9729.04 676.720  26
  -5  -2  -1 8800.88 639.412  23
  -5  -2  -1 9245.27 659.665   6
   5  -2   2 3134.65 376.947  26
  -5  -2  -2 3041.63 371.921  23
   5  -2   2 3341.15 402.394  22
  -5  -2  -2 3222.05 373.357   6
  -5  -2  -3 26.9957 88.4882   6
   5  -2   3 124.148 142.507  26
  -5  -2  -3 15.0125 75.1243  23
   5  -2   3-118.073 146.604  22
   5  -2   4 132.922 87.6092  16
   5  -2   4-87.5948 143.504  26
  -5  -2  -4 56.1885 88.9436  23
   5  -2   4 50.9450 123.056  22
   5  -2   5 11400.7 504.841  16
   5  -2   5 12408.5 824.500  26
  -5  -2  -5 11769.1 705.157  23
   5  -2   5 11790.5 680.352  22
  -5  -2  -5 11433.6 634.489   3
   5  -2   6 96143.3 1529.77  16
  -5  -2  -6 95332.4 1116.58   7
   5  -2   7 19010.9 698.791  16
  -5  -2  -7 16601.7 486.906   7
  -5  -2  -8 2665.94 215.817  30
   5  -2   8 3168.80 279.959  16
  -5  -2  -8 2868.97 219.287   7
  -5  -2  -9 1120.36 146.247  30
   5  -2   9 914.006 158.153  16
  -5  -2  -9 1079.35 138.959   7
  -5  -2 -10 10920.9 410.780  30
   5  -2  10 9750.26 456.032  16
  -5  -2 -10 11036.0 392.692   7
  -5  -2 -11 472.745 102.475  30
   5  -2  11 227.730 70.2977  16
  -5  -2 -11 477.161 102.384   7
  -5  -2 -12 1443.99 140.041  30
   5  -2  12 1083.78 139.970  16
  -5  -2 -12 1283.16 123.760   7
  -5  -2 -13 1318.78 117.844  30
   5  -2  13 1008.06 105.607  16
  -5  -2 -13 1183.64 106.096   7
  -5  -1  15 6061.59 220.758  32
   5  -1 -14 16790.7 410.158   9
   5  -1 -14 15924.0 365.621   8
  -5  -1  13 18158.8 550.201  32
   5  -1 -13 17505.9 469.532   9
  -5  -1  12 17852.5 606.620  32
   5  -1 -12 18021.0 507.172   9
   5  -1 -12 17725.0 464.517   8
   5  -1 -11 11418.9 425.832   9
   5  -1 -11 11308.1 406.746   8
   5  -1 -10 921.630 147.006   9
   5  -1 -10 1075.08 149.853   8
   5  -1 -10 678.230 147.230  13
   5  -1  -9 953.391 152.529   9
   5  -1  -9 901.603 131.200   8
   5  -1  -9 663.390 144.095  13
   5  -1  -8 5989.18 294.145   8
   5  -1  -8 5327.90 355.778  13
   5  -1  -7 18995.8 532.332  20
   5  -1  -7 19855.2 515.875   8
   5  -1  -7 17243.5 960.227  26
   5  -1  -7 18835.5 629.923  13
  -5  -1   7 17840.5 991.270  24
  -5  -1   7 16367.5 961.334  23
   5  -1  -7 17947.0 915.008   1
   5  -1  -6 8399.85 640.493  26
   5  -1  -6 8557.91 418.262  13
  -5  -1   6 7854.45 638.019  24
  -5  -1   6 7743.65 642.025  23
  -5  -1   6 7351.62 674.296   6
   5  -1  -6 7593.95 568.527   1
   5  -1  -5 773.507 169.648   1
  -5  -1   5 857.159 292.900   6
   5  -1  -5 1063.92 232.823  26
  -5  -1   5 709.168 202.293  24
  -5  -1   5 1093.95 246.736  23
   5  -1  -4 6228.29 531.138  26
  -5  -1   4 6335.51 525.410  24
  -5  -1   4 6496.54 553.463  23
  -5  -1   4 5221.74 567.735   6
  -5  -1   3 1553.95 333.506   6
   5  -1  -3 1268.27 236.282  26
  -5  -1   3 1586.36 263.198  24
  -5  -1   3 1344.09 233.153  23
   5  -1  -2 31751.9 1117.48  26
  -5  -1   2 32146.0 1123.33  24
  -5  -1   2 32207.9 1128.94  23
  -5  -1   2 30556.9 1205.95   6
   5  -1  -1 7977.62 554.206  26
  -5  -1   1 7769.17 551.758  24
  -5  -1   1 7580.79 533.373  23
  -5  -1   1 7662.33 600.116   6
   5  -1   0 32878.3 1105.29  26
  -5  -1   0 32972.9 1078.23  24
  -5  -1   0 31635.6 1064.02  23
  -5  -1   0 34575.0 1244.88   6
   5  -1   1 6326.72 487.238  26
  -5  -1  -1 5575.92 443.586  23
   5  -1   1 5444.01 439.656  22
  -5  -1  -1 5905.88 497.387   6
   5  -1   2 6054.99 480.402  26
  -5  -1  -2 6064.47 463.465  23
   5  -1   2 6256.37 460.666  22
  -5  -1  -2 6302.34 513.325   6
   5  -1   3 9054.97 593.971  26
  -5  -1  -3 8285.30 566.176  23
  -5  -1  -3 8910.46 599.596   6
   5  -1   3 8495.43 529.201  22
   5  -1   4 18375.4 871.899  26
  -5  -1  -4 16473.6 815.514  23
   5  -1   4 17889.5 767.488  22
  -5  -1  -4 18362.5 796.143   3
   5  -1   5 7051.62 362.173  29
   5  -1   5 6914.22 413.388  16
  -5  -1  -5 6364.26 534.915  23
   5  -1   5 7493.02 511.895  22
  -5  -1  -5 7535.29 517.974   3
  -5  -1  -6 3345.23 345.373   3
  -5  -1  -6 3571.65 270.590  30
   5  -1   6 2916.34 301.299  16
   5  -1   6 3455.36 285.835  29
  -5  -1  -6 3310.52 217.551   7
  -5  -1  -6 3041.37 373.064  23
   5  -1   6 3492.44 361.856  22
  -5  -1  -7 6378.29 352.666  30
   5  -1   7 6941.73 395.339  29
   5  -1   7 6092.28 436.540  16
  -5  -1  -7 5945.24 305.307   7
  -5  -1  -8 1610.43 179.704  30
   5  -1   8 1607.57 189.091  29
   5  -1   8 1733.41 236.449  16
  -5  -1  -8 1664.85 184.308   7
  -5  -1  -9 1832.33 201.933  30
   5  -1   9 2002.50 212.306  29
   5  -1   9 1855.53 235.696  16
  -5  -1  -9 2000.43 188.224   7
  -5  -1 -10 2134.28 218.260  30
   5  -1  10 2124.48 225.082  29
   5  -1  10 2224.91 252.223  16
  -5  -1 -10 2004.01 182.108   7
  -5  -1 -11 4986.16 299.243  30
   5  -1  11 4233.11 285.436  29
   5  -1  11 4805.83 338.917  16
  -5  -1 -11 4930.44 276.277   7
  -5  -1 -12 953.394 143.084  30
   5  -1  12 700.064 128.251  29
   5  -1  12 692.153 140.455  16
  -5  -1 -12 913.140 125.266   7
  -5  -1 -13 1953.37 167.848  30
   5  -1  13 1784.49 160.778  29
   5  -1  13 1709.69 177.001  16
  -5  -1 -13 1947.12 150.237   7
  -5  -1 -14 1955.25 138.012  30
   5  -1  14 1959.90 147.671  16
  -5   0  15 350.811 75.2396  32
   5   0 -15 191.925 71.4388   9
  -5   0  14 11363.8 405.496  32
   5   0 -14 10875.9 352.967   9
  -5   0  13 48646.3 924.459  32
   5   0 -13 47699.1 806.354   9
   5   0 -12 19094.8 550.348   9
  -5   0  12 18251.6 627.938  32
  -5   0  11 218.811 125.028  32
   5   0 -11 145.891 98.8848   9
   5   0 -10-107.037 103.205   9
   5   0 -10-4.03571 84.2012  13
   5   0  -9 2811.91 232.074  20
   5   0  -9 2616.92 248.247  13
   5   0  -8 1447.49 169.654  20
   5   0  -8 1304.93 185.370  13
   5   0  -8 1444.93 291.156   1
   5   0  -7 42351.4 826.236  20
   5   0  -7 40274.8 913.221  13
  -5   0   7 39094.3 1454.58  24
   5   0  -6 40284.3 1376.96   1
   5   0  -6 40850.8 1392.77  26
  -5   0   6 41454.7 1465.85  24
   5   0  -5 640.258 170.878  26
   5   0  -5 753.015 207.520   1
  -5   0   5 728.882 219.851  24
   5   0  -4 137.934 91.5577   1
   5   0  -4 84.1756 86.1628  26
  -5   0   4 30.6202 69.1498  25
  -5   0   4-164.565 143.860  24
  -5   0   3 873.875 198.444   6
   5   0  -3 1222.46 225.461  26
  -5   0   3 898.578 200.811  25
  -5   0   3 1063.77 240.831  24
  -5   0   2 812.570 219.532   6
  -5   0   2 909.182 180.277   2
   5   0  -2 1017.45 190.621  26
  -5   0   2 573.854 179.555  25
  -5   0   2 939.002 216.528  24
  -5   0   2 785.201 148.065  23
  -5   0   1 6011.62 447.801   2
   5   0  -1 5977.35 428.274  26
  -5   0   1 6167.47 491.335  25
  -5   0   1 6417.72 506.387  24
  -5   0   1 6133.70 408.140  23
  -5   0   1 6380.43 565.658   6
   5   0   0 17338.9 717.124  26
  -5   0   0 16913.8 814.377  24
  -5   0   0 17015.5 673.675  23
  -5   0   0 15798.8 832.055   6
   5   0   0 16505.2 657.456  22
  -5   0   0 17225.0 726.424   2
  -5   0  -1 1587.52 270.818   6
  -5   0  -1 1778.32 227.701   2
   5   0   1 1506.22 226.993  26
  -5   0  -1 1524.23 206.603  23
   5   0   1 1671.62 210.780  22
  -5   0  -2 81.8605 128.967   6
  -5   0  -2-1.03016 56.8598  23
   5   0   2-77.9609 92.2069  22
  -5   0  -3-63.6330 70.7208  23
  -5   0  -3 0.56344 75.6095   3
  -5   0  -4 1775.71 255.392  23
   5   0   4 1828.54 234.848  22
  -5   0  -4 1802.57 246.747   3
  -5   0  -5 1495.80 246.124   3
   5   0   5 1442.21 205.778  16
  -5   0  -5 1161.37 216.034  23
   5   0   5 1505.77 228.687  22
  -5   0  -6 1933.39 280.263   3
  -5   0  -6 1912.20 227.358  30
   5   0   6 1913.12 217.614  29
   5   0   6 1860.91 244.666  16
  -5   0  -6 1803.43 182.853   7
  -5   0  -6 1371.24 239.841  23
   5   0   6 2219.58 264.755  22
  -5   0  -7 1316.22 182.663  30
   5   0   7 930.869 182.103  16
   5   0   7 953.606 173.786  29
  -5   0  -7 1017.07 142.694   7
   5   0   7 1175.25 203.031  22
  -5   0  -8 414.297 147.718  30
   5   0   8 424.533 130.625  29
   5   0   8 333.330 133.273  16
  -5   0  -8 463.637 122.666   7
  -5   0  -9 1073.85 159.839  30
   5   0   9 1154.86 190.755  29
   5   0   9 1342.11 217.502  16
  -5   0  -9 1233.74 175.864   7
  -5   0 -10 9849.46 449.239  30
   5   0  10 9739.09 473.487  29
   5   0  10 9876.68 509.529  16
  -5   0 -10 9546.14 399.536   7
  -5   0 -11 11869.2 474.127  30
   5   0  11 11339.8 526.441  16
   5   0  11 11490.8 483.517  29
  -5   0 -11 10812.3 421.327   7
  -5   0 -12 2658.66 226.279  30
   5   0  12 2576.91 224.324  29
   5   0  12 2253.59 225.714  16
  -5   0 -13 68.2644 77.0599  30
   5   0  13 67.7841 67.3034  29
   5   0  13 35.7686 62.4410  16
  -5   0 -14 173.337 66.6776  30
   5   0  14 92.8611 57.9782  29
   5   0  14-0.38327 43.9073  16
  -5   1  15 5914.54 243.564  32
   5   1 -15 5240.58 203.504   9
  -5   1  14 16851.3 484.104  32
   5   1 -14 16473.2 418.887   9
  -5   1  13 17310.2 540.094  32
   5   1 -13 17425.4 469.994   9
  -5   1  12 16530.3 579.355  32
   5   1 -12 17835.8 520.556   9
  -5   1  11 10201.4 485.751  32
   5   1 -11 11059.7 423.900   9
  -5   1  10 1069.75 196.678  32
   5   1 -10 910.814 142.131   9
  -5   1  10 708.514 152.652  28
   5   1  -9 625.270 130.991  20
   5   1  -9 935.898 163.719   9
  -5   1   9 785.367 149.908  28
   5   1  -8 5256.14 325.632  20
  -5   1   8 5206.03 349.495  28
   5   1  -8 4556.95 340.745  13
   5   1  -7 18681.8 576.496  20
  -5   1   7 17549.5 593.686  28
   5   1  -7 18657.1 1012.67   1
   5   1  -7 18449.1 604.870  13
  -5   1   7 19360.9 1049.64  24
   5   1  -7 18694.6 577.384  21
   5   1  -6 8443.63 370.749  20
  -5   1   6 7925.80 394.499  28
   5   1  -6 7595.24 635.653   1
  -5   1   6 8676.00 686.115  24
   5   1  -6 8108.40 359.609  21
  -5   1   5 592.326 146.923  25
  -5   1   5 1025.55 258.786  24
  -5   1   4 6197.91 531.403   2
  -5   1   4 5165.18 435.215  25
  -5   1   4 6260.82 546.308  24
  -5   1   3 1184.77 245.121   2
   5   1  -3 1175.05 208.846  27
  -5   1   3 1007.96 200.392  25
  -5   1   3 1288.27 249.223  24
  -5   1   2 31497.7 1138.41   2
   5   1  -2 30377.8 1037.20  27
   5   1  -2 30399.5 954.053  26
  -5   1   2 30890.3 1060.24  25
  -5   1   2 31095.5 1167.22  24
  -5   1   1 8241.96 563.073   2
   5   1  -1 8217.21 518.242  27
  -5   1   1 7555.07 546.696  25
  -5   1   1 7314.57 564.693  24
  -5   1   0 32465.9 1087.29   2
   5   1   0 32400.6 1032.22  27
  -5   1   0 31674.9 1142.71  25
  -5   1  -1 5997.97 450.924   2
   5   1   1 6451.32 473.483  27
  -5   1  -1 6327.83 534.722  25
  -5   1  -1 5850.75 403.664   3
   5   1   2 6380.98 480.937  27
  -5   1  -2 6658.68 455.824   2
  -5   1  -2 7075.08 555.813  25
  -5   1  -2 6186.61 418.279   3
  -5   1  -3 8516.15 501.021   3
  -5   1  -3 8656.03 500.380   2
  -5   1  -3 9235.85 681.699  25
  -5   1  -4 18693.0 762.591   3
  -5   1  -4 17838.8 689.316   2
  -5   1  -4 18652.8 966.156  25
  -5   1  -5 6875.27 477.604   3
  -5   1  -5 6700.75 381.843  30
   5   1   5 7631.15 392.691  29
   5   1   5 6641.86 390.280  16
   5   1   5 8097.74 402.962  15
  -5   1  -5 7623.45 610.925  25
  -5   1  -6 2647.50 312.893   3
  -5   1  -6 3469.44 297.948  30
   5   1   6 3472.91 290.766  29
   5   1   6 3179.41 302.825  16
   5   1   6 3371.45 273.454  15
  -5   1  -6 3088.21 378.794  25
  -5   1  -7 6661.13 393.003  30
   5   1   7 6568.46 410.897  29
   5   1   7 5980.43 423.239  16
   5   1   7 6130.36 371.602  15
   5   1   8 1837.90 233.666  29
   5   1   8 1590.48 218.723  16
   5   1   8 1807.40 205.062  15
  -5   1  -8 1605.72 221.257  30
  -5   1  -9 2036.80 230.004  30
   5   1   9 1814.08 226.811  29
   5   1   9 1732.47 229.417  16
   5   1   9 2026.77 209.149  15
  -5   1 -10 2526.23 239.530  30
   5   1  10 2284.07 242.184  29
   5   1  10 2080.88 231.229  16
   5   1  10 1920.80 194.040  15
  -5   1 -11 5247.50 319.778  30
   5   1  11 4948.08 333.395  29
   5   1  11 4710.83 328.696  16
   5   1  11 4762.54 268.191  15
  -5   1 -12 777.313 130.012  30
   5   1  12 747.157 139.578  29
   5   1  12 588.547 126.315  16
  -5   1 -13 1871.68 169.229  30
   5   1  13 1609.37 167.736  29
   5   1  13 1705.38 168.392  16
  -5   1 -14 1926.55 142.389  30
   5   1  14 2086.84 144.094  29
   5   1  14 1611.64 127.716  16
  -5   1 -14 2034.93 141.749  14
  -5   2  14 1245.22 130.915  32
   5   2 -14 1306.79 106.825   9
   5   2 -14 1096.22 109.216  12
  -5   2  13 9169.46 361.917  32
   5   2 -13 9104.29 296.128   9
   5   2 -13 8635.98 291.271  17
  -5   2  12 5365.93 306.149  32
   5   2 -12 5332.56 255.894   9
   5   2 -12 5172.02 257.878  17
  -5   2  11 2122.61 220.991  32
   5   2 -11 2460.91 194.513   9
   5   2 -11 2190.12 186.184  17
  -5   2  11 2324.97 240.290  28
  -5   2  10 475.576 135.047  32
   5   2 -10 884.807 145.537   9
   5   2 -10 664.748 133.421  17
  -5   2  10 592.524 137.441  28
   5   2  -9 1109.70 167.524  20
  -5   2   9 1484.73 199.327  32
   5   2  -9 1396.65 171.560   9
  -5   2   9 987.493 168.478  28
   5   2  -8 3884.09 282.880  20
  -5   2   8 4506.99 323.584  32
  -5   2   8 3653.91 296.940  28
   5   2  -8 3899.17 299.760  21
   5   2  -7 8877.87 415.678  20
  -5   2   7 9649.98 448.933  32
  -5   2   7 8951.26 453.812  28
   5   2  -7 9168.57 422.285  21
   5   2  -6 5744.23 323.919  20
  -5   2   6 4732.57 506.144   2
  -5   2   6 4942.42 344.899  28
  -5   2   6 6249.55 577.845  24
   5   2  -6 5172.95 305.219  21
   5   2  -5 6768.87 339.665  21
   5   2  -5 6332.05 331.450  20
  -5   2   5 6843.73 606.470   2
  -5   2   5 6615.25 376.337  28
  -5   2   5 6309.25 523.093  25
  -5   2   5 6856.70 601.413  24
   5   2  -4 863.436 124.595  21
   5   2  -4 770.986 115.590  20
  -5   2   4 722.728 132.677  19
  -5   2   4 693.955 202.780   2
  -5   2   4 785.815 151.536  28
   5   2  -4 866.201 229.929  27
  -5   2   4 560.916 183.506  25
  -5   2   4 832.906 216.888  24
  -5   2   3 57465.8 1667.32   2
   5   2  -3 55971.8 1599.70  27
  -5   2   3 56662.1 1565.07  25
  -5   2   3 59067.8 1702.25  24
  -5   2   2 69503.5 1787.64   2
   5   2  -2 69431.1 1781.36  27
  -5   2   2 70003.5 1741.50  25
  -5   2   1 50456.3 1483.04   2
   5   2  -1 49146.8 1502.33  27
  -5   2   1 50420.5 1472.30  25
  -5   2   0 92119.4 1949.78   2
   5   2   0 92737.2 2043.74  27
  -5   2   0 92958.9 2005.91  25
   5   2   1 8732.67 641.206  27
  -5   2  -1 9361.28 602.905   2
  -5   2  -1 8282.10 621.225  25
   5   2   2 3488.33 411.883  27
  -5   2  -2 3622.69 373.373   2
  -5   2  -2 3368.52 416.456  25
   5   2   3 152.426 77.5902  10
  -5   2  -3 143.650 82.0827   3
  -5   2  -3 60.7531 71.9543   2
   5   2   3 88.3279 76.7378  29
   5   2   3 69.9193 107.217  27
   5   2   3 168.000 78.0823  15
  -5   2  -3 8.70693 99.2357  25
   5   2   4 162.292 79.8713  10
  -5   2  -4 54.4785 66.6741  19
  -5   2  -4 51.8794 85.4942   3
  -5   2  -4 64.1882 99.1359  30
   5   2   4 158.827 113.766  29
  -5   2  -4 181.546 124.294   2
   5   2   4 59.3611 144.340  27
   5   2   4 93.3542 90.6944  15
  -5   2  -4 119.969 85.1906  14
  -5   2  -4-39.3109 125.737  25
  -5   2  -5 11611.7 520.069  30
   5   2   5 11519.5 469.599  16
   5   2   5 10157.3 783.363  27
   5   2   5 11254.9 475.527  29
   5   2   5 12026.5 523.187  15
  -5   2  -5 11730.4 718.002  25
  -5   2  -5 11353.5 599.901   2
  -5   2  -6 98935.1 1534.75  30
   5   2   6 97972.2 1467.80  29
   5   2   6 99542.6 1428.37  16
   5   2   6 98308.3 1516.92  15
  -5   2  -7 18273.2 670.233  30
   5   2   7 17786.2 652.955  29
   5   2   7 18326.4 633.623  16
   5   2   7 17437.6 635.782  15
  -5   2  -8 3204.75 275.222  30
   5   2   8 3109.09 268.668  29
   5   2   8 2967.63 251.887  16
   5   2   8 2618.28 253.895  15
  -5   2  -9 1159.60 181.009  30
   5   2   9 855.905 147.525  29
   5   2   9 954.710 145.547  16
   5   2   9 987.775 162.643  15
  -5   2 -10 10944.4 464.899  30
   5   2  10 10096.1 452.115  29
   5   2  10 9775.94 428.056  16
   5   2  10 10424.0 448.763  15
  -5   2 -10 10873.0 472.949  14
  -5   2 -11 568.734 114.157  30
   5   2  11 305.196 102.506  29
   5   2  11 316.638 83.0642  16
   5   2  11 336.213 90.4170  15
  -5   2 -11 362.366 106.626  14
  -5   2 -12 1237.43 143.498  30
   5   2  12 1215.31 148.059  29
   5   2  12 1004.39 120.892  16
   5   2  12 1274.36 125.322  15
  -5   2 -12 1308.08 143.176  14
   5   2  13 1258.05 125.352  29
  -5   2 -13 1270.30 120.255  14
  -5   3  13 836.400 87.7682  32
   5   3 -13 1041.04 102.111  17
  -5   3  12 236.728 77.9176  32
   5   3 -12 372.196 92.5637  17
  -5   3  11 3855.41 228.521  32
   5   3 -11 3854.99 244.906  17
   5   3 -10 13567.3 459.886  17
  -5   3  10 15157.9 563.126  28
   5   3  -9 2545.07 211.792  20
  -5   3   9 2787.33 271.268  28
   5   3  -9 2443.76 232.482  21
   5   3  -8 4093.64 265.160  20
  -5   3   8 4113.61 315.577  28
   5   3  -8 4312.54 286.427  21
   5   3  -7 1079.40 158.065  21
   5   3  -7 1069.04 151.611  20
  -5   3   7 981.582 161.678  28
   5   3  -6 2867.72 236.043  21
   5   3  -6 2829.33 223.749  20
  -5   3   6 2837.35 273.722  28
  -5   3   6 3081.84 274.227  31
   5   3  -5 77016.0 1208.06  21
   5   3  -5 77773.3 1164.08  20
  -5   3   5 79816.6 1180.52  19
  -5   3   5 80678.6 1307.57  31
  -5   3   5 76309.5 1284.80  28
   5   3  -4 26262.7 701.051  21
   5   3  -4 26463.3 675.867  20
  -5   3   4 28553.6 695.510  19
  -5   3   4 27977.8 775.750  31
  -5   3   4 27077.8 753.278  28
   5   3  -3 24729.6 670.899  21
  -5   3   3 26571.8 674.492  19
  -5   3   3 25801.3 757.166  31
  -5   3   3 26010.6 718.655  28
   5   3  -3 24163.6 614.752  10
  -5   3   2 10575.7 440.428  19
  -5   3   2 12111.2 521.337  31
  -5   3   2 11689.3 475.613  28
   5   3  -2 11390.6 427.864  15
   5   3  -2 11186.2 425.105  10
  -5   3   1 5299.33 311.283  19
  -5   3   1 5221.82 350.694  31
  -5   3   1 5428.89 323.482  28
  -5   3   1 4990.41 464.200   2
   5   3  -1 5285.87 301.191  15
   5   3  -1 5300.26 298.081  10
  -5   3   0 6549.55 343.540  19
  -5   3   0 6565.23 407.931  31
   5   3   0 6472.47 342.998  15
  -5   3   0 6628.69 534.513   2
   5   3   0 6990.58 335.973  10
  -5   3  -1 4790.60 300.225  19
  -5   3  -1 4739.19 353.826  31
   5   3   1 5043.62 311.460  15
   5   3   1 4840.36 280.399  10
  -5   3  -2 2116.49 218.812  19
  -5   3  -2 1791.50 232.236  31
   5   3   2 1907.83 199.923  15
  -5   3  -2 1828.83 205.691  14
   5   3   2 2122.19 193.762  10
  -5   3  -3 6995.01 376.126  19
   5   3   3 6403.80 375.627  15
  -5   3  -3 6269.09 365.822  14
   5   3   3 6831.98 334.807  10
   5   3   4 799.212 145.757  10
  -5   3  -4 809.713 160.941  19
   5   3   4 754.321 152.135  15
  -5   3  -4 717.154 178.792  14
   5   3   5 786.899 132.710  10
  -5   3  -5 746.711 136.532  19
   5   3   5 884.857 130.153  29
   5   3   5 837.745 168.512  15
  -5   3  -5 707.475 151.660  14
  -5   3  -6 15400.8 535.111  19
   5   3   6 15866.2 537.171  29
   5   3   6 16482.4 609.003  15
  -5   3  -6 15559.8 615.511  14
   5   3   6 16398.5 490.583  10
  -5   3  -7 6033.10 325.151  19
   5   3   7 5936.82 335.134  29
   5   3   7 5626.71 352.501  15
  -5   3  -7 5986.32 383.693  14
  -5   3  -8 29141.3 663.642  19
   5   3   8 29017.5 703.059  29
   5   3   8 29062.7 771.006  15
  -5   3  -8 29716.8 795.378  14
  -5   3  -9 38501.9 689.538  19
   5   3   9 36578.0 750.689  29
   5   3   9 37729.9 830.359  15
  -5   3  -9 37743.3 850.206  14
   5   3  10 16000.3 461.380  29
   5   3  10 15696.4 504.022  15
  -5   3 -10 16247.6 520.276  14
   5   3  11 3807.79 200.740  29
   5   3  11 3807.23 222.935  15
  -5   3 -11 3890.67 233.005  14
  -5   3 -12 27.6803 38.5126  31
   5   3  12 9.90987 35.5712  15
  -5   3 -12-1.63007 49.4533  14
   5   4 -11 86.3308 57.6886  17
   5   4 -10 955.141 113.225  17
   5   4  -9 1926.63 170.484  17
   5   4  -8 184.141 87.9229  21
  -5   4   8 148.604 106.119  28
   5   4  -7 1840.25 153.946  20
  -5   4   7 2377.89 236.158  28
   5   4  -7 2033.97 192.132  21
   5   4  -6 371.574 90.1532  21
   5   4  -6 359.552 77.2118  20
  -5   4   6 399.678 104.508  28
   5   4  -5 60837.9 1043.98  21
   5   4  -5 62045.9 920.911  20
  -5   4   5 60210.4 1130.23  31
  -5   4   5 61273.7 1115.34  28
   5   4  -4 4495.75 289.678  21
   5   4  -4 4908.74 264.641  20
  -5   4   4 4438.25 275.350  19
  -5   4   4 4631.66 321.356  31
  -5   4   4 4815.78 314.456  28
   5   4  -3 3554.44 259.640  21
   5   4  -3 3841.25 238.802  20
  -5   4   3 3768.79 261.383  19
  -5   4   3 3836.31 298.178  31
  -5   4   3 3707.98 266.577  28
   5   4  -3 3093.85 256.499  10
   5   4  -2 5114.25 275.796  20
  -5   4   2 5096.35 301.846  19
  -5   4   2 4923.84 346.111  31
   5   4  -2 4721.72 284.431  10
   5   4  -1 1536.12 181.442  10
  -5   4   1 1399.16 162.365  19
  -5   4   1 1507.56 199.971  31
   5   4   0 295.508 88.8680  10
  -5   4   0 552.177 105.933  19
  -5   4   0 528.187 120.420  31
  -5   4  -1 2605.78 225.698  19
  -5   4  -1 2506.84 260.347  31
   5   4   1 2540.06 206.963  15
   5   4   1 2675.99 218.575  10
   5   4   2 1054.34 146.139  10
  -5   4  -2 1127.29 148.443  19
  -5   4  -2 946.688 178.255  31
   5   4   2 1181.51 150.696  15
  -5   4  -3 8512.25 411.861  19
  -5   4  -3 8894.49 481.532  31
   5   4   3 8241.70 388.259  15
   5   4   3 8277.10 367.231  10
  -5   4  -4 4158.35 293.773  19
  -5   4  -4 4337.53 349.142  31
   5   4   4 3677.98 279.200  15
   5   4   4 4019.12 262.985  10
   5   4   5 366.869 110.939  10
  -5   4  -5 385.627 109.504  19
  -5   4  -5 73.7049 82.4491  31
   5   4   5 282.173 89.4399  15
   5   4   6 594.835 113.283  10
  -5   4  -6 784.615 125.723  19
  -5   4  -6 842.088 158.543  31
   5   4   6 826.304 137.424  15
  -5   4  -7 61.5583 62.3525  19
  -5   4  -7-63.2525 73.9372  31
   5   4   7 116.831 68.4380  15
  -5   4  -8 16775.9 458.616  19
  -5   4  -8 17091.0 528.552  31
   5   4   8 16932.4 514.959  15
  -5   4  -9 2468.58 159.150  19
  -5   4  -9 2318.32 177.788  31
   5   4   9 2313.75 179.805  15
  -5   4 -10 1852.60 105.959  19
  -5   4 -10 1702.91 126.832  31
   5   4  10 1860.56 138.424  15
   5   5  -9 11817.7 289.206  17
  -5   5   8 248.290 59.6681  10
   5   5  -8 336.945 83.6611  17
   5   5  -7 640.482 96.8336  21
  -5   5   7 891.679 113.770  10
   5   5  -7 716.156 96.1411  17
  -5   5   6 1480.51 147.728  10
   5   5  -6 1195.91 131.639  21
   5   5  -5 10019.6 366.518  21
   5   5  -4 1639.84 153.100  21
  -5   5   4 1673.35 178.915  31
   5   5  -3 591.636 99.8270  21
  -5   5   3 771.020 103.127  19
  -5   5   3 641.545 116.573  31
  -5   5   3 707.251 107.104  18
   5   5  -2 7088.49 328.447  21
  -5   5   2 7171.46 308.885  19
  -5   5   2 6883.42 354.580  31
  -5   5   2 6896.57 325.709  18
   5   5  -2 7068.88 314.513  10
   5   5  -1 1246.71 143.555  21
  -5   5   1 1328.30 142.544  19
   5   5  -1 1215.71 155.082  10
  -5   5   1 1254.39 156.063  31
  -5   5   1 1321.27 154.678  18
  -5   5   0 3922.69 244.114  19
  -5   5   0 3928.28 267.982  31
  -5   5   0 3948.64 268.398  18
   5   5   0 3970.04 239.993  10
  -5   5  -1 11131.1 408.579  19
  -5   5  -1 11732.3 464.022  31
   5   5   1 11150.4 387.251  10
  -5   5  -2 9480.29 371.913  19
  -5   5  -2 9679.13 410.127  31
   5   5   2 8809.86 336.199  10
  -5   5  -3 2252.97 182.869  19
  -5   5  -3 2285.52 198.854  31
   5   5   3 2288.71 179.613  10
   5   5   4 694.279 118.868  10
  -5   5  -4 605.153 113.256  19
  -5   5  -4 628.393 113.160  31
  -5   5  -5 1709.31 152.101  19
  -5   5  -5 1795.87 159.261  31
   5   5   5 1805.77 140.649  15
   5   5   5 1811.00 159.451  10
  -5   5  -6 4489.42 220.239  19
  -5   5  -6 4435.63 221.920  31
   5   5   6 4626.50 208.525  15
  -5   5  -7 2122.83 135.668  19
  -5   5  -7 2233.35 137.346  31
   5   5   7 2362.49 139.179  15
  -5   5  -8 24258.9 388.287  19
   5   5   8 22471.0 370.470  15
  -5   6   3 14187.7 347.983  10
   5   6  -3 14574.3 310.650  21
   5   6  -2 591.912 67.4041  21
  -5   6   2 641.334 86.5380  10
   5   6  -1 544.491 70.4203  21
  -5   6   1 608.771 77.8444  10
  -5   6   1 570.154 74.6455  18
   5   6   0 4769.31 194.195  21
  -5   6   0 3709.94 165.226  10
  -5   6   0 4459.99 165.544  19
  -5   6   0 4100.88 186.112  18
   5   6   1 8422.95 258.485  21
  -5   6  -1 8297.51 229.921  19
  -5   6  -1 7755.05 260.944  18
   5   6   2 2175.53 132.635  21
  -5   6  -2 2250.20 123.313  19
  -5   6  -2 1982.33 133.574  18
   6  -5  -6 61.5897 47.5466   8
   6  -5  -5 2830.20 134.715   8
   6  -5  -4 19050.9 352.208   8
   6  -5  -3 12686.0 299.432   8
   6  -5  -2 1221.28 163.785   8
   6  -5  -1 91.6040 75.4642   8
   6  -4 -10 6191.81 203.307   8
   6  -4  -9 1633.66 126.551   8
   6  -4  -8 18.2473 57.8299   8
   6  -4  -7 2035.60 151.511   8
   6  -4  -6 776.577 114.177   8
   6  -4  -5 3582.23 219.257   8
   6  -4  -2 760.618 107.961  13
   6  -4  -1 483.667 87.1364  13
   6  -4   0 259.191 67.8352  13
   6  -4   1 21270.2 574.800  13
   6  -4   2 8561.44 366.899  13
  -6  -4  -3 1378.38 155.913  28
   6  -4   3 1492.64 161.206  13
  -6  -4  -4 8970.99 396.145  28
   6  -4   4 9045.26 377.009  13
  -6  -4  -8 215.521 65.4504  28
   6  -3 -12 1676.42 115.356   8
   6  -3 -11 291.242 76.2115   8
   6  -3 -10 2444.54 175.641   8
   6  -3  -9 1635.86 152.805   8
   6  -3  -8 2268.18 182.924   8
   6  -3  -8 2085.44 186.996  13
   6  -3  -7 16578.8 480.269   8
   6  -3  -7 15846.6 513.452  13
   6  -3  -6 31137.6 678.449   8
   6  -3  -6 31912.4 749.362  13
   6  -3  -5 34492.1 797.067  13
   6  -3  -4 6171.85 343.089  13
   6  -3  -3 17372.1 588.690  13
   6  -3  -2 11342.7 476.222  13
   6  -3  -1 13817.7 540.306  13
  -6  -3   0 7300.98 377.391  28
   6  -3   0 7555.10 409.863  13
  -6  -3  -1 7133.75 380.066  28
   6  -3   1 7561.36 414.713  13
  -6  -3  -2 908.394 173.074  28
  -6  -3 -10 6533.27 257.117  28
  -6  -2  13 2355.10 131.941  32
   6  -2 -13 2007.86 122.790   8
  -6  -2  12 8149.60 312.085  32
   6  -2 -12 6718.94 252.285   8
   6  -2 -11 12578.9 340.028   9
   6  -2 -11 12878.9 383.437   8
   6  -2 -10 100.341 78.6549   9
   6  -2 -10 137.589 83.3242   8
   6  -2 -10-35.3166 57.2288  13
   6  -2  -9 1872.95 147.477   9
   6  -2  -9 2100.61 175.459   8
   6  -2  -9 1797.32 198.386  13
   6  -2  -8 219.599 98.6346   9
   6  -2  -8 325.739 94.1620   8
   6  -2  -8 295.319 98.5387  13
   6  -2  -7 3954.07 249.562   8
   6  -2  -7 3764.15 290.868  13
   6  -2  -6 5580.99 357.555  13
   6  -2  -5 22753.5 702.226  13
   6  -2  -4 56159.9 1007.10  16
   6  -2  -4 56943.1 1109.10  13
   6  -2  -3 53456.6 978.768  16
   6  -2  -3 53020.2 1071.52  13
   6  -2  -2 79542.7 1192.79  16
  -6  -2   2 78754.3 1209.38  28
   6  -2  -2 79577.8 1319.69  13
   6  -2  -1 28787.2 722.381  16
   6  -2  -1 29061.2 804.090  13
   6  -2   0 3764.13 273.795  16
  -6  -2   0 3192.14 290.290  28
   6  -2   0 3729.83 298.605  13
   6  -2   1 888.777 160.836  16
  -6  -2  -1 671.783 165.975  28
   6  -2   2 3187.67 261.150  16
   6  -2   3 2278.59 228.653  16
   6  -2   4 4701.81 322.126  16
   6  -2   5 1285.81 176.892  16
   6  -2   6 52884.2 1082.29  16
   6  -2   7 6912.33 388.203  16
   6  -2   8 1067.79 156.211  16
  -6  -2  -8 859.090 113.945   7
   6  -2   9 9509.62 402.726  16
  -6  -2  -9 9228.52 324.382   7
   6  -2  10 492.347 101.348  16
  -6  -2 -10 720.693 105.213  28
  -6  -2 -10 542.182 87.3706   7
  -6  -2 -11 531.743 88.5482  28
  -6  -2 -11 426.011 75.2220   7
  -6  -1  14 3317.01 159.758  32
   6  -1 -14 3055.39 139.249   9
  -6  -1  13 11725.6 373.523  32
   6  -1 -13 11290.6 315.266   9
  -6  -1  12 10561.3 422.859  32
   6  -1 -12 10673.8 345.720   9
   6  -1 -11 440.031 109.553   9
   6  -1 -11 498.299 101.300   8
   6  -1 -10 833.227 137.713   9
   6  -1 -10 758.687 113.945   8
   6  -1 -10 610.249 130.104  13
   6  -1  -9 664.086 139.447   9
   6  -1  -9 581.009 117.298   8
   6  -1  -9 511.014 114.491  13
   6  -1  -8 3928.16 235.628   8
   6  -1  -8 3414.83 293.956  13
   6  -1  -7 3605.96 233.549   8
   6  -1  -7 3059.24 278.952  13
   6  -1  -6 6981.09 401.332  13
   6  -1  -5 2271.29 228.203  16
   6  -1  -5 2222.44 230.963  13
   6  -1  -4 106.443 68.2863  16
  -6  -1   4-35.4026 107.003  28
   6  -1  -4 84.6860 76.7753  13
  -6  -1   4 242.130 119.913  24
  -6  -1   3 1856.74 378.104   6
   6  -1  -3 1695.69 195.089  16
  -6  -1   3 1581.86 207.420  28
   6  -1  -3 1591.07 273.520  26
   6  -1  -3 1720.57 198.261  13
  -6  -1   3 1687.51 263.318  24
  -6  -1   3 1673.92 267.680  23
   6  -1  -2 26556.0 726.384  16
  -6  -1   2 27699.8 750.946  28
   6  -1  -2 27256.4 1122.50  26
   6  -1  -2 29114.3 773.538  13
  -6  -1   2 25954.5 1097.35  24
  -6  -1   2 27504.5 1043.39  23
  -6  -1   2 25538.8 1260.07   6
   6  -1  -1 23882.2 642.645  29
   6  -1  -1 23099.9 669.734  16
  -6  -1   1 23659.5 715.490  28
   6  -1  -1 24106.0 1031.59  26
   6  -1  -1 24983.2 717.577  13
  -6  -1   1 23496.0 964.877  23
  -6  -1   1 22003.1 1177.03   6
   6  -1   0 12149.2 456.693  29
   6  -1   0 12186.4 494.957  16
  -6  -1   0 11388.9 507.559  28
   6  -1   0 12314.8 727.291  26
  -6  -1   0 11840.5 668.086  23
  -6  -1   0 11567.1 832.203   6
   6  -1   0 10995.1 652.278  22
  -6  -1  -1 3346.63 463.738   6
   6  -1   1 3830.53 268.006  29
   6  -1   1 3540.03 276.277  16
  -6  -1  -1 3257.38 273.402  28
   6  -1   1 3987.52 410.624  26
  -6  -1  -1 3618.12 384.097  23
   6  -1   1 3493.68 357.896  22
   6  -1   2 992.599 143.896  29
   6  -1   2 708.180 147.687  16
  -6  -1  -2 506.775 107.646  28
  -6  -1  -2 717.823 192.238  23
   6  -1   2 875.070 185.661  22
   6  -1   3 6350.67 346.812  29
   6  -1   3 5941.99 374.245  16
  -6  -1  -3 6204.62 393.066  28
   6  -1   4 27622.5 736.269  29
   6  -1   4 27126.0 799.955  16
   6  -1   5 37888.2 870.769  29
   6  -1   5 37760.9 962.021  16
   6  -1   6 40026.9 923.703  29
   6  -1   6 39610.8 1021.17  16
  -6  -1  -7 10383.3 438.253  30
   6  -1   7 11264.8 481.656  29
   6  -1   7 11223.9 539.224  16
  -6  -1  -7 9636.88 377.340   7
  -6  -1  -8 1770.60 193.351  30
   6  -1   8 1658.74 185.729  29
   6  -1   8 2044.39 224.556  16
  -6  -1  -8 1711.60 162.675   7
  -6  -1  -9 9545.05 390.772  30
   6  -1   9 9837.07 408.974  29
   6  -1   9 10069.0 475.627  16
  -6  -1  -9 9797.80 363.045   7
  -6  -1 -10 4360.78 262.118  30
   6  -1  10 4108.36 250.536  29
   6  -1  10 4081.35 292.165  16
  -6  -1 -10 4397.11 251.125  28
  -6  -1 -10 4124.27 234.432   7
  -6  -1 -11 2152.87 170.369  30
   6  -1  11 2024.02 170.134  29
   6  -1  11 1856.81 185.283  16
  -6  -1 -12 350.281 81.6504  30
   6  -1  12 280.227 51.7669  29
   6  -1  12 204.129 51.1507  16
  -6   0  14 1079.22 105.677  32
   6   0 -14 894.650 90.3292   9
  -6   0  13 4764.73 257.617  32
   6   0 -13 5137.96 233.506   9
  -6   0  12 4129.23 270.334  32
   6   0 -12 4085.38 234.631   9
  -6   0  11 33.3877 89.1317  32
   6   0 -11 107.426 90.4227   9
   6   0 -10 768.386 131.022   9
   6   0  -9 3445.13 240.061   9
   6   0  -9 3504.09 284.249  13
   6   0  -8 17408.5 550.550  20
  -6   0   8 16332.9 561.520  28
   6   0  -8 17310.5 620.619  13
   6   0  -7 15026.3 515.761  20
  -6   0   7 14716.5 542.652  28
   6   0  -7 15132.4 566.955  13
   6   0  -6 892.336 141.586  20
  -6   0   6 763.942 132.400  28
   6   0  -6 1018.03 163.386  13
   6   0  -5 13470.7 469.797  20
   6   0  -5 12330.2 516.086  16
  -6   0   5 12684.9 512.393  28
   6   0  -5 13155.4 527.100  13
   6   0  -4 8132.85 356.446  20
  -6   0   4 7746.52 619.442   2
   6   0  -4 7784.69 401.519  16
  -6   0   4 7847.13 402.235  28
   6   0  -4 8225.77 606.723  26
   6   0  -4 8762.68 412.964  13
  -6   0   4 8257.33 670.414  24
   6   0  -3 4173.09 251.558  20
  -6   0   3 3982.26 421.520   2
   6   0  -3 4000.68 285.292  16
  -6   0   3 3534.09 277.103  28
   6   0  -3 3993.18 404.840  26
   6   0  -3 4111.37 278.668  13
  -6   0   3 4676.91 495.019  24
  -6   0   2 88207.4 1922.60   2
   6   0  -2 89740.9 1299.02  29
   6   0  -2 89970.6 1316.12  16
  -6   0   2 90696.7 1349.09  28
   6   0  -2 91232.4 1884.38  26
  -6   0   2 89513.7 1973.87  25
   6   0  -2 94761.4 1313.57  13
  -6   0   2 90415.4 2142.14  24
   6   0  -1 2801.67 228.188  29
   6   0  -1 2583.72 235.637  16
  -6   0   1 2423.19 244.584  28
   6   0  -1 2684.73 229.422  15
  -6   0   1 2786.97 367.299  25
   6   0  -1 2927.52 235.770  13
   6   0   0 1264.24 161.129  29
   6   0   0 1369.14 186.127  16
  -6   0   0 1201.28 196.568  28
   6   0   0 1293.52 164.073  15
  -6   0   0 1130.39 254.602  25
   6   0   0 1234.75 153.248  13
   6   0   1 33086.9 793.540  29
   6   0   1 32541.0 818.590  16
  -6   0  -1 34399.9 853.813  28
   6   0   1 35080.3 786.440  15
  -6   0  -1 32490.5 1306.06  25
   6   0   2 474.313 117.836  29
   6   0   2 374.028 111.209  16
  -6   0  -2 337.532 130.952  28
   6   0   2 368.539 77.9310  15
  -6   0  -2 285.390 180.106  25
  -6   0  -2 493.150 165.356   3
  -6   0  -3 391.609 125.968   3
   6   0   3 291.207 109.431  29
   6   0   3 260.418 114.408  16
  -6   0  -3 418.738 147.963  28
   6   0   3 336.994 91.5720  15
   6   0   4 10388.5 491.796  29
   6   0   4 10539.4 525.317  16
  -6   0  -4 12196.8 553.434  28
   6   0   4 12623.7 487.938  15
  -6   0  -5 1926.91 218.532  30
   6   0   5 1861.71 208.437  29
   6   0   5 1544.44 207.114  16
  -6   0  -5 1629.47 195.732  28
   6   0   5 1934.21 198.668  15
  -6   0  -6 1687.07 207.836  30
   6   0   6 1858.34 232.254  29
   6   0   6 1354.02 209.059  16
  -6   0  -6 1795.03 200.520  28
   6   0   6 1661.86 176.253  15
  -6   0  -7 162.252 107.836  30
   6   0   7 284.612 109.085  29
   6   0   7 133.708 93.1669  16
  -6   0  -7 180.514 101.623  28
  -6   0  -8 193.968 114.867  30
   6   0   8 199.254 107.267  29
  -6   0  -8 182.381 90.6946  28
   6   0   8 191.706 96.6168  16
  -6   0  -9 413.034 129.495  30
   6   0   9 439.494 109.739  29
   6   0   9 242.130 111.601  16
  -6   0 -10 3117.42 239.914  30
   6   0  10 3180.97 242.859  29
   6   0  10 2735.49 245.757  16
  -6   0 -11 20245.7 548.947  30
   6   0  11 19267.5 584.751  16
  -6   0 -12 345.137 81.6485  30
   6   0  12 354.450 80.3737  29
   6   0  12 133.941 48.1056  16
  -6   1  14 3299.61 173.832  32
   6   1 -14 3086.73 149.230   9
  -6   1  13 11058.2 367.154  32
   6   1 -13 11271.6 323.140   9
  -6   1  12 10021.0 393.391  32
   6   1 -12 10749.6 355.817   9
  -6   1  11 414.595 114.558  32
   6   1 -11 367.353 106.610   9
  -6   1  10 717.747 147.548  32
   6   1 -10 709.260 124.750   9
  -6   1  10 579.858 119.905  28
   6   1  -9 750.584 138.852  20
  -6   1   9 499.241 121.879  32
   6   1  -9 731.569 112.179   9
  -6   1   9 550.534 154.433  28
   6   1  -8 3432.41 275.026  20
  -6   1   8 3555.94 293.679  28
   6   1  -8 3406.03 272.018  13
   6   1  -7 3099.94 254.555  20
  -6   1   7 3351.18 273.601  28
   6   1  -7 3018.52 262.863  13
   6   1  -6 7461.08 378.282  20
  -6   1   6 7439.73 406.105  28
   6   1  -6 6873.31 367.604  13
   6   1  -6 6750.11 344.865  21
   6   1  -5 2351.96 217.462  20
   6   1  -5 2159.23 221.706  16
  -6   1   5 2266.51 241.308  28
   6   1  -5 2207.72 211.702  13
   6   1  -4 76.9002 63.1675  20
   6   1  -4 119.480 88.2049  16
  -6   1   4 156.851 117.995  28
   6   1  -4 57.1688 55.7421  13
  -6   1   3 1794.55 306.015   2
   6   1  -3 1535.71 174.101  16
  -6   1   3 1393.11 184.935  28
  -6   1   3 1603.88 283.443  25
   6   1  -3 1839.65 178.414  13
  -6   1   3 1424.01 262.850  24
   6   1  -2 26286.4 708.754  29
  -6   1   2 27252.2 1126.64   2
   6   1  -2 26208.4 706.473  16
  -6   1   2 27660.9 748.468  28
   6   1  -2 27894.6 730.738  15
   6   1  -1 23594.5 662.889  29
   6   1  -1 23009.7 661.982  16
  -6   1   1 23853.3 1005.47   2
  -6   1   1 24264.4 702.828  28
   6   1  -1 24602.1 683.252  15
  -6   1   1 22740.3 1025.09  25
   6   1   0 12057.8 481.446  29
   6   1   0 11489.7 469.401  16
  -6   1   0 12907.7 519.064  28
  -6   1   0 11902.7 681.761   2
   6   1   0 12794.3 488.309  15
  -6   1   0 11498.9 760.783  25
  -6   1   0 11842.6 600.528   3
  -6   1  -1 3171.99 316.952   3
   6   1   1 3523.80 267.018  29
   6   1   1 3732.72 283.424  16
  -6   1  -1 3883.02 290.045  28
  -6   1  -1 3646.67 357.872   2
   6   1   1 3476.30 263.543  15
  -6   1  -1 3261.09 429.255  25
  -6   1  -2 699.268 141.258   3
   6   1   2 939.210 156.606  29
   6   1   2 834.556 145.108  16
  -6   1  -2 730.693 151.602  28
   6   1   2 863.769 138.775  15
  -6   1  -2 879.107 234.678  25
   6   1   3 6165.45 364.143  29
   6   1   3 5491.28 351.646  16
  -6   1  -3 6418.50 383.636  28
   6   1   3 6276.85 355.349  15
  -6   1  -4 25973.1 745.255  30
   6   1   4 26601.4 759.417  29
   6   1   4 25826.5 768.611  16
  -6   1  -4 29340.7 795.715  28
   6   1   4 28848.5 774.866  15
  -6   1  -5 35734.7 890.957  30
   6   1   5 35782.5 904.416  29
   6   1   5 35880.4 911.351  16
  -6   1  -5 36833.7 852.318  28
   6   1   5 38800.0 911.637  15
  -6   1  -6 38445.0 960.452  30
   6   1   6 38448.0 958.952  29
   6   1   6 38136.3 970.594  16
   6   1   6 37153.9 866.418  15
  -6   1  -7 10491.8 493.478  30
   6   1   7 10991.3 514.436  29
   6   1   7 10983.3 528.870  16
   6   1   7 10722.9 452.511  15
  -6   1  -8 1862.92 214.671  30
   6   1   8 1831.47 214.853  29
   6   1   8 1703.10 201.210  16
   6   1   8 1767.85 177.486  15
  -6   1  -9 11007.7 457.402  30
   6   1   9 10523.9 464.721  29
   6   1   9 10365.0 464.806  16
   6   1   9 11182.2 403.600  15
  -6   1 -10 4372.77 281.700  30
   6   1  10 3846.33 276.912  29
   6   1  10 3878.42 276.972  16
   6   1  10 4193.75 227.136  15
  -6   1 -11 1968.29 183.063  30
   6   1  11 1916.15 178.746  29
   6   1  11 1740.64 171.986  16
  -6   1 -11 1738.56 168.567  14
   6   1  12 351.626 76.2967  29
   6   1  12 221.853 55.2183  16
  -6   1 -12 230.392 58.2995  14
  -6   2  13 2272.08 144.116  32
   6   2 -13 2480.14 119.959   9
  -6   2  12 7120.65 287.682  32
   6   2 -12 7571.75 249.545   9
  -6   2  11 11754.2 402.224  32
   6   2 -11 12072.0 357.527   9
   6   2 -11 11782.5 341.312  17
  -6   2  11 11121.7 422.083  28
  -6   2  10-117.072 88.6029  32
   6   2 -10 8.46884 78.6511   9
   6   2 -10 213.919 91.1415  17
  -6   2  10-97.8966 97.0928  28
   6   2  -9 1474.76 172.215  20
  -6   2   9 1720.23 190.119  32
   6   2  -9 1585.32 155.094   9
  -6   2   9 1658.07 218.564  28
   6   2  -8 274.782 85.7881  20
  -6   2   8 89.0335 76.8966  32
  -6   2   8 215.917 95.8350  28
   6   2  -7 3318.91 265.549  20
  -6   2   7 3590.84 306.453  28
   6   2  -7 3686.30 267.314  21
   6   2  -6 4765.98 314.751  20
  -6   2   6 5111.67 354.373  28
   6   2  -6 5039.40 310.446  21
   6   2  -5 22601.7 657.519  20
  -6   2   5 21829.4 698.849  28
   6   2  -5 21650.3 621.921  21
   6   2  -4 54062.2 948.092  21
   6   2  -4 52770.6 993.763  20
  -6   2   4 53773.3 1073.53  28
   6   2  -3 50602.3 899.152  21
  -6   2   3 52144.3 923.697  19
  -6   2   3 51103.4 993.010  31
   6   2  -3 51092.5 914.533  16
  -6   2   3 51143.6 1039.99  28
   6   2  -3 49347.6 975.323  15
   6   2  -2 75895.2 1080.42  21
  -6   2   2 76785.1 1110.09  19
  -6   2   2 75670.4 1248.85  31
   6   2  -2 73544.1 1172.60  29
   6   2  -2 74882.1 1114.30  16
  -6   2   2 76259.5 1269.31  28
   6   2  -2 75282.6 1206.10  15
  -6   2   1 29114.5 676.179  19
  -6   2   1 27245.9 771.967  31
   6   2  -1 26981.9 699.784  29
   6   2  -1 27746.6 673.814  16
  -6   2   1 27865.3 761.024  28
   6   2  -1 26796.6 719.228  15
  -6   2   0 3830.53 254.511  19
  -6   2   0 3309.63 290.753  31
   6   2   0 3551.53 261.270  29
   6   2   0 3651.40 252.386  16
  -6   2   0 3523.47 292.425  28
   6   2   0 3258.65 262.784  15
  -6   2  -1 538.526 124.729  19
  -6   2  -1 353.714 129.668  31
   6   2   1 902.424 175.066  29
   6   2   1 933.270 160.333  16
  -6   2  -1 718.130 176.660  28
   6   2   1 518.205 134.856  15
  -6   2  -2 2970.00 226.508  19
   6   2   2 3184.64 260.702  29
   6   2   2 3074.12 239.946  16
  -6   2  -2 3384.95 277.257  28
   6   2   2 3031.85 259.229  15
  -6   2  -3 2367.82 203.729  19
   6   2   3 2100.84 214.612  29
   6   2   3 2169.59 196.514  16
   6   2   3 2229.67 219.686  15
   6   2   4 4211.65 299.363  29
   6   2   4 4361.12 283.289  16
   6   2   4 4508.15 317.216  15
  -6   2  -4 4636.82 298.479  14
   6   2   5 985.432 146.316  29
   6   2   5 1214.48 153.678  16
   6   2   5 935.743 153.875  15
  -6   2  -5 1144.73 181.266  14
   6   2   6 49536.7 1043.41  29
   6   2   6 50620.1 984.270  16
   6   2   6 49463.7 1013.37  15
  -6   2  -6 50619.0 1060.81  14
   6   2   7 7129.20 389.929  29
   6   2   7 6873.87 355.690  16
   6   2   7 6841.11 365.970  15
  -6   2  -7 6772.44 387.821  14
   6   2   8 1008.92 153.146  29
   6   2   8 733.865 117.151  16
   6   2   8 945.308 139.165  15
  -6   2  -8 1035.03 162.097  14
   6   2   9 9264.53 405.913  29
   6   2   9 8963.57 362.987  16
   6   2   9 9634.21 386.942  15
  -6   2  -9 9569.62 411.846  14
   6   2  10 522.462 110.214  29
   6   2  10 439.856 81.8548  16
   6   2  10 535.614 86.5810  15
  -6   2 -10 606.038 111.220  14
   6   2  11 388.694 83.6182  29
   6   2  11 402.900 62.4613  15
  -6   2 -11 448.386 85.3399  14
   6   2  12 1387.86 108.674  29
  -6   2 -12 1466.46 109.345  14
   6   3 -12 1690.83 99.1001  17
   6   3 -11 229.304 65.2916  17
   6   3 -10 2307.47 170.325  17
  -6   3  10 2230.47 195.845  28
   6   3  -9 1679.83 149.700  17
  -6   3   9 1504.82 177.706  28
   6   3  -8 1743.86 166.197  20
  -6   3   8 1934.55 211.424  28
   6   3  -8 2043.09 191.298  21
   6   3  -7 14596.4 482.089  20
  -6   3   7 14651.1 547.793  28
   6   3  -7 14338.3 493.389  21
   6   3  -6 29349.9 700.206  20
  -6   3   6 30367.4 740.903  31
  -6   3   6 29210.7 773.829  28
   6   3  -6 28946.0 710.835  21
   6   3  -5 30905.1 736.709  20
  -6   3   5 33717.3 800.953  31
  -6   3   5 32170.3 820.586  28
   6   3  -5 31652.2 741.594  21
   6   3  -4 5507.44 309.333  21
   6   3  -4 5705.94 317.155  20
  -6   3   4 5302.75 326.084  31
  -6   3   4 6111.70 367.384  28
   6   3  -3 16414.5 534.055  21
   6   3  -3 16209.0 538.308  20
  -6   3   3 16913.3 536.824  19
  -6   3   3 15917.8 583.870  31
  -6   3   3 16550.4 575.905  28
   6   3  -2 10353.1 423.716  21
  -6   3   2 11200.0 439.054  19
  -6   3   2 10195.8 478.399  31
  -6   3   2 10993.1 467.735  28
   6   3  -2 10585.2 432.739  15
   6   3  -1 12332.6 459.647  21
  -6   3   1 13068.6 476.651  19
  -6   3   1 12709.4 555.069  31
  -6   3   1 13622.1 510.196  28
   6   3  -1 12875.9 486.434  15
  -6   3   0 7235.03 361.327  19
  -6   3   0 6899.96 420.312  31
   6   3   0 7087.79 334.464  29
  -6   3   0 8034.84 394.194  28
   6   3   0 6912.44 366.891  15
  -6   3  -1 6922.57 354.815  19
  -6   3  -1 6567.65 423.184  31
   6   3   1 6788.37 328.066  29
   6   3   1 6523.32 362.128  15
  -6   3  -2 828.659 138.903  19
  -6   3  -2 765.733 167.002  31
   6   3   2 986.384 132.135  29
   6   3   2 881.493 147.683  15
  -6   3  -3 181.066 80.2339  19
  -6   3  -3 175.332 112.395  31
   6   3   3 323.483 93.9352  29
   6   3   3 261.436 86.6468  15
  -6   3  -3 99.0853 80.6198  14
  -6   3  -4 1098.20 141.362  19
  -6   3  -4 1184.38 194.429  31
   6   3   4 1196.96 138.915  29
   6   3   4 1257.13 173.043  15
  -6   3  -4 971.255 171.136  14
  -6   3  -5 772.390 110.738  19
  -6   3  -5 621.228 164.908  31
   6   3   5 675.682 114.925  29
   6   3   5 665.486 132.104  15
  -6   3  -5 510.015 113.421  14
  -6   3  -6 3163.89 200.985  19
   6   3   6 3448.65 240.628  29
   6   3   6 3383.63 257.990  15
  -6   3  -6 3328.45 265.801  14
   6   3   7 1467.87 152.494  29
   6   3   7 1196.09 141.637  15
  -6   3  -7 1317.23 166.293  14
   6   3   8 6456.12 282.670  29
   6   3   8 6628.30 313.187  15
  -6   3  -8 6532.54 323.889  14
  -6   3  -9 20361.3 556.028  31
   6   3   9 21190.8 460.101  29
   6   3   9 21232.3 511.266  15
  -6   3  -9 20270.4 526.631  14
  -6   3 -10 5871.83 259.722  31
   6   3  10 6138.33 208.245  29
   6   3  10 6270.26 241.249  15
  -6   3 -10 6205.75 255.898  14
   6   4 -10 5093.61 190.059  17
   6   4  -9 1361.29 122.992  17
   6   4  -8 127.963 55.2134  17
  -6   4   8 193.081 88.9914  28
   6   4  -7 1606.69 138.209  20
  -6   4   7 2040.53 187.796  28
   6   4  -7 1664.06 159.481  21
   6   4  -6 671.616 100.596  21
   6   4  -6 626.775 98.9528  20
  -6   4   6 701.278 141.676  28
   6   4  -5 3169.20 203.179  20
  -6   4   5 3177.87 244.415  31
  -6   4   5 3542.91 261.481  28
   6   4  -5 3128.65 218.318  21
   6   4  -4 1506.69 152.985  21
   6   4  -4 1642.68 150.397  20
  -6   4   4 1476.23 168.520  31
  -6   4   4 1328.61 152.145  28
   6   4  -3 4072.14 256.427  21
   6   4  -3 4238.77 245.219  20
  -6   4   3 4491.82 261.515  19
  -6   4   3 4138.92 278.642  31
  -6   4   3 4193.37 259.844  28
   6   4  -2 776.411 126.142  21
   6   4  -2 518.655 92.5408  20
  -6   4   2 445.902 92.4245  19
  -6   4   2 513.897 114.759  31
  -6   4   2 466.763 110.431  28
   6   4  -1 504.517 96.0488  21
   6   4  -1 495.701 93.7036  20
  -6   4   1 451.026 103.578  19
  -6   4   1 288.453 87.1483  31
  -6   4   0 282.588 82.8872  19
  -6   4   0 396.838 111.225  31
   6   4   0 251.738 64.7932  15
  -6   4  -1 21002.1 581.686  19
  -6   4  -1 20657.5 671.425  31
   6   4   1 20490.0 540.797  15
  -6   4  -2 8877.75 374.203  19
  -6   4  -2 8306.06 424.997  31
   6   4   2 7812.40 337.051  15
  -6   4  -3 1484.41 158.719  19
  -6   4  -3 1448.21 187.050  31
   6   4   3 1479.76 154.311  15
  -6   4  -4 9182.72 359.776  19
  -6   4  -4 9138.77 446.159  31
   6   4   4 9753.93 385.427  15
  -6   4  -5 614.514 98.0940  19
  -6   4  -5 555.993 114.687  31
   6   4   5 819.538 114.116  15
  -6   4  -6 1699.53 133.868  19
  -6   4  -6 1713.47 169.836  31
   6   4   6 1667.75 149.402  15
  -6   4  -7 10574.2 286.702  19
  -6   4  -7 10352.0 371.391  31
   6   4   7 10040.3 337.341  15
  -6   4  -8 287.755 50.2305  19
  -6   4  -8 352.233 74.2087  31
   6   4   8 274.493 65.5434  15
   6   5  -6 141.844 51.5135  21
  -6   5   6 211.548 54.3160  10
   6   5  -6 221.784 62.6487  17
  -6   5   5 2269.87 155.798  10
   6   5  -5 2414.41 152.786  21
   6   5  -4 16988.7 408.282  21
   6   5  -3 10866.9 334.598  21
   6   5  -2 953.374 100.666  21
  -6   5   2 930.031 118.174  31
   6   5  -1 35.1481 44.8809  21
  -6   5   1 30.0076 41.0365  19
  -6   5   1 71.4359 57.8555  31
   6   5   0 123.522 52.9695  21
  -6   5   0 143.188 61.4280  19
  -6   5   0-16.9705 62.9580  31
  -6   5   0 122.838 52.1834  18
   6   5   1 2439.14 160.721  21
  -6   5  -1 2251.86 155.157  19
  -6   5  -1 2267.27 176.313  31
  -6   5  -1 2199.35 156.477  18
   6   5   2 572.698 82.7745  21
  -6   5  -2 538.747 79.3037  19
  -6   5  -2 463.774 87.3601  31
  -6   5  -2 444.956 71.6682  18
   6   5   3 2249.76 143.613  21
  -6   5  -3 2196.39 145.213  19
  -6   5  -3 2319.25 170.285  31
  -6   5  -3 1915.30 152.701  18
   6   5   4 2494.03 137.814  21
  -6   5  -4 2651.16 145.448  19
  -6   5  -4 2412.76 160.364  31
   6   5   5 425.423 60.1442  21
  -6   5  -5 319.326 50.6930  19
  -6   5  -5 387.489 63.6752  31
   7  -4  -7 1461.76 103.586   8
   7  -4  -6 947.067 95.6871   8
   7  -4  -5 1373.89 116.472   8
   7  -4  -4 339.966 80.7160   8
   7  -4  -3 185.349 71.1760   8
   7  -4  -3 168.433 55.7589  13
   7  -4  -2 755.922 85.9997  13
   7  -4  -1 3905.68 198.921  13
   7  -4   0 6410.35 257.897  13
   7  -4   1 4644.31 221.441  13
   7  -4   2 4191.98 206.569  13
   7  -4   3 2691.66 167.934  13
  -7  -4  -4 326.114 71.5941  28
   7  -4   4 369.118 70.9961  13
  -7  -4  -5 459.673 70.8345  28
   7  -4   5 421.734 66.7639  13
   7  -3  -9 730.381 90.9009   8
   7  -3  -8 2264.75 153.996   8
   7  -3  -8 1902.71 147.789  13
   7  -3  -7 1557.41 138.040   8
   7  -3  -7 1527.62 140.632  13
   7  -3  -6 18666.1 453.780   8
   7  -3  -6 18410.0 504.555  13
   7  -3  -5 44157.8 729.970   8
   7  -3  -5 44999.7 814.906  13
   7  -3  -4 46043.4 854.465  13
   7  -3  -3 4290.75 266.626  13
   7  -3  -2 3038.69 232.598  13
   7  -3  -1 23561.0 647.309  13
  -7  -3   0 4245.26 254.042  28
   7  -3   0 5941.35 344.324  13
  -7  -3  -1 2629.46 212.414  28
   7  -3   1 3225.05 248.009  13
  -7  -3  -2 898.371 135.388  28
   7  -3   2 952.284 138.980  13
  -7  -3  -3 694.313 136.206  28
   7  -3   3 783.214 135.658  13
  -7  -3  -4 1118.28 148.102  28
   7  -3   4 1281.73 163.053  13
  -7  -3  -5 1057.16 147.114  28
   7  -3   5 1025.96 140.368  13
  -7  -3  -6 1423.80 153.915  28
  -7  -3  -7 722.205 106.928  28
  -7  -3  -8 5784.83 234.351  28
   7  -3   8 4234.41 213.868  13
  -7  -2  11 5502.28 229.703  32
   7  -2 -11 5165.34 163.289   8
   7  -2 -10 393.062 81.0514   8
   7  -2  -9 634.903 87.1785   8
   7  -2  -9 500.885 97.1890  13
   7  -2  -8 2216.57 149.176   9
   7  -2  -8 2034.29 152.128   8
   7  -2  -8 1881.82 183.490  13
   7  -2  -7 22008.9 464.562   9
   7  -2  -7 22107.3 503.894   8
   7  -2  -7 21673.0 617.991  13
   7  -2  -6 22241.6 532.629   8
   7  -2  -6 21456.4 634.737  13
   7  -2  -5 6849.59 368.520  13
   7  -2  -4 704.632 132.354  13
   7  -2  -3 16099.1 526.252  16
   7  -2  -3 16166.0 578.463  13
   7  -2  -2 31804.4 739.945  16
  -7  -2   2 29439.1 731.460  28
   7  -2  -2 30956.9 806.410  13
   7  -2  -1 10059.2 425.676  16
  -7  -2   1 9180.65 426.927  28
   7  -2  -1 10038.3 460.492  13
   7  -2   0 1368.15 192.084  16
  -7  -2   0 748.137 152.006  28
   7  -2   0 1299.55 189.178  13
   7  -2   1 1972.06 207.195  16
  -7  -2  -1 1720.82 230.093  28
   7  -2   1 2076.34 216.990  13
   7  -2   2 998.388 145.549  16
  -7  -2  -2 837.477 163.140  28
   7  -2   2 841.574 154.365  13
   7  -2   3 5221.18 306.835  16
  -7  -2  -3 5326.19 355.233  28
   7  -2   4 7795.76 366.130  16
  -7  -2  -4 7938.47 419.653  28
   7  -2   5 29041.6 702.632  16
  -7  -2  -5 28072.5 731.544  28
   7  -2   6 29468.5 677.207  16
  -7  -2  -6 29471.8 712.436  28
   7  -2   7 2091.38 176.776  16
  -7  -2  -7 2168.62 190.049  28
   7  -2   8 2780.95 179.381  16
  -7  -2  -8 2983.15 203.958  28
   7  -2   9 1750.47 127.108  16
  -7  -2  -9 1952.77 151.750  28
  -7  -1  12 8672.36 284.702  32
   7  -1 -12 8397.49 224.024   9
  -7  -1  11 2873.12 202.539  32
   7  -1 -11 2735.48 157.377   9
   7  -1 -10 2751.23 180.075   9
   7  -1  -9 2991.22 198.901   9
   7  -1  -9 2364.21 211.447  13
   7  -1  -8 1539.90 155.800   9
   7  -1  -8 1490.03 180.074  13
   7  -1  -7 1910.15 160.262   8
   7  -1  -7 1653.24 195.431  13
   7  -1  -6 4170.64 229.290   8
   7  -1  -6 4266.46 302.175  13
  -7  -1   5 2517.45 236.305  28
   7  -1  -5 2220.48 218.524  13
   7  -1  -4 577.550 124.542  16
  -7  -1   4 416.487 118.855  28
   7  -1  -4 566.640 122.781  13
   7  -1  -3 318.413 97.1151  16
  -7  -1   3 211.611 96.4862  28
   7  -1  -3 336.576 93.6835  13
   7  -1  -2 2266.96 227.458  16
  -7  -1   2 2436.08 239.485  28
   7  -1  -2 2649.24 239.920  13
   7  -1  -1 6498.59 373.237  16
  -7  -1   1 6110.63 376.632  28
   7  -1  -1 6893.50 382.300  13
   7  -1   0 2443.16 220.049  29
   7  -1   0 2445.33 234.881  16
  -7  -1   0 2280.33 260.384  28
   7  -1   0 2885.29 255.225  13
   7  -1   1 4156.12 286.903  29
   7  -1   1 3846.00 288.337  16
  -7  -1  -1 3533.67 306.209  28
   7  -1   1 4041.76 291.273  13
   7  -1   2 3894.36 268.725  29
   7  -1   2 3666.42 281.789  16
  -7  -1  -2 3683.19 298.899  28
   7  -1   2 3978.21 300.037  13
   7  -1   3 6662.73 344.484  29
   7  -1   3 6647.30 377.866  16
  -7  -1  -3 6755.03 403.092  28
   7  -1   4 4244.44 277.926  29
   7  -1   4 4091.91 296.377  16
  -7  -1  -4 4305.74 338.336  28
   7  -1   5 13508.1 494.153  29
   7  -1   5 13356.2 537.910  16
  -7  -1  -5 12474.4 515.646  28
   7  -1   6 27348.9 664.505  29
   7  -1   6 28376.6 765.579  16
  -7  -1  -6 26504.6 718.321  28
   7  -1   7 3528.19 229.499  29
   7  -1   7 3478.14 261.121  16
  -7  -1  -7 3151.33 238.559  28
   7  -1   8 647.611 103.406  29
   7  -1   8 632.146 123.291  16
   7  -1   9 1975.19 142.518  29
   7  -1   9 1880.76 167.889  16
   7  -1  10 3308.28 190.131  16
  -7  -1 -10 3115.37 148.026  28
  -7   0  12 668.605 95.4390  32
   7   0 -12 657.406 85.0081   9
  -7   0  11 45.6346 69.9059  32
   7   0 -11 125.751 77.6827   9
  -7   0  10-80.6353 104.585  32
   7   0 -10 124.463 74.5130   9
   7   0  -9 13.2851 88.1259   9
   7   0  -9 57.2017 56.6544  13
  -7   0   8 14845.6 478.368  28
   7   0  -8 14244.8 517.451  13
   7   0  -7 34551.9 734.955  20
  -7   0   7 34136.9 770.865  28
   7   0  -7 35641.0 834.594  13
   7   0  -6 2779.77 215.298  20
  -7   0   6 2888.21 249.337  28
   7   0  -6 2969.40 239.537  13
   7   0  -5 236.438 72.1314  20
   7   0  -5 172.894 72.0472  13
   7   0  -4 4883.39 275.721  20
   7   0  -4 4687.36 315.455  16
  -7   0   4 4957.35 334.371  28
   7   0  -4 4613.29 308.681  13
   7   0  -3 554.664 100.771  20
   7   0  -3 544.655 117.701  16
  -7   0   3 445.424 138.086  28
   7   0  -3 442.166 97.5163  13
   7   0  -2 2948.12 230.735  20
   7   0  -2 2973.93 267.111  16
  -7   0   2 2582.07 259.597  28
   7   0  -2 2829.56 249.462  13
   7   0  -1 36345.4 754.849  20
   7   0  -1 34345.7 841.421  29
   7   0  -1 34506.5 858.883  16
  -7   0   1 35174.5 889.885  28
   7   0  -1 35514.3 833.003  13
   7   0   0 14605.9 545.103  29
   7   0   0 14736.9 552.152  16
  -7   0   0 13834.1 582.759  28
   7   0   0 15174.1 542.992  13
   7   0   1 716.253 139.192  29
   7   0   1 573.378 118.605  16
  -7   0  -1 631.069 163.729  28
   7   0   1 458.341 114.855  15
   7   0   1 485.452 102.715  13
   7   0   2 606.668 139.565  29
   7   0   2 777.376 154.447  16
  -7   0  -2 517.951 136.771  28
   7   0   2 627.837 117.560  15
   7   0   2 602.948 120.656  13
   7   0   3 4411.83 299.990  29
   7   0   3 4359.18 311.456  16
  -7   0  -3 4470.23 332.680  28
   7   0   3 4669.00 301.700  15
   7   0   3 4038.93 291.847  13
   7   0   4 63.7447 78.6240  29
   7   0   4 73.3935 72.2241  16
  -7   0  -4 98.4767 93.0046  28
   7   0   4-21.2406 57.3644  15
   7   0   5 3322.26 268.001  29
   7   0   5 3613.88 281.645  16
  -7   0  -5 3279.61 272.847  28
   7   0   5 3369.75 226.898  15
   7   0   6 2111.73 212.343  29
   7   0   6 2265.07 228.710  16
  -7   0  -6 2029.12 207.981  28
   7   0   7 66.6566 75.6505  29
   7   0   7-96.1238 78.1462  16
  -7   0  -7 82.8538 84.9624  28
   7   0   8 2409.73 201.622  29
   7   0   8 2385.47 212.143  16
  -7   0  -8 2644.39 194.753  28
   7   0   9 658.426 108.845  29
   7   0   9 469.491 97.1958  16
   7   0  10 3763.92 214.368  16
  -7   0 -10 3182.09 171.703  14
  -7   1  12 8619.98 270.022  32
   7   1 -12 8862.93 245.137   9
  -7   1  11 2640.19 180.391  32
   7   1 -11 2766.08 168.243   9
  -7   1  10 2437.03 195.181  32
   7   1 -10 2290.83 170.524   9
  -7   1  10 2402.01 179.434  28
   7   1  -9 2322.19 182.933   9
  -7   1   9 2625.37 205.260  28
   7   1  -8 1247.54 151.547  20
  -7   1   8 1112.97 150.349  28
   7   1  -7 1276.03 166.933  20
  -7   1   7 1537.10 202.428  28
   7   1  -7 1361.37 164.726  13
   7   1  -6 3932.75 271.128  20
  -7   1   6 4189.92 313.481  28
   7   1  -6 3575.17 259.005  13
   7   1  -5 2476.28 216.513  20
  -7   1   5 2365.54 232.353  28
   7   1  -5 2150.56 199.673  13
   7   1  -4 544.985 105.894  20
   7   1  -4 424.685 113.341  16
  -7   1   4 426.727 131.363  28
   7   1  -4 457.752 96.3713  13
   7   1  -3 507.391 101.532  20
   7   1  -3 349.896 93.4319  16
  -7   1   3 575.029 152.784  28
   7   1  -3 579.538 104.254  13
   7   1  -2 2537.42 216.741  20
   7   1  -2 2158.36 219.059  16
  -7   1   2 2251.03 257.854  28
   7   1  -1 6471.51 368.129  29
   7   1  -1 6234.32 357.878  16
  -7   1   1 6552.89 388.014  28
   7   1  -1 5958.73 356.788  15
   7   1   0 2417.47 234.525  29
   7   1   0 2189.04 227.925  16
  -7   1   0 2301.08 242.574  28
   7   1   0 2431.49 225.579  15
   7   1   1 3817.48 280.106  29
   7   1   1 3896.55 289.117  16
  -7   1  -1 3948.22 316.441  28
   7   1   1 3993.31 279.642  15
   7   1   2 3983.53 290.330  29
   7   1   2 3827.25 283.469  16
  -7   1  -2 3955.04 307.567  28
   7   1   2 3744.28 284.993  15
   7   1   3 6508.87 364.660  29
   7   1   3 6302.80 355.176  16
  -7   1  -3 6945.57 403.480  28
   7   1   3 7490.08 392.745  15
   7   1   4 4581.46 307.233  29
   7   1   4 4220.12 291.422  16
  -7   1  -4 4261.00 303.257  28
   7   1   4 4735.98 305.941  15
   7   1   5 12321.6 506.700  29
   7   1   5 13242.4 518.365  16
  -7   1  -5 12831.4 464.335  28
   7   1   5 13006.5 479.322  15
   7   1   6 26425.1 717.016  29
   7   1   6 26599.8 718.434  16
  -7   1  -6 28613.1 629.892  28
   7   1   6 26761.2 650.636  15
   7   1   7 3294.51 247.760  29
   7   1   7 3230.27 241.727  16
   7   1   7 3510.99 221.425  15
  -7   1  -7 2764.68 198.475  14
   7   1   8 745.388 131.846  29
   7   1   8 643.618 110.144  16
   7   1   8 847.339 104.462  15
  -7   1  -8 651.184 108.068  14
   7   1   9 1982.40 168.553  29
   7   1   9 1993.17 167.717  16
  -7   1  -9 1980.43 152.183  14
   7   1  10 3256.02 181.287  29
   7   1  10 3018.54 168.981  16
  -7   1 -10 3142.82 163.168  14
   7   2 -11 5274.52 171.110   9
   7   2 -10 380.386 73.6244   9
  -7   2  10 362.168 95.0426  28
   7   2  -9 588.755 92.6713   9
  -7   2   9 566.117 120.645  28
   7   2  -8 1474.52 155.591  20
   7   2  -8 1713.77 157.548   9
  -7   2   8 1641.28 192.627  28
   7   2  -7 18965.2 541.491  20
  -7   2   7 20619.4 611.513  28
   7   2  -6 19908.3 581.670  20
  -7   2   6 20763.4 639.340  28
   7   2  -5 6269.12 336.160  20
  -7   2   5 6710.94 373.223  28
   7   2  -5 6512.47 299.040  21
   7   2  -4 739.295 127.384  20
  -7   2   4 789.607 157.252  28
   7   2  -3 14885.6 521.082  20
  -7   2   3 15779.0 579.199  28
   7   2  -2 28392.6 715.819  20
   7   2  -2 29491.7 689.818  16
  -7   2   2 30405.1 798.659  28
  -7   2   1 9210.96 423.191  31
   7   2  -1 9461.47 391.224  16
  -7   2   1 9478.12 453.069  28
   7   2  -1 9316.29 428.691  15
  -7   2   0 1157.25 146.313  19
  -7   2   0 1226.26 167.530  31
   7   2   0 1229.31 164.955  16
   7   2   0 1240.30 162.794  29
  -7   2   0 1172.21 201.052  28
   7   2   0 1100.16 149.730  15
  -7   2  -1 1844.73 164.135  19
  -7   2  -1 1680.67 195.294  31
   7   2   1 2060.35 200.196  29
   7   2   1 2230.75 203.809  16
  -7   2  -1 2022.61 217.781  28
   7   2   1 2084.17 201.295  15
  -7   2  -2 856.949 159.019  31
   7   2   2 850.613 131.441  29
   7   2   2 935.793 131.508  16
  -7   2  -2 961.457 161.906  28
   7   2   2 827.081 133.988  15
  -7   2  -3 4409.27 330.640  31
   7   2   3 5294.19 311.293  29
   7   2   3 5300.22 287.681  16
  -7   2  -3 5721.27 307.402  28
   7   2   3 5446.34 323.585  15
   7   2   4 7804.66 372.305  29
   7   2   4 7635.69 338.275  16
   7   2   4 7904.63 388.319  15
   7   2   5 28138.1 710.348  29
   7   2   5 27678.3 640.872  16
   7   2   5 28206.9 695.186  15
   7   2   6 28621.6 691.697  29
   7   2   6 28233.1 607.524  16
   7   2   6 29044.5 669.372  15
  -7   2  -6 27806.6 632.355  14
   7   2   7 2191.90 181.130  29
   7   2   7 1919.93 153.878  16
   7   2   7 2065.22 171.785  15
  -7   2  -7 1990.74 166.464  14
   7   2   8 2672.33 186.497  29
   7   2   8 2634.41 157.799  16
   7   2   8 3099.46 185.929  15
  -7   2  -8 2816.91 181.035  14
  -7   2  -9 1799.99 149.187  31
   7   2   9 2122.46 145.639  29
   7   2   9 2142.24 133.449  15
  -7   2  -9 1923.44 135.846  14
   7   3  -9 832.955 80.1349  17
  -7   3   9 692.358 105.018  28
   7   3  -8 1689.35 145.226  20
   7   3  -8 1910.84 131.790  17
  -7   3   8 2160.05 180.799  28
   7   3  -7 1247.01 134.925  20
  -7   3   7 1310.37 152.417  28
   7   3  -6 16076.2 467.225  20
  -7   3   6 16319.9 524.492  28
   7   3  -6 17320.3 462.302  21
   7   3  -5 40590.7 749.826  20
  -7   3   5 41914.3 837.661  28
   7   3  -5 41499.7 723.146  21
   7   3  -4 42229.4 783.830  20
  -7   3   4 42578.2 773.594  31
  -7   3   4 41926.4 853.815  28
   7   3  -4 43824.0 747.376  21
   7   3  -3 4260.29 255.636  20
  -7   3   3 4319.70 260.110  31
  -7   3   3 4986.27 305.921  28
   7   3  -3 4327.93 233.764  21
   7   3  -2 3088.26 245.631  20
  -7   3   2 2591.18 209.926  31
  -7   3   2 3061.57 244.538  28
   7   3  -2 2778.26 191.495  21
   7   3  -1 23116.8 533.077  21
   7   3  -1 21539.9 587.758  20
  -7   3   1 23250.4 562.042  19
  -7   3   1 22076.2 630.546  31
  -7   3   1 24378.2 637.406  28
   7   3   0 5186.50 248.543  21
  -7   3   0 5411.31 272.292  19
  -7   3   0 4932.56 310.251  31
  -7   3   0 5640.72 314.871  28
   7   3   0 5048.41 285.810  15
  -7   3  -1 3345.51 214.846  19
  -7   3  -1 2690.24 244.985  31
   7   3   1 2869.19 216.346  15
  -7   3  -2 896.005 118.529  19
  -7   3  -2 669.210 130.275  31
   7   3   2 858.550 130.960  29
   7   3   2 767.127 117.628  15
  -7   3  -3 866.489 109.537  19
  -7   3  -3 745.109 146.646  31
   7   3   3 838.888 120.418  29
   7   3   3 720.946 111.520  15
  -7   3  -4 1272.37 114.486  19
  -7   3  -4 1245.04 170.089  31
   7   3   4 1567.19 144.525  29
   7   3   4 1482.44 157.608  15
  -7   3  -5 1037.67 155.399  31
   7   3   5 1318.22 126.767  29
   7   3   5 1099.14 127.273  15
  -7   3  -6 1114.73 144.906  31
   7   3   6 1499.22 119.112  29
   7   3   6 1485.45 139.568  15
  -7   3  -7 663.727 100.215  31
   7   3   7 720.713 85.2351  29
   7   3   7 668.108 90.1227  15
  -7   3  -8 5249.42 230.752  31
   7   3   8 5655.27 214.935  15
   7   4  -7 1429.35 105.337  17
   7   4  -6 851.139 80.3524  20
  -7   4   6 1109.82 125.632  28
   7   4  -5 1222.30 101.626  20
  -7   4   5 1464.82 135.139  28
   7   4  -5 1369.67 117.898  21
   7   4  -4 244.489 62.7374  21
   7   4  -4 285.474 59.7303  20
  -7   4   4 302.673 91.5782  28
   7   4  -3 60.8150 42.2053  21
   7   4  -3 29.0115 39.0265  20
  -7   4   3 6.42236 43.2158  31
   7   4  -2 640.390 86.8696  21
   7   4  -2 642.934 94.7267  20
  -7   4   2 458.234 83.5871  31
   7   4  -1 3826.52 197.722  21
   7   4  -1 3822.14 206.547  20
  -7   4   1 3367.28 220.297  31
   7   4   0 6186.29 243.872  21
   7   4   0 5709.42 242.382  20
  -7   4   0 6098.77 253.197  19
  -7   4   0 5702.45 284.860  31
   7   4   1 4588.53 198.388  21
   7   4   1 4450.25 211.697  20
  -7   4  -1 4874.31 223.971  19
  -7   4  -1 4276.40 250.037  31
   7   4   2 4358.14 179.291  21
   7   4   2 4304.11 209.032  20
  -7   4  -2 4365.32 198.899  19
  -7   4  -2 4206.97 241.869  31
   7   4   2 4304.64 209.600  15
  -7   4  -3 2846.89 149.814  19
  -7   4  -3 2904.69 200.007  31
   7   4   3 2978.79 175.554  15
  -7   4  -4 304.857 51.1756  19
  -7   4  -4 343.891 75.0005  31
   7   4   4 388.738 66.9849  15
  -7   4  -5 576.752 53.9451  19
  -7   4  -5 525.973 84.1799  31
   7   4   5 568.891 73.1328  15
   8  -3  -6 7597.56 207.993   8
   8  -3  -6 7242.09 225.567  13
   8  -3  -5 4708.09 180.623   8
   8  -3  -5 4360.03 193.194  13
   8  -3  -4 25191.4 428.459   8
   8  -3  -4 25897.1 495.471  13
   8  -3  -3 12136.3 317.714   8
   8  -3  -3 12717.1 361.608  13
   8  -3  -2 15464.2 412.172  13
   8  -3  -1 21030.4 489.291  13
   8  -3   0 15424.9 425.925  13
  -8  -3  -1 272.522 70.3438  28
   8  -3   1 655.898 109.995  13
  -8  -3  -2 42.3555 63.0823  28
   8  -3   2 233.201 68.6881  13
  -8  -3  -3 1291.37 119.059  28
   8  -3   3 1479.85 128.155  13
  -8  -3  -4 921.677 103.742  28
   8  -3   4 960.488 99.4226  13
   8  -2  -8 1952.77 143.943  13
   8  -2  -7 14231.1 291.280   8
   8  -2  -7 13212.8 389.153  13
   8  -2  -6 28334.7 448.797   8
   8  -2  -6 27404.9 587.533  13
   8  -2  -5 13301.1 330.698   8
   8  -2  -5 12777.6 417.104  13
   8  -2  -4 14943.5 371.850   8
   8  -2  -4 15363.2 467.051  13
   8  -2  -3 12601.3 437.295  13
  -8  -2   2 4997.49 259.765  28
   8  -2  -2 5248.13 286.079  13
   8  -2  -1 1331.11 133.803  16
  -8  -2   1 1395.81 154.890  28
   8  -2  -1 1279.97 146.218  13
   8  -2   0 172.984 87.3674  16
  -8  -2   0 9.15191 72.0517  28
   8  -2   0 170.366 72.8385  13
   8  -2   1 2012.45 164.893  16
  -8  -2  -1 1567.71 171.203  28
   8  -2   1 1898.33 181.610  13
   8  -2   2 5520.37 260.248  16
  -8  -2  -2 4787.11 286.156  28
   8  -2   2 5467.78 291.530  13
   8  -2   3 7628.43 300.312  16
  -8  -2  -3 6974.85 333.279  28
   8  -2   3 7250.76 332.963  13
   8  -2   4 2651.32 170.978  16
  -8  -2  -4 2479.62 199.633  28
   8  -2   4 2666.93 198.711  13
   8  -2   5 2177.17 143.684  16
  -8  -2  -5 1723.65 159.303  28
   8  -2   5 1738.37 149.273  13
   8  -2   6 3884.50 164.108  16
  -8  -2  -6 3696.35 195.429  28
   8  -2   6 3372.09 186.000  13
  -8  -1   9 8667.05 307.173  32
   8  -1  -9 9038.73 244.773   9
   8  -1  -8 76.3469 69.0319   9
   8  -1  -8 36.3398 40.3468  13
   8  -1  -7 2677.28 165.857   9
   8  -1  -7 2684.30 201.382  13
   8  -1  -6 5479.78 292.179  13
  -8  -1   5 5679.41 273.101  28
   8  -1  -5 5789.28 301.447  13
  -8  -1   4 3483.56 235.982  28
   8  -1  -4 3584.62 240.172  13
   8  -1  -3 12197.2 444.827  16
  -8  -1   3 11555.7 427.795  28
   8  -1  -3 12232.3 444.884  13
   8  -1  -2 2425.79 213.223  16
  -8  -1   2 1892.49 196.937  28
   8  -1  -2 2490.82 209.505  13
   8  -1  -1 3212.55 240.513  16
  -8  -1   1 2453.45 231.131  28
   8  -1  -1 3082.78 233.278  13
   8  -1   0 937.131 145.551  16
  -8  -1   0 689.280 142.615  28
   8  -1   0 928.026 128.904  13
   8  -1   1 1117.77 144.955  16
  -8  -1  -1 1114.83 167.803  28
   8  -1   1 1267.61 152.294  13
   8  -1   2 2798.84 217.231  16
  -8  -1  -2 2682.39 244.540  28
   8  -1   2 2504.51 205.006  13
   8  -1   3 1700.49 157.908  29
   8  -1   3 1561.41 164.542  16
  -8  -1  -3 1591.39 193.341  28
   8  -1   3 1480.62 161.051  13
   8  -1   4 27708.0 572.695  29
   8  -1   4 27032.6 649.442  16
  -8  -1  -4 25774.8 636.731  28
   8  -1   4 25703.7 620.822  13
   8  -1   5 32545.2 568.307  29
   8  -1   5 32076.7 663.775  16
  -8  -1  -5 31815.1 663.522  28
   8  -1   6 10276.4 347.269  16
  -8  -1  -6 10837.0 357.112  28
   8  -1   7 4259.04 203.757  16
  -8  -1  -7 4339.48 204.351  28
  -8   0  10 292.169 69.3950  32
   8   0 -10 246.346 71.1878   9
  -8   0   9 4268.38 217.649  32
   8   0  -9 3893.86 187.707   9
   8   0  -8 397.755 88.8531   9
  -8   0   7 542.010 98.4596  28
   8   0  -7 496.311 94.6751  13
   8   0  -6 776.106 99.0271  20
  -8   0   6 726.129 120.801  28
   8   0  -6 702.682 109.259  13
   8   0  -5-31.1946 40.3934  20
  -8   0   5-5.98700 85.9171  28
   8   0  -5 14.8378 46.1497  13
   8   0  -4 775.290 95.1352  20
  -8   0   4 631.877 126.358  28
   8   0  -4 737.455 111.128  13
   8   0  -3 23273.7 511.856  20
   8   0  -3 23019.6 622.045  16
  -8   0   3 21904.2 624.569  28
   8   0  -3 22008.7 579.591  13
   8   0  -2 12725.4 377.694  20
   8   0  -2 12566.3 462.617  16
  -8   0   2 12417.4 479.801  28
   8   0  -2 12266.6 434.487  13
   8   0  -1 1977.96 243.047  16
  -8   0   1 1444.01 192.393  28
   8   0  -1 1837.58 181.911  13
   8   0   0 16039.6 524.414  16
  -8   0   0 15834.9 553.617  28
   8   0   0 15788.2 483.838  13
   8   0   1 751.637 130.322  29
   8   0   1 686.494 145.716  16
  -8   0  -1 659.461 143.225  28
   8   0   1 566.987 103.814  13
   8   0   2 80.3642 68.3702  29
   8   0   2 15.1403 54.2417  16
  -8   0  -2 33.8044 85.3010  28
   8   0   2 6.19613 49.6030  13
   8   0   3 48.5964 61.2102  29
   8   0   3 21.0883 55.5372  16
  -8   0  -3 106.182 101.405  28
   8   0   3 48.3783 48.4692  13
   8   0   4 26332.9 637.863  29
   8   0   4 25565.2 649.646  16
  -8   0  -4 24307.3 618.206  28
   8   0   5 377.508 79.2852  29
   8   0   5 300.008 90.8398  16
  -8   0  -5 408.609 95.2528  28
   8   0   6 3639.15 205.510  29
   8   0   6 3582.84 215.495  16
  -8   0  -6 3790.94 208.903  28
   8   0   7 13419.3 355.797  29
   8   0   7 13013.0 373.610  16
  -8   0  -7 13856.4 328.305  28
   8   0   8 5890.07 204.832  29
   8   0   8 5564.31 214.455  16
   8   1  -9 8038.24 247.002   9
  -8   1   9 7213.96 226.322  28
   8   1  -8-24.8470 56.0116   9
  -8   1   8-25.0281 59.2141  28
   8   1  -7 2453.26 172.342  20
  -8   1   7 2313.96 184.097  28
   8   1  -6 5459.28 263.635  20
  -8   1   6 5173.86 283.707  28
   8   1  -5 5903.57 273.247  20
  -8   1   5 5102.89 301.758  28
   8   1  -5 5515.24 253.293  13
   8   1  -4 3710.47 222.050  20
  -8   1   4 3523.94 258.183  28
   8   1  -3 12780.8 416.412  20
  -8   1   3 12239.7 461.275  28
   8   1  -2 2431.65 192.116  20
   8   1  -2 2070.92 193.501  16
  -8   1   2 2037.60 211.467  28
   8   1  -1 3375.69 219.791  20
   8   1  -1 3010.28 226.522  16
  -8   1   1 3127.67 258.899  28
   8   1   0 968.810 126.512  20
   8   1   0 852.381 123.802  16
  -8   1   0 769.841 139.046  28
   8   1   1 1195.12 136.024  20
   8   1   1 1152.24 142.779  29
   8   1   1 1142.30 139.511  16
  -8   1  -1 868.013 150.570  28
   8   1   2 2494.06 203.846  29
   8   1   2 2621.81 199.269  16
  -8   1  -2 2483.99 220.219  28
   8   1   3 1493.15 155.004  29
   8   1   3 1516.32 158.461  16
  -8   1  -3 1357.37 158.434  28
   8   1   4 26441.9 635.931  29
   8   1   4 26432.6 619.415  16
  -8   1  -4 26100.4 576.809  28
   8   1   5 31648.7 649.970  29
   8   1   5 31033.8 629.245  16
   8   1   6 10824.8 353.477  29
   8   1   6 10139.1 332.280  16
   8   1   7 4488.97 206.883  29
   8   1   7 4282.57 191.951  16
   8   2  -8 2111.18 117.510   9
  -8   2   8 1926.44 144.705  28
   8   2  -7 12429.2 347.774  20
  -8   2   7 12476.5 375.762  28
   8   2  -6 25873.3 530.818  20
  -8   2   6 25980.2 581.036  28
   8   2  -5 12215.5 379.934  20
  -8   2   5 12726.2 428.223  28
   8   2  -4 14309.7 420.649  20
  -8   2   4 14283.2 467.474  28
   8   2  -3 12184.4 395.904  20
  -8   2   3 12486.8 439.042  28
   8   2  -2 5098.54 258.315  20
  -8   2   2 5085.12 291.316  28
   8   2  -1 1499.69 141.937  20
  -8   2   1 1575.73 175.943  28
   8   2   0 131.731 69.3057  20
   8   2   0 20.2778 77.7491  16
  -8   2   0 60.2061 101.948  28
   8   2   1 1755.37 142.782  16
  -8   2  -1 1903.79 185.084  28
  -8   2  -2 4858.74 249.111  31
   8   2   2 5232.88 235.130  16
  -8   2  -2 5339.85 257.194  28
  -8   2  -3 6521.44 288.037  31
   8   2   3 7308.53 308.447  29
   8   2   3 7553.75 271.787  16
  -8   2  -3 7495.64 273.471  28
   8   2   3 7251.89 314.304  15
  -8   2  -4 2326.67 171.536  31
   8   2   4 2976.22 190.987  29
   8   2   4 2833.32 156.508  16
   8   2   4 2577.52 176.304  15
  -8   2  -5 1706.34 141.281  31
   8   2   5 2128.10 152.062  29
   8   2   5 2092.93 149.259  15
   8   2   6 3771.37 177.711  29
   8   2   6 3975.76 180.142  15
   8   3  -6 6256.67 213.547  20
  -8   3   6 6637.05 251.749  28
   8   3  -5 4414.30 191.008  20
  -8   3   5 4201.77 207.532  28
   8   3  -4 24084.2 464.101  20
  -8   3   4 23575.2 497.462  28
   8   3  -3 11938.3 337.462  20
  -8   3   3 12151.9 364.666  28
   8   3  -2 15203.9 392.734  20
  -8   3   2 16160.1 438.055  28
   8   3  -1 19371.6 453.077  20
  -8   3   1 20282.4 465.616  28
   8   3   0 13757.4 376.021  20
  -8   3   0 12751.1 342.262  31
  -8   3   0 13750.4 346.528  28
   8   3   1 357.313 76.0586  20
  -8   3  -1 354.610 64.4707  31
   8   3   2 298.112 63.5074  20
  -8   3  -2 175.601 50.6696  31
   8   3   3 1465.88 118.659  20
  -8   3  -3 1514.98 123.219  31
  -8   3  -4 915.533 94.2230  31
   9  -1  -5 3979.88 180.058  13
   9  -1  -4 438.295 67.0790  13
  -9  -1   3 5666.23 211.364  28
   9  -1  -3 5773.56 230.195  13
  -9  -1   2 1163.50 114.110  28
   9  -1  -2 1254.06 109.709  13
  -9  -1   1 570.894 94.6637  28
   9  -1  -1 660.897 90.9639  13
   9  -1   0 5943.47 236.330  16
   9  -1   0 6120.21 238.370  13
   9  -1   1 1354.49 113.991  16
  -9  -1  -1 1006.17 113.074  28
   9  -1   1 1331.55 108.408  13
  -9  -1  -2 564.310 81.3609  28
   9  -1   2 506.552 64.0881  13
   9  -1   3 678.288 74.0982  16
  -9  -1  -3 552.163 83.2856  28
   9  -1   3 503.856 62.7761  13
  -9   0   5 510.056 72.9893  28
   9   0  -5 530.619 60.3817  13
  -9   0   4 598.157 80.8714  28
   9   0  -4 549.527 65.1092  13
  -9   0   3 630.816 96.4447  28
   9   0  -3 723.898 86.6224  13
  -9   0   2 12015.2 365.385  28
   9   0  -2 13571.3 324.289  13
  -9   0   1 9396.50 329.683  28
   9   0  -1 10569.1 283.435  13
   9   0   0 827.884 128.066  16
  -9   0   0 589.469 102.232  28
   9   0   1 2856.41 171.918  16
  -9   0  -1 2739.09 179.570  28
   9   0   2 4184.99 201.055  16
  -9   0  -2 3632.35 194.283  28
   9   0   3 9254.05 277.617  16
  -9   0  -3 8758.41 274.506  28
  -9   1   5 3619.79 172.953  28
   9   1  -4 446.742 52.3229  20
  -9   1   4 349.732 74.9803  28
   9   1  -3 6416.09 193.931  20
  -9   1   3 6056.47 244.984  28
   9   1  -2 1465.62 100.967  20
  -9   1   2 1226.61 129.621  28
   9   1  -1 1182.93 115.168  20
  -9   1   1 609.808 106.992  28
   9   1   0 6002.59 188.695  20
  -9   1   0 5717.17 246.882  28
   9   1   1 1237.74 86.6967  20
   9   1   1 1260.55 116.599  16
  -9   1  -1 1105.84 113.132  28
   9   1   2 811.351 82.3539  16
  -9   1  -2 685.732 90.2199  28
   9   1   3 717.180 70.7297  16
  -9   1  -3 528.065 66.2341  28
   0   0   0    0.00    0.00   0
;
_shelx_hkl_checksum              68306
loop_
_space_group_symop_operation_xyz
'x, y, z'
'-x, y+1/2, -z'
loop_
_atom_site_label
_atom_site_type_symbol
_atom_site_fract_x
_atom_site_fract_y
_atom_site_fract_z
_atom_site_U_iso_or_equiv
_atom_site_adp_type
_atom_site_occupancy
_atom_site_site_symmetry_order
_atom_site_calc_flag
_atom_site_refinement_flags_posn
_atom_site_refinement_flags_adp
_atom_site_refinement_flags_occupancy
_atom_site_disorder_assembly
_atom_site_disorder_group
C1 C 0.2348(2) 0.5498(4) 0.55864(13) 0.0178(4) Uani 0.8954(15) 1 d . U P A 1
C2 C 0.2102(2) 0.7028(4) 0.62926(12) 0.0181(4) Uani 0.8954(15) 1 d . U P A 1
H2 H 0.1478 0.8400 0.6158 0.022 Uiso 0.8954(15) 1 calc R U P A 1
C3 C 0.2766(2) 0.6583(3) 0.72125(13) 0.0191(4) Uani 0.8954(15) 1 d . U P A 1
C4 C 0.2560(2) 0.8157(4) 0.79528(13) 0.0208(4) Uani 0.8954(15) 1 d . U P A 1
H4 H 0.1943 0.9541 0.7833 0.025 Uiso 0.8954(15) 1 calc R U P A 1
C5 C 0.3246(3) 0.7690(4) 0.88356(14) 0.0239(5) Uani 0.8954(15) 1 d . U P A 1
H5 H 0.3095 0.8752 0.9323 0.029 Uiso 0.8954(15) 1 calc R U P A 1
C6 C 0.4176(3) 0.5647(4) 0.90314(13) 0.0258(5) Uani 0.8954(15) 1 d . U P A 1
H6 H 0.4653 0.5354 0.9646 0.031 Uiso 0.8954(15) 1 calc R U P A 1
C7 C 0.4391(2) 0.4088(4) 0.83407(13) 0.0234(4) Uani 0.8954(15) 1 d . U P A 1
H7 H 0.5017 0.2720 0.8480 0.028 Uiso 0.8954(15) 1 calc R U P A 1
C8 C 0.3683(2) 0.4502(3) 0.74119(13) 0.0202(4) Uani 0.8954(15) 1 d . U P A 1
C9 C 0.3855(2) 0.2933(3) 0.66892(13) 0.0200(4) Uani 0.8954(15) 1 d . U P A 1
H9 H 0.4427 0.1525 0.6822 0.024 Uiso 0.8954(15) 1 calc R U P A 1
C10 C 0.3209(2) 0.3386(3) 0.57823(13) 0.0182(4) Uani 0.8954(15) 1 d . U P A 1
C11 C 0.3466(2) 0.1776(4) 0.50373(13) 0.0198(4) Uani 0.8954(15) 1 d . U P A 1
H11 H 0.3988 0.0344 0.5186 0.024 Uiso 0.8954(15) 1 calc R U P A 1
C12 C 0.2983(2) 0.2259(4) 0.41353(13) 0.0213(4) Uani 0.8954(15) 1 d . U P A 1
H12 H 0.3165 0.1171 0.3662 0.026 Uiso 0.8954(15) 1 calc R U P A 1
C13 C 0.1698(2) 0.5384(4) 0.28490(13) 0.0193(4) Uani 0.8954(15) 1 d . U P A 1
C14 C 0.0848(2) 0.7453(3) 0.26234(13) 0.0207(4) Uani 0.8954(15) 1 d . U P A 1
H14 H 0.0527 0.8433 0.3111 0.025 Uiso 0.8954(15) 1 calc R U P A 1
C15 C 0.0465(2) 0.8097(4) 0.16990(14) 0.0236(5) Uani 0.8954(15) 1 d . U P A 1
H15 H -0.0116 0.9499 0.1564 0.028 Uiso 0.8954(15) 1 calc R U P A 1
C16 C 0.0930(3) 0.6697(4) 0.09740(13) 0.0250(5) Uani 0.8954(15) 1 d . U P A 1
H16 H 0.0662 0.7131 0.0344 0.030 Uiso 0.8954(15) 1 calc R U P A 1
C17 C 0.1796(3) 0.4643(4) 0.11794(14) 0.0253(5) Uani 0.8954(15) 1 d . U P A 1
H17 H 0.2130 0.3681 0.0689 0.030 Uiso 0.8954(15) 1 calc R U P A 1
C18 C 0.2167(2) 0.4014(4) 0.21023(13) 0.0218(4) Uani 0.8954(15) 1 d . U P A 1
H18 H 0.2756 0.2615 0.2232 0.026 Uiso 0.8954(15) 1 calc R U P A 1
B1 B 0.2138(3) 0.4574(4) 0.38784(15) 0.0192(4) Uani 0.8954(15) 1 d . U P A 1
N1 N 0.18213(19) 0.5989(3) 0.46570(10) 0.0184(4) Uani 0.8954(15) 1 d . U P A 1
H1 H 0.1251 0.7271 0.4545 0.022 Uiso 0.8954(15) 1 calc R U P A 1
C1' C 0.2021(6) 0.5420(12) 0.4410(4) 0.0178(4) Uani 0.1046(15) 1 d G U P A 2
C2' C 0.1327(8) 0.6967(13) 0.3786(4) 0.0181(4) Uani 0.1046(15) 1 d G U P A 2
H2' H 0.0845 0.8353 0.3995 0.022 Uiso 0.1046(15) 1 d G U P A 2
C3' C 0.1336(8) 0.6483(14) 0.2831(4) 0.0191(4) Uani 0.1046(15) 1 d G U P A 2
C4' C 0.0694(11) 0.8082(16) 0.2162(5) 0.0208(4) Uani 0.1046(15) 1 d G U P A 2
H4' H 0.0252 0.9494 0.2368 0.025 Uiso 0.1046(15) 1 d G U P A 2
C5' C 0.0690(11) 0.7665(18) 0.1247(5) 0.0239(5) Uani 0.1046(15) 1 d G U P A 2
H5' H 0.0256 0.8758 0.0803 0.029 Uiso 0.1046(15) 1 d G U P A 2
C6' C 0.1345(10) 0.5567(18) 0.0961(4) 0.0258(5) Uani 0.1046(15) 1 d G U P A 2
H6' H 0.1283 0.5203 0.0316 0.031 Uiso 0.1046(15) 1 d G U P A 2
C7' C 0.2054(10) 0.4067(17) 0.1573(4) 0.0234(4) Uani 0.1046(15) 1 d G U P A 2
H7' H 0.2577 0.2716 0.1355 0.028 Uiso 0.1046(15) 1 d G U P A 2
C8' C 0.2030(8) 0.4474(15) 0.2534(4) 0.0202(4) Uani 0.1046(15) 1 d G U P A 2
C9' C 0.2698(9) 0.2841(14) 0.3195(4) 0.0200(4) Uani 0.1046(15) 1 d G U P A 2
H9' H 0.3150 0.1434 0.2989 0.024 Uiso 0.1046(15) 1 d G U P A 2
C10' C 0.2686(8) 0.3305(13) 0.4121(4) 0.0182(4) Uani 0.1046(15) 1 d G U P A 2
C11' C 0.3293(11) 0.1701(13) 0.4816(5) 0.0198(4) Uani 0.1046(15) 1 d G U P A 2
H11' H 0.3536 0.0196 0.4621 0.024 Uiso 0.1046(15) 1 d G U P A 2
C12' C 0.3542(10) 0.2200(13) 0.5737(4) 0.0213(4) Uani 0.1046(15) 1 d G U P A 2
H12' H 0.4098 0.1127 0.6153 0.026 Uiso 0.1046(15) 1 d G U P A 2
C13' C 0.3229(8) 0.5346(15) 0.7166(4) 0.0193(4) Uani 0.1046(15) 1 d G U P A 2
C14' C 0.2575(10) 0.7381(15) 0.7478(4) 0.0207(4) Uani 0.1046(15) 1 d G U P A 2
H14' H 0.1927 0.8341 0.7050 0.025 Uiso 0.1046(15) 1 d G U P A 2
C15' C 0.2842(12) 0.8057(18) 0.8399(4) 0.0236(5) Uani 0.1046(15) 1 d G U P A 2
H15' H 0.2383 0.9460 0.8604 0.028 Uiso 0.1046(15) 1 d G U P A 2
C16' C 0.3765(11) 0.6687(19) 0.8997(4) 0.0250(5) Uani 0.1046(15) 1 d G U P A 2
H16' H 0.3937 0.7126 0.9632 0.030 Uiso 0.1046(15) 1 d G U P A 2
C17' C 0.4468(10) 0.4654(19) 0.8711(4) 0.0253(5) Uani 0.1046(15) 1 d G U P A 2
H17' H 0.5139 0.3710 0.9135 0.030 Uiso 0.1046(15) 1 d G U P A 2
C18' C 0.4162(9) 0.4045(16) 0.7789(4) 0.0218(4) Uani 0.1046(15) 1 d G U P A 2
H18' H 0.4631 0.2647 0.7584 0.026 Uiso 0.1046(15) 1 d G U P A 2
B1' B 0.2934(7) 0.4468(13) 0.6104(4) 0.0192(4) Uani 0.1046(15) 1 d G U P A 2
N1' N 0.2095(6) 0.5799(12) 0.5365(4) 0.0184(4) Uani 0.1046(15) 1 d G U P A 2
H1' H 0.1550 0.7030 0.5544 0.022 Uiso 0.1046(15) 1 d G U P A 2
loop_
_atom_site_aniso_label
_atom_site_aniso_U_11
_atom_site_aniso_U_22
_atom_site_aniso_U_33
_atom_site_aniso_U_23
_atom_site_aniso_U_13
_atom_site_aniso_U_12
C1 0.0126(8) 0.0196(10) 0.0210(9) 0.0003(7) 0.0004(6) -0.0012(7)
C2 0.0141(7) 0.0161(9) 0.0245(9) 0.0020(7) 0.0034(6) 0.0016(7)
C3 0.0166(8) 0.0174(11) 0.0237(9) 0.0002(7) 0.0040(6) 0.0002(7)
C4 0.0177(8) 0.0214(10) 0.0235(10) -0.0010(8) 0.0016(6) -0.0002(8)
C5 0.0213(8) 0.0268(12) 0.0234(9) -0.0014(8) 0.0003(7) -0.0007(8)
C6 0.0230(9) 0.0305(12) 0.0235(9) 0.0029(9) -0.0027(7) 0.0012(9)
C7 0.0203(8) 0.0248(11) 0.0247(10) 0.0044(8) -0.0011(7) 0.0019(8)
C8 0.0157(8) 0.0209(11) 0.0239(9) 0.0047(8) 0.0010(6) 0.0010(8)
C9 0.0148(8) 0.0175(10) 0.0278(9) 0.0042(8) 0.0035(6) 0.0014(7)
C10 0.0148(7) 0.0145(10) 0.0256(9) -0.0004(7) 0.0044(6) -0.0009(7)
C11 0.0140(8) 0.0145(9) 0.0310(10) 0.0006(8) 0.0026(7) -0.0001(7)
C12 0.0185(8) 0.0174(10) 0.0283(9) -0.0034(8) 0.0045(6) -0.0016(8)
C13 0.0135(7) 0.0189(10) 0.0257(9) -0.0025(7) 0.0021(6) -0.0009(7)
C14 0.0173(8) 0.0200(11) 0.0249(9) -0.0015(8) 0.0022(6) -0.0010(8)
C15 0.0205(9) 0.0232(11) 0.0270(10) 0.0024(8) 0.0020(7) -0.0001(8)
C16 0.0213(9) 0.0296(12) 0.0240(9) 0.0034(8) 0.0017(7) -0.0016(9)
C17 0.0232(9) 0.0283(12) 0.0247(9) -0.0035(8) 0.0041(7) 0.0000(8)
C18 0.0194(8) 0.0221(10) 0.0240(9) -0.0021(8) 0.0028(7) -0.0002(8)
B1 0.0136(8) 0.0192(11) 0.0251(10) -0.0026(9) 0.0027(7) -0.0006(8)
N1 0.0169(7) 0.0162(9) 0.0221(8) -0.0001(7) 0.0013(6) 0.0027(7)
C1' 0.0126(8) 0.0196(10) 0.0210(9) 0.0003(7) 0.0004(6) -0.0012(7)
C2' 0.0141(7) 0.0161(9) 0.0245(9) 0.0020(7) 0.0034(6) 0.0016(7)
C3' 0.0166(8) 0.0174(11) 0.0237(9) 0.0002(7) 0.0040(6) 0.0002(7)
C4' 0.0177(8) 0.0214(10) 0.0235(10) -0.0010(8) 0.0016(6) -0.0002(8)
C5' 0.0213(8) 0.0268(12) 0.0234(9) -0.0014(8) 0.0003(7) -0.0007(8)
C6' 0.0230(9) 0.0305(12) 0.0235(9) 0.0029(9) -0.0027(7) 0.0012(9)
C7' 0.0203(8) 0.0248(11) 0.0247(10) 0.0044(8) -0.0011(7) 0.0019(8)
C8' 0.0157(8) 0.0209(11) 0.0239(9) 0.0047(8) 0.0010(6) 0.0010(8)
C9' 0.0148(8) 0.0175(10) 0.0278(9) 0.0042(8) 0.0035(6) 0.0014(7)
C10' 0.0148(7) 0.0145(10) 0.0256(9) -0.0004(7) 0.0044(6) -0.0009(7)
C11' 0.0140(8) 0.0145(9) 0.0310(10) 0.0006(8) 0.0026(7) -0.0001(7)
C12' 0.0185(8) 0.0174(10) 0.0283(9) -0.0034(8) 0.0045(6) -0.0016(8)
C13' 0.0135(7) 0.0189(10) 0.0257(9) -0.0025(7) 0.0021(6) -0.0009(7)
C14' 0.0173(8) 0.0200(11) 0.0249(9) -0.0015(8) 0.0022(6) -0.0010(8)
C15' 0.0205(9) 0.0232(11) 0.0270(10) 0.0024(8) 0.0020(7) -0.0001(8)
C16' 0.0213(9) 0.0296(12) 0.0240(9) 0.0034(8) 0.0017(7) -0.0016(9)
C17' 0.0232(9) 0.0283(12) 0.0247(9) -0.0035(8) 0.0041(7) 0.0000(8)
C18' 0.0194(8) 0.0221(10) 0.0240(9) -0.0021(8) 0.0028(7) -0.0002(8)
B1' 0.0136(8) 0.0192(11) 0.0251(10) -0.0026(9) 0.0027(7) -0.0006(8)
N1' 0.0169(7) 0.0162(9) 0.0221(8) -0.0001(7) 0.0013(6) 0.0027(7)
loop_
_atom_type_symbol
_atom_type_description
_atom_type_scat_dispersion_real
_atom_type_scat_dispersion_imag
_atom_type_scat_source
C C 0.0181 0.0091 'International Tables Vol C Tables 4.2.6.8 and 6.1.1.4'
H H 0.0000 0.0000 'International Tables Vol C Tables 4.2.6.8 and 6.1.1.4'
B B 0.0090 0.0039 'International Tables Vol C Tables 4.2.6.8 and 6.1.1.4'
N N 0.0311 0.0180 'International Tables Vol C Tables 4.2.6.8 and 6.1.1.4'
loop_
_geom_angle_atom_site_label_1
_geom_angle_atom_site_label_2
_geom_angle_atom_site_label_3
_geom_angle
C2 C1 N1 121.57(18)
C2 C1 C10 120.37(16)
N1 C1 C10 118.02(17)
C1 C2 C3 120.81(18)
C1 C2 H2 119.6
C3 C2 H2 119.6
C2 C3 C4 121.95(18)
C2 C3 C8 119.29(18)
C4 C3 C8 118.76(17)
C5 C4 C3 120.5(2)
C5 C4 H4 119.8
C3 C4 H4 119.8
C4 C5 C6 120.83(19)
C4 C5 H5 119.6
C6 C5 H5 119.6
C7 C6 C5 120.39(18)
C7 C6 H6 119.8
C5 C6 H6 119.8
C6 C7 C8 120.5(2)
C6 C7 H7 119.7
C8 C7 H7 119.7
C9 C8 C7 122.21(19)
C9 C8 C3 118.82(17)
C7 C8 C3 118.98(19)
C10 C9 C8 121.65(18)
C10 C9 H9 119.2
C8 C9 H9 119.2
C9 C10 C1 118.98(17)
C9 C10 C11 120.67(18)
C1 C10 C11 120.31(16)
C12 C11 C10 121.80(19)
C12 C11 H11 119.1
C10 C11 H11 119.1
C11 C12 B1 119.95(18)
C11 C12 H12 120.0
B1 C12 H12 120.0
C18 C13 C14 117.05(17)
C18 C13 B1 119.68(17)
C14 C13 B1 123.27(17)
C15 C14 C13 121.40(18)
C15 C14 H14 119.3
C13 C14 H14 119.3
C16 C15 C14 120.3(2)
C16 C15 H15 119.8
C14 C15 H15 119.8
C15 C16 C17 119.42(18)
C15 C16 H16 120.3
C17 C16 H16 120.3
C18 C17 C16 119.84(19)
C18 C17 H17 120.1
C16 C17 H17 120.1
C17 C18 C13 122.0(2)
C17 C18 H18 119.0
C13 C18 H18 119.0
N1 B1 C12 114.57(17)
N1 B1 C13 121.63(17)
C12 B1 C13 123.78(17)
C1 N1 B1 125.10(17)
C1 N1 H1 117.5
B1 N1 H1 117.5
C2' C1' N1' 122.3
C2' C1' C10' 121.7
N1' C1' C10' 115.9
C1' C2' C3' 119.0
C1' C2' H2' 120.5
C3' C2' H2' 120.5
C8' C3' C2' 120.2
C8' C3' C4' 119.1
C2' C3' C4' 120.6
C5' C4' C3' 121.8
C5' C4' H4' 119.1
C3' C4' H4' 119.1
C4' C5' C6' 118.0
C4' C5' H5' 121.0
C6' C5' H5' 121.0
C7' C6' C5' 121.8
C7' C6' H6' 119.1
C5' C6' H6' 119.1
C6' C7' C8' 120.4
C6' C7' H7' 119.8
C8' C7' H7' 119.8
C3' C8' C7' 118.7
C3' C8' C9' 120.2
C7' C8' C9' 121.1
C10' C9' C8' 119.7
C10' C9' H9' 120.2
C8' C9' H9' 120.2
C9' C10' C1' 119.1
C9' C10' C11' 122.0
C1' C10' C11' 118.8
C12' C11' C10' 123.9
C12' C11' H11' 118.1
C10' C11' H11' 118.1
C11' C12' B1' 120.1
C11' C12' H12' 120.0
B1' C12' H12' 119.9
C18' C13' C14' 117.5
C18' C13' B1' 119.0
C14' C13' B1' 123.5
C13' C14' C15' 121.6
C13' C14' H14' 119.2
C15' C14' H14' 119.2
C16' C15' C14' 118.6
C16' C15' H15' 120.7
C14' C15' H15' 120.7
C15' C16' C17' 121.6
C15' C16' H16' 119.2
C17' C16' H16' 119.2
C18' C17' C16' 117.7
C18' C17' H17' 121.2
C16' C17' H17' 121.2
C13' C18' C17' 122.9
C13' C18' H18' 118.6
C17' C18' H18' 118.6
N1' B1' C12' 110.7
N1' B1' C13' 123.6
C12' B1' C13' 125.6
C1' N1' B1' 129.2
C1' N1' H1' 115.4
B1' N1' H1' 115.4
loop_
_geom_bond_atom_site_label_1
_geom_bond_atom_site_label_2
_geom_bond_distance
C1 C2 1.377(3)
C1 N1 1.401(2)
C1 C10 1.424(3)
C2 C3 1.410(2)
C2 H2 0.9500
C3 C4 1.426(3)
C3 C8 1.429(3)
C4 C5 1.369(3)
C4 H4 0.9500
C5 C6 1.414(3)
C5 H5 0.9500
C6 C7 1.368(3)
C6 H6 0.9500
C7 C8 1.429(3)
C7 H7 0.9500
C8 C9 1.401(3)
C9 C10 1.390(2)
C9 H9 0.9500
C10 C11 1.451(3)
C11 C12 1.355(3)
C11 H11 0.9500
C12 B1 1.541(3)
C12 H12 0.9500
C13 C18 1.405(3)
C13 C14 1.407(3)
C13 B1 1.570(3)
C14 C15 1.394(3)
C14 H14 0.9500
C15 C16 1.390(3)
C15 H15 0.9500
C16 C17 1.399(3)
C16 H16 0.9500
C17 C18 1.389(3)
C17 H17 0.9500
C18 H18 0.9500
B1 N1 1.426(3)
N1 H1 0.8800
C1' C2' 1.3618
C1' N1' 1.3872
C1' C10' 1.4149
C2' C3' 1.4016
C2' H2' 0.9500
C3' C8' 1.3729
C3' C4' 1.4101
C4' C5' 1.3375
C4' H4' 0.9500
C5' C6' 1.4016
C5' H5' 0.9500
C6' C7' 1.3355
C6' H6' 0.9500
C7' C8' 1.4020
C7' H7' 0.9500
C8' C9' 1.4228
C9' C10' 1.3592
C9' H9' 0.9500
C10' C11' 1.4292
C11' C12' 1.3575
C11' H11' 0.9500
C12' B1' 1.5170
C12' H12' 0.9500
C13' C18' 1.3464
C13' C14' 1.3816
C13' B1' 1.6131
C14' C15' 1.3842
C14' H14' 0.9500
C15' C16' 1.3441
C15' H15' 0.9500
C16' C17' 1.3827
C16' H16' 0.9500
C17' C18' 1.3781
C17' H17' 0.9500
C18' H18' 0.9500
B1' N1' 1.4367
N1' H1' 0.8800
loop_
_geom_torsion_atom_site_label_1
_geom_torsion_atom_site_label_2
_geom_torsion_atom_site_label_3
_geom_torsion_atom_site_label_4
_geom_torsion
N1 C1 C2 C3 -174.88(16)
C10 C1 C2 C3 2.9(3)
C1 C2 C3 C4 178.76(17)
C1 C2 C3 C8 -0.9(2)
C2 C3 C4 C5 -178.94(17)
C8 C3 C4 C5 0.7(3)
C3 C4 C5 C6 0.2(3)
C4 C5 C6 C7 -0.6(3)
C5 C6 C7 C8 0.1(3)
C6 C7 C8 C9 -179.07(18)
C6 C7 C8 C3 0.8(3)
C2 C3 C8 C9 -1.7(2)
C4 C3 C8 C9 178.71(17)
C2 C3 C8 C7 178.43(17)
C4 C3 C8 C7 -1.2(2)
C7 C8 C9 C10 -177.94(17)
C3 C8 C9 C10 2.2(3)
C8 C9 C10 C1 -0.1(3)
C8 C9 C10 C11 177.42(16)
C2 C1 C10 C9 -2.4(2)
N1 C1 C10 C9 175.45(16)
C2 C1 C10 C11 180.00(16)
N1 C1 C10 C11 -2.1(2)
C9 C10 C11 C12 -174.31(16)
C1 C10 C11 C12 3.2(3)
C10 C11 C12 B1 0.1(3)
C18 C13 C14 C15 0.9(2)
B1 C13 C14 C15 -179.32(17)
C13 C14 C15 C16 -0.4(3)
C14 C15 C16 C17 -0.4(3)
C15 C16 C17 C18 0.6(3)
C16 C17 C18 C13 0.0(3)
C14 C13 C18 C17 -0.8(3)
B1 C13 C18 C17 179.48(17)
C11 C12 B1 N1 -4.2(2)
C11 C12 B1 C13 174.01(16)
C18 C13 B1 N1 174.65(17)
C14 C13 B1 N1 -5.1(3)
C18 C13 B1 C12 -3.5(3)
C14 C13 B1 C12 176.80(16)
C2 C1 N1 B1 175.35(16)
C10 C1 N1 B1 -2.5(3)
C12 B1 N1 C1 5.5(3)
C13 B1 N1 C1 -172.75(16)
N1' C1' C2' C3' 178.5
C10' C1' C2' C3' -2.4
C1' C2' C3' C8' 0.2
C1' C2' C3' C4' -177.5
C8' C3' C4' C5' 2.2
C2' C3' C4' C5' 179.9
C3' C4' C5' C6' 0.2
C4' C5' C6' C7' -4.0
C5' C6' C7' C8' 5.3
C2' C3' C8' C7' -178.6
C4' C3' C8' C7' -0.8
C2' C3' C8' C9' 1.8
C4' C3' C8' C9' 179.5
C6' C7' C8' C3' -2.8
C6' C7' C8' C9' 176.8
C3' C8' C9' C10' -1.6
C7' C8' C9' C10' 178.8
C8' C9' C10' C1' -0.5
C8' C9' C10' C11' 178.1
C2' C1' C10' C9' 2.6
N1' C1' C10' C9' -178.3
C2' C1' C10' C11' -176.1
N1' C1' C10' C11' 3.0
C9' C10' C11' C12' 170.2
C1' C10' C11' C12' -11.1
C10' C11' C12' B1' 8.6
C18' C13' C14' C15' -0.9
B1' C13' C14' C15' 179.2
C13' C14' C15' C16' 0.1
C14' C15' C16' C17' 1.0
C15' C16' C17' C18' -1.3
C14' C13' C18' C17' 0.6
B1' C13' C18' C17' -179.5
C16' C17' C18' C13' 0.5
C11' C12' B1' N1' 1.4
C11' C12' B1' C13' -176.7
C18' C13' B1' N1' -174.4
C14' C13' B1' N1' 5.4
C18' C13' B1' C12' 3.4
C14' C13' B1' C12' -176.7
C2' C1' N1' B1' -173.0
C10' C1' N1' B1' 8.0
C12' B1' N1' C1' -10.1
C13' B1' N1' C1' 168.1
