#------------------------------------------------------------------------------
#$Date: 2016-04-20 13:06:24 +0300 (Wed, 20 Apr 2016) $
#$Revision: 182221 $
#$URL: svn://www.crystallography.net/cod/cif/7/15/45/7154572.cif $
#------------------------------------------------------------------------------
#
# This file is available in the Crystallography Open Database (COD),
# http://www.crystallography.net/
#
# All data on this site have been placed in the public domain by the
# contributors.
#
data_7154572
loop_
_publ_author_name
'Jana, Sadhan'
'Ashokan, Athira'
'Kumar, Shailesh'
'Verma, Ajay'
'Kumar, Sangit'
_publ_section_title
;
 Copper-catalyzed trifluoromethylation of alkenes: synthesis of
 trifluoromethylated benzoxazines.
;
_journal_issue                   31
_journal_name_full               'Organic &amp; biomolecular chemistry'
_journal_page_first              8411
_journal_page_last               8415
_journal_paper_doi               10.1039/c5ob01196e
_journal_volume                  13
_journal_year                    2015
_chemical_formula_moiety         'C17  H13  N1  O1  F4'
_chemical_formula_sum            'C17 H13 F4 N O'
_chemical_formula_weight         323.28
_chemical_name_systematic
;
 ?
;
_space_group_IT_number           2
_symmetry_cell_setting           triclinic
_symmetry_Int_Tables_number      2
_symmetry_space_group_name_Hall  '-P 1'
_symmetry_space_group_name_H-M   'P -1'
_atom_sites_solution_hydrogens   geom
_audit_conform_dict_location     ftp://ftp.iucr.org/pub/cif_core.dic
_audit_conform_dict_name         cif_core.dic
_audit_conform_dict_version      2.4.3
_audit_creation_date             2015-03-08T16:22:13-00:00
_audit_creation_method           'WinGX routine CIF_UPDATE'
_audit_update_record
;
2015-05-26 deposited with the CCDC.
2015-07-02 downloaded from the CCDC.
;
_cell_angle_alpha                75.006(4)
_cell_angle_beta                 89.015(4)
_cell_angle_gamma                78.726(4)
_cell_formula_units_Z            2
_cell_length_a                   7.3417(10)
_cell_length_b                   10.0649(14)
_cell_length_c                   10.3982(14)
_cell_measurement_reflns_used    0
_cell_measurement_temperature    296(2)
_cell_measurement_theta_max      0
_cell_measurement_theta_min      0
_cell_measurement_wavelength     0.71073
_cell_volume                     727.42(17)
_computing_cell_refinement       'Bruker SAINT'
_computing_data_collection       'Bruker APEX2'
_computing_data_reduction        'Bruker SAINT'
_computing_molecular_graphics    'Ortep for Windows (Farrugia, 2012)'
_computing_publication_material  'WinGX publication routines (Farrugia, 2012)'
_computing_structure_refinement  'SHELXL-2014 (Sheldrick, 2014)'
_computing_structure_solution    'SHELXS-97 (Sheldrick 2008)'
_diffrn_ambient_temperature      296(2)
_diffrn_measured_fraction_theta_full 0.998
_diffrn_measured_fraction_theta_max 0.993
_diffrn_measurement_device_type  'Bruker APEX-II CCD'
_diffrn_measurement_method       '\f and \w scans'
_diffrn_radiation_probe          x-ray
_diffrn_radiation_type           MoK\a
_diffrn_radiation_wavelength     0.71073
_diffrn_reflns_av_R_equivalents  0.0366
_diffrn_reflns_laue_measured_fraction_full 0.998
_diffrn_reflns_laue_measured_fraction_max 0.993
_diffrn_reflns_limit_h_max       9
_diffrn_reflns_limit_h_min       -9
_diffrn_reflns_limit_k_max       12
_diffrn_reflns_limit_k_min       -12
_diffrn_reflns_limit_l_max       13
_diffrn_reflns_limit_l_min       -13
_diffrn_reflns_number            21469
_diffrn_reflns_point_group_measured_fraction_full 0.998
_diffrn_reflns_point_group_measured_fraction_max 0.993
_diffrn_reflns_theta_full        25.242
_diffrn_reflns_theta_max         26.435
_diffrn_reflns_theta_min         2.029
_exptl_absorpt_coefficient_mu    0.127
_exptl_absorpt_correction_type   none
_exptl_crystal_colour            COLOURLESS
_exptl_crystal_density_diffrn    1.476
_exptl_crystal_density_method    'not measured'
_exptl_crystal_description       needle
_exptl_crystal_F_000             332
_exptl_crystal_size_max          0
_exptl_crystal_size_mid          0
_exptl_crystal_size_min          0
_refine_diff_density_max         0.213
_refine_diff_density_min         -0.202
_refine_diff_density_rms         0.048
_refine_ls_extinction_method     none
_refine_ls_goodness_of_fit_ref   1.033
_refine_ls_hydrogen_treatment    constr
_refine_ls_matrix_type           full
_refine_ls_number_constraints    0
_refine_ls_number_parameters     209
_refine_ls_number_reflns         2970
_refine_ls_number_restraints     0
_refine_ls_restrained_S_all      1.033
_refine_ls_R_factor_all          0.0819
_refine_ls_R_factor_gt           0.0481
_refine_ls_shift/su_max          0
_refine_ls_shift/su_mean         0
_refine_ls_structure_factor_coef Fsqd
_refine_ls_weighting_details
'w=1/[\s^2^(Fo^2^)+(0.0607P)^2^+0.2254P] where P=(Fo^2^+2Fc^2^)/3'
_refine_ls_weighting_scheme      calc
_refine_ls_wR_factor_gt          0.1194
_refine_ls_wR_factor_ref         0.1373
_reflns_number_gt                1980
_reflns_number_total             2970
_reflns_threshold_expression     'I > 2\s(I)'
_iucr_refine_instructions_details
;
TITL FNLKK_a.res in P-1
CELL  0.71073   7.3417  10.0649  10.3982   75.006   89.015   78.726
ZERR     2.00   0.0010   0.0014   0.0014    0.004    0.004    0.004
LATT   1
SFAC  C    H    N    O    F
UNIT  34   26   2    2    8
MERG   2
FMAP   2
PLAN    2
ACTA
BOND   $H
L.S.  70
TEMP  -273.15
WGHT    0.060700    0.225400
FVAR       1.17603
O1    4    0.835536    0.356946    0.400872    11.00000    0.08414    0.03549 =
         0.03196   -0.00602    0.00181    0.00152
F1    5    0.856414   -0.137385    0.907519    11.00000    0.13468    0.04738 =
         0.05375    0.00754    0.00633   -0.01610
F4    5    0.704361    0.339275    0.055138    11.00000    0.12960    0.10613 =
         0.07535   -0.05649    0.00570   -0.01665
F2    5    0.680283    0.211700    0.249414    11.00000    0.17867    0.04410 =
         0.09892   -0.01699   -0.04779   -0.01387
N1    3    0.734264    0.488466    0.552428    11.00000    0.06464    0.03554 =
         0.03794   -0.00955    0.00532   -0.01016
F3    5    0.439017    0.326342    0.131756    11.00000    0.10653    0.10052 =
         0.12340   -0.05038   -0.02199   -0.03573
C1    1    0.723224    0.613436    0.450584    11.00000    0.04374    0.03519 =
         0.04190   -0.00897    0.00187   -0.00902
C11   1    0.786724    0.372463    0.522493    11.00000    0.04266    0.03898 =
         0.03213   -0.00871   -0.00073   -0.00749
C12   1    0.806460    0.236723    0.623448    11.00000    0.03949    0.03812 =
         0.03726   -0.00814   -0.00046   -0.00584
C7    1    0.786708    0.473125    0.281948    11.00000    0.05881    0.03544 =
         0.03111   -0.00453    0.00211   -0.00490
C17   1    0.836238    0.110952    0.587720    11.00000    0.06525    0.04089 =
         0.03669   -0.00974   -0.00052   -0.00816
AFIX  43
H17   2    0.845186    0.111742    0.496284    11.00000   -1.20000
AFIX   0
C6    1    0.749085    0.612288    0.318408    11.00000    0.05101    0.03559 =
         0.04025   -0.00619    0.00147   -0.00801
C8    1    0.606508    0.457331    0.220617    11.00000    0.06127    0.04309 =
         0.04255   -0.00983    0.00120   -0.00815
AFIX  23
H8A   2    0.511216    0.456251    0.289211    11.00000   -1.20000
H8B   2    0.564204    0.542474    0.147120    11.00000   -1.20000
AFIX   0
C13   1    0.793211    0.233782    0.757595    11.00000    0.06509    0.04190 =
         0.03876   -0.01120    0.00055   -0.00743
AFIX  43
H13   2    0.772676    0.319196    0.783541    11.00000   -1.20000
AFIX   0
C2    1    0.683843    0.740533    0.484639    11.00000    0.06425    0.04251 =
         0.04980   -0.01602    0.00454   -0.01261
AFIX  43
H2    2    0.668284    0.741096    0.575397    11.00000   -1.20000
AFIX   0
C3    1    0.667134    0.865655    0.388245    11.00000    0.06137    0.03639 =
         0.06778   -0.01528    0.00214   -0.00969
AFIX  43
H3    2    0.639623    0.952085    0.412324    11.00000   -1.20000
AFIX   0
C14   1    0.809573    0.108221    0.853212    11.00000    0.08001    0.05336 =
         0.03405   -0.00647    0.00423   -0.01014
AFIX  43
H14   2    0.800516    0.106045    0.944953    11.00000   -1.20000
AFIX   0
C4    1    0.690482    0.864805    0.256990    11.00000    0.07437    0.03593 =
         0.06288   -0.00092    0.00093   -0.01236
AFIX  43
H4    2    0.678089    0.950856    0.190032    11.00000   -1.20000
AFIX   0
C10   1    0.954734    0.458474    0.196311    11.00000    0.06505    0.05286 =
         0.05482   -0.01409    0.01507   -0.00773
AFIX 137
H10A  2    1.062661    0.472328    0.241723    11.00000   -1.50000
H10B  2    0.929897    0.529104    0.110572    11.00000   -1.50000
H10C  2    0.980329    0.364512    0.181244    11.00000   -1.50000
AFIX   0
C16   1    0.853064   -0.015232    0.682797    11.00000    0.07464    0.03641 =
         0.05000   -0.00991    0.00159   -0.00919
AFIX  43
H16   2    0.873821   -0.101344    0.658104    11.00000   -1.20000
AFIX   0
C5    1    0.731917    0.739049    0.222367    11.00000    0.08208    0.04431 =
         0.04357   -0.00294    0.00590   -0.01123
AFIX  43
H5    2    0.748900    0.739347    0.131522    11.00000   -1.20000
AFIX   0
C15   1    0.839120   -0.013254    0.813433    11.00000    0.06769    0.03964 =
         0.04324    0.00314    0.00057   -0.00952
C9    1    0.609501    0.332274    0.166971    11.00000    0.08045    0.06107 =
         0.05052   -0.01752   -0.01126   -0.00838
HKLF    4
REM  FNLKK_a.res in P-1
REM R1 =  0.0481 for    1980 Fo > 4sig(Fo)  and  0.0819 for all    2970 data
REM    209 parameters refined using      0 restraints
END
;
_cod_data_source_file            c5ob01196e3.cif
_cod_data_source_block           SJ_AA_121
_cod_depositor_comments
'Adding full bibliography for 7154572--7154574.cif.'
_cod_database_code               7154572
_iucr_refine_reflections_details
;
  -1   0   0  -12.80    0.50
  -1   0   0  -12.50    0.30
  -1   0   0  -12.70    0.30
  -1   0   0  -12.70    0.50
  -1   0   0  -12.70    0.30
  -1   0   0  -12.20    0.50
  -1   0   0  -13.20    0.50
  -1   0   0  -12.20    0.30
   1   0   0  -12.70    0.50
   1   0   0  -13.00    0.50
   1   0   0  -12.70    0.50
   1   0   0  -13.10    0.30
   1   0   0  -12.70    0.40
  -2   0   0 9999.00  226.88
  -3   0   0  203.08    7.00
  -3   0   0  217.78    6.80
  -3   0   0  212.88    5.60
  -3   0   0  207.48    6.00
  -3   0   0  212.78    7.10
  -3   0   0  204.58    5.60
  -3   0   0  205.18    5.60
   3   0   0  209.38    7.10
   3   0   0  208.38    6.10
   3   0   0  209.68    6.60
   3   0   0  209.68    5.70
  -4   0   0   14.60    1.60
  -4   0   0   11.50    2.10
  -4   0   0   11.90    1.60
  -4   0   0   12.20    2.60
  -4   0   0    7.10    2.10
  -4   0   0    9.30    1.40
  -4   0   0   10.80    2.30
  -4   0   0   11.30    2.30
  -4   0   0   10.50    1.50
   4   0   0    6.90    2.10
   4   0   0   11.10    1.40
   4   0   0   11.50    1.70
   4   0   0   11.10    2.10
  -5   0   0   54.09    5.10
  -5   0   0   67.79    5.60
  -5   0   0   49.90    4.70
  -5   0   0   65.19    3.20
  -5   0   0   53.59    5.00
  -5   0   0   56.99    2.90
  -5   0   0   48.30    5.10
  -5   0   0   43.20    4.30
  -5   0   0   61.29    3.70
   5   0   0   59.49    4.60
   5   0   0   60.09    3.70
   5   0   0   50.29    4.20
  -6   0   0   50.39    4.30
  -6   0   0   54.99    6.30
  -6   0   0   54.79    4.50
  -6   0   0   59.19    4.10
   6   0   0   55.09    5.30
  -7   0   0   16.00    3.10
  -7   0   0   22.20    5.50
  -7   0   0   13.20    3.90
  -7   0   0   18.40    3.20
   7   0   0   19.30    4.40
   7   0   0   14.00    4.00
  -8   0   0    6.70    6.30
  -8   0   0   12.40    3.90
   8   0   0   15.10    5.60
   8   0   0    5.60    5.30
   8  -1   0    2.80    5.30
   8  -1   0    5.60    5.30
  -8   1   0    1.90    6.20
  -8   1   0    0.20    4.00
   7  -1   0   -0.50    4.50
   7  -1   0    1.90    4.20
  -7   1   0    2.30    4.40
  -7   1   0    0.80    2.00
  -7   1   0   -2.10    3.60
  -7   1   0   -0.20    2.60
   6  -1   0   -1.80    2.80
   6  -1   0    0.30    2.40
   6  -1   0   -1.80    2.90
  -6   1   0   -1.30    1.80
  -6   1   0    2.50    1.60
  -6   1   0    1.10    3.40
  -6   1   0    2.20    2.60
  -6   1   0   -2.10    2.10
  -6   1   0   -3.10    3.30
   5  -1   0    2.10    2.40
   5  -1   0    1.30    1.90
   5  -1   0    2.10    2.50
  -5   1   0    3.60    3.20
  -5   1   0    5.00    2.10
  -5   1   0    0.20    2.20
  -5   1   0   -0.20    1.40
  -5   1   0    2.20    2.90
  -5   1   0    2.00    2.70
  -5   1   0    1.80    2.30
  -5   1   0   -0.10    2.40
  -5   1   0    1.50    1.20
   4  -1   0   23.80    3.10
   4  -1   0   24.20    2.50
   4  -1   0   19.60    2.50
  -4   1   0   20.00    1.90
  -4   1   0   22.80    1.90
  -4   1   0   23.30    3.10
  -4   1   0   22.90    1.70
  -4   1   0   21.40    2.60
  -4   1   0   22.60    3.00
  -4   1   0   19.50    2.70
  -4   1   0   22.00    2.30
  -4   1   0   25.90    2.60
   3  -1   0  120.89    4.90
   3  -1   0  122.79    5.00
   3  -1   0  123.59    4.60
  -3   1   0  123.89    3.80
  -3   1   0  124.29    4.90
  -3   1   0  127.09    4.80
  -3   1   0  117.99    3.40
  -3   1   0  122.79    3.30
  -3   1   0  123.39    4.50
  -3   1   0  121.69    5.10
  -3   1   0  125.49    5.10
  -3   1   0  114.99    4.80
   2  -1   0  697.73   16.90
   2  -1   0  714.03   17.60
   2  -1   0  699.53   17.40
   2  -1   0  712.93   17.50
   2  -1   0  679.03   17.20
  -2   1   0  684.03   17.40
  -2   1   0  700.53   17.40
  -2   1   0  697.23   16.80
  -2   1   0  692.03   17.50
  -2   1   0  710.23   17.10
  -2   1   0  707.73   17.10
  -2   1   0  686.43   16.60
   1  -1   0    1.80    0.60
   1  -1   0    2.10    0.50
   1  -1   0    1.30    0.60
   1  -1   0    2.20    0.70
   1  -1   0    2.90    0.80
  -1   1   0    2.50    0.60
  -1   1   0    2.90    0.30
  -1   1   0    3.00    0.70
  -1   1   0    4.00    0.60
  -1   1   0    3.10    0.60
  -1   1   0    2.90    0.70
  -1   1   0    3.10    0.80
  -1   1   0    3.40    0.30
  -1   1   0    2.20    0.60
  -1  -1   0 2737.23   61.89
  -1  -1   0 2593.14   61.89
  -1  -1   0 2841.52   61.99
  -1  -1   0 2763.82   62.09
   1   1   0 2694.43   62.09
   1   1   0 2687.33   62.09
   1   1   0 2697.93   61.89
  -2  -1   0  988.40   22.70
  -2  -1   0  970.60   22.60
  -2  -1   0  999.90   23.10
  -2  -1   0  988.40   22.70
  -2  -1   0  968.00   22.30
  -2  -1   0  867.71   23.10
  -2  -1   0  966.90   23.30
   2   1   0  983.30   22.50
   2   1   0  947.51   22.80
   2   1   0  970.30   22.60
   2   1   0  982.50   22.60
   2   1   0  946.31   23.10
  -3  -1   0  894.81   21.50
  -3  -1   0  908.61   22.60
  -3  -1   0  874.71   22.30
  -3  -1   0  889.11   22.30
  -3  -1   0  887.51   21.20
  -3  -1   0  907.81   21.50
  -3  -1   0  897.31   21.30
   3   1   0  920.71   21.00
   3   1   0  884.71   21.90
   3   1   0  900.81   22.60
   3   1   0  897.11   21.10
   3   1   0  903.41   21.30
  -4  -1   0 2234.38   51.19
  -4  -1   0 2254.17   53.09
  -4  -1   0 2210.58   52.59
  -4  -1   0 2156.98   51.09
  -4  -1   0 2205.38   52.59
  -4  -1   0 2192.78   51.39
  -4  -1   0 2107.99   53.19
  -4  -1   0 2304.97   51.49
   4   1   0 2223.58   50.29
   4   1   0 2181.68   50.29
   4   1   0 2177.88   52.99
   4   1   0 2213.18   52.29
   4   1   0 2232.38   51.19
  -5  -1   0  114.39    4.80
  -5  -1   0  119.69    6.80
  -5  -1   0  104.09    4.80
  -5  -1   0  112.39    6.50
  -5  -1   0  119.09    4.50
  -5  -1   0  133.69    6.40
  -5  -1   0  133.89    6.60
  -5  -1   0  125.69    5.20
  -5  -1   0  106.99    6.20
   5   1   0  122.09    6.10
   5   1   0  122.09    5.70
   5   1   0  123.99    4.60
  -6  -1   0  755.02   20.30
  -6  -1   0  752.92   19.60
  -6  -1   0  754.72   22.20
  -6  -1   0  809.92   23.20
  -6  -1   0  779.42   20.20
  -6  -1   0  744.03   21.40
  -6  -1   0  794.92   19.40
   6   1   0  817.62   21.70
   6   1   0  797.52   22.70
   6   1   0  787.42   19.80
  -7  -1   0   15.90    2.70
  -7  -1   0   11.00    4.80
  -7  -1   0   13.30    4.10
  -7  -1   0   17.60    2.50
  -7  -1   0   14.80    3.20
   7   1   0   12.00    4.30
   7   1   0   12.90    3.80
  -8  -1   0   11.10    4.40
  -8  -1   0    3.40    6.60
  -8  -1   0    7.20    4.10
   8   1   0    5.10    4.60
   8   1   0    4.90    4.80
  -9  -1   0   -1.70    8.00
  -9  -1   0    4.80    5.60
   9   1   0    1.70    6.80
   9   1   0   -8.30    6.00
   8  -2   0    9.10    5.80
   8  -2   0  -11.10    5.30
  -8   2   0    3.90    5.40
  -8   2   0   -3.40    6.00
   7  -2   0   10.10    4.00
   7  -2   0   11.60    4.50
   7  -2   0   -1.00    4.30
  -7   2   0    9.30    5.30
  -7   2   0   14.60    2.30
  -7   2   0   10.30    3.00
  -7   2   0   10.70    5.20
  -7   2   0    9.30    4.90
  -7   2   0    3.60    9.50
   6  -2   0    3.00    3.30
   6  -2   0    2.90    3.10
   6  -2   0   -2.60    2.70
  -6   2   0    2.40    3.00
  -6   2   0   -2.50    2.00
  -6   2   0    1.00    3.00
  -6   2   0   -1.00    3.40
  -6   2   0   -1.50    3.50
  -6   2   0    3.30    3.00
   5  -2   0   63.99    5.00
   5  -2   0   46.80    4.60
   5  -2   0   55.19    5.00
  -5   2   0   56.49    6.00
  -5   2   0   58.29    4.90
  -5   2   0   47.80    4.80
  -5   2   0   52.79    3.00
  -5   2   0   56.99    5.30
  -5   2   0   59.89    4.70
  -5   2   0   49.40    5.60
  -5   2   0   50.69    3.20
   4  -2   0   13.50    2.60
   4  -2   0   10.30    2.10
   4  -2   0    9.50    2.30
  -4   2   0   13.40    2.50
  -4   2   0   11.00    1.30
  -4   2   0   12.00    2.60
  -4   2   0   10.60    2.60
  -4   2   0   12.20    2.60
  -4   2   0   10.70    1.20
  -4   2   0   11.60    2.20
  -4   2   0    9.00    2.10
  -4   2   0    9.40    2.70
  -4   2   0   12.90    1.70
   3  -2   0    9.70    1.50
   3  -2   0   14.50    2.30
   3  -2   0    8.20    1.60
   3  -2   0    6.90    1.90
   3  -2   0   10.10    1.90
  -3   2   0   15.20    2.40
  -3   2   0    7.10    1.60
  -3   2   0   10.70    1.10
  -3   2   0   11.40    1.20
  -3   2   0   12.30    1.90
  -3   2   0   11.80    1.80
  -3   2   0   11.80    2.00
  -3   2   0    7.40    1.90
  -3   2   0   11.90    2.00
   2  -2   0  468.75   11.90
   2  -2   0  480.45   12.60
   2  -2   0  479.35   12.40
   2  -2   0  451.05   12.60
  -2   2   0  460.25   12.50
  -2   2   0  474.25   11.10
  -2   2   0  473.25   12.70
  -2   2   0  464.25   12.10
  -2   2   0  483.65   11.90
  -2   2   0  476.55   12.70
  -2   2   0  473.15   11.20
   1  -2   0 3624.64   85.49
   1  -2   0 3720.33   85.39
   1  -2   0 3781.72   85.09
   1  -2   0 3710.53   84.79
   1  -2   0 3745.33   85.49
  -1   2   0 3697.53   85.09
  -1   2   0 3555.84   85.29
  -1   2   0 3805.32   85.39
  -1   2   0 3787.92   84.79
  -1   2   0 3672.63   84.49
  -1   2   0 3732.73   85.49
  -1   2   0 3814.22   84.79
   0  -2   0  196.88    5.60
   0  -2   0  199.78    5.60
   0  -2   0  191.38    5.50
   0  -2   0  199.88    5.30
   0  -2   0  197.68    5.30
   0  -2   0  202.68    5.30
   0   2   0  204.88    5.60
   0   2   0  196.18    5.60
   0   2   0  206.78    5.30
   0   2   0  201.78    5.60
   0   2   0  210.18    5.40
   0   2   0  196.18    5.50
   0   2   0  199.38    5.30
  -1  -2   0   11.40    1.00
  -1  -2   0   11.90    1.20
  -1  -2   0   11.00    1.20
  -1  -2   0   12.00    1.30
  -1  -2   0   12.70    1.30
  -1  -2   0   10.30    0.90
   1   2   0   10.30    1.10
   1   2   0    9.80    0.90
   1   2   0   11.20    1.20
   1   2   0   11.00    1.30
   1   2   0   10.80    1.20
  -2  -2   0  327.07    9.00
  -2  -2   0  329.27    8.80
  -2  -2   0  337.07    8.70
  -2  -2   0  324.47    8.70
   2   2   0  329.37    8.70
   2   2   0  332.67    8.80
   2   2   0  328.47    8.70
   2   2   0  334.47    8.70
  -3  -2   0  489.65   13.40
  -3  -2   0  447.46   13.10
  -3  -2   0  499.15   13.20
  -3  -2   0  501.65   12.90
  -3  -2   0  505.95   13.60
   3   2   0  486.95   13.60
   3   2   0  520.05   12.60
   3   2   0  509.85   12.90
   3   2   0  497.75   12.70
   3   2   0  520.35   13.30
  -4  -2   0  130.79    5.60
  -4  -2   0  126.69    4.70
  -4  -2   0  127.89    5.90
  -4  -2   0  127.29    4.00
  -4  -2   0  125.09    4.90
  -4  -2   0  133.99    5.90
  -4  -2   0  134.89    4.90
   4   2   0  133.59    5.00
   4   2   0  124.89    4.60
   4   2   0  135.89    4.40
   4   2   0  130.79    5.90
  -5  -2   0  238.98    7.30
  -5  -2   0  234.28    7.70
  -5  -2   0  217.88    8.80
  -5  -2   0  235.18    9.20
  -5  -2   0  224.08    6.50
  -5  -2   0  228.38    7.80
  -5  -2   0  231.88    9.00
  -5  -2   0  247.98    9.50
   5   2   0  230.98    7.30
   5   2   0  227.08    8.00
   5   2   0  219.48    6.40
   5   2   0  231.68    9.10
   5   2   0  233.78    6.50
  -6  -2   0   35.80    3.50
  -6  -2   0   37.20    5.20
  -6  -2   0   34.70    3.70
  -6  -2   0   41.00    4.10
  -6  -2   0   32.40    4.60
  -6  -2   0   32.40    2.90
   6   2   0   36.10    4.00
   6   2   0   44.50    4.00
   6   2   0   30.60    4.10
  -7  -2   0    2.20    4.70
  -7  -2   0    0.30    1.90
  -7  -2   0    1.80    2.30
  -7  -2   0    9.10    4.10
  -7  -2   0   -3.70    3.10
   7   2   0   -2.80    3.80
   7   2   0   -2.80    2.70
   7   2   0    1.20    3.20
  -8  -2   0   23.10    7.00
  -8  -2   0   19.10    3.30
  -8  -2   0   22.60    4.60
   8   2   0   29.00    5.70
   8   2   0   23.30    5.90
  -9  -2   0   -5.80    8.00
   9   2   0    5.40    6.20
   9   2   0   -5.70    5.60
   8  -3   0  -10.60    5.40
   8  -3   0    7.90    6.30
  -8   3   0   17.40    7.20
  -8   3   0    5.90    6.20
   7  -3   0    2.20    4.60
   7  -3   0   14.90    5.20
  -7   3   0    6.40    3.70
  -7   3   0    0.40    4.80
  -7   3   0   10.10    3.10
  -7   3   0   13.80    5.50
   6  -3   0   10.60    3.90
   6  -3   0    5.10    3.80
   6  -3   0    5.80    4.60
  -6   3   0    9.70    2.40
  -6   3   0    9.10    4.10
  -6   3   0    7.30    2.50
  -6   3   0    9.00    4.10
  -6   3   0    2.70    3.60
  -6   3   0    9.70    2.60
  -6   3   0    9.80    2.20
   5  -3   0   -1.80    2.70
   5  -3   0   -0.90    2.50
  -5   3   0   -0.20    3.30
  -5   3   0    5.80    2.90
  -5   3   0    4.00    1.60
  -5   3   0   -1.40    2.60
  -5   3   0    0.10    1.60
  -5   3   0   -0.60    2.80
  -5   3   0    0.70    2.70
   4  -3   0    2.80    2.10
   4  -3   0    4.70    2.00
   4  -3   0    4.40    2.30
  -4   3   0    4.30    1.70
  -4   3   0    5.60    2.90
  -4   3   0    3.50    1.40
  -4   3   0    5.90    2.40
  -4   3   0    7.80    1.30
  -4   3   0    2.10    2.30
  -4   3   0    6.00    2.40
  -4   3   0    6.10    2.90
  -4   3   0    8.90    2.50
  -4   3   0    3.20    2.10
   3  -3   0  241.28    7.30
   3  -3   0  249.58    8.50
   3  -3   0  237.18    8.20
   3  -3   0  243.18    8.40
  -3   3   0  254.17    7.90
  -3   3   0  249.38    8.30
  -3   3   0  241.68    6.50
  -3   3   0  241.38    8.60
  -3   3   0  251.37    8.30
  -3   3   0  237.68    7.40
  -3   3   0  241.58    6.50
  -3   3   0  248.28    8.70
  -3   3   0  243.98    8.20
   2  -3   0   -0.30    1.30
   2  -3   0   -0.30    1.30
   2  -3   0   -0.30    1.40
   2  -3   0    1.30    1.20
   2  -3   0    1.00    1.00
  -2   3   0    1.80    1.20
  -2   3   0   -0.90    1.30
  -2   3   0    1.50    1.30
  -2   3   0    0.70    0.80
  -2   3   0   -0.50    1.10
  -2   3   0    1.10    0.80
  -2   3   0    1.10    1.30
  -2   3   0    0.00    1.40
  -2   3   0   -0.30    1.10
   1  -3   0   36.40    2.00
   1  -3   0   39.70    2.60
   1  -3   0   35.30    1.70
   1  -3   0   38.70    2.70
   1  -3   0   38.40    2.20
   1  -3   0   34.80    2.50
   1  -3   0   33.50    1.60
  -1   3   0   37.50    2.60
  -1   3   0   38.00    2.40
  -1   3   0   36.90    1.90
  -1   3   0   34.10    1.90
  -1   3   0   36.80    2.10
  -1   3   0   34.10    2.40
  -1   3   0   37.60    1.70
   0  -3   0    8.80    1.40
   0  -3   0   10.50    1.40
   0  -3   0    6.70    1.30
   0  -3   0    9.20    1.20
   0  -3   0    5.80    1.10
  -1  -3   0  330.37    8.80
  -1  -3   0  327.57    9.10
  -1  -3   0  329.27    8.00
  -1  -3   0  321.37    9.00
  -1  -3   0  338.37    8.80
  -1  -3   0  335.27    8.70
  -1  -3   0  323.57    8.90
   1   3   0  337.67    8.90
   1   3   0  330.67    9.00
   1   3   0  322.47    8.80
   1   3   0  330.27    9.10
   1   3   0  323.87    8.00
  -2  -3   0   88.49    3.60
  -2  -3   0   87.49    3.20
  -2  -3   0   91.49    3.60
  -2  -3   0   80.19    3.70
  -2  -3   0   81.89    3.60
   2   3   0   86.29    3.80
   2   3   0   87.19    3.20
   2   3   0   80.99    3.70
   2   3   0   88.49    3.50
   2   3   0   86.19    3.50
  -3  -3   0   57.99    3.50
  -3  -3   0   60.69    3.20
  -3  -3   0   60.59    3.30
  -3  -3   0   60.59    3.10
  -3  -3   0   53.89    3.10
   3   3   0   50.69    3.00
   3   3   0   60.19    3.50
   3   3   0   54.79    3.00
   3   3   0   61.89    3.30
   3   3   0   57.79    3.20
   3   3   0   57.59    3.50
  -4  -3   0   42.80    3.00
  -4  -3   0   44.40    4.20
  -4  -3   0   39.20    3.00
  -4  -3   0   39.00    3.80
  -4  -3   0   36.10    3.50
   4   3   0   34.00    2.80
   4   3   0   34.50    2.90
   4   3   0   39.70    2.90
   4   3   0   35.00    3.40
  -5  -3   0   14.40    3.30
  -5  -3   0   16.60    3.40
  -5  -3   0   14.60    2.30
  -5  -3   0   15.20    3.00
  -5  -3   0   15.00    1.40
  -5  -3   0   14.60    2.50
   5   3   0   11.00    2.20
   5   3   0   13.00    2.00
   5   3   0    8.40    2.80
   5   3   0   12.90    2.30
   5   3   0   15.50    2.20
  -6  -3   0    4.00    2.00
  -6  -3   0    1.90    3.30
  -6  -3   0    6.50    3.50
  -6  -3   0    1.60    1.30
  -6  -3   0   -0.30    2.50
  -6  -3   0   -0.10    4.10
   6   3   0    0.60    2.80
   6   3   0    6.10    2.60
   6   3   0    7.40    1.80
   6   3   0    0.60    2.50
   6   3   0    1.20    2.90
  -7  -3   0   19.70    4.80
  -7  -3   0   27.40    5.80
  -7  -3   0   30.90    3.60
  -7  -3   0   30.70    2.30
  -7  -3   0   27.00    4.00
   7   3   0   25.80    4.10
   7   3   0   34.70    4.00
   7   3   0   19.50    4.80
  -8  -3   0    4.40    3.20
  -8  -3   0    5.60    6.00
  -8  -3   0    7.30    4.60
   8   3   0    3.10    4.60
   8   3   0   -1.70    5.10
  -9  -3   0   -7.40    5.90
  -9  -3   0   -7.80    7.60
   9   3   0   -0.10    5.90
   9   3   0    9.20    6.40
   7  -4   0    1.90    5.20
   7  -4   0    5.10    5.80
  -7   4   0   -3.10    5.80
  -7   4   0    4.90    5.50
  -7   4   0   -8.60    3.20
   6  -4   0    3.00    4.10
   6  -4   0   -5.10    3.90
  -6   4   0   -0.20    2.80
  -6   4   0   -0.20    4.30
  -6   4   0    1.70    2.60
  -6   4   0   -3.80    2.20
  -6   4   0   -0.30    4.60
  -6   4   0    3.30    2.50
  -6   4   0    2.30    4.50
   5  -4   0   26.90    4.50
   5  -4   0   29.60    4.30
  -5   4   0   27.40    4.40
  -5   4   0   29.50    3.00
  -5   4   0   30.20    5.10
  -5   4   0   26.10    3.20
  -5   4   0   27.00    3.20
  -5   4   0   34.00    3.40
  -5   4   0   27.60    4.00
  -5   4   0   44.70    5.00
   4  -4   0    6.20    3.00
   4  -4   0    7.60    2.40
   4  -4   0    4.80    2.90
   4  -4   0    8.10    2.80
  -4   4   0    4.70    2.70
  -4   4   0    5.00    2.70
  -4   4   0    4.60    2.10
  -4   4   0    6.40    1.70
  -4   4   0    6.40    2.50
  -4   4   0    4.70    3.20
  -4   4   0    6.20    1.60
  -4   4   0    7.80    2.90
  -4   4   0    8.90    2.80
   3  -4   0   86.79    5.40
   3  -4   0   90.39    5.20
   3  -4   0   92.19    4.30
   3  -4   0   90.89    5.00
  -3   4   0   87.19    4.40
  -3   4   0   91.39    4.40
  -3   4   0   93.89    4.90
  -3   4   0   96.29    5.30
  -3   4   0   92.39    5.20
  -3   4   0   88.79    5.70
  -3   4   0   92.19    4.50
  -3   4   0   88.99    5.20
  -3   4   0   82.49    4.10
  -3   4   0   90.19    3.60
   2  -4   0   11.90    2.30
   2  -4   0   10.30    2.20
   2  -4   0    8.20    2.00
   2  -4   0   11.10    1.70
   2  -4   0   12.00    2.40
  -2   4   0   10.10    2.00
  -2   4   0   10.50    1.60
  -2   4   0   11.10    2.10
  -2   4   0    9.90    1.40
  -2   4   0   10.60    1.50
  -2   4   0   10.60    1.50
  -2   4   0   11.00    1.90
  -2   4   0   11.00    2.40
  -2   4   0    9.20    1.70
  -2   4   0   10.10    2.00
   1  -4   0   11.60    1.40
   1  -4   0   11.80    1.70
   1  -4   0   11.10    1.40
   1  -4   0   11.80    1.30
   1  -4   0   13.60    2.10
   1  -4   0   12.10    2.00
   1  -4   0   15.70    2.20
  -1   4   0    9.50    1.70
  -1   4   0   11.80    1.30
  -1   4   0   12.80    2.00
  -1   4   0   15.40    1.70
  -1   4   0   11.40    1.60
  -1   4   0   11.30    1.90
  -1   4   0   14.80    2.30
  -1   4   0    9.80    1.80
   0  -4   0  151.88    5.50
   0  -4   0  145.69    4.90
   0  -4   0  151.98    4.90
   0  -4   0  139.09    5.30
   0  -4   0  147.09    4.80
   0   4   0  149.39    5.50
   0   4   0  152.98    5.30
   0   4   0  152.38    5.00
   0   4   0  146.99    5.40
   0   4   0  146.39    4.80
   0   4   0  147.89    5.40
   0   4   0  150.28    5.00
  -1  -4   0   90.29    4.20
  -1  -4   0   85.69    3.70
  -1  -4   0   90.19    2.50
  -1  -4   0   77.39    3.80
  -1  -4   0   92.69    3.80
  -1  -4   0   89.19    3.70
  -1  -4   0   85.39    3.70
   1   4   0   87.39    4.00
   1   4   0   93.19    3.70
   1   4   0   89.79    3.90
   1   4   0   83.89    3.80
  -2  -4   0  209.68    7.00
  -2  -4   0  209.38    6.80
  -2  -4   0  214.28    7.10
  -2  -4   0  212.38    6.00
  -2  -4   0  214.98    6.90
   2   4   0  215.78    6.90
   2   4   0  218.98    7.10
   2   4   0  213.58    7.20
   2   4   0  213.28    6.80
   2   4   0  216.58    6.10
  -3  -4   0    2.90    1.50
  -3  -4   0    4.80    1.70
  -3  -4   0    4.20    1.50
  -3  -4   0    3.90    1.70
  -3  -4   0    1.90    1.80
  -3  -4   0    2.70    0.90
   3   4   0    1.20    1.60
   3   4   0    3.20    1.50
   3   4   0    4.90    1.70
   3   4   0    4.60    1.80
  -4  -4   0   89.49    4.70
  -4  -4   0   88.39    4.80
  -4  -4   0  100.19    4.80
  -4  -4   0   94.49    4.90
  -4  -4   0   87.59    5.40
   4   4   0   91.89    4.70
   4   4   0  101.69    4.80
   4   4   0   93.79    5.20
   4   4   0   96.49    4.70
   4   4   0   88.39    4.90
  -5  -4   0   13.00    3.40
  -5  -4   0    9.10    3.20
  -5  -4   0    9.40    2.50
  -5  -4   0   10.50    3.20
  -5  -4   0   12.10    2.60
  -5  -4   0    9.80    1.40
   5   4   0   10.10    3.00
   5   4   0    9.20    2.20
   5   4   0   14.80    2.70
   5   4   0   10.70    2.30
   5   4   0   11.60    2.60
  -6  -4   0   20.10    3.40
  -6  -4   0   16.40    4.00
  -6  -4   0   14.20    3.30
   6   4   0   21.10    3.40
   6   4   0   14.20    3.50
   6   4   0   16.10    2.80
   6   4   0   21.00    3.10
   6   4   0   18.40    3.10
  -7  -4   0   16.00    3.90
  -7  -4   0   12.90    5.20
  -7  -4   0   10.60    3.40
   7   4   0    9.60    2.50
   7   4   0   11.00    3.50
   7   4   0    5.50    3.60
   7   4   0    7.80    2.80
   7   4   0    9.70    4.60
  -8  -4   0    1.80    3.60
  -8  -4   0   10.20    6.20
  -8  -4   0    0.70    5.40
   8   4   0    7.40    4.70
   8   4   0   -0.30    4.50
  -9  -4   0    0.70    6.30
  -9  -4   0   14.20    8.90
   9   4   0  -16.00    6.60
   9   4   0   -0.70    5.70
   7  -5   0   -0.50    5.90
   7  -5   0   12.90    6.20
  -7   5   0   -3.40    6.20
  -7   5   0    3.10    6.50
   6  -5   0   12.50    5.10
   6  -5   0   14.50    5.70
  -6   5   0   14.50    2.90
  -6   5   0   16.70    5.40
  -6   5   0   14.30    3.80
  -6   5   0   22.00    5.80
   5  -5   0   17.50    4.60
   5  -5   0   16.80    4.40
   5  -5   0   16.70    3.50
  -5   5   0    9.80    4.10
  -5   5   0   20.10    3.30
  -5   5   0   20.20    4.60
  -5   5   0   19.60    4.40
  -5   5   0   17.60    2.50
  -5   5   0   22.30    3.00
  -5   5   0   16.70    3.50
   4  -5   0   -0.40    2.20
   4  -5   0    3.10    3.00
   4  -5   0    0.40    2.70
   4  -5   0   -2.40    3.20
  -4   5   0    2.10    1.70
  -4   5   0    0.60    2.40
  -4   5   0    1.60    2.60
  -4   5   0    3.20    3.00
  -4   5   0   -1.60    2.90
  -4   5   0   -2.40    2.80
  -4   5   0    1.50    2.00
   3  -5   0   21.00    3.30
   3  -5   0   18.70    3.20
   3  -5   0   22.50    3.50
   3  -5   0   22.80    2.70
  -3   5   0   19.50    2.60
  -3   5   0   22.60    3.30
  -3   5   0   23.00    3.10
  -3   5   0   23.40    3.50
  -3   5   0   21.70    2.40
  -3   5   0   21.80    2.80
  -3   5   0   22.20    2.20
  -3   5   0   18.30    3.50
  -3   5   0   23.10    3.70
   2  -5   0    2.80    2.00
   2  -5   0    2.10    1.70
   2  -5   0    0.40    2.10
   2  -5   0    8.70    2.90
   2  -5   0    5.10    2.30
  -2   5   0    4.10    1.60
  -2   5   0    5.40    1.60
  -2   5   0    2.30    1.40
  -2   5   0    3.60    2.40
  -2   5   0    1.00    2.00
  -2   5   0    3.40    1.50
  -2   5   0    6.20    2.20
  -2   5   0    2.80    1.80
   1  -5   0    2.00    1.90
   1  -5   0    1.00    1.50
   1  -5   0   -0.50    1.20
   1  -5   0    2.00    1.80
   1  -5   0   -0.50    1.10
   1  -5   0    3.40    1.40
  -1   5   0    0.60    1.30
  -1   5   0    0.70    1.70
  -1   5   0   -1.50    1.60
  -1   5   0    1.20    0.80
  -1   5   0    2.10    2.00
  -1   5   0   -0.30    1.40
  -1   5   0   -0.80    1.10
  -1   5   0    1.00    1.60
   0  -5   0   98.49    4.70
   0  -5   0   94.19    4.80
   0  -5   0  102.49    4.30
   0  -5   0   96.89    4.10
   0  -5   0   88.89    4.10
   0   5   0   96.19    4.10
   0   5   0   95.49    4.10
   0   5   0   95.39    4.70
   0   5   0   96.99    4.80
   0   5   0   97.29    4.40
   0   5   0   94.79    4.60
   0   5   0   98.39    4.80
  -1  -5   0  155.48    5.60
  -1  -5   0  156.38    5.80
  -1  -5   0  159.58    5.60
  -1  -5   0  156.68    6.00
  -1  -5   0  155.58    6.20
  -1  -5   0  146.19    5.60
   1   5   0  157.58    5.80
   1   5   0  149.99    6.10
   1   5   0  158.58    6.00
  -2  -5   0  111.79    5.10
  -2  -5   0  104.59    4.80
  -2  -5   0  110.29    3.70
  -2  -5   0  105.59    5.00
  -2  -5   0   99.69    4.40
  -2  -5   0   99.49    4.70
  -2  -5   0  103.39    5.10
   2   5   0  100.79    4.80
   2   5   0  106.89    5.20
   2   5   0  105.09    4.80
  -3  -5   0    9.50    2.20
  -3  -5   0   17.60    2.90
  -3  -5   0   15.00    2.30
  -3  -5   0   17.50    2.10
  -3  -5   0   14.10    1.80
  -3  -5   0   14.10    2.30
   3   5   0   18.80    2.80
   3   5   0   18.10    2.70
   3   5   0   11.00    2.30
   3   5   0   16.50    2.60
  -4  -5   0    0.40    2.20
  -4  -5   0   -1.10    2.00
  -4  -5   0    0.20    2.80
  -4  -5   0    3.60    2.40
  -4  -5   0   -2.10    1.90
   4   5   0   -2.20    1.90
   4   5   0    0.50    2.10
   4   5   0   -1.60    2.10
   4   5   0    0.60    1.90
   4   5   0   -1.10    2.20
  -5  -5   0   29.10    3.80
  -5  -5   0   30.70    3.60
  -5  -5   0   34.60    2.50
  -5  -5   0   29.20    4.70
  -5  -5   0   36.20    4.40
  -5  -5   0   27.90    4.00
   5   5   0   45.30    5.00
   5   5   0   32.00    3.90
   5   5   0   30.70    3.70
   5   5   0   38.30    4.10
   5   5   0   32.20    3.80
  -6  -5   0    5.60    3.10
  -6  -5   0    7.40    3.40
   6   5   0    9.40    3.90
   6   5   0   15.20    3.70
   6   5   0   13.70    3.00
   6   5   0    8.30    3.60
   6   5   0   13.10    3.10
  -7  -5   0    0.30    3.10
  -7  -5   0    1.00    3.60
   7   5   0    5.20    3.20
   7   5   0    1.00    4.00
   7   5   0   -0.20    3.90
   7   5   0   -6.00    3.40
   7   5   0    2.50    2.90
  -8  -5   0   -0.70    5.20
  -8  -5   0    6.60    4.00
  -8  -5   0   10.00    6.50
   8   5   0    2.40    5.30
   8   5   0   -0.90    4.30
   6  -6   0    4.40    6.10
   6  -6   0    0.50    5.40
  -6   6   0    5.10    5.60
  -6   6   0   -5.90    5.40
  -6   6   0    6.70    4.10
  -6   6   0   -4.10    3.10
   5  -6   0   13.50    3.80
   5  -6   0   16.10    5.10
   5  -6   0   17.80    5.10
  -5   6   0   11.00    4.10
  -5   6   0   17.80    4.70
  -5   6   0   18.40    4.80
  -5   6   0   16.90    3.80
  -5   6   0   12.60    4.60
  -5   6   0   13.40    2.90
   4  -6   0   79.09    7.30
   4  -6   0   63.39    6.80
   4  -6   0   73.79    5.30
  -4   6   0   63.99    6.00
  -4   6   0   70.09    5.30
  -4   6   0   62.39    4.30
  -4   6   0   61.49    6.60
  -4   6   0   63.69    6.30
  -4   6   0   73.79    6.10
   3  -6   0   13.30    3.40
   3  -6   0    9.60    3.00
   3  -6   0    7.60    3.50
   3  -6   0    7.50    2.50
  -3   6   0    9.00    2.80
  -3   6   0    8.50    2.70
  -3   6   0    2.20    2.30
  -3   6   0    3.50    2.40
  -3   6   0    3.50    2.00
  -3   6   0    5.60    2.90
   2  -6   0   56.99    2.40
   2  -6   0   54.79    2.40
   2  -6   0   51.89    4.70
   2  -6   0   60.99    6.10
   2  -6   0   55.59    4.00
   2  -6   0   51.79    5.20
  -2   6   0   54.49    4.00
  -2   6   0   62.69    5.20
  -2   6   0   62.19    4.90
  -2   6   0   53.29    5.10
  -2   6   0   54.49    3.80
  -2   6   0   59.19    5.90
  -2   6   0   58.99    4.20
  -2   6   0   52.09    3.20
   1  -6   0  100.39    4.30
   1  -6   0  105.69    6.20
   1  -6   0   93.09    5.00
   1  -6   0   98.19    4.70
   1  -6   0  105.99    6.00
   1  -6   0   99.79    4.30
  -1   6   0   90.49    5.50
  -1   6   0   97.19    5.50
  -1   6   0   95.79    4.80
  -1   6   0   98.19    5.50
  -1   6   0  100.99    4.80
  -1   6   0   93.39    3.10
  -1   6   0  104.19    4.60
  -1   6   0  105.19    6.20
   0  -6   0  205.88    6.80
   0  -6   0  195.38    7.00
   0  -6   0  187.58    7.60
   0  -6   0  201.88    8.00
   0  -6   0  205.58    7.00
   0   6   0  200.38    7.90
   0   6   0  205.18    6.90
   0   6   0  209.48    8.00
   0   6   0  203.28    7.60
   0   6   0  195.78    7.10
   0   6   0  192.88    7.00
  -1  -6   0   52.49    3.80
  -1  -6   0   48.10    4.40
  -1  -6   0   49.60    3.80
  -1  -6   0   62.29    4.10
  -1  -6   0   51.89    3.80
  -1  -6   0   45.70    4.40
   1   6   0   51.49    4.00
   1   6   0   47.30    3.60
   1   6   0   47.40    4.10
   1   6   0   49.99    4.00
   1   6   0   49.40    4.10
  -2  -6   0    1.50    2.40
  -2  -6   0    1.60    1.90
  -2  -6   0   -2.40    2.00
  -2  -6   0   -0.90    1.50
  -2  -6   0   -0.50    2.00
  -2  -6   0    2.30    1.90
  -2  -6   0   -0.50    1.00
   2   6   0    1.40    1.80
   2   6   0    1.80    2.10
   2   6   0    2.40    2.10
   2   6   0    1.70    2.50
  -3  -6   0   16.40    2.90
  -3  -6   0   25.80    3.60
  -3  -6   0   17.70    2.20
  -3  -6   0   16.10    3.30
  -3  -6   0   20.30    3.10
  -3  -6   0   19.20    2.90
  -3  -6   0   15.80    2.20
   3   6   0   14.00    2.40
   3   6   0   23.00    3.20
   3   6   0   21.70    3.40
   3   6   0   13.30    2.70
  -4  -6   0   13.00    2.70
  -4  -6   0   12.30    2.80
  -4  -6   0    7.60    3.00
  -4  -6   0   12.40    2.00
  -4  -6   0   19.90    4.00
  -4  -6   0   17.50    3.30
   4   6   0    7.40    2.90
   4   6   0   22.50    3.50
   4   6   0   16.20    3.10
   4   6   0   15.10    3.30
   4   6   0   10.10    2.70
  -5  -6   0   67.69    6.10
  -5  -6   0   58.59    5.40
  -5  -6   0   54.09    3.60
  -5  -6   0   57.59    5.50
   5   6   0   52.89    5.70
   5   6   0   44.50    4.60
   5   6   0   55.49    5.60
   5   6   0   55.19    6.00
   5   6   0   57.69    5.50
  -6  -6   0    2.00    3.30
  -6  -6   0    1.90    1.60
  -6  -6   0    9.30    3.50
   6   6   0    1.70    3.20
  -7  -6   0   53.89    5.50
  -7  -6   0   68.19    7.20
   7   6   0   50.49    5.20
   7   6   0   49.40    6.50
   7   6   0   44.40    5.10
  -8  -6   0   11.00    5.20
  -8  -6   0   19.20    7.70
  -8  -6   0    8.10    5.70
   8   6   0   13.20    4.80
   8   6   0    1.20    5.50
   8   6   0   13.30    4.90
   6  -7   0   19.60    7.30
   6  -7   0    9.60    7.20
  -6   7   0   10.40    6.90
   5  -7   0   98.49   10.00
   5  -7   0   87.29    7.60
   5  -7   0  111.39    9.70
  -5   7   0   76.19    6.00
  -5   7   0   90.59    8.70
  -5   7   0  106.29   10.00
   4  -7   0  308.47   10.90
   4  -7   0  313.77   13.30
   4  -7   0  344.17   14.00
   4  -7   0  283.57   12.50
  -4   7   0  302.27   10.10
  -4   7   0  297.87   11.10
  -4   7   0  303.77   11.70
  -4   7   0  307.07   13.10
  -4   7   0  290.87   12.00
  -4   7   0  307.27   11.00
   3  -7   0   37.80    3.90
   3  -7   0   35.80    4.60
   3  -7   0   31.10    5.00
  -3   7   0   39.20    5.00
  -3   7   0   34.00    4.10
  -3   7   0   50.99    5.20
  -3   7   0   38.70    3.50
  -3   7   0   36.40    4.90
  -3   7   0   35.10    3.70
   2  -7   0  479.25   11.90
   2  -7   0  479.85   14.30
   2  -7   0  486.75   15.80
   2  -7   0  477.05   11.80
   2  -7   0  481.55   14.00
  -2   7   0  473.15   12.40
  -2   7   0  458.45   14.90
  -2   7   0  492.95   15.80
  -2   7   0  470.55   14.10
  -2   7   0  476.55   13.90
  -2   7   0  499.15   13.80
   1  -7   0   30.30    3.80
   1  -7   0   43.50    4.00
   1  -7   0   39.30    3.90
   1  -7   0   38.70    3.70
   1  -7   0   42.10    3.40
  -1   7   0   37.40    3.90
  -1   7   0   34.10    3.70
  -1   7   0   47.90    5.50
  -1   7   0   44.60    5.00
  -1   7   0   37.00    4.10
  -1   7   0   31.30    3.80
   0  -7   0   38.80    4.20
   0  -7   0   42.20    3.70
   0  -7   0   41.50    4.10
   0  -7   0   39.40    4.40
   0  -7   0   37.80    4.30
   0   7   0   48.50    5.40
   0   7   0   46.50    4.50
   0   7   0   39.40    3.80
   0   7   0   42.00    3.90
   0   7   0   45.60    4.70
   0   7   0   49.20    4.60
  -1  -7   0  206.88    7.90
  -1  -7   0  180.88    8.50
  -1  -7   0  214.88    7.80
  -1  -7   0  206.38    7.80
  -1  -7   0  212.78    8.30
   1   7   0  214.68    8.70
   1   7   0  201.18    7.90
   1   7   0  198.48    8.30
   1   7   0  195.58    8.30
   1   7   0  210.78    8.00
  -2  -7   0   73.59    5.80
  -2  -7   0   77.09    5.80
  -2  -7   0   80.39    5.10
  -2  -7   0   70.79    4.90
  -2  -7   0   70.79    5.20
  -2  -7   0   77.79    5.40
   2   7   0   74.19    5.30
   2   7   0   81.39    5.10
   2   7   0   71.09    5.90
   2   7   0   81.39    5.40
  -3  -7   0   49.60    3.40
  -3  -7   0   45.10    4.80
  -3  -7   0   56.79    5.40
  -3  -7   0   36.80    4.30
  -3  -7   0   50.39    4.20
   3   7   0   59.49    6.30
   3   7   0   37.70    4.30
   3   7   0   47.50    4.70
  -4  -7   0   94.89    8.20
  -4  -7   0   94.29    5.50
  -4  -7   0   96.09    5.10
  -4  -7   0   97.19    6.50
  -4  -7   0   91.59    6.20
   4   7   0   92.39    6.00
   4   7   0   99.39    7.00
  -5  -7   0   -1.90    3.50
  -5  -7   0    3.60    3.30
  -5  -7   0    3.30    2.20
  -5  -7   0   -5.00    2.90
   5   7   0    5.50    3.20
   5   7   0    3.90    3.30
   5   7   0    3.10    3.50
  -6  -7   0    6.00    3.40
  -6  -7   0    8.90    4.00
  -6  -7   0    2.70    4.00
   6   7   0   10.50    4.30
   6   7   0    2.70    4.10
   6   7   0    5.60    3.60
  -7  -7   0   12.40    4.80
  -7  -7   0   11.70    4.70
   7   7   0    3.50    3.90
   7   7   0   -0.30    4.40
   7   7   0    0.10    5.50
  -8  -7   0   20.00    8.20
  -8  -7   0    0.60    6.10
  -8  -7   0   -1.20    5.90
   8   7   0    4.30    4.70
   8   7   0   -1.20    5.10
   8   7   0    9.70    6.60
   5  -8   0   12.10    6.70
   5  -8   0    9.40    4.80
  -5   8   0   12.60    6.50
  -5   8   0   -4.20    5.30
  -5   8   0    0.30    4.10
   4  -8   0    4.10    5.20
   4  -8   0    4.80    3.80
  -4   8   0   -0.50    3.20
  -4   8   0    7.40    4.20
  -4   8   0    7.90    5.50
   3  -8   0  148.99    9.20
   3  -8   0  121.79    9.60
   3  -8   0  134.59    7.40
  -3   8   0  125.59    6.40
  -3   8   0  136.89    9.80
  -3   8   0  139.69    6.90
  -3   8   0  136.99    8.50
  -3   8   0  129.59    7.60
   2  -8   0  286.97   12.40
   2  -8   0  279.77    9.90
   2  -8   0  268.27    7.50
   2  -8   0  264.17    7.40
   2  -8   0  264.47   10.60
  -2   8   0  274.57   13.40
  -2   8   0  271.57    7.60
  -2   8   0  281.57   10.00
  -2   8   0  275.67    9.80
  -2   8   0  266.67   10.40
   1  -8   0 1572.64   38.40
   1  -8   0 1545.05   40.50
   1  -8   0 1573.54   37.40
   1  -8   0 1536.65   37.20
   1  -8   0 1527.35   38.30
  -1   8   0 1552.34   38.10
  -1   8   0 1581.34   38.60
  -1   8   0 1470.95   38.60
  -1   8   0 1547.85   40.20
   0  -8   0  911.21   25.60
   0  -8   0  893.11   23.70
   0  -8   0  965.80   24.10
   0  -8   0  930.01   24.20
   0  -8   0  896.11   24.00
   0   8   0  903.41   25.70
   0   8   0  921.81   23.90
   0   8   0  888.01   24.30
  -1  -8   0  679.53   19.00
  -1  -8   0  657.73   18.80
  -1  -8   0  687.23   20.00
  -1  -8   0  697.93   19.10
   1   8   0  682.63   19.40
   1   8   0  675.03   20.20
   1   8   0  689.73   20.10
  -2  -8   0  909.61   24.70
  -2  -8   0  928.51   24.90
  -2  -8   0  878.61   24.40
   2   8   0  925.41   24.80
   2   8   0  921.71   25.70
   2   8   0  922.31   25.00
  -3  -8   0   -0.90    2.70
  -3  -8   0    4.90    4.10
  -3  -8   0    5.20    2.70
  -3  -8   0   -1.00    3.30
  -3  -8   0   -1.50    1.70
   3   8   0    0.50    2.90
   3   8   0    1.30    2.70
  -4  -8   0   30.40    3.50
  -4  -8   0   28.50    5.10
  -4  -8   0   29.30    4.70
  -4  -8   0   34.80    3.70
   4   8   0   28.50    4.30
   4   8   0   24.90    4.40
  -5  -8   0    8.00    4.40
  -5  -8   0   -2.80    4.00
  -5  -8   0    2.30    4.00
  -5  -8   0    8.30    2.90
   5   8   0    5.40    4.20
   5   8   0   10.20    3.70
  -6  -8   0    0.70    2.80
  -6  -8   0   10.50    4.50
  -6  -8   0   10.60    5.20
   6   8   0   10.10    4.20
   6   8   0    3.70    4.90
   6   8   0    6.60    4.50
  -7  -8   0    3.90    5.30
  -7  -8   0    6.30    5.70
   7   8   0   -6.50    4.40
   7   8   0   -5.70    5.30
   4  -9   0   -1.70    6.30
   4  -9   0    1.30    4.50
  -4   9   0   -0.20    4.10
  -4   9   0   -7.40    6.40
  -4   9   0   -3.30    5.10
   3  -9   0    5.40    5.60
   3  -9   0    1.90    3.90
  -3   9   0   11.70    4.10
  -3   9   0    4.70    5.40
  -3   9   0   11.20    4.30
   2  -9   0   -1.60    3.30
   2  -9   0   -3.40    4.30
  -2   9   0   -2.40    3.50
  -2   9   0   -3.70    3.50
  -2   9   0    1.20    4.50
   1  -9   0   11.60    3.10
   1  -9   0    8.90    3.60
   1  -9   0   11.00    3.60
   1  -9   0   18.00    4.40
   1  -9   0   12.30    4.30
  -1   9   0   17.30    3.50
  -1   9   0   10.80    4.30
  -1   9   0    7.90    3.10
   0  -9   0  128.69    8.10
   0  -9   0  125.69    7.10
   0  -9   0  120.89    8.40
   0  -9   0  111.69    7.70
   0  -9   0  129.39    6.90
   0   9   0  124.09    8.10
   0   9   0  119.29    7.10
  -1  -9   0    1.20    3.00
  -1  -9   0    1.70    3.50
  -1  -9   0    1.00    3.60
   1   9   0   -0.50    4.40
   1   9   0    2.40    3.30
  -2  -9   0   57.79    5.70
  -2  -9   0   62.99    5.90
  -2  -9   0   59.69    6.60
   2   9   0   50.99    7.00
  -3  -9   0   64.19    6.60
  -3  -9   0   73.19    6.60
   3   9   0   50.79    6.30
   3   9   0   60.09    6.30
   3   9   0   63.89    7.20
  -4  -9   0  393.36   13.20
  -4  -9   0  375.96   14.10
  -4  -9   0  385.86   11.20
  -4  -9   0  377.96   15.00
   4   9   0  366.56   14.90
   4   9   0  369.66   14.20
  -5  -9   0  168.08   10.50
  -5  -9   0  155.78    8.50
  -5  -9   0  168.78   10.00
   5   9   0  177.58   10.90
   5   9   0  163.88   10.20
   5   9   0  165.28    9.60
  -6  -9   0  140.19    8.10
  -6  -9   0  168.28   11.80
  -6  -9   0  169.08   10.40
   6   9   0  156.58   10.80
   6   9   0  145.29   11.50
   6   9   0  146.89   10.20
  -7  -9   0   -8.70    6.00
  -7  -9   0    4.60    6.80
   7   9   0    5.20    5.80
   7   9   0    5.60    6.50
   7   9   0   12.40    7.00
   3 -10   0   -2.50    4.80
   3 -10   0    9.90    6.40
  -3  10   0    0.90    4.90
  -3  10   0    1.50    6.10
   2 -10   0   10.00    5.40
   2 -10   0    5.20    4.40
  -2  10   0   -1.50    4.20
  -2  10   0    3.10    4.50
  -2  10   0    8.10    5.50
   1 -10   0    6.00    4.70
   1 -10   0    8.00    4.10
   1 -10   0    4.30    3.40
  -1  10   0    3.90    4.90
  -1  10   0    2.90    4.00
  -1  10   0   -2.00    3.70
   0 -10   0   19.50    5.40
   0 -10   0   13.20    3.90
   0 -10   0   25.80    4.80
   0  10   0   26.30    5.70
   0  10   0   17.40    4.60
  -1 -10   0   -1.80    3.80
  -1 -10   0    1.70    4.20
  -1 -10   0    4.40    5.10
   1  10   0   -1.70    3.80
   1  10   0   -1.10    3.80
  -2 -10   0   27.10    5.20
  -2 -10   0   30.00    5.60
  -2 -10   0   18.10    4.90
   2  10   0   20.90    4.40
   2  10   0   24.50    5.40
  -3 -10   0   28.20    5.20
  -3 -10   0   34.80    5.90
   3  10   0   42.10    6.40
   3  10   0   26.20    5.10
  -4 -10   0   21.80    5.30
  -4 -10   0   16.10    4.60
   4  10   0   10.30    5.60
   4  10   0   11.60    5.00
  -5 -10   0    0.60    5.00
  -5 -10   0   -6.00    4.10
   5  10   0   11.00    5.40
   5  10   0    1.60    5.30
  -6 -10   0    0.30    5.80
   6  10   0   -5.40    5.80
   6  10   0   13.50    6.50
   6  10   0   -1.10    6.30
   2 -11   0    0.10    5.50
   2 -11   0  -13.30    6.70
  -2  11   0    5.40    6.70
  -2  11   0    5.50    5.50
   1 -11   0    1.30    6.10
   1 -11   0    1.60    4.90
  -1  11   0    3.80    4.80
  -1  11   0    2.40    5.40
   0 -11   0    2.00    4.30
   0 -11   0    1.00    4.80
   0 -11   0    4.40    5.40
   0  11   0   -1.00    4.60
   0  11   0    0.30    5.40
  -1 -11   0   11.80    5.50
  -1 -11   0    9.80    4.30
  -1 -11   0    5.90    4.90
   1  11   0    6.80    4.90
   1  11   0    9.80    5.20
  -2 -11   0   -8.80    4.80
  -2 -11   0   -0.50    4.90
   2  11   0    2.10    4.60
   2  11   0   -5.20    5.20
  -3 -11   0    7.20    5.40
  -3 -11   0   17.20    6.00
   3  11   0   16.00    5.50
   3  11   0   21.80    6.00
  -4 -11   0  -12.10    5.60
  -4 -11   0   -1.10    5.60
   4  11   0  -13.80    5.60
   4  11   0   -0.20    4.90
  -5 -11   0    6.60    5.20
  -5 -11   0   -5.60    6.10
   5  11   0   12.20    7.10
   5  11   0   15.50    6.50
  -1 -12   0   -9.50    5.90
  -1 -12   0    1.90    6.30
  -1 -12   0   -0.80    5.40
   1  12   0   -0.10    6.00
   1  12   0    0.00    7.00
  -2 -12   0    7.50    6.30
  -2 -12   0    2.20    6.20
   2  12   0    2.70    5.90
   2  12   0   -1.60    6.80
  -3 -12   0    5.40    6.10
  -3 -12   0    7.60    6.10
   3  12   0    7.60    7.40
   3  12   0    3.60    6.40
   5  11  -1   -1.90    6.30
   5  11  -1    4.70    6.40
  -5 -11   1    0.60    6.40
   4  11  -1   19.10    6.70
   4  11  -1   10.90    6.10
  -4 -11   1   15.20    6.70
  -4 -11   1   15.50    6.20
   3  11  -1    2.00    5.20
   3  11  -1    9.10    6.40
  -3 -11   1   -1.90    5.50
  -3 -11   1   -1.10    5.40
   2  11  -1    6.40    6.10
   2  11  -1   16.10    5.70
  -2 -11   1    5.60    5.80
  -2 -11   1    3.20    5.10
   1  11  -1    6.30    6.30
   1  11  -1    7.30    4.80
  -1 -11   1   -2.60    6.00
  -1 -11   1    7.10    5.90
  -1 -11   1    2.80    4.70
   0  11  -1    1.40    5.60
   0  11  -1    3.90    5.20
   0 -11   1  -19.10    6.00
   0 -11   1    1.40    4.50
   0 -11   1    1.30    5.10
  -1  11  -1   -0.10    5.20
  -1  11  -1   -7.50    6.20
   1 -11   1    0.10    6.30
   1 -11   1    5.80    5.30
   6  10  -1    0.70    7.10
   6  10  -1    2.40    6.00
   6  10  -1    5.40    6.30
  -6 -10   1   10.30    6.40
   5  10  -1    5.00    5.40
   5  10  -1    2.50    6.00
   5  10  -1    7.50    5.40
  -5 -10   1   -1.20    4.30
  -5 -10   1    4.40    5.50
   4  10  -1    7.70    5.70
   4  10  -1    7.90    5.30
  -4 -10   1    8.70    5.00
  -4 -10   1    0.00    4.30
   3  10  -1   -1.20    4.60
   3  10  -1    0.70    4.70
  -3 -10   1    3.30    4.70
  -3 -10   1   -3.70    4.20
   2  10  -1    0.90    4.40
   2  10  -1   -4.30    4.40
  -2 -10   1    2.80    7.70
  -2 -10   1   -4.20    4.10
   1  10  -1    8.50    4.90
   1  10  -1   13.30    4.40
  -1 -10   1    3.50    4.90
  -1 -10   1    6.10    3.90
  -1 -10   1    3.40    3.90
   0  10  -1    5.30    4.30
   0  10  -1    1.40    5.10
   0 -10   1   -7.40    3.70
   0 -10   1    4.70    5.00
   0 -10   1    2.60    3.70
  -1  10  -1   26.50    5.50
  -1  10  -1   20.20    5.40
   1 -10   1   16.80    5.80
   1 -10   1   24.20    5.30
   1 -10   1   25.10    5.00
  -2  10  -1    1.70    5.50
  -2  10  -1    2.40    4.70
   2 -10   1    3.30    6.20
   2 -10   1   -8.40    4.60
  -3  10  -1   -4.30    5.20
  -3  10  -1    7.50    6.40
   3 -10   1    4.20    5.90
   3 -10   1    4.10    7.20
   7   9  -1   10.80    7.40
   7   9  -1   18.40    7.10
  -7  -9   1    9.80    6.70
   6   9  -1   18.40    6.20
   6   9  -1   22.50    5.80
   6   9  -1   20.90    6.50
  -6  -9   1   21.70    5.90
   5   9  -1    7.10    4.50
   5   9  -1    6.40    4.60
   5   9  -1   11.00    5.90
  -5  -9   1    6.00    4.90
  -5  -9   1    4.90    3.60
   4   9  -1    4.40    4.30
   4   9  -1   -3.30    4.40
  -4  -9   1    0.30    4.50
  -4  -9   1    2.50    3.50
   3   9  -1   44.60    5.60
   3   9  -1   44.80    5.90
  -3  -9   1   55.09    5.30
  -3  -9   1   44.40    6.00
  -3  -9   1   41.50    5.10
   2   9  -1   -2.30    3.70
   2   9  -1    0.90    3.40
  -2  -9   1   -0.90    3.50
  -2  -9   1    4.50    3.40
  -2  -9   1    1.20    4.00
   1   9  -1   11.30    4.40
  -1  -9   1    5.60    3.50
  -1  -9   1    8.30    3.80
  -1  -9   1   15.10    4.30
   0   9  -1   59.69    6.50
   0   9  -1   62.29    5.80
   0  -9   1   54.19    4.90
   0  -9   1   69.29    6.80
   0  -9   1   39.50    5.60
   0  -9   1   48.20    5.10
   0  -9   1   52.79    5.50
  -1   9  -1   11.30    4.80
  -1   9  -1    4.00    3.40
   1  -9   1    7.90    3.70
   1  -9   1    5.80    4.30
   1  -9   1    8.90    3.60
   1  -9   1   11.00    4.90
   1  -9   1    8.40    3.00
  -2   9  -1   -1.20    4.40
  -2   9  -1   -5.30    3.10
  -2   9  -1    2.30    3.50
   2  -9   1   -4.40    3.80
   2  -9   1    4.10    4.90
  -3   9  -1   -3.00    4.00
  -3   9  -1    7.00    4.20
  -3   9  -1    4.30    5.30
   3  -9   1    0.60    5.40
   3  -9   1    6.20    4.40
  -4   9  -1    0.00    4.40
  -4   9  -1   16.90    7.00
   4  -9   1    2.60    5.10
   4  -9   1   -3.60    6.30
   7   8  -1   -3.50    5.70
   7   8  -1  -10.30    5.40
  -7  -8   1    4.70    6.00
   6   8  -1   25.90    5.80
   6   8  -1   30.90    5.80
   6   8  -1   34.80    5.90
  -6  -8   1   27.70    3.10
  -6  -8   1   21.60    5.50
   5   8  -1   -2.10    3.90
   5   8  -1    2.10    4.60
   5   8  -1    6.90    4.20
  -5  -8   1    3.10    4.60
  -5  -8   1   -0.40    2.70
  -5  -8   1    1.80    4.10
   4   8  -1  164.08   10.90
  -4  -8   1  196.28    8.00
  -4  -8   1  167.98   10.70
  -4  -8   1  188.28    7.30
   3   8  -1  169.28    8.50
   3   8  -1  156.78    9.10
  -3  -8   1  152.78    8.10
  -3  -8   1  160.38    7.80
  -3  -8   1  163.08    5.20
  -3  -8   1  162.38    8.60
   2   8  -1  406.16   14.70
   2   8  -1  429.76   13.90
  -2  -8   1  425.46   13.80
  -2  -8   1  403.76   13.20
  -2  -8   1  424.16   13.90
   1   8  -1  378.66   13.40
   1   8  -1  359.66   12.40
  -1  -8   1  386.06   12.20
  -1  -8   1  361.26   11.90
  -1  -8   1  360.56   11.80
  -1  -8   1  397.16   13.30
   0   8  -1  607.64   19.10
   0   8  -1  623.54   17.80
   0  -8   1  612.64   17.00
   0  -8   1  620.54   17.00
   0  -8   1  619.24   19.10
   0  -8   1  606.14   16.90
   0  -8   1  607.64   17.80
  -1   8  -1   -1.50    2.20
  -1   8  -1    1.20    3.50
  -1   8  -1   -1.60    2.70
   1  -8   1    1.70    2.30
   1  -8   1    1.10    3.00
   1  -8   1   -1.70    2.80
   1  -8   1    0.70    2.60
   1  -8   1    0.20    3.40
  -2   8  -1    5.60    2.90
  -2   8  -1    4.40    2.80
  -2   8  -1    4.10    3.80
   2  -8   1    9.90    3.40
   2  -8   1    2.40    4.00
   2  -8   1    1.70    3.20
  -3   8  -1   67.29    7.30
  -3   8  -1   74.29    6.10
  -3   8  -1   76.49    8.70
  -3   8  -1   70.89    6.10
   3  -8   1   87.89    7.20
   3  -8   1   86.39    8.60
  -4   8  -1    4.10    3.60
  -4   8  -1   -0.30    4.10
  -4   8  -1   -4.00    5.00
   4  -8   1    4.80    4.30
   4  -8   1   15.10    6.00
  -5   8  -1    4.10    4.70
  -5   8  -1   15.30    7.20
   5  -8   1    6.80    5.50
   5  -8   1    0.30    7.10
   8   7  -1   -0.60    5.40
   8   7  -1   -2.60    6.10
  -8  -7   1    3.40    7.90
  -8  -7   1   12.10    6.20
   7   7  -1  -11.70    4.20
   7   7  -1   -6.70    4.90
  -7  -7   1    6.50    6.20
  -7  -7   1   -4.40    4.50
   6   7  -1   -7.80    3.60
   6   7  -1    6.00    4.60
   6   7  -1    4.90    4.30
  -6  -7   1    1.40    1.70
  -6  -7   1   -2.30    4.10
   5   7  -1    0.60    3.80
   5   7  -1   -0.40    3.20
   5   7  -1   -1.50    3.10
  -5  -7   1    4.80    3.70
  -5  -7   1   -1.70    2.10
  -5  -7   1   -0.40    3.60
   4   7  -1   18.00    3.70
   4   7  -1   26.70    4.20
  -4  -7   1   16.00    2.90
  -4  -7   1   23.30    3.40
  -4  -7   1   21.70    3.60
   3   7  -1   56.89    5.50
   3   7  -1   54.09    5.00
  -3  -7   1   62.29    4.80
  -3  -7   1   53.99    5.70
  -3  -7   1   64.99    3.60
  -3  -7   1   56.59    5.10
   2   7  -1   11.60    2.70
   2   7  -1   11.10    3.20
  -2  -7   1   16.70    2.90
  -2  -7   1    8.60    3.10
  -2  -7   1    8.50    2.60
  -2  -7   1   14.60    3.10
   1   7  -1  156.28    8.30
   1   7  -1  136.39    7.70
   1   7  -1  141.69    7.00
   1   7  -1  145.89    6.70
   1   7  -1  144.59    7.30
  -1  -7   1  121.49    7.30
  -1  -7   1  149.49    7.30
  -1  -7   1  151.58    6.30
  -1  -7   1  140.49    6.40
  -1  -7   1  142.99    6.50
   0   7  -1 1566.44   41.40
   0   7  -1 1570.74   42.90
   0   7  -1 1595.94   41.90
   0   7  -1 1686.83   41.00
   0   7  -1 1676.53   41.00
   0   7  -1 1706.03   42.20
   0  -7   1 1704.73   40.10
   0  -7   1 1699.13   40.40
   0  -7   1 1646.24   40.00
   0  -7   1 1733.43   43.80
   0  -7   1 1716.83   42.20
   0  -7   1 1669.93   40.90
  -1   7  -1   16.70    2.80
  -1   7  -1   18.20    3.80
  -1   7  -1   15.20    2.50
  -1   7  -1   18.70    3.40
   1  -7   1   15.80    2.50
   1  -7   1   16.60    3.80
   1  -7   1   15.70    2.70
   1  -7   1   14.80    2.90
   1  -7   1   16.80    2.40
  -2   7  -1  745.13   20.40
  -2   7  -1  770.32   22.20
  -2   7  -1  756.62   18.50
  -2   7  -1  775.12   20.30
  -2   7  -1  766.02   19.90
   2  -7   1  760.82   22.80
   2  -7   1  776.32   20.90
   2  -7   1  752.92   20.00
  -3   7  -1  286.27    9.30
  -3   7  -1  274.17    9.70
  -3   7  -1  286.67   12.00
  -3   7  -1  268.07    9.70
  -3   7  -1  255.87    8.80
   3  -7   1  285.37   12.40
   3  -7   1  289.27   10.40
   3  -7   1  270.87   10.20
  -4   7  -1   93.69    6.90
  -4   7  -1   86.49    6.90
  -4   7  -1   94.29    7.20
  -4   7  -1  111.39    9.20
  -4   7  -1   94.09    5.80
   4  -7   1   97.89    7.10
   4  -7   1  104.39    9.10
  -5   7  -1  119.19    9.00
  -5   7  -1  144.49   11.30
  -5   7  -1  117.49    6.70
   5  -7   1  129.49   11.80
   5  -7   1  127.69    8.60
  -6   7  -1    3.80    6.10
  -6   7  -1   11.40    6.90
  -6   7  -1   -8.50    6.00
   6  -7   1    0.70    7.00
   6  -7   1   -3.70    5.60
   8   6  -1    5.50    6.00
   8   6  -1    7.10    5.50
   8   6  -1   11.70    4.60
  -8  -6   1    2.60    5.80
  -8  -6   1    1.80    6.90
   7   6  -1    6.60    4.90
   7   6  -1   -3.10    3.80
   7   6  -1    6.00    3.80
  -7  -6   1    0.90    5.80
  -7  -6   1    5.90    4.40
  -7  -6   1    4.90    4.90
   6   6  -1   14.00    3.80
  -6  -6   1    4.60    5.00
  -6  -6   1    8.50    3.80
   5   6  -1    2.10    3.40
   5   6  -1    6.80    2.90
   5   6  -1    3.40    3.20
   5   6  -1    4.30    3.30
  -5  -6   1    2.40    2.80
  -5  -6   1    3.80    1.70
  -5  -6   1    6.50    3.00
  -5  -6   1    0.90    3.30
   4   6  -1   12.80    3.50
   4   6  -1   13.50    2.90
   4   6  -1   10.90    2.80
   4   6  -1   11.60    3.30
   4   6  -1   12.20    3.50
  -4  -6   1   11.90    2.60
  -4  -6   1   12.10    2.80
  -4  -6   1    9.60    2.00
  -4  -6   1   11.80    3.30
   3   6  -1   60.19    4.60
   3   6  -1   66.19    4.90
   3   6  -1   52.59    5.10
   3   6  -1   55.89    5.00
  -3  -6   1   52.49    4.00
  -3  -6   1   59.09    5.10
  -3  -6   1   62.09    4.40
  -3  -6   1   47.40    5.30
   2   6  -1   26.10    3.30
   2   6  -1   22.30    3.10
   2   6  -1   23.80    3.20
   2   6  -1   28.60    3.60
  -2  -6   1   22.90    3.10
  -2  -6   1   16.70    3.10
  -2  -6   1   22.50    2.90
  -2  -6   1   21.60    2.70
  -2  -6   1   25.20    1.90
  -2  -6   1   19.70    2.80
   1   6  -1   48.60    4.50
   1   6  -1   46.30    4.10
   1   6  -1   46.20    3.90
   1   6  -1   43.30    3.90
   1   6  -1   39.60    3.70
  -1  -6   1   39.60    3.40
  -1  -6   1   47.30    3.80
  -1  -6   1   43.60    3.90
  -1  -6   1   44.90    4.60
  -1  -6   1   35.70    3.70
   0   6  -1  156.98    6.40
   0   6  -1  158.28    6.80
   0   6  -1  154.78    7.30
   0   6  -1  156.08    7.00
   0   6  -1  155.78    6.90
   0   6  -1  158.08    6.20
   0  -6   1  144.99    6.90
   0  -6   1  151.18    5.90
   0  -6   1  148.39    5.70
   0  -6   1  154.68    7.10
   0  -6   1  148.69    6.10
   0  -6   1  157.88    5.80
  -1   6  -1   52.09    5.30
  -1   6  -1   49.80    4.60
  -1   6  -1   46.00    3.30
  -1   6  -1   49.60    3.60
  -1   6  -1   51.49    4.20
  -1   6  -1   48.60    4.60
  -1   6  -1   56.69    5.00
   1  -6   1   51.09    3.80
   1  -6   1   56.79    4.80
   1  -6   1   54.79    5.20
   1  -6   1   49.70    3.60
   1  -6   1   50.79    3.90
   1  -6   1   55.99    3.30
  -2   6  -1   46.10    3.40
  -2   6  -1   33.90    4.10
  -2   6  -1   42.10    3.60
  -2   6  -1   35.30    4.10
  -2   6  -1   47.40    4.10
  -2   6  -1   35.80    4.10
  -2   6  -1   36.80    2.90
   2  -6   1   37.90    3.70
   2  -6   1   35.00    4.10
   2  -6   1   45.60    4.00
   2  -6   1   37.30    4.60
  -3   6  -1   16.40    3.60
  -3   6  -1   20.50    2.80
  -3   6  -1   20.50    2.50
  -3   6  -1   29.30    4.50
  -3   6  -1   18.40    2.90
  -3   6  -1   17.30    3.00
   3  -6   1   15.60    3.60
   3  -6   1   21.70    3.20
   3  -6   1   13.60    3.10
  -4   6  -1  106.59    6.80
  -4   6  -1  103.69    7.50
  -4   6  -1  110.29    6.90
  -4   6  -1  112.59    7.90
  -4   6  -1  110.19    5.70
  -4   6  -1  112.99    5.40
   4  -6   1  113.29    6.70
   4  -6   1  103.99   12.90
  -5   6  -1   51.69    5.90
  -5   6  -1   76.39    4.80
  -5   6  -1   69.59    7.20
  -5   6  -1   73.29    7.70
   5  -6   1   67.49    6.80
   5  -6   1   74.59    7.90
   5  -6   1   80.49    9.20
  -6   6  -1  174.98   11.30
  -6   6  -1  176.68    9.80
  -6   6  -1  153.98   11.30
   6  -6   1  165.18   12.80
   6  -6   1  165.08   12.80
   6  -6   1  142.79   10.20
   8   5  -1   -0.70    3.90
   8   5  -1   16.80    5.40
  -8  -5   1   -0.10    5.60
  -8  -5   1    4.00    6.40
   7   5  -1    5.90    4.20
   7   5  -1    9.00    4.40
   7   5  -1    5.10    3.70
   7   5  -1    8.00    3.40
   7   5  -1    5.00    4.20
  -7  -5   1    8.60    4.10
  -7  -5   1   19.20    5.70
  -7  -5   1   11.70    4.00
   6   5  -1   43.90    4.60
   6   5  -1   26.70    4.20
   6   5  -1   35.70    5.20
   6   5  -1   40.60    4.10
   6   5  -1   38.30    4.50
  -6  -5   1   38.60    4.40
  -6  -5   1   34.00    4.80
   5   5  -1  172.88    7.70
   5   5  -1  190.28    8.50
   5   5  -1  174.68    7.60
   5   5  -1  172.78    7.70
   5   5  -1  178.08    8.50
  -5  -5   1  170.68    7.70
  -5  -5   1  184.28    8.30
  -5  -5   1  181.48    7.80
   4   5  -1  161.68    7.10
   4   5  -1  165.98    7.30
   4   5  -1  171.58    7.80
   4   5  -1  163.38    7.10
   4   5  -1  168.58    7.10
  -4  -5   1  170.38    5.40
  -4  -5   1  173.68    7.10
  -4  -5   1  173.88    7.20
  -4  -5   1  164.18    7.90
  -4  -5   1  173.38    6.70
  -4  -5   1  150.68    7.10
   3   5  -1  940.31   24.20
   3   5  -1  919.81   24.30
   3   5  -1  938.21   24.90
   3   5  -1  931.21   24.30
  -3  -5   1  963.20   23.10
  -3  -5   1  943.71   24.40
  -3  -5   1  944.81   24.60
  -3  -5   1  951.00   23.10
  -3  -5   1  930.41   24.20
  -3  -5   1  926.71   24.70
   2   5  -1  593.74   16.70
   2   5  -1  595.74   16.60
   2   5  -1  625.94   16.90
   2   5  -1  606.74   17.20
  -2  -5   1  648.64   16.40
  -2  -5   1  612.34   17.20
  -2  -5   1  643.64   15.10
  -2  -5   1  649.83   16.60
  -2  -5   1  624.24   16.60
  -2  -5   1  601.84   16.60
   1   5  -1    0.80    1.50
   1   5  -1    2.60    1.60
   1   5  -1    1.60    1.40
   1   5  -1    2.30    1.90
   1   5  -1    1.30    1.40
  -1  -5   1   -1.30    1.90
  -1  -5   1    1.80    1.50
  -1  -5   1    2.10    1.60
  -1  -5   1    1.80    1.50
  -1  -5   1   -0.20    1.50
   0   5  -1  145.29    6.00
   0   5  -1  157.48    6.10
   0   5  -1  148.29    6.20
   0   5  -1  150.68    5.50
   0   5  -1  152.58    6.40
   0   5  -1  156.38    5.70
   0  -5   1  140.19    6.20
   0  -5   1  141.29    6.10
   0  -5   1  157.38    5.10
   0  -5   1  141.99    5.10
   0  -5   1  147.99    5.40
  -1   5  -1    0.10    1.30
  -1   5  -1    2.00    1.30
  -1   5  -1    3.90    1.90
  -1   5  -1    5.40    2.00
  -1   5  -1    2.10    1.70
  -1   5  -1    2.30    0.80
  -1   5  -1    2.80    2.00
  -1   5  -1    0.20    2.20
   1  -5   1    1.00    2.10
   1  -5   1    4.50    2.00
   1  -5   1    2.00    1.50
   1  -5   1    2.60    1.40
   1  -5   1    2.20    1.20
   1  -5   1    0.00    2.00
  -2   5  -1  130.59    6.30
  -2   5  -1  140.99    6.60
  -2   5  -1  138.49    6.20
  -2   5  -1  131.19    5.10
  -2   5  -1  139.09    5.20
  -2   5  -1  132.59    4.90
  -2   5  -1  133.59    4.70
  -2   5  -1  142.29    6.40
   2  -5   1  138.69    5.40
   2  -5   1  133.19    6.70
   2  -5   1  137.59    6.90
   2  -5   1  132.59    5.70
  -3   5  -1    7.00    2.60
  -3   5  -1    4.70    2.20
  -3   5  -1    7.00    1.90
  -3   5  -1    7.40    2.70
  -3   5  -1    4.00    2.20
  -3   5  -1    8.30    3.10
  -3   5  -1    7.40    2.50
  -3   5  -1    9.20    1.80
  -3   5  -1    6.20    3.00
   3  -5   1    7.20    2.40
   3  -5   1    7.50    2.40
   3  -5   1   12.10    3.10
   3  -5   1    5.20    3.30
   3  -5   1    7.20    2.90
  -4   5  -1   18.40    3.40
  -4   5  -1   21.60    2.70
  -4   5  -1   26.10    3.90
  -4   5  -1   25.60    3.70
  -4   5  -1   20.90    3.70
  -4   5  -1   23.10    2.20
  -4   5  -1   20.20    4.00
   4  -5   1   18.40    4.00
   4  -5   1   24.20    3.30
   4  -5   1   28.30    4.30
  -5   5  -1    3.10    3.50
  -5   5  -1    1.70    4.30
  -5   5  -1    1.20    1.90
  -5   5  -1   -4.00    3.60
  -5   5  -1   -1.50    3.60
  -5   5  -1    0.30    3.20
  -5   5  -1    2.90    2.40
   5  -5   1    1.00    3.30
   5  -5   1   -0.10    4.00
   5  -5   1   -0.90    4.00
  -6   5  -1   -2.90    3.80
  -6   5  -1   -3.10    4.50
  -6   5  -1    6.50    5.00
  -6   5  -1    5.70    2.50
   6  -5   1    1.40    5.20
   6  -5   1   -2.90    5.10
  -7   5  -1   -9.40    5.90
  -7   5  -1    2.90    6.30
   7  -5   1    4.90    6.70
   7  -5   1    5.90    7.00
   9   4  -1   -7.30    6.30
   9   4  -1    0.40    6.70
  -9  -4   1    5.20    6.40
  -9  -4   1    6.00    8.70
   8   4  -1   -3.10    4.90
  -8  -4   1    1.20    6.20
  -8  -4   1    5.90    4.60
   7   4  -1    6.60    3.50
   7   4  -1    5.10    4.00
   7   4  -1    7.00    3.90
   7   4  -1    7.00    3.40
   7   4  -1    6.50    3.10
  -7  -4   1   13.60    3.30
  -7  -4   1    8.20    5.30
  -7  -4   1    3.30    3.50
   6   4  -1    0.20    2.50
   6   4  -1    1.70    2.90
   6   4  -1    2.80    2.90
   6   4  -1    2.50    3.20
   6   4  -1    3.50    2.60
  -6  -4   1    1.60    2.30
  -6  -4   1    1.70    3.60
  -6  -4   1   -5.50    2.60
   5   4  -1   19.00    2.80
   5   4  -1   16.70    3.10
   5   4  -1   13.80    3.30
   5   4  -1   17.80    2.90
  -5  -4   1   19.20    4.10
  -5  -4   1   15.20    3.30
  -5  -4   1   15.40    3.40
  -5  -4   1   17.80    2.60
  -5  -4   1   19.20    3.00
   4   4  -1   24.90    3.30
   4   4  -1   26.90    2.90
   4   4  -1   30.20    3.70
   4   4  -1   31.50    3.40
   4   4  -1   38.80    3.80
  -4  -4   1   29.50    3.00
  -4  -4   1   33.00    4.00
  -4  -4   1   33.00    3.30
  -4  -4   1   28.80    1.80
  -4  -4   1   28.40    3.00
  -4  -4   1   22.70    2.90
   3   4  -1  676.53   18.50
   3   4  -1  688.73   17.80
   3   4  -1  679.03   17.80
   3   4  -1  661.83   18.00
   3   4  -1  682.33   17.80
  -3  -4   1  683.03   18.00
  -3  -4   1  660.63   18.00
  -3  -4   1  672.43   16.50
  -3  -4   1  686.13   18.40
  -3  -4   1  684.03   17.90
  -3  -4   1  662.33   17.20
   2   4  -1    4.50    1.50
   2   4  -1    9.30    1.90
   2   4  -1    9.10    2.00
   2   4  -1   10.80    1.90
  -2  -4   1    6.50    1.90
  -2  -4   1    5.60    1.70
  -2  -4   1    3.90    1.30
  -2  -4   1    8.90    1.90
  -2  -4   1    7.20    1.20
   1   4  -1  285.77    9.00
   1   4  -1  302.97    8.80
   1   4  -1  302.77    9.00
   1   4  -1  293.87    8.50
   1   4  -1  278.47    8.60
  -1  -4   1  286.27    8.50
  -1  -4   1  306.77    7.20
  -1  -4   1  295.27    9.00
  -1  -4   1  298.57    8.60
  -1  -4   1  308.87    8.30
  -1  -4   1  294.17    8.70
   0   4  -1   74.09    3.70
   0   4  -1   66.79    3.60
   0   4  -1   63.79    2.70
   0   4  -1   57.59    3.00
   0   4  -1   62.19    3.20
   0   4  -1   64.59    3.50
   0  -4   1   64.39    3.00
   0  -4   1   64.79    2.70
   0  -4   1   57.49    3.70
   0  -4   1   60.19    3.50
   0  -4   1   61.59    3.70
  -1   4  -1  236.88    8.00
  -1   4  -1  248.88    8.00
  -1   4  -1  244.18    7.20
  -1   4  -1  245.28    8.30
  -1   4  -1  241.78    6.80
  -1   4  -1  249.78    6.40
  -1   4  -1  249.18    8.00
  -1   4  -1  241.48    7.00
   1  -4   1  249.68    8.10
   1  -4   1  234.18    7.50
   1  -4   1  245.68    6.90
   1  -4   1  245.58    8.30
   1  -4   1  247.48    6.60
   1  -4   1  248.28    6.50
  -2   4  -1    3.80    1.60
  -2   4  -1    3.40    1.80
  -2   4  -1    4.00    2.20
  -2   4  -1    2.60    1.90
  -2   4  -1    1.70    1.30
  -2   4  -1    3.30    1.60
  -2   4  -1    1.00    1.20
   2  -4   1    2.30    1.40
   2  -4   1   -1.20    1.50
   2  -4   1    2.40    1.40
   2  -4   1    4.70    1.90
   2  -4   1    0.80    2.00
  -3   4  -1    0.00    1.80
  -3   4  -1   -0.10    2.80
  -3   4  -1   -2.10    2.50
  -3   4  -1    0.60    1.90
  -3   4  -1    1.10    1.10
  -3   4  -1   -0.60    2.30
  -3   4  -1   -1.00    1.20
  -3   4  -1   -0.30    2.00
  -3   4  -1    2.40    1.90
   3  -4   1   -2.30    1.70
   3  -4   1   -0.80    2.20
   3  -4   1    1.60    2.10
   3  -4   1    1.00    2.00
  -4   4  -1    4.50    2.80
  -4   4  -1    4.80    1.40
  -4   4  -1    2.80    2.40
  -4   4  -1    2.70    2.50
  -4   4  -1    2.70    3.80
  -4   4  -1    2.90    1.40
  -4   4  -1    0.40    3.10
  -4   4  -1    1.50    2.70
   4  -4   1   -1.20    2.10
   4  -4   1    1.60    2.60
   4  -4   1   -0.70    2.70
  -5   4  -1   36.00    3.70
  -5   4  -1   31.80    5.30
  -5   4  -1   31.70    4.60
  -5   4  -1   32.80    3.10
  -5   4  -1   28.30    2.50
  -5   4  -1   30.70    4.70
  -5   4  -1   34.90    4.50
   5  -4   1   34.10    4.00
   5  -4   1   35.90    5.00
   5  -4   1   29.00    4.80
  -6   4  -1    4.80    3.40
  -6   4  -1    6.40    2.10
  -6   4  -1    6.30    2.60
  -6   4  -1    6.30    4.40
  -6   4  -1    6.60    4.40
   6  -4   1   10.40    4.40
   6  -4   1    0.40    4.60
  -7   4  -1   -0.50    5.80
  -7   4  -1   -0.10    5.40
  -7   4  -1   -3.70    4.00
   7  -4   1   -0.80    6.00
   7  -4   1    6.90    5.70
   9   3  -1    9.30    6.00
   9   3  -1   -3.40    6.80
  -9  -3   1    0.90    6.30
  -9  -3   1   -5.90    8.60
   8   3  -1   -7.80    5.00
   8   3  -1   -1.30    5.40
  -8  -3   1   -4.50    6.40
  -8  -3   1   -6.80    6.20
   7   3  -1   -0.90    2.90
   7   3  -1    0.50    3.70
   7   3  -1    3.90    2.00
   7   3  -1   -2.40    2.30
   7   3  -1    7.50    3.50
  -7  -3   1    4.60    2.60
  -7  -3   1    1.40    4.60
  -7  -3   1   -4.80    3.30
   6   3  -1   -0.50    2.20
   6   3  -1    1.20    2.10
   6   3  -1   -1.00    2.30
   6   3  -1    1.70    2.50
   6   3  -1   -1.70    3.00
  -6  -3   1    2.60    2.10
  -6  -3   1    3.50    3.50
  -6  -3   1   -0.60    2.70
  -6  -3   1   -0.60    3.50
   5   3  -1   97.19    4.60
   5   3  -1   98.19    5.10
   5   3  -1   94.29    4.60
   5   3  -1   94.99    6.00
   5   3  -1   99.99    5.00
  -5  -3   1   97.19    5.20
  -5  -3   1  100.29    6.40
  -5  -3   1   98.89    4.60
  -5  -3   1  102.89    5.90
  -5  -3   1   95.79    6.70
  -5  -3   1   96.89    6.00
   4   3  -1   76.39    3.90
   4   3  -1   69.79    3.90
   4   3  -1   67.49    4.50
   4   3  -1   74.19    4.10
  -4  -3   1   76.39    3.80
  -4  -3   1   71.79    4.40
  -4  -3   1   77.89    4.20
  -4  -3   1   75.19    4.40
  -4  -3   1   73.79    5.10
   3   3  -1   78.69    4.20
   3   3  -1   75.79    4.00
   3   3  -1   72.99    3.80
   3   3  -1   80.69    3.70
   3   3  -1   78.89    3.80
  -3  -3   1   81.39    2.60
  -3  -3   1   81.49    4.40
  -3  -3   1   84.49    3.80
  -3  -3   1   89.59    4.20
  -3  -3   1   87.49    3.80
  -3  -3   1   80.79    3.90
   2   3  -1  344.87    9.50
   2   3  -1  317.17    9.40
   2   3  -1  338.77    9.50
  -2  -3   1  343.27    9.90
  -2  -3   1  333.27    8.60
  -2  -3   1  334.57    9.50
  -2  -3   1  348.07    9.60
  -2  -3   1  329.07    8.80
   1   3  -1   16.40    1.60
   1   3  -1   16.50    1.80
   1   3  -1   17.50    2.00
  -1  -3   1   19.30    1.10
  -1  -3   1   16.80    1.70
  -1  -3   1   20.90    2.50
  -1  -3   1   17.20    1.70
   0   3  -1  235.98    8.30
   0   3  -1  278.87    7.80
   0   3  -1  276.57    7.80
   0   3  -1  274.57    7.40
   0  -3   1  258.67    7.80
   0  -3   1  264.77    7.30
   0  -3   1  266.07    7.10
   0  -3   1  269.57    6.90
   0  -3   1  271.37    7.90
  -1   3  -1  163.18    4.60
  -1   3  -1  149.09    5.20
  -1   3  -1  146.89    4.40
  -1   3  -1  143.69    4.40
  -1   3  -1  156.08    5.70
  -1   3  -1  151.08    4.30
   1  -3   1  151.98    4.10
   1  -3   1  150.08    5.00
   1  -3   1  149.79    4.40
   1  -3   1  143.49    5.20
   1  -3   1  153.08    4.10
   1  -3   1  151.08    5.50
   1  -3   1  144.89    4.20
  -2   3  -1  485.55   12.90
  -2   3  -1  494.65   13.90
  -2   3  -1  495.85   12.00
  -2   3  -1  496.85   13.40
  -2   3  -1  497.25   13.40
  -2   3  -1  487.05   11.90
  -2   3  -1  485.65   13.70
  -2   3  -1  500.65   12.60
  -2   3  -1  493.05   12.80
   2  -3   1  482.25   13.70
   2  -3   1  489.15   13.40
   2  -3   1  471.05   13.80
   2  -3   1  494.05   12.60
   2  -3   1  476.55   12.70
   2  -3   1  503.45   13.10
  -3   3  -1    7.60    0.90
  -3   3  -1    6.60    1.90
  -3   3  -1    5.30    2.00
  -3   3  -1    8.20    1.90
  -3   3  -1    6.70    2.40
  -3   3  -1    6.90    1.00
  -3   3  -1   10.30    1.90
  -3   3  -1   10.10    2.40
  -3   3  -1    8.30    2.00
   3  -3   1    8.30    2.10
   3  -3   1    9.20    2.20
   3  -3   1    8.60    1.70
  -4   3  -1    6.40    2.60
  -4   3  -1    2.70    3.20
  -4   3  -1    2.80    0.90
  -4   3  -1    6.20    2.00
  -4   3  -1    5.70    2.50
  -4   3  -1    3.70    1.00
  -4   3  -1    3.30    2.40
  -4   3  -1    1.00    2.00
  -4   3  -1    8.90    3.10
  -4   3  -1    7.60    2.30
   4  -3   1    7.00    2.10
   4  -3   1    6.80    2.60
   4  -3   1    7.80    2.70
  -5   3  -1    6.90    3.50
  -5   3  -1    2.00    1.20
  -5   3  -1   -0.50    3.10
  -5   3  -1    1.00    2.50
  -5   3  -1   -2.30    2.10
  -5   3  -1   -6.40    3.30
  -5   3  -1   -1.90    1.30
  -5   3  -1   -1.00    2.80
   5  -3   1    2.80    3.10
   5  -3   1    0.40    2.50
   5  -3   1   -0.70    2.80
  -6   3  -1    1.70    3.40
  -6   3  -1    7.70    2.00
  -6   3  -1    4.80    2.00
  -6   3  -1    1.40    2.50
  -6   3  -1    7.10    4.00
   6  -3   1    2.30    3.60
  -7   3  -1   10.20    3.30
  -7   3  -1   10.30    2.60
  -7   3  -1    1.00    4.50
  -7   3  -1    1.20    6.00
   7  -3   1    3.00    4.90
   7  -3   1    5.50    4.90
  -8   3  -1    6.70    7.10
  -8   3  -1    3.00    6.60
   8  -3   1    3.10    6.70
   9   2  -1    5.10    6.20
   9   2  -1    1.80    6.70
  -9  -2   1   10.80    6.20
  -9  -2   1   -0.20    8.10
   8   2  -1    1.00    4.70
   8   2  -1   -8.00    4.40
  -8  -2   1    1.70    4.40
  -8  -2   1  -11.00    6.10
   7   2  -1   -1.10    3.50
   7   2  -1    2.10    4.00
  -7  -2   1    2.30    2.00
  -7  -2   1   -1.70    2.90
  -7  -2   1   -5.50    4.40
  -7  -2   1   -0.90    4.60
   6   2  -1   15.10    2.00
   6   2  -1   14.30    3.30
   6   2  -1   13.50    3.40
  -6  -2   1    9.60    3.70
  -6  -2   1   18.90    2.20
  -6  -2   1   20.40    3.10
  -6  -2   1    7.40    3.40
   5   2  -1  135.39    6.10
   5   2  -1  135.79    4.80
   5   2  -1  132.39    5.00
   5   2  -1  139.59    6.80
   5   2  -1  134.19    5.00
  -5  -2   1  132.29    7.20
  -5  -2   1  127.49    7.30
  -5  -2   1  133.59    4.90
  -5  -2   1  132.79    5.80
  -5  -2   1  128.79    6.00
  -5  -2   1  131.69    6.90
  -5  -2   1  130.49    6.80
   4   2  -1    2.90    1.30
   4   2  -1    1.10    1.20
   4   2  -1    0.60    1.40
   4   2  -1   -1.60    1.30
   4   2  -1    2.20    1.90
  -4  -2   1    0.60    1.40
  -4  -2   1   -2.70    2.00
  -4  -2   1    0.60    1.80
  -4  -2   1   -0.60    1.40
  -4  -2   1    0.40    1.90
  -4  -2   1    3.40    2.00
  -4  -2   1    3.10    2.20
   3   2  -1   39.70    2.50
   3   2  -1   37.90    2.90
   3   2  -1   39.20    2.60
   3   2  -1   40.20    2.30
  -3  -2   1   37.90    2.80
  -3  -2   1   36.00    3.00
  -3  -2   1   37.40    2.50
  -3  -2   1   33.10    2.70
  -3  -2   1   39.30    2.30
  -3  -2   1   40.40    2.90
   2   2  -1    8.30    1.30
   2   2  -1    7.00    1.30
   2   2  -1    7.20    1.20
   2   2  -1    8.00    1.20
   2   2  -1    5.50    1.10
  -2  -2   1    6.50    1.10
  -2  -2   1    8.00    1.20
  -2  -2   1    9.30    0.80
  -2  -2   1    7.80    1.30
  -2  -2   1    4.30    1.40
  -2  -2   1    8.20    1.20
   1   2  -1  678.13   16.40
   1   2  -1  643.04   16.50
   1   2  -1  665.73   16.30
   1   2  -1  652.73   15.90
  -1  -2   1  673.83   16.00
  -1  -2   1  655.53   16.40
  -1  -2   1  704.83   16.40
   0   2  -1 2594.34   60.69
   0   2  -1 2722.33   60.39
   0   2  -1 2613.24   60.29
   0   2  -1 2595.84   60.69
   0  -2   1 2509.95   60.29
   0  -2   1 2692.33   59.79
   0  -2   1 2681.73   60.79
   0  -2   1 2653.53   60.59
   0  -2   1 2600.34   60.19
  -1   2  -1  344.07    9.00
  -1   2  -1  336.27    9.40
  -1   2  -1  345.97    9.20
  -1   2  -1  347.07    8.40
  -1   2  -1  350.56    9.50
  -1   2  -1  345.37    8.40
  -1   2  -1  343.77    8.60
  -1   2  -1  339.27    8.50
   1  -2   1  339.67    9.50
   1  -2   1  328.17    9.00
   1  -2   1  352.36    8.50
   1  -2   1  349.07    9.20
   1  -2   1  342.27    8.60
  -2   2  -1   18.10    2.10
  -2   2  -1   16.90    1.90
  -2   2  -1   13.00    1.50
  -2   2  -1   14.70    2.00
  -2   2  -1   14.10    1.90
  -2   2  -1   14.10    1.70
  -2   2  -1   14.70    1.60
   2  -2   1   14.80    1.70
   2  -2   1   15.50    1.60
   2  -2   1   17.40    2.10
   2  -2   1   14.90    1.90
  -3   2  -1    0.10    1.40
  -3   2  -1    2.10    1.90
  -3   2  -1    3.90    1.60
  -3   2  -1    0.30    1.50
  -3   2  -1    2.10    1.40
  -3   2  -1    0.50    1.50
  -3   2  -1   -2.10    1.70
   3  -2   1    0.30    1.30
   3  -2   1    0.10    1.20
   3  -2   1    2.00    1.50
   3  -2   1    1.10    1.30
   3  -2   1   -0.10    1.30
  -4   2  -1    0.30    1.80
  -4   2  -1   -0.30    2.20
  -4   2  -1    2.60    2.00
  -4   2  -1   -3.40    2.50
  -4   2  -1   -0.60    1.90
  -4   2  -1    0.50    2.40
  -4   2  -1   -1.00    1.90
  -4   2  -1    1.70    1.60
   4  -2   1    0.60    2.00
   4  -2   1    1.50    1.70
   4  -2   1    0.90    1.90
   4  -2   1    1.00    1.90
  -5   2  -1   13.10    3.70
  -5   2  -1   15.10    3.10
  -5   2  -1   15.70    3.40
  -5   2  -1   15.50    1.60
  -5   2  -1   19.50    1.80
  -5   2  -1   12.40    3.40
  -5   2  -1   14.50    2.30
  -5   2  -1   26.50    3.40
  -5   2  -1   12.00    3.40
   5  -2   1   19.50    3.40
   5  -2   1   12.80    3.00
   5  -2   1   22.00    3.50
  -6   2  -1   11.60    5.10
  -6   2  -1   21.80    3.90
  -6   2  -1   17.00    4.30
  -6   2  -1   18.00    2.20
  -6   2  -1   21.00    2.80
  -6   2  -1   17.90    2.20
  -6   2  -1   15.70    4.10
   6  -2   1   18.20    4.10
   6  -2   1   15.80    3.90
   6  -2   1   28.00    4.40
  -7   2  -1    6.70    2.80
  -7   2  -1    2.00    2.80
  -7   2  -1    5.50    4.20
   7  -2   1    2.10    4.30
   7  -2   1    3.40    4.10
   7  -2   1    6.80    4.50
  -8   2  -1   -9.50    5.30
  -8   2  -1    8.70    6.30
   8  -2   1   -0.80    5.50
   8  -2   1    1.50    5.90
   9   1  -1   -3.90    6.30
   9   1  -1    3.10    7.10
  -9  -1   1    1.70    6.60
  -9  -1   1   -7.20    7.60
   8   1  -1   24.90    5.40
   8   1  -1   33.80    6.30
  -8  -1   1   24.30    7.00
  -8  -1   1   29.90    4.90
   7   1  -1    4.70    3.90
   7   1  -1   -3.40    3.60
  -7  -1   1    1.60    1.60
  -7  -1   1    0.50    3.10
  -7  -1   1   -4.30    4.50
  -7  -1   1    8.90    4.40
   6   1  -1    6.30    3.30
   6   1  -1    0.70    1.70
   6   1  -1    2.40    2.80
  -6  -1   1    4.90    2.50
  -6  -1   1    3.80    1.50
  -6  -1   1   -0.10    3.40
  -6  -1   1    6.10    3.20
   5   1  -1    0.80    1.30
   5   1  -1   -0.50    2.20
   5   1  -1    1.20    1.10
   5   1  -1    1.60    2.00
   5   1  -1    4.30    1.10
  -5  -1   1    4.80    2.40
  -5  -1   1    4.80    2.70
  -5  -1   1   -0.10    1.00
  -5  -1   1    2.70    1.80
  -5  -1   1    0.30    2.10
  -5  -1   1    1.60    1.30
  -5  -1   1   -0.40    2.80
  -5  -1   1   -2.60    2.50
   4   1  -1   34.00    2.20
   4   1  -1   34.60    2.30
   4   1  -1   35.60    3.00
   4   1  -1   34.40    3.30
   4   1  -1   28.30    1.90
  -4  -1   1   37.50    3.80
  -4  -1   1   35.00    1.60
  -4  -1   1   31.80    3.40
  -4  -1   1   31.20    2.70
  -4  -1   1   33.70    2.90
  -4  -1   1   35.40    3.30
  -4  -1   1   29.90    3.20
  -4  -1   1   33.60    2.00
   3   1  -1  255.57    7.90
   3   1  -1  259.57    7.30
   3   1  -1  266.77    7.30
   3   1  -1  259.97    8.30
   3   1  -1  270.77    6.90
  -3  -1   1  265.57    7.60
  -3  -1   1  276.37    8.40
  -3  -1   1  263.67    7.60
  -3  -1   1  267.37    8.00
  -3  -1   1  269.87    8.20
  -3  -1   1  266.67    7.00
   2   1  -1   14.60    1.40
   2   1  -1   16.40    1.60
   2   1  -1   13.70    1.20
   2   1  -1   15.40    1.50
  -2  -1   1   16.60    1.10
  -2  -1   1   13.20    1.50
  -2  -1   1   13.50    1.50
  -2  -1   1   13.50    1.40
  -2  -1   1   17.50    1.70
   1   1  -1 3237.48   74.49
   1   1  -1 3150.38   74.39
   1   1  -1 3298.07   74.69
  -1  -1   1 3201.58   74.59
  -1  -1   1 3443.16   74.59
  -1  -1   1 3212.78   74.49
  -1  -1   1 3273.77   74.49
   0   1  -1  379.26    9.20
   0   1  -1  386.96    9.00
   0   1  -1  358.26    9.10
   0   1  -1  370.06    9.00
   0  -1   1  371.26    9.00
   0  -1   1  372.56    9.10
   0  -1   1  378.76    9.00
   0  -1   1  353.96    9.20
   0  -1   1  369.56    9.10
  -1   1  -1 2859.71   67.89
  -1   1  -1 3088.89   67.89
  -1   1  -1 2897.11   67.29
  -1   1  -1 2981.50   67.49
  -1   1  -1 2968.10   67.59
  -1   1  -1 3029.50   67.49
  -1   1  -1 2909.51   67.59
   1  -1   1 2986.20   67.69
   1  -1   1 2840.32   67.89
   1  -1   1 2948.30   67.49
   1  -1   1 2992.40   67.59
   1  -1   1 2988.40   67.89
   1  -1   1 2895.41   67.39
  -2   1  -1   28.90    2.00
  -2   1  -1   28.10    1.80
  -2   1  -1   26.70    1.90
  -2   1  -1   29.70    2.20
  -2   1  -1   30.90    2.20
  -2   1  -1   27.80    2.00
  -2   1  -1   26.20    1.90
  -2   1  -1   23.80    1.80
   2  -1   1   30.40    2.10
   2  -1   1   26.10    2.00
   2  -1   1   27.90    2.10
   2  -1   1   27.40    2.20
   2  -1   1   27.70    2.20
  -3   1  -1    6.80    1.80
  -3   1  -1    6.00    1.50
  -3   1  -1    8.40    1.40
  -3   1  -1    7.60    1.60
  -3   1  -1    3.80    1.50
  -3   1  -1    5.80    1.40
  -3   1  -1    6.00    1.60
   3  -1   1    3.50    1.40
   3  -1   1    5.10    1.70
   3  -1   1    4.10    1.30
   3  -1   1    6.30    1.60
   3  -1   1    6.10    1.40
  -4   1  -1  164.78    7.00
  -4   1  -1  170.68    5.50
  -4   1  -1  167.88    6.80
  -4   1  -1  168.88    6.60
  -4   1  -1  165.78    6.30
  -4   1  -1  159.08    6.60
  -4   1  -1  163.58    6.30
   4  -1   1  158.28    6.80
   4  -1   1  160.58    6.50
   4  -1   1  155.88    6.40
   4  -1   1  162.48    6.40
  -5   1  -1    1.30    2.80
  -5   1  -1    0.00    1.20
  -5   1  -1    4.10    2.70
  -5   1  -1    2.00    1.60
  -5   1  -1    3.50    3.00
  -5   1  -1    2.40    2.10
  -5   1  -1   -1.80    3.20
  -5   1  -1    2.70    1.20
  -5   1  -1    0.30    2.30
   5  -1   1   -0.80    2.30
   5  -1   1   -1.00    2.30
   5  -1   1   -1.70    2.00
  -6   1  -1   18.40    4.40
  -6   1  -1   21.60    2.30
  -6   1  -1   21.40    2.70
  -6   1  -1   21.90    4.20
  -6   1  -1   16.30    3.50
  -6   1  -1   21.00    2.30
   6  -1   1   19.70    3.30
   6  -1   1   17.10    3.90
   6  -1   1   11.40    3.40
  -7   1  -1    3.80    4.20
  -7   1  -1   16.40    2.70
  -7   1  -1    8.80    3.10
  -7   1  -1    3.00    8.50
  -7   1  -1   16.70    2.80
   7  -1   1   12.60    4.50
   7  -1   1   21.50    5.30
  -8   1  -1   -3.00    4.90
  -8   1  -1   -2.50    4.10
  -8   1  -1   -3.80    6.00
   8  -1   1    0.00    5.60
   8  -1   1   12.00    5.40
   8   0  -1    0.40    5.10
   8   0  -1    3.00    5.00
  -8   0   1   -2.60    4.00
  -8   0   1   -3.60    6.00
   7   0  -1   15.40    4.20
   7   0  -1   17.60    4.40
  -7   0   1   15.90    3.50
  -7   0   1    5.40    4.20
  -7   0   1   12.10    5.00
   6   0  -1   14.70    3.30
   6   0  -1   17.20    3.50
  -6   0   1   17.90    2.80
  -6   0   1   13.60    4.00
  -6   0   1   14.30    1.40
  -6   0   1   17.90    3.70
   5   0  -1   50.99    4.80
   5   0  -1   51.39    4.30
   5   0  -1   52.09    3.30
  -5   0   1   40.80    3.60
  -5   0   1   42.30    2.10
  -5   0   1   46.20    5.20
  -5   0   1   49.50    3.40
  -5   0   1   52.59    4.50
  -5   0   1   45.70    4.80
  -5   0   1   46.10    3.00
  -5   0   1   35.50    3.90
   4   0  -1 1651.13   37.90
   4   0  -1 1659.73   37.90
   4   0  -1 1666.93   38.10
   4   0  -1 1667.23   40.70
   4   0  -1 1645.24   38.80
   4   0  -1 1667.43   40.30
  -4   0   1 1623.64   40.70
  -4   0   1 1670.83   38.10
  -4   0   1 1659.83   41.00
  -4   0   1 1665.13   39.10
  -4   0   1 1650.93   38.70
  -4   0   1 1655.83   40.30
   3   0  -1  148.39    5.60
   3   0  -1  141.69    3.70
   3   0  -1  140.49    4.10
   3   0  -1  139.59    4.00
   3   0  -1  138.29    5.20
   3   0  -1  135.89    4.20
  -3   0   1  147.39    3.70
  -3   0   1  142.49    4.10
  -3   0   1  151.38    5.60
  -3   0   1  141.79    5.70
  -3   0   1  140.09    4.50
  -3   0   1  144.69    4.60
  -3   0   1  143.59    5.30
   1   0  -1 1896.41   43.90
   1   0  -1 1875.91   44.00
   1   0  -1 1959.50   44.30
   1   0  -1 1988.70   43.90
  -1   0   1 1907.81   43.90
  -1   0   1 1831.12   43.90
  -1   0   1 1947.71   44.30
  -1   0   1 1914.41   44.00
   0   0   1 1200.58   27.90
  -1   0  -1  526.55   12.50
  -1   0  -1  530.05   12.40
  -1   0  -1  513.45   12.30
  -1   0  -1  528.05   12.40
  -1   0  -1  515.15   12.40
  -1   0  -1  507.05   12.40
   1   0   1  505.45   12.30
   1   0   1  515.35   12.40
   1   0   1  492.15   12.40
   1   0   1  495.45   12.40
   1   0   1  520.25   12.40
  -2   0  -1  324.17    8.50
  -2   0  -1  316.87    8.20
  -2   0  -1  310.87    8.50
  -2   0  -1  322.17    8.40
  -2   0  -1  321.47    8.40
  -2   0  -1  306.47    8.60
   2   0   1  305.17    8.80
   2   0   1  327.37    8.40
   2   0   1  303.47    8.50
   2   0   1  317.47    8.50
   2   0   1  316.77    8.30
  -3   0  -1   48.90    2.90
  -3   0  -1   51.49    1.60
  -3   0  -1   51.99    3.30
  -3   0  -1   50.29    3.20
  -3   0  -1   51.69    2.50
  -3   0  -1   50.39    1.60
  -3   0  -1   52.39    2.80
   3   0   1   47.40    3.20
   3   0   1   54.79    3.10
   3   0   1   51.39    2.60
   3   0   1   52.29    2.80
   3   0   1   50.79    2.80
  -4   0  -1  554.04   13.30
  -4   0  -1  551.74   14.90
  -4   0  -1  542.65   14.90
  -4   0  -1  533.55   15.10
  -4   0  -1  548.95   15.70
  -4   0  -1  564.34   14.10
  -4   0  -1  552.54   13.30
  -4   0  -1  569.94   15.70
  -4   0  -1  549.35   14.70
   4   0   1  560.44   14.80
   4   0   1  523.65   14.90
   4   0   1  547.35   15.60
   4   0   1  558.64   14.30
   4   0   1  550.84   15.30
  -5   0  -1   44.60    4.90
  -5   0  -1   45.20    4.90
  -5   0  -1   54.29    3.00
  -5   0  -1   54.79    4.80
  -5   0  -1   56.79    5.20
  -5   0  -1   52.19    3.10
  -5   0  -1   45.80    4.40
  -5   0  -1   60.59    4.30
   5   0   1   46.20    4.10
   5   0   1   56.69    5.00
  -6   0  -1    6.30    2.00
  -6   0  -1    5.60    3.60
  -6   0  -1    3.40    2.90
  -6   0  -1    5.10    2.00
  -6   0  -1    6.20    3.60
  -6   0  -1    2.20    3.60
  -6   0  -1    5.60    2.40
   6   0   1    5.50    2.90
   6   0   1    8.20    3.50
  -7   0  -1    2.80    3.50
  -7   0  -1   10.90    2.70
  -7   0  -1   10.70    3.30
  -7   0  -1    8.00    2.80
   7   0   1   12.00    3.80
   7   0   1   10.00    4.50
  -8   0  -1   -0.10    6.10
  -8   0  -1   -0.60    3.40
  -8   0  -1    0.70    3.90
   8   0   1   -9.50    4.50
   8   0   1   -1.80    5.10
   8  -1  -1   -0.10    5.00
   8  -1  -1    4.40    5.60
  -8   1   1    0.40    6.10
  -8   1   1    4.80    4.10
   7  -1  -1    1.90    4.00
   7  -1  -1    1.60    3.80
   7  -1  -1   -0.60    3.00
  -7   1   1   -3.00    3.30
  -7   1   1    8.90    3.90
  -7   1   1   -1.90    4.40
   6  -1  -1   23.90    4.20
   6  -1  -1   32.20    3.50
   6  -1  -1   30.00    4.40
  -6   1   1   30.80    4.10
  -6   1   1   32.70    5.10
  -6   1   1   30.30    3.10
  -6   1   1   28.50    3.40
  -6   1   1   31.10    3.20
   5  -1  -1    8.60    2.90
   5  -1  -1    9.50    2.60
   5  -1  -1    6.50    2.00
  -5   1   1    7.20    1.90
  -5   1   1    7.70    2.80
  -5   1   1    4.50    2.00
  -5   1   1   11.80    2.00
  -5   1   1    4.30    3.00
  -5   1   1   11.20    2.40
  -5   1   1    9.10    3.30
  -5   1   1    7.60    2.80
   4  -1  -1  264.57    9.00
   4  -1  -1  260.97    9.10
   4  -1  -1  262.37    7.90
  -4   1   1  255.67    7.80
  -4   1   1  258.97    8.70
  -4   1   1  250.77    7.80
  -4   1   1  268.57    6.40
  -4   1   1  262.17    8.90
  -4   1   1  270.47    7.50
  -4   1   1  257.57    9.30
  -4   1   1  250.77    9.10
  -4   1   1  260.57    7.40
   3  -1  -1    8.40    1.80
   3  -1  -1    9.50    1.80
   3  -1  -1    6.20    1.50
   3  -1  -1    7.60    1.80
  -3   1   1   12.10    1.90
  -3   1   1    9.80    1.70
  -3   1   1   10.40    1.20
  -3   1   1    8.60    1.40
  -3   1   1    9.80    1.30
  -3   1   1    8.10    1.80
  -3   1   1    9.40    0.80
  -3   1   1    9.00    1.30
  -3   1   1    9.70    1.90
   2  -1  -1  142.99    3.80
   2  -1  -1  138.89    4.30
   2  -1  -1  139.99    3.70
   2  -1  -1  139.29    4.90
   2  -1  -1  134.49    4.70
  -2   1   1  144.89    4.00
  -2   1   1  136.09    4.80
  -2   1   1  137.09    4.00
  -2   1   1  146.79    4.80
  -2   1   1  147.59    4.30
  -2   1   1  145.49    3.50
  -2   1   1  138.99    4.90
  -2   1   1  143.59    4.10
  -2   1   1  140.99    3.50
   0  -1  -1  362.96    8.70
   0  -1  -1  365.96    8.70
   0  -1  -1  349.37    8.60
   0  -1  -1  383.96    8.80
   0   1   1  349.07    8.80
   0   1   1  366.06    8.70
   0   1   1  358.46    8.70
   0   1   1  344.17    8.60
  -1  -1  -1  287.07    7.40
  -1  -1  -1  292.37    7.10
  -1  -1  -1  289.27    6.80
  -1  -1  -1  286.77    7.10
  -1  -1  -1  298.17    7.10
  -1  -1  -1  284.47    7.30
   1   1   1  283.47    7.10
   1   1   1  292.17    7.40
   1   1   1  287.97    6.80
   1   1   1  293.57    7.40
   1   1   1  289.27    7.10
   1   1   1  292.17    7.10
  -3  -1  -1 1524.65   35.90
  -3  -1  -1 1499.75   35.20
  -3  -1  -1 1472.75   34.70
  -3  -1  -1 1474.85   35.20
  -3  -1  -1 1552.44   36.20
  -3  -1  -1 1481.65   35.20
  -3  -1  -1 1477.05   35.50
  -3  -1  -1 1499.95   34.70
  -3  -1  -1 1517.25   35.80
   3   1   1 1502.55   36.20
   3   1   1 1500.55   35.20
   3   1   1 1440.86   35.80
  -4  -1  -1 5490.55  123.79
  -4  -1  -1 5568.24  124.09
  -4  -1  -1 5632.44  125.39
  -4  -1  -1 4779.22  123.39
  -4  -1  -1 5201.48  124.59
  -4  -1  -1 5535.95  124.29
  -4  -1  -1 5445.66  123.39
  -4  -1  -1 5372.16  124.89
  -4  -1  -1 5557.14  124.69
   4   1   1 5366.66  125.29
   4   1   1 5454.75  124.39
   4   1   1 5507.55  123.89
   4   1   1 5430.06  124.99
  -5  -1  -1   29.40    3.70
  -5  -1  -1   35.20    4.10
  -5  -1  -1   29.80    2.80
  -5  -1  -1   30.40    3.40
  -5  -1  -1   26.60    2.70
  -5  -1  -1   25.20    3.50
  -5  -1  -1   38.20    4.10
  -5  -1  -1   33.30    3.90
  -5  -1  -1   26.00    3.10
   5   1   1   34.90    3.90
   5   1   1   27.70    3.20
   5   1   1   37.50    3.90
   5   1   1   24.60    2.90
  -6  -1  -1   96.09    5.40
  -6  -1  -1  109.69    7.20
  -6  -1  -1   85.69    5.10
  -6  -1  -1   99.89    7.80
  -6  -1  -1   91.79    4.90
  -6  -1  -1   81.09    7.00
  -6  -1  -1   92.89    4.70
   6   1   1  100.29    5.80
   6   1   1  101.19    6.80
   6   1   1   89.49    5.10
  -7  -1  -1    7.00    2.60
  -7  -1  -1    5.40    2.90
  -7  -1  -1    0.70    3.00
  -7  -1  -1    1.20    3.50
   7   1   1    9.80    3.80
   7   1   1    5.70    3.60
  -8  -1  -1   -2.30    5.40
  -8  -1  -1    4.80    3.10
  -8  -1  -1    5.60    3.70
   8   1   1   -0.50    5.20
  -9  -1  -1    8.10    8.30
   9   1   1  -13.10    5.70
   9   1   1   -0.60    6.50
   8  -2  -1    9.40    4.80
   8  -2  -1    3.10    5.80
   8  -2  -1   12.00    6.00
  -8   2   1    1.00    4.50
  -8   2   1   -5.50    6.30
  -8   2   1   -3.00    5.30
   7  -2  -1   23.50    5.00
   7  -2  -1   25.30    4.30
   7  -2  -1   27.30    5.70
  -7   2   1   27.70    5.70
  -7   2   1   29.00    3.90
  -7   2   1   28.80    4.40
   6  -2  -1   23.30    4.10
   6  -2  -1   13.60    3.30
   6  -2  -1   14.80    3.90
  -6   2   1   14.30    3.90
  -6   2   1   19.00    2.90
  -6   2   1   20.50    3.50
  -6   2   1   24.50    4.80
  -6   2   1   13.50    3.10
   5  -2  -1    4.00    2.20
   5  -2  -1    3.40    2.90
   5  -2  -1    7.30    2.50
  -5   2   1    7.50    2.00
  -5   2   1    2.20    1.80
  -5   2   1    3.60    1.00
  -5   2   1    6.80    3.10
  -5   2   1   -4.50    3.10
  -5   2   1    4.40    2.40
  -5   2   1    4.60    1.00
  -5   2   1    3.80    2.20
  -5   2   1    3.70    2.90
   4  -2  -1   67.89    4.50
   4  -2  -1   69.69    5.10
   4  -2  -1   63.29    4.40
   4  -2  -1   68.29    4.10
  -4   2   1   68.39    4.70
  -4   2   1   69.69    3.20
  -4   2   1   72.79    3.30
  -4   2   1   69.39    2.60
  -4   2   1   70.29    4.90
  -4   2   1   66.49    4.80
  -4   2   1   72.19    4.00
  -4   2   1   64.19    2.50
  -4   2   1   73.39    3.80
  -4   2   1   68.49    4.90
   3  -2  -1   53.69    3.20
   3  -2  -1   54.79    3.60
   3  -2  -1   54.49    3.60
   3  -2  -1   56.39    3.70
  -3   2   1   58.09    2.10
  -3   2   1   55.89    3.50
  -3   2   1   54.29    2.80
  -3   2   1   54.99    2.60
  -3   2   1   51.49    3.70
  -3   2   1   55.79    2.40
  -3   2   1   53.99    3.10
  -3   2   1   53.19    3.80
  -3   2   1   58.49    3.50
   2  -2  -1   49.50    2.10
   2  -2  -1   53.89    3.00
   2  -2  -1   53.59    1.70
   2  -2  -1   53.49    1.70
   2  -2  -1   53.49    2.80
   2  -2  -1   50.39    3.10
  -2   2   1   52.09    2.00
  -2   2   1   53.79    2.20
  -2   2   1   52.79    2.90
  -2   2   1   56.39    2.90
  -2   2   1   47.60    2.60
  -2   2   1   53.79    3.00
  -2   2   1   53.09    2.10
  -2   2   1   55.19    3.00
  -2   2   1   51.69    2.10
   1  -2  -1  347.17    9.50
   1  -2  -1  363.96    9.40
   1  -2  -1  360.66    9.50
   1  -2  -1  356.66    8.50
   1  -2  -1  345.67    8.90
   1  -2  -1  359.66    8.80
   1  -2  -1  362.06    8.90
   1  -2  -1  357.96    9.50
  -1   2   1  363.86    9.60
  -1   2   1  356.46    8.90
  -1   2   1  358.56    8.90
  -1   2   1  359.06    8.90
  -1   2   1  354.36    9.50
  -1   2   1  369.36    9.50
   0  -2  -1 1330.97   30.70
   0  -2  -1 1315.57   30.80
   0  -2  -1 1317.77   31.00
   0  -2  -1 1328.97   30.90
   0  -2  -1 1317.57   30.70
   0  -2  -1 1300.97   30.70
   0   2   1 1336.47   30.70
   0   2   1 1361.76   30.80
   0   2   1 1304.87   30.90
   0   2   1 1321.87   31.00
   0   2   1 1323.87   30.70
   0   2   1 1265.17   30.70
  -1  -2  -1  991.30   23.40
  -1  -2  -1 1027.20   23.60
  -1  -2  -1  998.90   24.00
  -1  -2  -1 1009.10   23.80
  -1  -2  -1  995.90   23.60
  -1  -2  -1 1005.10   23.60
   1   2   1 1030.70   23.60
   1   2   1 1000.00   23.80
   1   2   1 1023.20   23.70
   1   2   1  998.10   23.50
   1   2   1  963.30   23.60
  -2  -2  -1  220.88    6.20
  -2  -2  -1  220.98    6.30
  -2  -2  -1  222.18    6.30
  -2  -2  -1  214.88    6.00
  -2  -2  -1  222.48    6.10
   2   2   1  220.58    5.90
   2   2   1  210.18    6.00
   2   2   1  216.48    6.30
   2   2   1  214.38    6.50
   2   2   1  206.88    6.80
   2   2   1  218.48    6.20
  -3  -2  -1  254.37    7.20
  -3  -2  -1  264.87    7.50
  -3  -2  -1  256.77    7.80
  -3  -2  -1  263.47    8.00
  -3  -2  -1  249.88    7.70
  -3  -2  -1  268.27    7.30
   3   2   1  256.57    7.40
   3   2   1  250.97    7.00
   3   2   1  239.38    7.70
   3   2   1  253.87    6.80
   3   2   1  261.47    8.10
   3   2   1  254.27    7.00
  -4  -2  -1 1789.02   43.30
  -4  -2  -1 1787.42   42.20
  -4  -2  -1 1816.22   42.50
  -4  -2  -1 1811.52   43.20
  -4  -2  -1 1772.02   42.30
  -4  -2  -1 1839.52   42.30
  -4  -2  -1 1777.42   43.60
   4   2   1 1786.12   43.90
   4   2   1 1791.12   43.40
   4   2   1 1800.22   42.50
   4   2   1 1812.32   42.60
   4   2   1 1763.92   41.40
   4   2   1 1799.52   41.50
  -5  -2  -1  360.96   11.90
  -5  -2  -1  342.17   10.00
  -5  -2  -1  338.57   11.50
  -5  -2  -1  330.57   10.10
  -5  -2  -1  357.36   10.10
  -5  -2  -1  348.27   11.30
  -5  -2  -1  350.96   11.30
  -5  -2  -1  315.37   10.60
   5   2   1  342.97   10.10
   5   2   1  351.56   11.30
   5   2   1  368.56   10.70
   5   2   1  351.46   11.80
  -6  -2  -1  606.64   16.50
  -6  -2  -1  579.44   18.00
  -6  -2  -1  616.04   19.20
  -6  -2  -1  620.54   16.30
  -6  -2  -1  584.14   16.00
  -6  -2  -1  612.84   16.40
   6   2   1  606.04   17.10
   6   2   1  608.64   16.50
   6   2   1  600.24   18.60
  -7  -2  -1    2.40    4.40
  -7  -2  -1    3.40    2.50
  -7  -2  -1    2.30    3.70
  -7  -2  -1   -0.10    2.70
  -7  -2  -1   -4.70    2.70
   7   2   1    1.00    3.30
   7   2   1   -1.30    3.00
   7   2   1   -1.00    3.70
  -8  -2  -1  153.38   11.80
  -8  -2  -1  144.29    7.60
  -8  -2  -1  120.99    8.00
   8   2   1  141.39   10.50
   8   2   1  127.49    8.80
  -9  -2  -1    9.40    5.50
  -9  -2  -1   -9.80    8.00
   9   2   1    5.20    5.90
   9   2   1   10.00    6.80
   8  -3  -1   -3.30    5.70
   8  -3  -1   -3.10    5.90
  -8   3   1   -5.20    6.60
  -8   3   1   -1.90    6.10
   7  -3  -1   28.60    5.00
   7  -3  -1   20.70    5.50
  -7   3   1   39.00    6.10
  -7   3   1   26.00    3.70
  -7   3   1   28.70    6.40
   6  -3  -1   -3.30    3.20
   6  -3  -1    1.20    3.30
  -6   3   1    0.30    1.40
  -6   3   1    2.50    2.40
  -6   3   1   -4.40    3.60
  -6   3   1    7.50    3.80
  -6   3   1   -2.20    1.40
  -6   3   1    1.30    3.50
  -6   3   1    2.00    2.70
   5  -3  -1  216.18    9.30
   5  -3  -1  201.58    8.40
  -5   3   1  219.78    9.40
  -5   3   1  212.38    6.80
  -5   3   1  199.38    7.60
  -5   3   1  205.28    6.70
  -5   3   1  196.18    6.00
  -5   3   1  193.48    8.20
  -5   3   1  205.48    6.10
  -5   3   1  207.88    9.00
  -5   3   1  181.88    8.80
   4  -3  -1    7.80    2.30
   4  -3  -1   12.60    2.80
   4  -3  -1   17.20    3.30
  -4   3   1    9.80    2.70
  -4   3   1   13.70    1.80
  -4   3   1   16.90    2.90
  -4   3   1   12.30    1.60
  -4   3   1   10.00    2.50
  -4   3   1   13.80    1.80
  -4   3   1    9.60    2.70
  -4   3   1   12.10    2.40
  -4   3   1   14.60    1.70
  -4   3   1    9.90    2.10
  -4   3   1   12.50    3.00
   3  -3  -1 1618.14   37.60
   3  -3  -1 1631.14   39.20
   3  -3  -1 1507.75   39.20
   3  -3  -1 1603.34   38.90
  -3   3   1 1622.14   37.60
  -3   3   1 1592.44   37.40
  -3   3   1 1628.44   37.30
  -3   3   1 1613.24   38.50
  -3   3   1 1618.74   38.60
  -3   3   1 1537.45   39.10
  -3   3   1 1599.64   39.30
  -3   3   1 1573.94   39.10
  -3   3   1 1632.34   39.20
   2  -3  -1   65.89    3.80
   2  -3  -1   62.79    3.50
   2  -3  -1   68.79    2.30
   2  -3  -1   62.99    2.60
   2  -3  -1   64.19    2.20
   2  -3  -1   68.79    3.50
  -2   3   1   68.19    2.80
  -2   3   1   74.49    3.70
  -2   3   1   67.19    3.40
  -2   3   1   58.69    3.40
  -2   3   1   66.19    3.70
  -2   3   1   66.89    2.90
  -2   3   1   63.29    3.50
  -2   3   1   70.09    2.60
  -2   3   1   66.19    2.70
   1  -3  -1 1206.48   27.70
   1  -3  -1 1154.18   28.50
   1  -3  -1 1169.08   28.10
   1  -3  -1 1169.68   27.50
   1  -3  -1 1214.08   28.60
   1  -3  -1 1161.68   28.70
   1  -3  -1 1198.18   27.70
   1  -3  -1 1199.98   28.50
  -1   3   1 1104.09   29.10
  -1   3   1 1209.68   28.00
  -1   3   1 1175.98   27.80
  -1   3   1 1184.78   28.60
  -1   3   1 1213.48   27.80
   0  -3  -1    1.30    0.90
   0  -3  -1    0.80    0.80
   0  -3  -1    2.90    1.00
   0  -3  -1    1.50    0.80
   0  -3  -1    1.20    0.90
   0  -3  -1    1.80    0.90
   0  -3  -1    1.60    1.10
   0   3   1    2.80    0.90
   0   3   1    2.50    1.00
   0   3   1    0.00    0.80
   0   3   1    1.70    1.00
   0   3   1    2.30    0.90
  -1  -3  -1 4329.27   95.49
  -1  -3  -1 4297.37   95.49
  -1  -3  -1 4229.18   94.89
  -1  -3  -1 4008.40   95.69
  -1  -3  -1 4188.08   95.59
  -1  -3  -1 4366.06   95.79
   1   3   1 4187.28   95.69
   1   3   1 4107.19   95.49
   1   3   1 3928.31   96.29
   1   3   1 4165.18   94.89
   1   3   1 4070.69   95.39
  -2  -3  -1    6.80    1.30
  -2  -3  -1    8.10    1.40
  -2  -3  -1    7.20    1.30
  -2  -3  -1    8.00    1.50
  -2  -3  -1    8.70    1.30
   2   3   1    9.10    1.30
   2   3   1    9.00    1.30
   2   3   1    9.70    1.60
   2   3   1    6.30    1.20
  -3  -3  -1  268.87    8.10
  -3  -3  -1  284.17    8.30
  -3  -3  -1  283.07    8.40
  -3  -3  -1  278.07    8.20
  -3  -3  -1  280.37    8.40
   3   3   1  283.07    8.80
   3   3   1  272.47    8.20
   3   3   1  279.87    8.00
   3   3   1  271.97    7.80
   3   3   1  282.47    8.50
   3   3   1  272.17    8.30
  -4  -3  -1   66.99    3.70
  -4  -3  -1   67.59    4.40
  -4  -3  -1   65.69    3.60
  -4  -3  -1   70.49    4.40
  -4  -3  -1   66.29    3.80
   4   3   1   63.49    3.20
   4   3   1   69.79    4.20
   4   3   1   67.09    3.70
   4   3   1   60.89    3.20
   4   3   1   68.09    4.20
   4   3   1   67.49    3.40
  -5  -3  -1   32.20    3.90
  -5  -3  -1   29.10    3.20
  -5  -3  -1   30.70    3.30
  -5  -3  -1   33.10    3.00
  -5  -3  -1   32.50    3.40
  -5  -3  -1   32.30    4.10
   5   3   1   30.40    3.60
   5   3   1   21.40    3.30
   5   3   1   31.50    3.20
   5   3   1   32.00    2.70
   5   3   1   30.20    3.30
   5   3   1   28.30    2.50
  -6  -3  -1   -1.00    2.10
  -6  -3  -1    2.20    3.10
  -6  -3  -1   -1.10    2.10
  -6  -3  -1    3.20    3.80
   6   3   1   -0.30    1.20
   6   3   1    4.30    3.10
   6   3   1    0.80    1.20
   6   3   1   -3.30    2.50
   6   3   1   -2.00    2.10
  -7  -3  -1    8.00    3.10
  -7  -3  -1    4.60    3.10
  -7  -3  -1    2.50    2.50
  -7  -3  -1   -4.40    4.30
  -7  -3  -1    2.00    4.40
   7   3   1   -1.60    3.50
   7   3   1   -1.30    3.60
   7   3   1   -0.30    3.10
  -8  -3  -1    1.80    4.40
  -8  -3  -1    9.50    6.30
  -8  -3  -1    7.80    3.30
   8   3   1   -2.00    5.10
   8   3   1    4.20    4.00
  -9  -3  -1   -0.20    7.40
  -9  -3  -1   -3.10    5.30
   9   3   1   -2.60    5.30
   9   3   1   -3.50    6.00
   7  -4  -1    1.20    5.20
   7  -4  -1   -0.90    5.20
  -7   4   1    2.00    3.40
  -7   4   1    1.30    5.80
  -7   4   1   -0.70    4.80
   6  -4  -1   -0.60    3.70
   6  -4  -1    3.60    4.00
  -6   4   1    6.60    2.70
  -6   4   1    3.70    3.20
  -6   4   1    6.70    2.40
  -6   4   1    4.50    4.10
  -6   4   1    6.50    2.20
  -6   4   1    3.50    4.30
  -6   4   1    4.90    4.60
   5  -4  -1    2.60    2.80
   5  -4  -1   -6.20    3.00
   5  -4  -1   -0.80    4.40
  -5   4   1    2.40    1.90
  -5   4   1   -1.60    3.10
  -5   4   1    6.20    3.30
  -5   4   1   -4.00    1.80
  -5   4   1    1.40    2.30
  -5   4   1    2.90    3.20
  -5   4   1   -7.00    2.60
   4  -4  -1    5.10    2.50
   4  -4  -1   -2.50    2.70
   4  -4  -1    3.30    3.00
   4  -4  -1    0.20    1.80
  -4   4   1    4.10    2.10
  -4   4   1   -2.60    2.30
  -4   4   1   -0.80    2.30
  -4   4   1   -1.30    1.60
  -4   4   1   -0.90    1.70
  -4   4   1    1.90    3.60
  -4   4   1    0.20    3.10
  -4   4   1    2.80    1.60
  -4   4   1   -0.40    2.50
  -4   4   1    4.50    2.60
   3  -4  -1    1.00    2.20
   3  -4  -1   -1.30    1.70
   3  -4  -1   -4.40    1.70
   3  -4  -1    0.50    1.20
  -3   4   1   -3.00    1.30
  -3   4   1    0.90    2.20
  -3   4   1   -1.80    2.30
  -3   4   1   -0.50    1.80
  -3   4   1   -0.60    2.00
  -3   4   1   -0.10    1.90
  -3   4   1    1.50    1.30
  -3   4   1   -2.70    1.70
   2  -4  -1   15.60    1.50
   2  -4  -1   15.20    2.30
   2  -4  -1   16.30    2.30
   2  -4  -1   18.00    1.70
   2  -4  -1   17.50    2.60
   2  -4  -1   14.30    1.90
   2  -4  -1   15.80    2.30
  -2   4   1   17.30    2.00
  -2   4   1   17.70    2.70
  -2   4   1   17.30    2.60
  -2   4   1   16.80    2.20
  -2   4   1   18.40    2.30
  -2   4   1   14.10    2.20
  -2   4   1   16.70    1.70
  -2   4   1   12.50    2.10
   1  -4  -1  260.47    7.10
   1  -4  -1  261.37    7.00
   1  -4  -1  260.07    8.20
   1  -4  -1  253.67    8.00
   1  -4  -1  262.27    7.80
   1  -4  -1  258.67    8.10
   1  -4  -1  214.78    8.20
  -1   4   1  253.57    7.20
  -1   4   1  259.67    8.10
  -1   4   1  243.88    7.50
  -1   4   1  253.17    8.10
  -1   4   1  252.57    7.70
   0  -4  -1   12.10    1.70
   0  -4  -1   11.30    1.70
   0  -4  -1   14.20    1.80
   0  -4  -1   10.50    1.60
   0  -4  -1   12.60    1.60
   0  -4  -1   10.80    1.70
   0   4   1   12.50    1.70
   0   4   1   13.30    1.70
   0   4   1   10.70    1.70
   0   4   1   10.50    1.40
   0   4   1   11.10    1.60
   0   4   1   10.20    1.40
  -1  -4  -1   59.99    3.20
  -1  -4  -1   60.49    3.20
  -1  -4  -1   50.99    3.40
  -1  -4  -1   57.49    3.00
  -1  -4  -1   53.69    2.90
   1   4   1   52.59    2.10
   1   4   1   57.69    2.70
   1   4   1   57.09    3.20
   1   4   1   57.69    3.20
   1   4   1   58.59    2.90
   1   4   1   56.79    3.10
   1   4   1   60.09    3.00
  -2  -4  -1   64.59    3.50
  -2  -4  -1   63.69    3.30
  -2  -4  -1   68.09    2.90
  -2  -4  -1   68.89    3.50
  -2  -4  -1   62.59    3.60
  -2  -4  -1   66.29    3.40
   2   4   1   68.29    3.30
   2   4   1   58.19    3.30
   2   4   1   58.09    3.40
   2   4   1   69.39    3.50
   2   4   1   66.99    2.90
  -3  -4  -1   48.50    3.20
  -3  -4  -1   47.60    3.10
  -3  -4  -1   49.40    3.30
  -3  -4  -1   46.20    3.20
  -3  -4  -1   45.00    3.50
   3   4   1   50.59    3.10
   3   4   1   45.20    3.30
   3   4   1   49.00    3.20
   3   4   1   49.30    3.30
   3   4   1   49.50    3.10
  -4  -4  -1   47.60    3.70
  -4  -4  -1   40.20    3.60
  -4  -4  -1   42.60    4.00
  -4  -4  -1   48.30    3.60
  -4  -4  -1   44.90    4.10
   4   4   1   45.20    3.30
   4   4   1   49.30    3.40
   4   4   1   47.10    3.60
   4   4   1   45.80    4.00
   4   4   1   46.80    3.90
   4   4   1   47.80    3.70
  -5  -4  -1   22.40    3.60
  -5  -4  -1   18.40    3.20
  -5  -4  -1   22.40    3.00
  -5  -4  -1   25.50    3.10
  -5  -4  -1   16.20    3.40
   5   4   1   18.60    2.50
   5   4   1   27.30    3.20
   5   4   1   15.70    3.10
   5   4   1   20.10    3.20
   5   4   1   18.50    2.50
   5   4   1   21.80    2.50
  -6  -4  -1   10.40    2.20
  -6  -4  -1    5.80    4.20
  -6  -4  -1    7.00    2.90
  -6  -4  -1    9.70    2.90
  -6  -4  -1    3.40    3.50
   6   4   1   11.00    2.30
   6   4   1   10.00    3.40
   6   4   1    7.20    2.60
   6   4   1    8.10    3.30
   6   4   1    8.90    2.30
  -7  -4  -1   20.50    2.80
  -7  -4  -1   26.50    3.80
  -7  -4  -1   25.20    4.00
   7   4   1   19.20    3.80
   7   4   1   22.70    2.20
   7   4   1   24.10    4.40
   7   4   1   19.50    2.20
   7   4   1   15.00    4.80
  -8  -4  -1    7.90    6.30
  -8  -4  -1   -3.40    4.50
  -8  -4  -1   -2.10    3.50
   8   4   1   -4.90    4.70
   8   4   1    2.80    4.00
  -9  -4  -1   -1.30    7.60
  -9  -4  -1   -4.10    6.20
   9   4   1    0.10    5.50
   9   4   1  -10.80    6.20
   7  -5  -1   -5.60    5.80
   7  -5  -1    6.30    6.40
  -7   5   1   14.30    6.90
  -7   5   1    2.70    5.90
   6  -5  -1   23.00    5.80
  -6   5   1   18.10    5.20
  -6   5   1   11.90    3.00
  -6   5   1    6.40    3.10
  -6   5   1   11.30    5.20
  -6   5   1   18.70    5.30
   5  -5  -1    0.90    3.50
   5  -5  -1    3.80    3.30
  -5   5   1   -0.50    3.70
  -5   5   1    1.70    2.80
  -5   5   1   -0.50    2.40
  -5   5   1    7.80    3.30
  -5   5   1   -0.90    2.20
  -5   5   1    4.30    3.40
   4  -5  -1    4.90    3.00
   4  -5  -1   -2.00    3.50
   4  -5  -1    3.70    2.20
   4  -5  -1    5.20    2.80
  -4   5   1    4.10    2.10
  -4   5   1    1.90    3.10
  -4   5   1    7.40    2.60
  -4   5   1    2.70    2.90
  -4   5   1    6.10    2.30
  -4   5   1    1.90    2.70
  -4   5   1    7.50    1.90
   3  -5  -1   96.49    4.30
   3  -5  -1   98.49    6.00
   3  -5  -1   97.09    5.90
   3  -5  -1  100.29    6.00
  -3   5   1   96.69    4.30
  -3   5   1   94.69    5.70
  -3   5   1   93.49    6.20
  -3   5   1   95.89    4.70
  -3   5   1   98.19    5.80
  -3   5   1   95.99    5.00
  -3   5   1   92.49    5.70
  -3   5   1   92.79    4.50
   2  -5  -1   60.99    2.80
   2  -5  -1   57.79    2.70
   2  -5  -1   50.99    3.00
   2  -5  -1   56.09    4.40
   2  -5  -1   48.30    4.00
   2  -5  -1   62.09    4.60
   2  -5  -1   55.19    4.20
  -2   5   1   56.09    3.60
  -2   5   1   60.69    3.20
  -2   5   1   59.09    4.00
  -2   5   1   57.49    3.60
  -2   5   1   53.39    4.60
  -2   5   1   59.09    4.20
  -2   5   1   54.69    3.30
   1  -5  -1   15.00    2.30
   1  -5  -1   15.20    1.80
   1  -5  -1   18.40    1.90
   1  -5  -1   14.30    2.30
   1  -5  -1   14.20    1.70
   1  -5  -1   14.60    2.80
   1  -5  -1   13.40    2.30
  -1   5   1   14.60    2.30
  -1   5   1   15.00    2.30
  -1   5   1   14.50    2.00
  -1   5   1   13.10    2.20
  -1   5   1   13.60    2.20
  -1   5   1   14.60    1.90
   0  -5  -1  177.38    6.00
   0  -5  -1  174.18    6.80
   0  -5  -1  187.38    6.40
   0  -5  -1  181.78    6.60
   0  -5  -1  178.48    6.50
   0  -5  -1  183.58    6.00
   0   5   1  183.28    6.60
   0   5   1  181.48    6.40
   0   5   1  180.08    6.80
   0   5   1  180.68    6.10
   0   5   1  188.88    6.50
   0   5   1  182.58    6.10
  -1  -5  -1   57.79    3.40
  -1  -5  -1   54.59    3.50
  -1  -5  -1   56.79    3.30
  -1  -5  -1   52.49    3.60
  -1  -5  -1   59.59    3.30
  -1  -5  -1   50.39    3.60
   1   5   1   57.89    3.40
   1   5   1   52.49    3.50
   1   5   1   57.19    3.30
   1   5   1   55.99    3.40
   1   5   1   53.39    3.30
   1   5   1   55.19    3.60
   1   5   1   56.09    2.20
  -2  -5  -1   63.59    3.60
  -2  -5  -1   57.99    3.70
  -2  -5  -1   50.99    3.30
  -2  -5  -1   50.99    2.60
  -2  -5  -1   48.80    3.70
  -2  -5  -1   51.19    3.90
   2   5   1   51.49    3.30
   2   5   1   55.39    3.80
   2   5   1   51.19    3.40
   2   5   1   46.80    2.70
   2   5   1   51.69    3.60
  -3  -5  -1    1.20    1.90
  -3  -5  -1    4.70    1.60
  -3  -5  -1    2.90    2.20
  -3  -5  -1    2.00    1.70
  -3  -5  -1    3.60    1.90
  -3  -5  -1    4.00    2.20
   3   5   1    0.50    1.70
   3   5   1    1.40    1.70
   3   5   1    3.90    1.60
   3   5   1    4.30    1.40
   3   5   1    3.20    2.00
  -4  -5  -1   60.39    5.10
  -4  -5  -1   59.69    4.30
  -4  -5  -1   66.79    4.40
  -4  -5  -1   58.29    4.60
  -4  -5  -1   61.19    4.50
   4   5   1   65.09    4.10
   4   5   1   67.29    4.70
   4   5   1   64.39    4.20
   4   5   1   61.29    4.60
   4   5   1   58.39    4.40
   4   5   1   56.19    4.50
  -5  -5  -1    0.90    2.30
  -5  -5  -1    3.40    2.20
  -5  -5  -1   -4.10    2.90
  -5  -5  -1    2.80    3.30
  -5  -5  -1    1.50    3.50
   5   5   1    2.20    2.20
   5   5   1    5.00    2.70
   5   5   1    2.50    2.40
   5   5   1    6.00    2.80
   5   5   1    2.40    2.60
   5   5   1    1.20    1.60
   5   5   1    1.30    2.60
  -6  -5  -1    5.10    2.20
  -6  -5  -1    4.00    3.10
  -6  -5  -1    7.60    3.10
   6   5   1    8.20    3.00
   6   5   1    3.00    2.40
   6   5   1    6.10    3.70
   6   5   1    3.10    2.50
   6   5   1    6.00    3.40
  -7  -5  -1    1.30    2.30
  -7  -5  -1   -1.70    3.20
  -7  -5  -1    2.40    3.70
   7   5   1    3.30    3.10
   7   5   1    5.40    2.80
   7   5   1    0.40    3.30
   7   5   1   -0.50    4.00
   7   5   1   -4.20    4.40
  -8  -5  -1   -4.70    5.70
  -8  -5  -1   -2.80    4.70
  -8  -5  -1    5.10    4.60
   8   5   1   -1.40    4.20
   8   5   1  -10.30    4.60
   7  -6  -1   14.00    6.80
   7  -6  -1    8.90    7.10
  -7   6   1   -9.20    7.10
   6  -6  -1   19.40    5.70
   6  -6  -1   12.70    6.20
  -6   6   1   19.50    4.00
  -6   6   1    9.00    6.00
  -6   6   1   28.60    6.20
  -6   6   1   13.20    3.70
   5  -6  -1   17.50    5.30
   5  -6  -1   21.50    4.80
  -5   6   1   12.00    3.70
  -5   6   1   10.40    3.70
  -5   6   1   13.80    4.80
  -5   6   1   12.80    4.70
  -5   6   1   11.90    3.00
   4  -6  -1   14.90    4.20
   4  -6  -1   11.20    2.60
   4  -6  -1   12.10    3.70
   4  -6  -1   10.50    4.50
  -4   6   1   11.80    3.90
  -4   6   1    8.10    2.40
  -4   6   1   11.10    3.10
  -4   6   1   12.30    3.60
  -4   6   1   12.50    3.90
  -4   6   1   14.30    3.30
   3  -6  -1    5.20    3.00
   3  -6  -1   -1.20    3.60
   3  -6  -1    0.50    2.90
   3  -6  -1    0.10    2.00
  -3   6   1    1.80    2.30
  -3   6   1    1.60    2.40
  -3   6   1    6.00    2.90
  -3   6   1    2.40    1.80
  -3   6   1    1.10    2.30
  -3   6   1    1.90    2.40
   2  -6  -1   24.70    2.20
   2  -6  -1   24.50    3.30
   2  -6  -1   28.50    2.90
   2  -6  -1   21.40    3.50
   2  -6  -1   23.10    3.20
   2  -6  -1   21.10    3.40
   2  -6  -1   23.00    2.50
  -2   6   1   27.60    3.00
  -2   6   1   24.90    2.60
  -2   6   1   37.00    3.80
  -2   6   1   28.30    3.30
  -2   6   1   24.00    2.40
  -2   6   1   22.90    3.20
  -2   6   1   23.70    3.80
   1  -6  -1   19.60    2.90
   1  -6  -1   18.90    3.50
   1  -6  -1   19.00    2.90
   1  -6  -1   18.80    2.20
   1  -6  -1   15.40    2.50
   1  -6  -1   17.10    2.10
   1  -6  -1   21.10    2.40
  -1   6   1   19.70    3.20
  -1   6   1   20.10    2.70
  -1   6   1   18.20    3.00
  -1   6   1   20.40    2.60
  -1   6   1   19.80    2.10
  -1   6   1   10.70    2.40
  -1   6   1   15.00    2.40
   0  -6  -1   97.39    5.00
   0  -6  -1   92.69    5.50
   0  -6  -1   89.39    4.40
   0  -6  -1   96.79    5.10
   0  -6  -1   97.29    4.40
   0  -6  -1   98.29    5.20
   0   6   1   91.29    5.20
   0   6   1   89.19    4.60
   0   6   1   97.69    5.20
   0   6   1   91.79    4.70
   0   6   1   90.99    2.80
   0   6   1   93.89    4.50
   0   6   1   95.79    5.10
  -1  -6  -1    1.00    1.90
  -1  -6  -1    1.60    1.70
  -1  -6  -1    1.00    1.90
  -1  -6  -1    4.60    1.90
  -1  -6  -1    0.20    1.50
  -1  -6  -1   -0.20    1.70
   1   6   1    0.60    1.90
   1   6   1    1.50    0.80
   1   6   1   -1.30    1.80
   1   6   1   -0.40    1.60
   1   6   1   -0.10    1.30
   1   6   1   -2.00    1.50
   1   6   1    0.60    1.80
  -2  -6  -1  132.29    6.20
  -2  -6  -1  130.49    5.60
  -2  -6  -1  144.09    6.30
  -2  -6  -1  131.99    6.20
  -2  -6  -1  135.49    4.40
  -2  -6  -1  135.09    5.90
  -2  -6  -1  126.29    5.70
   2   6   1  127.39    5.70
   2   6   1  132.09    4.50
   2   6   1  143.09    6.00
   2   6   1  138.69    6.30
   2   6   1  129.39    6.00
  -3  -6  -1   57.19    3.70
  -3  -6  -1   48.70    3.50
  -3  -6  -1   46.90    4.30
  -3  -6  -1   46.20    5.00
  -3  -6  -1   52.19    4.20
  -3  -6  -1   50.89    4.30
  -3  -6  -1   50.79    4.80
   3   6   1   50.39    4.00
   3   6   1   45.40    3.30
   3   6   1   55.69    4.60
   3   6   1   46.80    4.20
  -4  -6  -1   10.50    2.90
  -4  -6  -1    9.00    3.00
  -4  -6  -1   12.60    3.00
  -4  -6  -1    8.30    3.30
  -4  -6  -1    9.20    2.60
   4   6   1    4.80    2.40
   4   6   1    8.00    2.70
   4   6   1    8.10    3.10
   4   6   1    6.90    2.20
   4   6   1    7.30    2.90
  -5  -6  -1   39.70    4.70
  -5  -6  -1   40.90    4.50
  -5  -6  -1   37.30    5.70
  -5  -6  -1   44.50    4.60
   5   6   1   39.90    4.20
   5   6   1   37.30    3.80
   5   6   1   31.60    4.00
   5   6   1   37.70    4.50
   5   6   1   28.80    4.10
  -6  -6  -1   30.80    4.70
  -6  -6  -1   29.50    4.50
   6   6   1   32.40    7.50
   6   6   1   30.80    3.30
   6   6   1   29.30    3.90
   6   6   1   26.00    4.40
  -7  -6  -1    7.70    4.50
  -7  -6  -1   16.40    4.30
  -7  -6  -1    7.00    2.10
   7   6   1    3.40    3.40
   7   6   1    9.20    3.30
   7   6   1    7.40    4.20
   7   6   1    9.70    4.50
  -8  -6  -1  -11.00    4.90
  -8  -6  -1   -1.00    5.40
   8   6   1   -3.90    5.30
   8   6   1   -1.60    4.20
   6  -7  -1   23.80    6.50
   6  -7  -1   24.50    7.70
  -6   7   1   32.60    7.20
  -6   7   1   18.60    4.40
  -6   7   1   13.40    6.60
   5  -7  -1    0.80    3.70
   5  -7  -1   12.80    5.00
   5  -7  -1   13.90    6.00
  -5   7   1    2.70    4.60
  -5   7   1    8.00    3.30
  -5   7   1   16.70    5.50
   4  -7  -1   -2.40    2.70
   4  -7  -1   -1.00    4.10
   4  -7  -1    7.50    5.50
   4  -7  -1   -6.40    4.40
  -4   7   1    2.40    3.80
  -4   7   1    2.50    2.70
  -4   7   1   -0.40    3.70
  -4   7   1    7.40    4.30
  -4   7   1    4.20    3.80
  -4   7   1    1.30    3.90
   3  -7  -1   32.00    4.80
   3  -7  -1   25.70    5.10
   3  -7  -1   43.20    4.50
   3  -7  -1   29.70    4.60
  -3   7   1   35.60    3.60
  -3   7   1   38.70    4.40
  -3   7   1   33.70    3.60
  -3   7   1   36.50    4.30
  -3   7   1   30.20    4.40
  -3   7   1   44.60    5.10
   2  -7  -1   19.50    3.90
   2  -7  -1   21.30    3.70
   2  -7  -1   25.20    4.00
   2  -7  -1   26.20    2.40
   2  -7  -1   25.50    3.00
   2  -7  -1   24.90    3.00
  -2   7   1   26.10    3.60
  -2   7   1   23.50    3.20
  -2   7   1   21.10    3.70
  -2   7   1   29.40    3.60
  -2   7   1   27.70    4.10
  -2   7   1   24.70    2.50
   1  -7  -1  227.58    7.70
   1  -7  -1  235.48    9.40
   1  -7  -1  240.48   11.40
   1  -7  -1  225.88    7.60
   1  -7  -1  232.28    8.80
   1  -7  -1  217.78    7.70
  -1   7   1  228.48    9.00
  -1   7   1  224.08    9.20
  -1   7   1  225.58    8.30
  -1   7   1  229.98    8.50
  -1   7   1  228.28    8.20
  -1   7   1  230.68    6.30
  -1   7   1  234.28    9.60
   0  -7  -1  550.84   16.90
   0  -7  -1  562.94   15.40
   0  -7  -1  584.44   16.70
   0  -7  -1  550.84   15.50
   0  -7  -1  560.14   16.00
   0   7   1  565.24   15.90
   0   7   1  543.15   16.60
   0   7   1  571.84   16.40
   0   7   1  545.15   16.40
   0   7   1  574.74   15.90
   0   7   1  563.84   15.80
  -1  -7  -1    2.20    2.30
  -1  -7  -1    2.00    2.10
  -1  -7  -1    0.90    1.90
  -1  -7  -1   -1.70    2.40
  -1  -7  -1   -0.90    2.40
  -1  -7  -1   -1.30    2.60
   1   7   1   -0.50    1.80
   1   7   1   -0.60    2.00
   1   7   1   -0.40    2.20
   1   7   1    0.20    2.70
   1   7   1   -0.50    2.60
  -2  -7  -1   32.00    3.60
  -2  -7  -1   28.10    3.80
  -2  -7  -1   32.90    3.60
  -2  -7  -1   33.10    4.10
  -2  -7  -1   33.40    3.90
  -2  -7  -1   32.80    4.00
   2   7   1   25.90    3.10
   2   7   1   24.10    2.30
   2   7   1   32.60    3.70
   2   7   1   26.50    3.40
   2   7   1   23.50    3.30
   2   7   1   30.40    4.10
  -3  -7  -1   46.20    4.60
  -3  -7  -1   47.60    4.80
  -3  -7  -1   42.70    4.80
  -3  -7  -1   53.59    3.60
  -3  -7  -1   57.09    5.60
  -3  -7  -1   46.80    4.30
  -3  -7  -1   54.99    4.90
   3   7   1   43.70    4.80
   3   7   1   55.49    4.90
   3   7   1   42.10    4.50
   3   7   1   53.49    3.50
   3   7   1   49.40    4.50
  -4  -7  -1   -1.50    2.80
  -4  -7  -1    4.80    4.50
  -4  -7  -1    2.70    2.50
  -4  -7  -1    2.90    2.10
  -4  -7  -1    0.60    2.60
   4   7   1    0.30    2.70
   4   7   1    2.70    2.60
  -5  -7  -1    4.90    3.20
  -5  -7  -1    6.20    3.40
  -5  -7  -1    3.80    2.30
  -5  -7  -1    1.80    3.80
   5   7   1    5.70    3.10
   5   7   1    4.30    3.10
   5   7   1    8.00    3.60
  -6  -7  -1   21.20    4.40
  -6  -7  -1   27.50    3.10
  -6  -7  -1   18.20    4.40
   6   7   1   27.60    3.70
   6   7   1   34.50    4.60
   6   7   1   27.70    4.80
   6   7   1   27.80    5.00
  -7  -7  -1    4.70    4.60
  -7  -7  -1    2.20    3.80
  -7  -7  -1    0.00    4.20
   7   7   1    5.10    5.00
   7   7   1    3.80    3.40
   7   7   1   -0.10    4.30
  -8  -7  -1   -5.00    6.00
  -8  -7  -1   -4.30    5.30
   8   7   1  -15.50    6.80
   8   7   1   -1.30    7.90
   8   7   1   -5.40    5.90
   5  -8  -1   17.80    6.40
   5  -8  -1    7.50    5.30
   5  -8  -1   12.40    6.20
  -5   8   1    7.20    5.30
  -5   8   1    7.10    3.90
  -5   8   1    5.80    6.10
   4  -8  -1   19.70    3.70
   4  -8  -1   19.60    6.00
   4  -8  -1    8.80    4.90
  -4   8   1   20.10    4.00
  -4   8   1   21.00    5.40
  -4   8   1   24.30    5.10
   3  -8  -1  187.88   11.00
   3  -8  -1  204.38    8.30
   3  -8  -1  211.38   10.50
   3  -8  -1  195.98   10.50
  -3   8   1  193.48    8.00
  -3   8   1  173.58    9.60
  -3   8   1  192.58    8.50
  -3   8   1  215.28   10.90
  -3   8   1  206.68    9.60
   2  -8  -1  149.49   10.50
   2  -8  -1  173.28    6.00
   2  -8  -1  154.58    7.90
   2  -8  -1  165.48    7.10
   2  -8  -1  160.18    9.00
  -2   8   1  170.88    9.30
  -2   8   1  159.48    8.50
  -2   8   1  165.28    7.30
  -2   8   1  178.28    8.20
  -2   8   1  153.18    7.90
   1  -8  -1   63.69    4.50
   1  -8  -1   51.09    5.00
   1  -8  -1   58.29    6.00
   1  -8  -1   55.69    5.30
   1  -8  -1   59.99    4.50
  -1   8   1   57.79    6.40
  -1   8   1   60.49    4.70
  -1   8   1   55.89    5.50
  -1   8   1   48.40    5.00
   0  -8  -1   23.40    3.40
   0  -8  -1   27.80    4.10
   0  -8  -1   20.90    3.30
   0  -8  -1   19.70    3.60
   0   8   1   23.00    4.10
   0   8   1   25.20    3.50
   0   8   1   25.10    4.60
   0   8   1   19.40    3.30
  -1  -8  -1    7.60    3.50
  -1  -8  -1    4.40    3.20
  -1  -8  -1    2.40    2.70
  -1  -8  -1    2.80    3.50
  -1  -8  -1    7.00    2.50
   1   8   1    5.60    3.50
   1   8   1    2.50    2.80
   1   8   1    5.70    2.40
  -2  -8  -1   -0.20    2.60
  -2  -8  -1   -2.60    3.60
  -2  -8  -1    1.30    3.00
  -2  -8  -1    3.30    2.40
   2   8   1   -0.90    2.40
   2   8   1    1.00    2.90
   2   8   1   -1.10    3.10
  -3  -8  -1    4.20    2.90
  -3  -8  -1    2.60    4.20
  -3  -8  -1    7.20    3.50
  -3  -8  -1    7.60    2.60
   3   8   1    0.40    3.20
   3   8   1    6.20    3.00
   3   8   1    2.70    3.00
  -4  -8  -1    9.60    3.50
  -4  -8  -1   11.10    3.00
  -4  -8  -1    9.50    3.20
  -4  -8  -1    7.20    3.00
   4   8   1   14.00    3.60
   4   8   1   12.20    4.00
  -5  -8  -1   20.20    4.70
  -5  -8  -1   11.70    3.80
  -5  -8  -1   19.70    4.40
  -5  -8  -1   13.50    3.20
   5   8   1   11.30    4.30
   5   8   1   22.70    4.20
   5   8   1   10.80    4.50
  -6  -8  -1   77.99    7.80
  -6  -8  -1   97.49    8.20
  -6  -8  -1   80.79    5.90
   6   8   1   89.29    8.70
   6   8   1   76.59    7.70
   6   8   1   72.79    8.50
  -7  -8  -1    7.00    5.30
  -7  -8  -1   -1.20    5.60
   7   8   1    8.40    5.60
   7   8   1   -3.40    5.30
   7   8   1   -3.90    3.60
  -8  -8  -1   -1.30    6.10
  -8  -8  -1    7.20    6.60
   8   8   1    2.00    9.60
   8   8   1   -1.00    6.50
   4  -9  -1    9.00    4.30
   4  -9  -1   -2.00    6.30
  -4   9   1    9.40    4.20
  -4   9   1   23.10    6.90
  -4   9   1    2.90    5.30
   3  -9  -1    9.10    3.70
   3  -9  -1   15.70    5.30
  -3   9   1    3.30    5.30
  -3   9   1   11.30    4.60
  -3   9   1    9.30    3.90
   2  -9  -1   37.40    5.70
   2  -9  -1   45.40    6.20
   2  -9  -1   38.10    4.40
   2  -9  -1   41.50    4.00
  -2   9   1   44.40    6.30
  -2   9   1   44.50    3.60
  -2   9   1   43.30    5.10
  -2   9   1   50.79    4.90
   1  -9  -1    2.10    3.40
   1  -9  -1    4.30    3.60
   1  -9  -1    3.00    3.00
   1  -9  -1    3.90    4.50
   1  -9  -1    0.50    2.90
  -1   9   1    1.30    3.30
  -1   9   1   -1.90    3.90
  -1   9   1   -3.20    2.90
   0  -9  -1   63.89    6.70
   0  -9  -1   71.89    7.70
   0  -9  -1   72.69    6.70
   0  -9  -1   64.49    5.70
   0  -9  -1   61.39    5.20
   0   9   1   59.09    5.90
   0   9   1   66.19    5.90
  -1  -9  -1  414.76   14.30
  -1  -9  -1  405.96   14.00
  -1  -9  -1  403.26   13.50
   1   9   1  405.96   14.60
   1   9   1  414.56   13.90
  -2  -9  -1  839.72   25.40
  -2  -9  -1  898.81   24.50
  -2  -9  -1  864.41   24.10
  -2  -9  -1  843.42   24.40
   2   9   1  872.41   24.20
   2   9   1  887.71   25.40
   2   9   1  886.41   24.50
  -3  -9  -1  433.96   15.60
  -3  -9  -1  432.66   14.20
  -3  -9  -1  384.76   16.90
   3   9   1  391.06   14.50
   3   9   1  447.56   20.20
   3   9   1  420.26   14.00
  -4  -9  -1  548.35   17.70
  -4  -9  -1  568.24   17.00
  -4  -9  -1  545.55   15.30
  -4  -9  -1  583.44   18.70
   4   9   1  565.74   18.00
   4   9   1  542.95   18.60
  -5  -9  -1   46.20    4.90
  -5  -9  -1   38.80    6.30
  -5  -9  -1   44.50    6.00
  -5  -9  -1   50.89    6.20
   5   9   1   43.40    5.60
   5   9   1   72.79    8.00
  -6  -9  -1   16.30    3.90
  -6  -9  -1   20.50    5.70
  -6  -9  -1   28.70    6.20
   6   9   1   18.50    6.00
   6   9   1   20.00    5.20
   6   9   1   23.20    5.90
  -7  -9  -1   -1.60    5.60
  -7  -9  -1    8.10    6.10
   7   9   1    5.10    5.60
   7   9   1    5.70    6.60
   7   9   1   14.00    6.00
   3 -10  -1  -11.50    6.30
   3 -10  -1    7.70    4.50
  -3  10   1    8.30    5.00
  -3  10   1    3.30    5.20
  -3  10   1    2.60    6.30
   2 -10  -1   -8.00    3.80
   2 -10  -1   -0.30    4.40
  -2  10   1   -0.70    4.20
  -2  10   1    3.30    4.20
  -2  10   1    1.10    5.30
   1 -10  -1   14.20    4.10
   1 -10  -1    8.30    3.60
   1 -10  -1   11.90    4.60
  -1  10   1   16.70    4.30
  -1  10   1   11.80    4.10
  -1  10   1   10.70    4.70
   0 -10  -1    6.00    3.80
   0 -10  -1    0.30    3.60
   0 -10  -1    8.20    5.80
   0 -10  -1    2.00    3.30
   0  10   1    3.20    4.00
   0  10   1    4.90    3.60
  -1 -10  -1    3.40    3.60
  -1 -10  -1    4.10    5.40
  -1 -10  -1    2.50    3.70
   1  10   1   -2.40    4.10
   1  10   1    2.20    3.70
  -2 -10  -1   -1.00    3.70
  -2 -10  -1    3.00    3.70
   2  10   1    6.30    3.90
   2  10   1    2.60    4.60
  -3 -10  -1   32.90    4.70
  -3 -10  -1   26.90    6.30
  -3 -10  -1   19.30    5.30
   3  10   1   25.10    5.50
   3  10   1   28.80    5.00
  -4 -10  -1    2.90    3.70
  -4 -10  -1   -4.20    4.20
  -4 -10  -1    1.40    4.50
   4  10   1   -4.10    3.90
   4  10   1   -0.40    4.80
  -5 -10  -1   36.60    6.30
  -5 -10  -1   39.30    6.90
  -5 -10  -1   41.30    5.10
   5  10   1   40.80    5.90
   5  10   1   32.60    6.20
  -6 -10  -1   54.09    7.60
  -6 -10  -1   55.69    5.70
  -6 -10  -1   49.80    8.10
   6  10   1   38.80    7.00
   6  10   1   52.79    7.60
   6  10   1   41.60    6.50
   2 -11  -1    0.20    5.20
   2 -11  -1   17.00    6.80
  -2  11   1    7.50    6.20
  -2  11   1    3.10    5.70
  -2  11   1    6.20    5.50
   1 -11  -1   17.40    4.80
   1 -11  -1    6.10    5.70
   1 -11  -1    7.50    5.80
  -1  11   1    9.60    4.90
  -1  11   1   11.20    5.20
  -1  11   1    4.80    5.60
   0 -11  -1    8.10    5.30
   0 -11  -1   13.70    4.80
   0  11   1    3.30    5.00
   0  11   1   11.60    4.80
  -1 -11  -1    1.80    4.40
  -1 -11  -1    1.10    4.60
   1  11   1    1.20    4.40
   1  11   1   -1.40    4.70
  -2 -11  -1   24.10    5.40
  -2 -11  -1   33.30    5.60
   2  11   1   26.90    5.50
   2  11   1   35.30    6.10
  -3 -11  -1   13.50    5.60
  -3 -11  -1   27.10    5.40
   3  11   1   27.70    6.40
   3  11   1   21.90    5.60
  -4 -11  -1   -1.50    5.80
  -4 -11  -1   10.80    8.80
   4  11   1    4.40    6.20
   4  11   1    9.50    5.50
  -5 -11  -1    2.50    7.30
  -5 -11  -1    9.60    5.20
  -5 -11  -1    9.90    6.00
   5  11   1   16.60    5.90
   5  11   1    6.80    6.50
   0 -12  -1    7.90    5.40
   0 -12  -1    3.70    5.80
   0 -12  -1   -5.10    6.80
   0  12   1    7.50    5.80
   0  12   1    5.00    6.30
  -1 -12  -1   44.10    7.40
  -1 -12  -1   43.30    6.30
  -1 -12  -1   45.10    6.80
   1  12   1   34.10    6.20
   1  12   1   64.59    8.30
  -2 -12  -1    7.70    6.10
  -2 -12  -1   -0.40    6.00
   2  12   1    4.60    6.20
   2  12   1    0.40    5.20
  -3 -12  -1   -4.70    6.00
  -3 -12  -1   -2.60    5.90
   3  12   1    2.00    6.60
   3  12   1    3.30    5.80
  -4 -12  -1    4.20    6.00
   4  11  -2   -7.80    5.70
   4  11  -2   -7.40    7.00
  -4 -11   2   14.70    7.20
  -4 -11   2    1.20    6.20
   3  11  -2   -5.10    6.60
   3  11  -2    7.50    6.00
  -3 -11   2    1.30    5.60
  -3 -11   2   -2.20    5.90
   2  11  -2    7.60    6.40
   2  11  -2   -3.60    5.40
  -2 -11   2   -1.10    5.70
  -2 -11   2    1.40    4.80
  -2 -11   2   -1.80    5.50
   1  11  -2    1.60    6.20
   1  11  -2    0.80    5.50
  -1 -11   2   -5.00    5.50
  -1 -11   2   -0.60    5.40
  -1 -11   2    9.90    7.00
   0  11  -2   -0.10    5.70
   0  11  -2    5.20    6.80
   0 -11   2   10.50    6.00
   0 -11   2    0.70    6.50
   5  10  -2    0.90    5.90
   5  10  -2    3.40    5.00
   5  10  -2    2.20    6.50
  -5 -10   2    6.10    5.10
  -5 -10   2   -0.40    5.80
   4  10  -2    0.30    6.30
   4  10  -2   -4.40    5.10
  -4 -10   2    2.50    4.50
  -4 -10   2   -1.90    5.30
   3  10  -2   -2.80    5.30
   3  10  -2   -1.50    4.50
  -3 -10   2    0.60    4.20
  -3 -10   2   -1.90    4.50
   2  10  -2    6.80    4.90
   2  10  -2   10.30    5.80
  -2 -10   2    3.20    4.50
  -2 -10   2    5.50    4.60
   1  10  -2    5.60    5.40
   1  10  -2   -2.10    4.20
  -1 -10   2    5.30    5.00
  -1 -10   2    3.00    4.50
  -1 -10   2    1.70    4.30
   0  10  -2   22.80    5.60
   0  10  -2   16.30    4.80
   0 -10   2   19.70    4.50
   0 -10   2   17.40    6.10
   0 -10   2   28.80    5.70
  -1  10  -2   -3.40    5.20
  -1  10  -2   -1.70    4.60
   1 -10   2   -0.60    4.40
   1 -10   2   -2.40    5.50
  -2  10  -2    6.60    6.30
  -2  10  -2   -5.10    5.00
   2 -10   2    2.60    5.40
   2 -10   2    8.00    6.70
   6   9  -2   -2.80    5.40
   6   9  -2    6.30    5.60
   6   9  -2   -7.20    6.00
  -6  -9   2    0.50    5.50
   5   9  -2   -4.00    4.30
   5   9  -2    6.50    5.80
   5   9  -2   -1.50    4.80
  -5  -9   2   -6.20    3.60
  -5  -9   2    3.50    5.00
   4   9  -2   -2.60    4.10
   4   9  -2   -6.20    4.30
  -4  -9   2   -5.10    4.10
  -4  -9   2    0.50    3.40
   3   9  -2    9.40    4.40
   3   9  -2    9.60    4.30
  -3  -9   2    9.70    4.00
  -3  -9   2   11.60    4.40
  -3  -9   2   12.30    5.00
   2   9  -2    5.10    4.40
   2   9  -2    5.40    4.40
  -2  -9   2    0.00    3.80
  -2  -9   2    6.20    3.70
  -2  -9   2   -2.00    3.80
   1   9  -2    6.70    3.70
   1   9  -2    7.30    4.40
  -1  -9   2    9.60    3.70
  -1  -9   2    3.70    3.60
  -1  -9   2    4.50    3.30
  -1  -9   2   13.50    4.30
   0   9  -2   25.90    5.30
   0   9  -2   16.00    5.60
   0  -9   2   28.20    4.60
   0  -9   2   17.20    4.50
   0  -9   2   15.90    3.70
   0  -9   2   19.00    4.60
  -1   9  -2   -2.20    3.70
  -1   9  -2   -1.90    4.20
   1  -9   2   -3.30    4.40
   1  -9   2    2.80    2.70
   1  -9   2    1.00    3.70
  -2   9  -2   -2.20    4.70
  -2   9  -2    4.60    4.10
   2  -9   2    3.90    5.30
   2  -9   2   -1.00    4.20
  -3   9  -2    8.70    6.00
  -3   9  -2    4.90    4.40
   3  -9   2   17.80    5.40
   3  -9   2    8.30    6.60
  -4   9  -2   -4.70    6.40
   4  -9   2    5.50    5.70
   4  -9   2   -1.50    6.80
   7   8  -2    5.50    5.90
   7   8  -2   -6.50    5.70
  -7  -8   2   -2.30    5.90
  -7  -8   2    0.80    6.80
   6   8  -2   14.70    5.60
   6   8  -2   25.20    5.70
   6   8  -2   16.40    6.00
  -6  -8   2   18.50    5.50
   5   8  -2   11.00    4.70
   5   8  -2    8.90    4.00
   5   8  -2   10.50    4.80
  -5  -8   2    5.20    4.50
  -5  -8   2    5.40    5.90
  -5  -8   2    4.40    2.90
   4   8  -2    1.80    3.60
   4   8  -2    2.60    3.70
  -4  -8   2   -3.70    3.60
  -4  -8   2    3.60    5.00
  -4  -8   2    0.60    2.80
  -4  -8   2    0.20    2.90
   3   8  -2   -1.30    5.90
  -3  -8   2    0.70    1.70
  -3  -8   2    2.00    3.30
  -3  -8   2   -7.40    3.60
  -3  -8   2    1.00    2.70
   2   8  -2   23.60    4.30
   2   8  -2   26.90    4.50
  -2  -8   2   23.30    3.80
  -2  -8   2   19.30    3.70
  -2  -8   2   25.90    4.00
   1   8  -2  200.18    9.60
   1   8  -2  196.08    8.70
  -1  -8   2  177.08    8.50
  -1  -8   2  191.18    8.30
  -1  -8   2  194.88    9.40
  -1  -8   2  197.08    7.70
   0   8  -2   41.50    5.30
   0   8  -2   30.70    4.00
   0  -8   2   39.10    5.00
   0  -8   2   34.80    3.30
   0  -8   2   34.00    4.00
   0  -8   2   25.60    3.90
   0  -8   2   36.60    3.80
  -1   8  -2   88.59    6.20
  -1   8  -2   99.79    7.30
   1  -8   2  103.29    6.80
   1  -8   2   93.49    4.90
   1  -8   2   87.59    5.00
   1  -8   2   76.69    8.50
   1  -8   2   83.59    5.10
  -2   8  -2    9.30    3.40
  -2   8  -2    5.10    2.40
  -2   8  -2    8.50    4.40
   2  -8   2    2.60    3.40
   2  -8   2    4.60    3.60
   2  -8   2    4.30    4.50
  -3   8  -2    0.40    3.20
  -3   8  -2   -0.20    3.00
  -3   8  -2   -0.40    7.30
  -3   8  -2    0.20    4.60
   3  -8   2   12.80    4.20
   3  -8   2   -3.80    5.00
  -4   8  -2    2.70    3.70
  -4   8  -2    6.50    6.00
   4  -8   2    1.90    4.60
   4  -8   2    0.50    6.00
  -5   8  -2    7.10    6.90
   5  -8   2    0.50    7.00
   5  -8   2   -6.90    5.60
   8   7  -2    9.40    6.40
   8   7  -2   -4.10    6.60
   8   7  -2    9.50    6.40
  -8  -7   2    2.70    8.40
  -8  -7   2   -5.20    6.50
   7   7  -2    5.70    5.00
   7   7  -2   -5.80    5.00
  -7  -7   2   -4.10    6.00
  -7  -7   2   -3.50    5.30
   6   7  -2   35.50    5.80
   6   7  -2   30.30    6.10
  -6  -7   2   26.30    5.50
  -6  -7   2   34.30    6.50
   5   7  -2    3.40    4.30
   5   7  -2   14.90    6.80
   5   7  -2    7.60    3.70
  -5  -7   2    8.20    4.10
  -5  -7   2    0.40    3.80
  -5  -7   2    7.90    2.30
   4   7  -2   -0.60    3.00
   4   7  -2   -1.80    2.70
   4   7  -2    2.60    3.70
  -4  -7   2   -6.20    2.50
  -4  -7   2    3.80    2.30
  -4  -7   2    1.90    3.00
   3   7  -2    5.20    2.90
   3   7  -2    3.20    3.30
  -3  -7   2    7.50    3.30
  -3  -7   2    7.10    2.80
  -3  -7   2    5.30    2.30
  -3  -7   2    4.60    1.90
   2   7  -2  103.59    6.40
   2   7  -2  111.09    6.90
  -2  -7   2  117.69    6.10
  -2  -7   2  106.69    6.30
  -2  -7   2   85.19    5.90
  -2  -7   2  103.29    6.60
   1   7  -2    5.50    2.40
   1   7  -2    2.50    3.60
   1   7  -2    4.00    2.90
   1   7  -2    6.70    3.20
  -1  -7   2    5.40    2.50
  -1  -7   2    4.30    2.30
  -1  -7   2    5.90    3.00
  -1  -7   2    5.10    2.60
   0   7  -2   40.00    4.30
   0   7  -2   31.00    4.30
   0   7  -2   33.80    4.20
   0  -7   2   38.00    3.60
   0  -7   2   33.80    4.50
   0  -7   2   35.50    4.00
   0  -7   2   29.80    3.40
   0  -7   2   33.10    3.50
  -1   7  -2   52.09    5.40
  -1   7  -2   66.69    5.00
  -1   7  -2   54.19    5.80
   1  -7   2   62.59    3.90
   1  -7   2   68.09    4.10
   1  -7   2   65.49    6.20
   1  -7   2   68.29    5.40
   1  -7   2   65.99    3.80
  -2   7  -2   92.39    6.40
  -2   7  -2   96.49    7.00
  -2   7  -2   86.19    5.60
   2  -7   2   93.29    4.90
   2  -7   2   97.59    7.90
   2  -7   2   97.59    6.40
  -3   7  -2   37.30    3.90
  -3   7  -2   35.80    4.50
  -3   7  -2   36.80    3.40
  -3   7  -2   31.30    3.40
  -3   7  -2   35.40    5.20
   3  -7   2   38.50    4.70
   3  -7   2   28.20    5.60
  -4   7  -2   56.29    5.50
  -4   7  -2   35.50    4.00
  -4   7  -2   27.10    5.80
   4  -7   2   37.80    5.30
   4  -7   2   44.60    7.00
  -5   7  -2   13.10    3.80
  -5   7  -2   15.40    6.70
  -5   7  -2    4.00    4.20
   5  -7   2    0.20    5.90
   5  -7   2    6.10    4.70
   8   6  -2   -0.50    5.40
   8   6  -2   -1.00    5.90
   8   6  -2    4.00    5.20
  -8  -6   2    5.00    7.40
  -8  -6   2   -6.10    6.20
   7   6  -2   -4.00    4.60
   7   6  -2   -3.90    4.10
   7   6  -2    5.40    4.60
  -7  -6   2   -7.80    5.90
  -7  -6   2   -8.80    4.60
   6   6  -2   -3.00    5.90
   6   6  -2   -1.30    3.50
  -6  -6   2    2.20    4.10
   5   6  -2    0.30    3.50
   5   6  -2    3.40    3.20
   5   6  -2    3.00    3.90
   5   6  -2    4.90    3.20
  -5  -6   2    1.80    1.50
  -5  -6   2    2.40    3.20
  -5  -6   2    2.70    3.30
   4   6  -2   -1.70    2.70
   4   6  -2   -5.10    2.40
   4   6  -2   -2.80    3.40
   4   6  -2    2.20    2.90
  -4  -6   2    1.50    2.50
  -4  -6   2    4.60    2.70
  -4  -6   2   -0.20    1.60
   3   6  -2  112.29    7.20
   3   6  -2  114.79    6.20
   3   6  -2  111.89    6.60
  -3  -6   2  113.09    4.80
  -3  -6   2  121.99    5.50
  -3  -6   2  118.19    6.20
  -3  -6   2  131.29    8.20
  -3  -6   2  107.29    6.60
   2   6  -2   67.59    4.30
   2   6  -2   61.19    4.80
   2   6  -2   71.09    5.20
   2   6  -2   59.79    5.30
   2   6  -2   68.69    5.20
  -2  -6   2   67.19    2.90
  -2  -6   2   61.29    4.50
  -2  -6   2   64.29    4.40
  -2  -6   2   60.09    4.40
  -2  -6   2   67.39    5.00
  -2  -6   2   56.29    5.60
   1   6  -2    0.10    2.50
   1   6  -2    8.10    2.70
   1   6  -2    3.90    2.20
   1   6  -2    0.90    1.90
   1   6  -2    3.90    2.30
  -1  -6   2    3.50    2.70
  -1  -6   2    2.10    1.80
  -1  -6   2   -0.10    1.90
  -1  -6   2    3.50    2.20
  -1  -6   2    0.20    2.10
   0   6  -2   42.90    4.00
   0   6  -2   46.50    3.90
   0   6  -2   41.70    4.40
   0   6  -2   34.10    3.80
   0   6  -2   54.29    5.20
   0   6  -2   42.50    4.70
   0  -6   2   45.40    3.70
   0  -6   2   41.20    4.30
   0  -6   2   40.70    3.70
   0  -6   2   45.30    3.10
   0  -6   2   43.00    4.00
   0  -6   2   41.90    4.90
  -1   6  -2   61.49    6.40
  -1   6  -2   68.09    5.20
  -1   6  -2   70.99    4.40
  -1   6  -2   64.79    5.40
  -1   6  -2   59.49    5.60
  -1   6  -2   63.19    4.80
   1  -6   2   71.59    5.70
   1  -6   2   64.49    4.80
   1  -6   2   75.09    6.00
   1  -6   2   69.09    3.60
   1  -6   2   68.49    3.30
  -2   6  -2  469.85   15.50
  -2   6  -2  528.95   15.70
  -2   6  -2  495.75   15.40
  -2   6  -2  514.05   13.90
  -2   6  -2  504.65   14.10
  -2   6  -2  506.45   12.90
  -2   6  -2  500.45   13.20
   2  -6   2  503.55   13.20
   2  -6   2  483.05   16.20
   2  -6   2  511.15   15.00
   2  -6   2  478.05   15.70
  -3   6  -2   23.80    2.70
  -3   6  -2   22.90    4.10
  -3   6  -2   24.30    3.10
  -3   6  -2   22.90    2.80
  -3   6  -2   19.10    3.00
   3  -6   2   24.80    3.80
   3  -6   2   21.70    4.10
  -4   6  -2  474.65   13.70
  -4   6  -2  503.35   16.60
  -4   6  -2  468.25   14.60
  -4   6  -2  479.45   13.40
  -4   6  -2  475.35   14.30
   4  -6   2  483.35   15.40
   4  -6   2  515.15   17.60
  -5   6  -2   20.90    4.70
  -5   6  -2   19.30    2.90
  -5   6  -2   14.30    4.40
  -5   6  -2   24.40    5.50
   5  -6   2   16.20    4.50
   5  -6   2   10.50    5.40
  -6   6  -2   97.19   10.80
  -6   6  -2   69.59    7.30
  -6   6  -2   93.19    9.30
   6  -6   2   77.39    9.20
   6  -6   2   84.19    7.80
   8   5  -2    4.10    5.80
   8   5  -2   14.60    4.40
   8   5  -2    3.40    5.40
  -8  -5   2   12.30    8.00
  -8  -5   2    6.30    5.80
   7   5  -2   72.29    6.90
   7   5  -2   78.29    7.60
   7   5  -2  107.79   11.90
   7   5  -2   77.69    8.40
  -7  -5   2   71.59    7.10
  -7  -5   2   85.99    8.80
   6   5  -2   55.69    5.30
   6   5  -2   70.19    5.60
   6   5  -2   60.49    6.30
  -6  -5   2   74.29    8.00
  -6  -5   2   52.89    5.60
   5   5  -2   83.29    5.90
   5   5  -2   90.19    6.70
   5   5  -2   79.19    6.30
   5   5  -2   77.09    7.40
   5   5  -2   76.89    6.00
  -5  -5   2   84.19    7.00
  -5  -5   2   77.09    5.90
  -5  -5   2   76.89    6.40
   4   5  -2   83.89    5.30
   4   5  -2   82.29    5.20
   4   5  -2   82.89    5.60
   4   5  -2   84.39    5.80
   4   5  -2   83.89    5.70
  -4  -5   2   73.99    5.10
  -4  -5   2   78.39    6.70
  -4  -5   2   77.99    5.00
  -4  -5   2   77.39    3.50
  -4  -5   2   78.29    5.60
   3   5  -2   27.70    3.20
   3   5  -2   27.40    3.60
   3   5  -2   29.00    3.50
   3   5  -2   31.10    3.40
  -3  -5   2   31.50    3.50
  -3  -5   2   25.80    3.50
  -3  -5   2   31.20    2.90
  -3  -5   2   23.80    3.00
  -3  -5   2   31.70    2.60
   2   5  -2  175.58    6.10
   2   5  -2  176.88    7.10
   2   5  -2  185.48    7.00
   2   5  -2  177.38    6.80
   2   5  -2  161.98    7.00
  -2  -5   2  156.08    5.10
  -2  -5   2  172.68    6.30
  -2  -5   2  170.28    7.10
  -2  -5   2  164.28    6.70
  -2  -5   2  160.98    6.50
   1   5  -2   37.60    3.40
   1   5  -2   33.40    3.70
   1   5  -2   37.70    3.70
   1   5  -2   35.10    3.50
   1   5  -2   37.00    3.20
  -1  -5   2   35.70    3.70
  -1  -5   2   32.60    3.40
  -1  -5   2   34.10    1.50
  -1  -5   2   37.30    3.20
  -1  -5   2   35.40    3.30
  -1  -5   2   40.00    2.70
   0   5  -2  629.64   16.80
   0   5  -2  624.14   17.50
   0   5  -2  638.64   17.40
   0   5  -2  613.34   17.60
   0   5  -2  651.83   16.90
   0  -5   2  628.34   17.00
   0  -5   2  614.14   17.30
   0  -5   2  626.14   16.40
   0  -5   2  631.64   15.40
   0  -5   2  645.04   17.70
   0  -5   2  641.84   16.20
  -1   5  -2  335.07   10.00
  -1   5  -2  348.07   11.60
  -1   5  -2  335.97    8.70
  -1   5  -2  335.67   11.10
  -1   5  -2  327.67    9.80
  -1   5  -2  343.27   10.90
   1  -5   2  351.56    8.80
   1  -5   2  328.97    9.10
   1  -5   2  342.97   11.40
   1  -5   2  342.37   11.00
   1  -5   2  338.87   10.60
   1  -5   2  340.17    9.00
  -2   5  -2   16.60    3.80
  -2   5  -2   18.50    2.40
  -2   5  -2   23.70    3.40
  -2   5  -2   22.10    2.10
  -2   5  -2   24.20    3.40
  -2   5  -2   16.00    3.10
  -2   5  -2   20.10    2.20
  -2   5  -2   18.40    2.00
   2  -5   2   17.30    3.30
   2  -5   2   12.10    2.90
   2  -5   2   16.60    2.00
   2  -5   2   14.00    2.50
  -3   5  -2   10.10    3.20
  -3   5  -2    9.40    2.50
  -3   5  -2   12.40    3.10
  -3   5  -2    4.50    2.10
  -3   5  -2    8.00    3.50
  -3   5  -2    8.30    2.20
  -3   5  -2   10.60    1.80
   3  -5   2    9.00    3.50
   3  -5   2    3.50    3.20
   3  -5   2    9.80    2.70
  -4   5  -2    0.20    1.60
  -4   5  -2    2.70    2.90
  -4   5  -2    3.60    4.00
  -4   5  -2   -3.50    2.60
  -4   5  -2    0.30    3.30
   4  -5   2    1.70    2.80
   4  -5   2    6.50    3.50
  -5   5  -2    9.70    4.40
  -5   5  -2   17.10    4.10
  -5   5  -2   15.60    2.30
  -5   5  -2   16.40    3.80
  -5   5  -2   13.30    3.10
   5  -5   2   11.30    4.80
   5  -5   2   10.50    3.80
  -6   5  -2   24.90    4.90
  -6   5  -2   30.10    5.40
  -6   5  -2   25.80    5.40
   6  -5   2   21.60    6.30
   6  -5   2   32.50    6.70
   6  -5   2   24.30    9.80
  -7   5  -2    7.50    6.20
   7  -5   2   -0.60    7.10
   8   4  -2    5.40    5.80
   8   4  -2    1.40    4.80
   8   4  -2   12.10    5.70
  -8  -4   2   -1.30    6.90
  -8  -4   2   -1.00    4.90
   7   4  -2   -0.20    3.20
   7   4  -2    2.30    3.90
   7   4  -2    8.60    4.20
   7   4  -2    2.30    3.60
   7   4  -2    5.40    3.90
  -7  -4   2   13.50    5.50
   6   4  -2    3.90    2.90
   6   4  -2   -0.60    3.30
   6   4  -2   -2.80    3.40
   6   4  -2    2.20    3.20
   6   4  -2    5.20    3.00
  -6  -4   2    2.90    3.30
  -6  -4   2    7.10    4.10
   5   4  -2   60.79    4.80
   5   4  -2   62.69    5.40
   5   4  -2   69.99    5.60
   5   4  -2   74.19    4.90
  -5  -4   2   69.49    6.10
  -5  -4   2   69.29    6.10
  -5  -4   2   59.49    5.10
  -5  -4   2   69.49    5.90
   4   4  -2    7.50    2.30
   4   4  -2    5.90    2.60
   4   4  -2    6.60    2.30
   4   4  -2    4.30    2.40
   4   4  -2    8.20    2.20
  -4  -4   2    3.00    2.00
  -4  -4   2    8.80    3.20
  -4  -4   2    6.00    2.50
  -4  -4   2    5.10    2.20
   3   4  -2  694.23   19.20
   3   4  -2  740.63   19.30
   3   4  -2  711.73   19.30
   3   4  -2  726.03   20.00
   3   4  -2  729.13   19.10
  -3  -4   2  744.63   19.90
  -3  -4   2  741.63   19.50
  -3  -4   2  732.13   17.80
  -3  -4   2  746.73   18.50
  -3  -4   2  697.03   19.20
   2   4  -2  201.68    7.00
   2   4  -2  197.78    6.10
   2   4  -2  200.18    7.00
   2   4  -2  189.18    7.30
  -2  -4   2  193.08    6.90
  -2  -4   2  189.18    6.80
  -2  -4   2  197.88    6.30
  -2  -4   2  191.38    7.20
   1   4  -2 1922.21   46.20
   1   4  -2 1989.50   46.00
   1   4  -2 1974.80   46.10
   1   4  -2 1896.31   46.50
  -1  -4   2 1857.21   46.00
  -1  -4   2 1949.60   45.90
  -1  -4   2 2008.50   46.20
  -1  -4   2 1937.51   45.20
  -1  -4   2 1921.01   46.40
   0   4  -2 1575.14   36.80
   0   4  -2 1570.94   37.40
   0   4  -2 1563.44   36.80
   0   4  -2 1548.74   37.30
   0  -4   2 1557.04   35.40
   0  -4   2 1518.85   37.00
   0  -4   2 1507.85   37.20
   0  -4   2 1503.75   36.20
   0  -4   2 1526.85   36.40
   0  -4   2 1557.64   35.20
   0  -4   2 1461.45   37.40
  -1   4  -2  218.78    7.40
  -1   4  -2  222.88    6.60
  -1   4  -2  215.38    7.80
  -1   4  -2  217.98    5.70
  -1   4  -2  216.78    6.70
  -1   4  -2  222.58    8.00
  -1   4  -2  213.78    5.90
   1  -4   2  216.78    7.30
   1  -4   2  216.88    6.00
   1  -4   2  207.68    7.80
   1  -4   2  209.78    5.90
   1  -4   2  221.08    5.70
   1  -4   2  210.38    5.90
   1  -4   2  216.28    7.50
  -2   4  -2  714.03   17.50
  -2   4  -2  704.63   17.60
  -2   4  -2  695.13   18.80
  -2   4  -2  717.83   19.70
  -2   4  -2  709.03   18.70
  -2   4  -2  704.33   19.60
  -2   4  -2  730.73   17.60
  -2   4  -2  713.03   19.10
   2  -4   2  707.63   19.00
   2  -4   2  719.83   19.90
   2  -4   2  716.03   18.90
   2  -4   2  721.13   17.80
  -3   4  -2  118.49    4.00
  -3   4  -2  118.29    5.80
  -3   4  -2  119.39    6.00
  -3   4  -2  112.59    6.60
  -3   4  -2  121.89    5.00
  -3   4  -2  102.39    6.40
  -3   4  -2  126.39    5.50
  -3   4  -2  117.49    4.20
  -3   4  -2  120.39    6.70
   3  -4   2  117.19    6.70
   3  -4   2  116.39    5.20
   3  -4   2  121.59    5.70
  -4   4  -2    2.70    1.30
  -4   4  -2   -1.90    3.40
  -4   4  -2    0.10    2.30
  -4   4  -2   -2.70    2.70
  -4   4  -2    1.10    1.50
  -4   4  -2    2.80    2.40
  -4   4  -2    0.50    3.20
   4  -4   2    6.50    2.60
   4  -4   2    2.20    2.80
   4  -4   2    1.70    3.00
  -5   4  -2   20.70    3.80
  -5   4  -2   20.90    4.00
  -5   4  -2   15.50    1.90
  -5   4  -2   18.80    1.90
  -5   4  -2   22.60    3.60
   5  -4   2   16.80    3.70
   5  -4   2   28.10    4.40
   5  -4   2   23.90    4.60
  -6   4  -2   17.00    4.10
  -6   4  -2   12.50    4.90
  -6   4  -2    9.60    4.40
  -6   4  -2   20.00    2.10
   6  -4   2   17.30    5.50
   6  -4   2   18.50    5.30
  -7   4  -2   -8.80    5.40
  -7   4  -2    5.50    4.20
  -7   4  -2    6.30   11.20
   7  -4   2   -1.40    6.00
   7  -4   2    7.80    6.40
   9   3  -2   -0.20    7.00
  -9  -3   2   -5.80    6.70
  -9  -3   2  -10.20    8.10
   8   3  -2    0.30    5.30
   8   3  -2   -1.30    5.00
  -8  -3   2    1.40    6.90
  -8  -3   2   -5.30    4.90
   7   3  -2   -1.50    2.80
   7   3  -2    4.30    4.10
   7   3  -2    2.90    2.60
   7   3  -2    6.70    3.10
   7   3  -2   -1.20    4.20
  -7  -3   2    3.70    4.90
  -7  -3   2   -0.90    3.80
   6   3  -2   20.60    3.10
   6   3  -2   20.00    3.90
   6   3  -2   14.80    3.40
   6   3  -2   21.40    3.00
   6   3  -2   18.20    3.40
  -6  -3   2   20.30    3.80
  -6  -3   2   26.70    4.80
   5   3  -2    4.80    2.10
   5   3  -2    3.20    2.60
   5   3  -2    7.60    2.10
   5   3  -2    5.70    2.60
  -5  -3   2    2.10    2.80
  -5  -3   2    2.70    2.30
  -5  -3   2    0.50    2.80
  -5  -3   2    3.80    2.90
  -5  -3   2    6.20    3.70
   4   3  -2    0.20    1.70
   4   3  -2   -1.50    1.60
   4   3  -2    1.80    1.60
   4   3  -2    2.20    2.10
  -4  -3   2   -0.20    1.80
  -4  -3   2   -4.70    2.60
  -4  -3   2    1.30    2.10
  -4  -3   2   -0.10    2.20
  -4  -3   2   -0.60    2.10
   3   3  -2  329.77   10.60
   3   3  -2  326.47    9.90
   3   3  -2  339.07   10.10
   3   3  -2  338.47    9.60
   3   3  -2  325.17    9.90
  -3  -3   2  336.07   10.30
  -3  -3   2  334.27   10.10
  -3  -3   2  340.77   10.60
  -3  -3   2  315.07    8.20
  -3  -3   2  342.57   10.10
   2   3  -2  139.09    4.30
   2   3  -2  125.89    5.00
   2   3  -2  141.09    5.10
   2   3  -2  136.89    5.20
   2   3  -2  138.19    5.40
  -2  -3   2  131.29    5.40
  -2  -3   2  128.29    5.10
  -2  -3   2  133.69    5.20
  -2  -3   2  135.69    4.40
   1   3  -2  104.19    3.90
   1   3  -2   99.59    4.30
   1   3  -2  102.49    4.30
   1   3  -2  100.99    4.10
   1   3  -2  104.39    4.20
  -1  -3   2  105.09    4.30
  -1  -3   2  100.99    4.00
  -1  -3   2  103.29    4.00
  -1  -3   2   96.69    4.00
   0   3  -2 1056.09   26.30
   0   3  -2 1081.69   26.70
   0   3  -2 1053.19   26.90
   0   3  -2 1133.59   26.90
   0  -3   2 1129.69   27.00
   0  -3   2 1083.59   26.70
   0  -3   2 1108.39   26.00
   0  -3   2 1068.79   25.40
   0  -3   2 1132.79   25.20
  -1   3  -2  881.51   20.80
  -1   3  -2  849.41   22.00
  -1   3  -2  870.01   21.40
  -1   3  -2  886.91   20.50
  -1   3  -2  860.91   22.00
  -1   3  -2  847.42   20.90
  -1   3  -2  854.61   21.50
  -1   3  -2  853.61   19.90
   1  -3   2  855.11   20.10
   1  -3   2  886.31   22.30
   1  -3   2  843.92   20.50
   1  -3   2  864.41   20.10
   1  -3   2  851.61   21.50
   1  -3   2  861.11   21.60
  -2   3  -2  229.88    6.20
  -2   3  -2  219.88    7.40
  -2   3  -2  234.08    6.60
  -2   3  -2  231.08    6.30
  -2   3  -2  231.58    7.60
  -2   3  -2  238.18    7.50
  -2   3  -2  234.68    8.10
  -2   3  -2  231.98    8.20
   2  -3   2  220.78    7.50
   2  -3   2  238.98    6.90
   2  -3   2  226.98    8.30
   2  -3   2  228.38    7.50
  -3   3  -2  737.23   20.00
  -3   3  -2  739.63   18.60
  -3   3  -2  706.83   17.00
  -3   3  -2  715.23   19.80
  -3   3  -2  745.13   18.80
  -3   3  -2  738.23   19.10
  -3   3  -2  742.63   19.20
  -3   3  -2  714.53   19.50
  -3   3  -2  712.43   17.00
   3  -3   2  711.93   19.80
   3  -3   2  731.63   18.80
   3  -3   2  715.03   19.10
   3  -3   2  712.23   20.00
  -4   3  -2  135.99    6.20
  -4   3  -2  123.29    6.70
  -4   3  -2  126.49    7.20
  -4   3  -2  133.09    6.10
  -4   3  -2  120.19    7.10
  -4   3  -2  126.99    6.50
  -4   3  -2  126.89    7.30
  -4   3  -2  133.19    6.10
   4  -3   2  143.79    6.30
   4  -3   2  132.79    6.20
   4  -3   2  142.49    7.20
   4  -3   2  138.89    6.90
  -5   3  -2   21.20    4.80
  -5   3  -2   17.90    3.40
  -5   3  -2   18.50    4.10
  -5   3  -2   16.00    3.20
  -5   3  -2   18.20    3.50
   5  -3   2   18.60    3.50
   5  -3   2   13.20    3.70
   5  -3   2   13.90    3.50
  -6   3  -2    1.10    3.10
  -6   3  -2    2.50    3.50
  -6   3  -2    0.00    3.90
   6  -3   2   -1.00    4.60
   6  -3   2   -0.30    4.30
  -7   3  -2   10.30    5.50
  -7   3  -2   14.80    4.10
   7  -3   2    8.50    5.30
   7  -3   2   10.20    5.60
   9   2  -2    0.60    7.00
   9   2  -2    0.00    6.70
  -9  -2   2   -1.90    6.20
  -9  -2   2    7.40    9.10
   8   2  -2    1.80    5.50
   8   2  -2   -3.00    5.00
  -8  -2   2   -0.70    6.40
   7   2  -2   12.40    4.10
   7   2  -2   10.70    4.20
   7   2  -2    3.10    2.00
   7   2  -2    8.80    2.40
  -7  -2   2    7.40    5.10
  -7  -2   2    7.90    3.70
   6   2  -2   56.59    5.60
   6   2  -2   41.20    3.40
   6   2  -2   50.89    5.70
   6   2  -2   44.80    3.70
   6   2  -2   44.20    4.20
  -6  -2   2   48.30    5.10
  -6  -2   2   47.10    4.70
  -6  -2   2   36.90    5.10
   5   2  -2   57.59    3.90
   5   2  -2   58.89    4.20
   5   2  -2   69.49    4.70
   5   2  -2   67.29    3.30
   5   2  -2   69.49    5.20
  -5  -2   2   60.99    5.50
  -5  -2   2   61.89    5.70
  -5  -2   2   55.89    5.60
  -5  -2   2   66.79    5.30
  -5  -2   2   55.59    5.90
  -5  -2   2   64.89    4.50
   4   2  -2   18.30    1.90
   4   2  -2   19.90    2.30
   4   2  -2   21.80    2.50
   4   2  -2   18.60    2.70
  -4  -2   2   21.80    2.90
  -4  -2   2   18.10    2.70
  -4  -2   2   19.90    3.10
  -4  -2   2   23.00    2.90
  -4  -2   2   19.10    2.50
  -4  -2   2   18.90    3.20
   3   2  -2  176.68    5.90
   3   2  -2  166.48    6.00
   3   2  -2  163.48    5.30
   3   2  -2  164.78    5.80
  -3  -2   2  167.48    6.40
  -3  -2   2  169.58    6.00
  -3  -2   2  172.78    6.10
  -3  -2   2  171.98    6.50
  -3  -2   2  152.98    5.80
   2   2  -2  543.05   14.40
   2   2  -2  531.65   14.40
   2   2  -2  570.54   13.40
   2   2  -2  571.84   14.60
   2   2  -2  565.04   14.20
   2   2  -2  554.84   14.90
  -2  -2   2  564.34   14.50
  -2  -2   2  574.34   14.60
  -2  -2   2  563.34   14.90
  -2  -2   2  564.64   14.60
   1   2  -2   39.20    2.40
   1   2  -2   37.60    2.00
   1   2  -2   35.70    2.30
   1   2  -2   34.80    2.30
  -1  -2   2   40.00    2.30
  -1  -2   2   35.00    2.00
  -1  -2   2   36.70    2.00
  -1  -2   2   36.20    2.30
   0   2  -2  195.88    6.10
   0   2  -2  193.98    5.70
   0   2  -2  198.68    5.80
   0  -2   2  195.48    5.70
   0  -2   2  197.58    5.90
   0  -2   2  199.58    5.60
   0  -2   2  200.18    6.00
  -1   2  -2  380.06    9.50
  -1   2  -2  376.66    9.30
  -1   2  -2  385.26    9.40
  -1   2  -2  357.76   10.10
  -1   2  -2  373.06    9.90
  -1   2  -2  377.86   10.40
  -1   2  -2  370.86    9.70
  -1   2  -2  364.16    8.80
   1  -2   2  365.76    9.50
   1  -2   2  372.16    8.70
   1  -2   2  385.96    8.70
   1  -2   2  368.36    9.80
   1  -2   2  369.26   10.10
   1  -2   2  371.66   10.60
  -2   2  -2  136.19    5.40
  -2   2  -2  133.39    3.50
  -2   2  -2  136.49    4.40
  -2   2  -2  137.19    5.00
  -2   2  -2  122.29    5.10
  -2   2  -2  133.79    5.40
  -2   2  -2  135.39    5.00
  -2   2  -2  139.59    4.80
  -2   2  -2  132.09    3.50
   2  -2   2  144.49    5.70
   2  -2   2  135.99    4.70
   2  -2   2  137.99    5.00
   2  -2   2  130.69    4.70
  -3   2  -2   22.50    2.70
  -3   2  -2   19.00    2.20
  -3   2  -2   18.50    2.50
  -3   2  -2   22.90    2.40
  -3   2  -2   17.20    2.40
  -3   2  -2   25.20    3.20
  -3   2  -2   22.00    2.50
  -3   2  -2   18.50    2.30
   3  -2   2   20.90    2.80
   3  -2   2   24.10    2.50
   3  -2   2   21.90    2.60
   3  -2   2   22.30    2.60
   3  -2   2   20.30    2.60
  -4   2  -2   17.00    2.50
  -4   2  -2   16.60    3.30
  -4   2  -2   15.40    3.00
  -4   2  -2   17.90    3.10
  -4   2  -2   14.20    2.80
  -4   2  -2   12.90    2.50
  -4   2  -2   16.10    3.20
  -4   2  -2   15.90    2.50
   4  -2   2   15.00    2.50
   4  -2   2   18.00    3.00
   4  -2   2   14.10    2.30
   4  -2   2   14.10    2.70
   4  -2   2   15.60    2.60
  -5   2  -2    5.00    2.20
  -5   2  -2    1.00    2.90
  -5   2  -2    1.30    2.60
  -5   2  -2    1.90    3.60
  -5   2  -2    2.80    3.50
  -5   2  -2   -5.40    3.10
  -5   2  -2   -1.00    2.10
   5  -2   2    2.80    2.80
   5  -2   2    0.80    2.70
   5  -2   2    5.00    2.50
   5  -2   2    0.10    2.50
   5  -2   2    5.60    2.80
  -6   2  -2    7.60    2.90
  -6   2  -2   10.90    4.10
  -6   2  -2    8.00    3.40
   6  -2   2   10.90    3.90
   6  -2   2    5.10    3.40
   6  -2   2   13.00    3.90
  -7   2  -2    1.30    4.20
  -7   2  -2   -3.70    4.70
  -7   2  -2   -1.40    2.40
  -7   2  -2    0.50    3.20
   7  -2   2   -1.80    4.20
   7  -2   2   -4.80    4.50
  -8   2  -2   -0.70    6.30
  -8   2  -2    4.00    5.60
   8  -2   2   -2.70    5.50
   8  -2   2    5.10    6.10
   9   1  -2    5.00    6.90
   9   1  -2  -12.00    6.60
  -9  -1   2    4.70    7.90
   8   1  -2   -4.90    5.10
   8   1  -2   -3.70    5.30
  -8  -1   2   -8.80    6.20
  -8  -1   2   -9.30    4.40
   7   1  -2    5.30    4.50
   7   1  -2    6.80    3.60
  -7  -1   2   11.10    3.70
  -7  -1   2    4.20    5.00
  -7  -1   2   24.00    9.30
   6   1  -2    7.00    3.20
   6   1  -2    5.40    1.30
   6   1  -2    5.30    1.80
   6   1  -2    7.50    3.20
  -6  -1   2    6.20    3.90
  -6  -1   2    8.30    2.90
  -6  -1   2    4.60    3.50
   5   1  -2  124.09    4.00
   5   1  -2  124.49    4.70
   5   1  -2  121.09    6.70
   5   1  -2  133.79    6.40
   5   1  -2  130.59    5.00
  -5  -1   2  118.89    6.60
  -5  -1   2  128.39    7.30
  -5  -1   2  122.49    6.60
  -5  -1   2  134.39    5.80
  -5  -1   2  112.69    6.00
  -5  -1   2  125.99    7.10
   4   1  -2    2.60    1.80
   4   1  -2   -0.70    1.50
   4   1  -2   -0.40    1.50
   4   1  -2    3.10    1.30
   4   1  -2    3.60    0.90
  -4  -1   2    0.50    2.10
  -4  -1   2   -1.80    2.10
  -4  -1   2   -0.60    1.70
  -4  -1   2    1.90    1.50
  -4  -1   2    1.80    2.10
  -4  -1   2    3.60    2.00
   3   1  -2    0.80    0.90
   3   1  -2    3.30    1.30
   3   1  -2    2.70    1.10
   3   1  -2    2.00    1.30
  -3  -1   2   -2.00    1.40
  -3  -1   2    3.00    1.40
  -3  -1   2    0.60    1.10
  -3  -1   2    2.20    1.70
  -3  -1   2    0.00    1.50
   2   1  -2  701.13   16.60
   2   1  -2  695.53   15.90
   2   1  -2  698.33   17.10
   2   1  -2  676.73   17.00
   2   1  -2  665.53   17.00
  -2  -1   2  672.03   17.10
  -2  -1   2  706.53   17.00
  -2  -1   2  685.63   17.10
  -2  -1   2  655.43   17.30
   1   1  -2   68.99    2.90
   1   1  -2   67.99    2.40
   1   1  -2   67.19    2.60
   1   1  -2   65.29    2.40
   1   1  -2   65.89    2.80
  -1  -1   2   60.79    2.80
  -1  -1   2   69.99    2.90
  -1  -1   2   64.99    2.70
   0   1  -2 2081.09   47.70
   0   1  -2 2059.09   47.80
   0   1  -2 2116.89   48.00
   0   1  -2 2114.69   47.10
   0   1  -2 2043.90   47.60
   0   1  -2 2091.59   47.60
   0  -1   2 2051.59   47.80
   0  -1   2 2026.60   48.00
   0  -1   2 2002.40   47.10
   0  -1   2 2130.99   47.60
   0  -1   2 2024.10   47.60
   0  -1   2 2052.69   47.60
  -1   1  -2  499.35   12.40
  -1   1  -2  509.45   12.00
  -1   1  -2  504.05   12.30
  -1   1  -2  500.85   12.80
  -1   1  -2  513.15   13.10
  -1   1  -2  518.95   12.30
  -1   1  -2  506.95   12.00
   1  -1   2  496.05   12.50
   1  -1   2  492.75   13.30
   1  -1   2  512.55   12.30
   1  -1   2  481.25   13.30
  -2   1  -2  368.96    9.50
  -2   1  -2  380.06   10.10
  -2   1  -2  359.96    9.90
  -2   1  -2  372.36   10.10
  -2   1  -2  349.17    9.90
  -2   1  -2  361.66   10.40
   2  -1   2  363.46   10.40
   2  -1   2  366.16   10.10
   2  -1   2  351.86   10.00
   2  -1   2  366.26    9.90
   2  -1   2  373.66   10.00
  -3   1  -2   56.99    3.30
  -3   1  -2   59.89    3.30
  -3   1  -2   63.09    3.70
  -3   1  -2   56.89    3.60
  -3   1  -2   58.19    3.00
  -3   1  -2   63.09    3.70
  -3   1  -2   56.99    3.50
  -3   1  -2   56.79    3.60
   3  -1   2   56.09    3.70
   3  -1   2   56.99    3.40
   3  -1   2   59.99    3.50
   3  -1   2   54.89    3.50
   3  -1   2   57.19    3.50
  -4   1  -2   95.99    4.40
  -4   1  -2   89.49    5.10
  -4   1  -2   89.29    5.40
  -4   1  -2  104.19    5.50
  -4   1  -2   94.79    5.10
  -4   1  -2   84.19    5.00
  -4   1  -2   91.89    5.20
  -4   1  -2   92.89    4.40
   4  -1   2   89.09    5.00
   4  -1   2   98.09    5.20
   4  -1   2   90.69    4.90
   4  -1   2   90.69    4.90
   4  -1   2   95.29    5.00
  -5   1  -2   32.90    3.90
  -5   1  -2   51.49    5.30
  -5   1  -2   36.20    4.60
  -5   1  -2   38.70    3.60
  -5   1  -2   41.30    4.70
  -5   1  -2   36.20    3.70
  -5   1  -2   34.10    4.60
  -5   1  -2   36.70    4.40
   5  -1   2   42.10    4.90
   5  -1   2   36.20    4.10
   5  -1   2   43.70    4.30
   5  -1   2   41.30    4.10
  -6   1  -2   20.60    3.60
  -6   1  -2   16.00    2.00
  -6   1  -2   20.30    4.30
  -6   1  -2   23.90    3.00
  -6   1  -2    9.00    3.80
   6  -1   2   22.20    4.10
   6  -1   2   14.60    4.20
  -7   1  -2    6.20    4.80
  -7   1  -2    9.20    3.20
  -7   1  -2    6.90    2.30
  -7   1  -2    7.40    3.90
   7  -1   2    6.60    4.20
   7  -1   2    8.50    4.70
  -8   1  -2    8.10    6.20
  -8   1  -2    1.00    5.10
   8  -1   2   -1.30    5.60
   8  -1   2    0.50    5.30
   8   0  -2    6.50    5.30
   8   0  -2   -8.20    5.30
  -8   0   2   -1.70    4.60
  -8   0   2    4.50    5.80
   7   0  -2   11.30    4.40
  -7   0   2   18.70    5.00
  -7   0   2   11.10    3.70
  -7   0   2    6.60    5.40
   6   0  -2    1.50    1.60
   6   0  -2    1.80    2.80
   6   0  -2    6.50    3.70
  -6   0   2    5.40    4.00
  -6   0   2    9.20    3.30
  -6   0   2    6.50    3.60
  -6   0   2    3.60    2.80
   5   0  -2  169.08    5.00
   5   0  -2  167.58    7.70
   5   0  -2  164.28    5.40
   5   0  -2  169.48    5.10
   5   0  -2  162.48    7.10
  -5   0   2  157.08    6.60
  -5   0   2  153.98    7.40
  -5   0   2  174.48    8.20
  -5   0   2  162.98    8.00
  -5   0   2  180.88    6.60
   4   0  -2   55.99    3.00
   4   0  -2   48.90    4.00
   4   0  -2   55.79    4.00
   4   0  -2   53.69    2.50
  -4   0   2   54.89    3.50
  -4   0   2   54.29    3.40
  -4   0   2   47.80    4.10
  -4   0   2   47.80    4.30
  -4   0   2   52.39    4.40
   3   0  -2    3.10    1.40
   3   0  -2    2.00    0.50
   3   0  -2    6.70    2.00
   3   0  -2    0.90    0.60
   3   0  -2    2.40    1.10
   3   0  -2    1.80    1.10
   3   0  -2    1.30    1.20
  -3   0   2    1.80    1.20
  -3   0   2    1.00    1.40
  -3   0   2    1.70    1.20
  -3   0   2    1.10    1.60
   2   0  -2   -0.50    0.80
   2   0  -2    0.70    1.10
   2   0  -2    2.20    1.00
  -2   0   2    0.50    0.90
  -2   0   2    0.40    1.20
  -2   0   2    0.20    1.00
  -2   0   2    4.90    1.20
   1   0  -2  293.57    7.80
   1   0  -2  285.87    7.40
   1   0  -2  305.97    7.80
   1   0  -2  296.37    8.00
  -1   0   2  280.67    7.80
  -1   0   2  301.47    7.50
  -1   0   2  287.57    7.90
  -1   0   2  290.47    7.70
   0   0  -2 1853.91   42.20
   0   0  -2 1819.72   42.30
   0   0  -2 1798.92   42.50
   0   0  -2 1815.42   42.30
   0   0  -2 1836.92   42.20
   0   0   2 1838.92   42.30
   0   0   2 1902.71   42.30
   0   0   2 1827.32   42.20
   0   0   2 1832.32   42.00
   0   0   2 1827.92   42.20
  -1   0  -2  106.19    3.70
  -1   0  -2  110.09    3.30
  -1   0  -2  109.09    3.60
  -1   0  -2  106.49    3.40
  -1   0  -2  109.39    3.00
  -1   0  -2  103.39    3.70
  -1   0  -2  105.59    3.00
  -1   0  -2  106.89    2.80
  -1   0  -2  109.69    3.20
   1   0   2  105.39    3.60
   1   0   2  108.89    2.80
   1   0   2  109.19    3.50
   1   0   2  106.09    3.20
   1   0   2   99.79    3.60
   1   0   2  104.49    2.80
   1   0   2  111.79    2.80
  -2   0  -2  207.48    5.10
  -2   0  -2  218.68    6.20
  -2   0  -2  216.38    5.10
  -2   0  -2  212.58    6.30
  -2   0  -2  210.28    6.40
  -2   0  -2  222.18    6.60
   2   0   2  209.08    6.30
   2   0   2  201.78    6.10
   2   0   2  211.98    6.40
   2   0   2  213.58    6.30
   2   0   2  211.38    6.40
  -3   0  -2   17.80    1.90
  -3   0  -2   17.10    2.30
  -3   0  -2   15.80    2.10
  -3   0  -2   20.90    2.30
  -3   0  -2   19.70    2.40
  -3   0  -2   16.30    2.10
   3   0   2   13.80    2.00
   3   0   2   18.90    2.10
   3   0   2   18.90    2.20
   3   0   2   14.70    3.30
   3   0   2   18.80    2.00
  -4   0  -2  149.59    4.10
  -4   0  -2  156.28    6.60
  -4   0  -2  158.48    6.30
  -4   0  -2  158.68    6.80
  -4   0  -2  162.58    5.70
  -4   0  -2  149.88    6.10
  -4   0  -2  150.78    4.20
  -4   0  -2  155.38    6.30
   4   0   2  146.59    6.20
   4   0   2  158.38    6.50
   4   0   2  163.48    6.10
  -5   0  -2   34.00    4.30
  -5   0  -2   36.90    2.40
  -5   0  -2   31.60    3.60
  -5   0  -2   37.90    4.10
  -5   0  -2   41.00    3.50
  -5   0  -2   31.40    4.00
  -5   0  -2   32.00    3.80
  -5   0  -2   34.70    2.30
  -5   0  -2   32.60    3.50
   5   0   2   44.00    4.30
   5   0   2   30.00    3.40
   5   0   2   29.60    3.80
  -6   0  -2   45.60    5.20
  -6   0  -2   40.40    4.00
  -6   0  -2   45.30    3.00
  -6   0  -2   40.90    4.60
  -6   0  -2   33.00    3.40
  -6   0  -2   35.40    4.50
   6   0   2   33.90    4.30
   6   0   2   38.90    4.80
   6   0   2   42.30    4.90
  -7   0  -2    1.30    4.30
  -7   0  -2    1.00    2.30
  -7   0  -2   -6.20    4.30
  -7   0  -2   -1.80    2.70
  -7   0  -2    5.40    3.00
   7   0   2   -0.60    4.20
   7   0   2    1.30    3.50
  -8   0  -2   -4.10    3.60
  -8   0  -2   -4.60    6.40
  -8   0  -2    0.90    3.50
   8   0   2    1.20    4.90
   8   0   2   -0.10    5.40
   8  -1  -2    6.70    5.00
   8  -1  -2    1.90    5.50
  -8   1   2    2.60    4.40
  -8   1   2   -8.00    6.20
   7  -1  -2   -0.30    2.80
   7  -1  -2    3.30    4.20
   7  -1  -2   -0.10    4.10
  -7   1   2   -0.20    4.60
  -7   1   2    0.50    4.40
  -7   1   2    1.40    4.50
  -7   1   2    1.90    3.40
   6  -1  -2    6.10    3.10
   6  -1  -2    5.60    3.10
   6  -1  -2    6.10    2.40
  -6   1   2    6.00    2.70
  -6   1   2    8.60    3.30
  -6   1   2    4.30    3.80
  -6   1   2    6.70    3.20
   5  -1  -2   14.50    2.10
   5  -1  -2   15.20    3.10
   5  -1  -2   13.80    3.00
  -5   1   2   12.20    3.60
  -5   1   2   14.10    2.50
  -5   1   2   13.20    3.40
  -5   1   2   13.30    2.60
  -5   1   2   12.40    3.30
  -5   1   2    9.90    2.40
   4  -1  -2   40.30    3.80
   4  -1  -2   50.59    4.00
   4  -1  -2   43.90    2.80
   4  -1  -2   44.00    2.20
   4  -1  -2   42.70    4.60
   4  -1  -2   45.30    2.30
  -4   1   2   51.09    3.20
  -4   1   2   49.20    4.50
  -4   1   2   47.10    4.20
  -4   1   2   48.70    3.30
  -4   1   2   46.30    3.30
   3  -1  -2   51.49    2.50
   3  -1  -2   52.59    2.30
   3  -1  -2   53.69    3.40
   3  -1  -2   52.29    2.50
   3  -1  -2   46.00    3.30
   3  -1  -2   47.00    3.60
  -3   1   2   50.99    2.80
  -3   1   2   51.69    3.70
  -3   1   2   49.20    3.50
  -3   1   2   48.80    2.80
   2  -1  -2  294.07    8.30
   2  -1  -2  284.67    7.70
   2  -1  -2  299.67    7.80
   2  -1  -2  295.97    8.50
   2  -1  -2  269.07    9.30
  -2   1   2  299.07    7.90
  -2   1   2  302.07    8.40
  -2   1   2  286.47    8.50
   1  -1  -2 1469.05   32.70
   1  -1  -2 1393.26   32.60
   1  -1  -2 1418.86   32.90
   1  -1  -2 1394.56   33.10
   1  -1  -2 1373.96   32.20
  -1   1   2 1423.86   32.20
  -1   1   2 1339.47   32.70
  -1   1   2 1402.26   32.70
  -1   1   2 1366.06   32.60
  -1   1   2 1413.46   33.10
   0   1   2 5247.08  119.49
  -1  -1  -2    2.20    0.70
  -1  -1  -2    2.30    0.60
  -1  -1  -2    0.90    0.70
  -1  -1  -2    1.70    0.70
  -1  -1  -2    2.10    0.30
  -1  -1  -2    2.20    0.90
  -1  -1  -2    2.00    0.60
   1   1   2    3.90    0.70
   1   1   2    3.30    0.90
   1   1   2    1.80    0.70
   1   1   2    1.30    0.60
   1   1   2    2.20    0.30
   1   1   2    1.60    0.50
   1   1   2    1.90    0.60
  -2  -1  -2 3528.15   79.29
  -2  -1  -2 3425.36   78.39
  -2  -1  -2 3549.84   78.39
  -2  -1  -2 3359.86   79.19
  -2  -1  -2 3550.24   78.49
  -2  -1  -2 3469.35   78.49
  -2  -1  -2 3496.55   79.19
   2   1   2 3283.97   79.19
   2   1   2 3493.65   78.09
   2   1   2 3624.44   79.39
   2   1   2 3499.55   78.09
   2   1   2 3461.95   78.49
   2   1   2 2994.80   79.69
  -3  -1  -2  298.57    9.00
  -3  -1  -2  320.87    9.20
  -3  -1  -2  247.68   10.80
  -3  -1  -2  318.37    8.40
  -3  -1  -2  315.37    8.40
  -3  -1  -2  307.37    7.80
  -3  -1  -2  311.87    8.80
  -3  -1  -2  308.37    7.80
  -3  -1  -2  312.47    9.20
   3   1   2  303.07    9.10
   3   1   2  310.77    8.40
   3   1   2  320.37    9.30
  -4  -1  -2  230.58    7.50
  -4  -1  -2  240.98    7.70
  -4  -1  -2  237.08    7.50
  -4  -1  -2  225.68    8.10
  -4  -1  -2  243.78    7.90
  -4  -1  -2  237.18    6.60
  -4  -1  -2  254.77    8.40
  -4  -1  -2  238.68    6.70
  -4  -1  -2  245.18    8.60
   4   1   2  246.08    7.80
   4   1   2  234.48    7.50
   4   1   2  236.58    8.30
   4   1   2  243.68    8.30
  -5  -1  -2  154.98    6.00
  -5  -1  -2  162.78    6.70
  -5  -1  -2  162.18    5.10
  -5  -1  -2  150.38    5.30
  -5  -1  -2  153.68    7.50
  -5  -1  -2  155.68    7.10
  -5  -1  -2  146.69    6.30
  -5  -1  -2  154.38    7.40
  -5  -1  -2  151.38    6.70
   5   1   2  159.78    7.20
   5   1   2  153.58    6.30
   5   1   2  150.88    6.30
   5   1   2  158.48    7.30
  -6  -1  -2   49.40    5.20
  -6  -1  -2   51.69    4.20
  -6  -1  -2   56.29    6.20
  -6  -1  -2   46.80    4.10
  -6  -1  -2   52.99    3.60
  -6  -1  -2   44.20    4.30
  -6  -1  -2   44.70    4.80
   6   1   2   48.30    5.30
   6   1   2   50.89    5.30
   6   1   2   49.00    5.20
   6   1   2   37.50    4.50
  -7  -1  -2   21.80    3.80
  -7  -1  -2   24.50    4.40
  -7  -1  -2   29.50    3.30
  -7  -1  -2   29.60    3.50
   7   1   2   29.80    5.20
   7   1   2   19.00    4.00
  -8  -1  -2    9.80    6.30
  -8  -1  -2   -1.80    3.70
  -8  -1  -2    1.90    3.60
   8   1   2    0.90    4.20
   8   1   2    4.60    5.30
   8  -2  -2    5.40    6.00
   8  -2  -2   -2.50    5.80
   8  -2  -2   -0.80    5.00
  -8   2   2    8.00    7.10
  -8   2   2   -0.30    4.70
   7  -2  -2    3.30    4.70
   7  -2  -2   -1.20    4.40
   7  -2  -2    2.90    3.30
  -7   2   2   -2.50    4.20
  -7   2   2   -0.50    3.50
  -7   2   2    4.00    4.80
  -7   2   2    6.80    5.30
   6  -2  -2   53.79    5.20
   6  -2  -2   63.09    5.90
   6  -2  -2   42.60    5.30
  -6   2   2   52.39    5.50
  -6   2   2   58.99    5.00
  -6   2   2   49.99    4.40
  -6   2   2   67.69    6.80
   5  -2  -2    0.90    2.70
   5  -2  -2    0.70    2.50
   5  -2  -2    1.70    1.90
  -5   2   2   -0.90    3.20
  -5   2   2    0.40    2.10
  -5   2   2    0.50    2.80
  -5   2   2   -1.30    2.10
  -5   2   2    4.50    2.10
   4  -2  -2  208.18    8.10
   4  -2  -2  204.58    8.00
   4  -2  -2  209.68    7.20
   4  -2  -2  203.28    8.50
  -4   2   2  214.28    6.80
  -4   2   2  206.28    7.90
  -4   2   2  212.58    8.40
  -4   2   2  186.68    8.00
  -4   2   2  205.08    8.30
  -4   2   2  210.48    6.60
   3  -2  -2   18.10    2.30
   3  -2  -2   18.10    1.70
   3  -2  -2   18.70    2.00
   3  -2  -2   17.70    2.40
   3  -2  -2   16.50    1.50
   3  -2  -2   16.90    2.60
  -3   2   2   19.60    2.10
  -3   2   2   22.50    2.70
  -3   2   2   19.40    2.70
  -3   2   2   23.20    2.80
  -3   2   2   16.60    1.70
  -3   2   2   19.30    2.10
   2  -2  -2    4.60    1.60
   2  -2  -2    4.90    0.70
   2  -2  -2    5.60    1.10
   2  -2  -2    4.40    1.30
   2  -2  -2    5.60    1.00
   2  -2  -2    4.00    1.00
  -2   2   2    5.40    0.70
  -2   2   2    5.30    0.70
  -2   2   2    6.10    1.20
  -2   2   2    5.50    1.20
  -2   2   2    4.30    1.50
  -2   2   2    6.60    1.50
  -2   2   2    4.40    1.30
   1  -2  -2  398.96    9.70
   1  -2  -2  387.86   10.60
   1  -2  -2  406.46    9.90
   1  -2  -2  402.46   10.00
   1  -2  -2  395.26   10.40
  -1   2   2  386.36   10.00
  -1   2   2  405.16   10.30
  -1   2   2  398.76    9.70
  -1   2   2  349.47   11.00
  -1   2   2  381.76   10.00
   0  -2  -2    9.50    1.20
   0  -2  -2    8.80    1.10
   0  -2  -2    9.40    1.20
   0  -2  -2    6.20    1.20
   0  -2  -2    7.80    1.10
   0  -2  -2    7.70    1.00
   0   2   2    7.50    1.00
   0   2   2    8.80    1.10
   0   2   2    9.40    1.00
   0   2   2    8.40    1.30
   0   2   2    5.90    1.00
   0   2   2   10.00    1.20
  -1  -2  -2 3658.23   83.19
  -1  -2  -2 3450.35   83.39
  -1  -2  -2 3789.12   83.79
  -1  -2  -2 3499.75   83.19
  -1  -2  -2 3769.22   83.19
  -1  -2  -2 3781.12   82.99
   1   2   2 3602.44   83.49
   1   2   2 3711.43   83.69
   1   2   2 3507.15   83.19
   1   2   2 3558.74   83.19
   1   2   2 3699.53   83.19
  -2  -2  -2  518.25   13.50
  -2  -2  -2  530.65   13.00
  -2  -2  -2  527.55   13.10
  -2  -2  -2  533.55   13.50
  -2  -2  -2  518.75   13.10
   2   2   2  532.55   13.00
   2   2   2  548.05   13.70
   2   2   2  531.95   12.30
   2   2   2  529.55   13.00
   2   2   2  519.85   13.60
   2   2   2  510.95   13.50
   2   2   2  546.15   13.00
  -3  -2  -2 2732.03   62.69
  -3  -2  -2 2717.93   63.39
  -3  -2  -2 2731.13   63.09
  -3  -2  -2 2697.23   63.29
  -3  -2  -2 2720.83   62.49
  -3  -2  -2 2714.43   62.49
   3   2   2 2691.73   61.89
   3   2   2 2707.43   63.09
   3   2   2 2719.93   63.39
   3   2   2 2688.53   63.59
   3   2   2 2699.93   62.19
   3   2   2 2669.33   61.99
  -4  -2  -2 1056.19   26.20
  -4  -2  -2 1051.69   26.20
  -4  -2  -2 1080.09   26.90
  -4  -2  -2 1062.09   26.20
  -4  -2  -2 1060.29   25.50
  -4  -2  -2 1095.39   27.00
  -4  -2  -2 1044.40   27.00
   4   2   2 1064.59   26.90
   4   2   2 1058.59   25.70
   4   2   2 1028.50   27.10
   4   2   2 1062.09   26.30
  -5  -2  -2    0.50    2.60
  -5  -2  -2    1.80    2.50
  -5  -2  -2    0.40    2.90
  -5  -2  -2    1.60    2.10
  -5  -2  -2    2.30    1.80
  -5  -2  -2   -1.10    2.20
  -5  -2  -2   -0.10    1.50
  -5  -2  -2   -0.50    1.70
   5   2   2    1.10    1.70
   5   2   2    0.40    2.00
   5   2   2    1.20    2.30
   5   2   2    1.30    2.10
  -6  -2  -2  348.27   12.40
  -6  -2  -2  374.96   11.30
  -6  -2  -2  372.06   11.70
  -6  -2  -2  356.56   11.00
  -6  -2  -2  377.76   10.90
   6   2   2  369.86   11.80
   6   2   2  381.46   13.40
   6   2   2  351.76   12.70
   6   2   2  395.46   11.80
  -7  -2  -2   -0.70    2.60
  -7  -2  -2    2.60    2.90
  -7  -2  -2    5.50    5.10
  -7  -2  -2   -1.60    3.40
  -7  -2  -2    0.30    3.40
   7   2   2    1.30    3.20
   7   2   2   -7.00    3.40
   7   2   2    1.30    3.70
  -8  -2  -2   24.00    4.50
  -8  -2  -2   31.90    4.60
  -8  -2  -2   34.90    7.50
   8   2   2   26.00    5.80
   8   2   2   15.30    4.60
  -9  -2  -2   -8.40    5.80
  -9  -2  -2    4.80    8.20
   9   2   2   -0.50    5.80
   9   2   2   -5.10    6.60
   8  -3  -2    5.40    5.60
   8  -3  -2    6.10    6.20
  -8   3   2    4.80    7.20
  -8   3   2    7.60    4.80
  -8   3   2    6.40    6.40
   7  -3  -2   32.10    5.10
   7  -3  -2   38.70    6.40
  -7   3   2   38.60    6.60
  -7   3   2   47.70    4.80
  -7   3   2   39.10    7.00
   6  -3  -2    0.60    3.00
   6  -3  -2   -0.60    4.00
  -6   3   2    5.50    2.80
  -6   3   2    3.00    3.60
  -6   3   2    2.20    4.20
  -6   3   2    5.70    3.50
  -6   3   2    3.60    3.40
   5  -3  -2  224.68    8.80
   5  -3  -2  234.78    9.80
  -5   3   2  225.88   10.20
  -5   3   2  233.08    7.80
  -5   3   2  215.68    7.60
  -5   3   2  234.38    9.50
  -5   3   2  212.88    7.70
   4  -3  -2    6.30    2.50
   4  -3  -2    3.60    2.90
   4  -3  -2    4.50    2.00
  -4   3   2    3.90    1.60
  -4   3   2    2.00    2.40
  -4   3   2    3.40    1.00
  -4   3   2    4.70    2.20
  -4   3   2    4.40    1.90
  -4   3   2    3.20    2.90
  -4   3   2    3.70    0.90
  -4   3   2    2.60    2.50
  -4   3   2    5.50    1.80
  -4   3   2   -0.20    2.40
   3  -3  -2  115.39    5.60
   3  -3  -2  115.09    3.50
   3  -3  -2  118.49    6.00
   3  -3  -2  120.59    5.10
   3  -3  -2  125.19    3.70
  -3   3   2  119.09    5.50
  -3   3   2  114.49    5.60
  -3   3   2  121.69    5.70
  -3   3   2  113.19    4.40
  -3   3   2  119.39    5.80
  -3   3   2  123.69    4.50
  -3   3   2  117.49    3.80
  -3   3   2  119.19    3.70
   2  -3  -2   -0.40    0.90
   2  -3  -2    0.10    1.10
   2  -3  -2    2.20    1.60
   2  -3  -2    0.00    1.10
   2  -3  -2    2.80    1.20
   2  -3  -2    2.40    1.00
  -2   3   2    0.90    1.10
  -2   3   2    2.00    1.10
  -2   3   2    2.30    1.50
  -2   3   2    0.40    1.40
  -2   3   2    1.90    0.90
  -2   3   2    0.20    1.40
  -2   3   2    1.40    0.60
  -2   3   2    2.00    1.40
   1  -3  -2 1082.39   25.60
   1  -3  -2 1039.60   26.20
   1  -3  -2 1078.59   25.70
   1  -3  -2 1109.39   26.30
   1  -3  -2 1042.90   24.70
  -1   3   2 1082.89   25.80
  -1   3   2 1106.49   25.60
  -1   3   2 1103.49   25.80
  -1   3   2 1056.29   26.70
  -1   3   2 1073.99   26.50
   0  -3  -2  109.09    3.70
   0  -3  -2  109.89    4.20
   0  -3  -2  112.89    3.90
   0  -3  -2  117.29    3.90
   0  -3  -2  115.99    4.10
   0   3   2  107.79    3.80
   0   3   2  112.99    3.90
   0   3   2  100.29    4.30
   0   3   2  110.69    4.30
   0   3   2  117.99    3.90
   0   3   2  113.29    3.70
  -1  -3  -2  318.57    8.70
  -1  -3  -2  318.07    8.50
  -1  -3  -2  301.77    8.40
  -1  -3  -2  314.87    8.40
  -1  -3  -2  316.77    8.90
   1   3   2  302.07    8.40
   1   3   2  300.47    8.90
   1   3   2  308.97    8.40
   1   3   2  306.17    8.60
   1   3   2  303.47    8.20
   1   3   2  313.27    7.70
   1   3   2  315.97    8.40
  -2  -3  -2  118.79    4.10
  -2  -3  -2  121.69    4.20
  -2  -3  -2  118.49    4.40
  -2  -3  -2  115.29    4.10
  -2  -3  -2  114.59    4.20
  -2  -3  -2  117.19    4.70
   2   3   2  119.39    4.50
   2   3   2  119.29    4.20
   2   3   2  122.09    4.20
   2   3   2  116.89    4.20
   2   3   2  115.19    4.20
  -3  -3  -2  193.38    6.20
  -3  -3  -2  195.98    6.50
  -3  -3  -2  195.28    6.60
  -3  -3  -2  174.18    6.80
  -3  -3  -2  191.58    6.10
   3   3   2  198.58    6.50
   3   3   2  208.38    6.10
   3   3   2  188.78    6.20
   3   3   2  198.78    5.30
   3   3   2  190.68    6.20
   3   3   2  192.68    6.80
   3   3   2  199.78    6.60
  -4  -3  -2  259.77    8.70
  -4  -3  -2  253.97    7.90
  -4  -3  -2  256.67    8.20
  -4  -3  -2  254.07    8.10
  -4  -3  -2  248.18    7.70
   4   3   2  254.37    7.40
   4   3   2  254.57    7.60
   4   3   2  251.87    8.50
   4   3   2  244.68    8.20
   4   3   2  253.27    8.90
   4   3   2  255.97    7.10
  -5  -3  -2   73.29    4.60
  -5  -3  -2   64.99    4.50
  -5  -3  -2   68.09    4.10
  -5  -3  -2   61.99    4.30
  -5  -3  -2   70.79    5.10
  -5  -3  -2   60.79    5.60
  -5  -3  -2   69.99    5.70
   5   3   2   67.29    2.80
   5   3   2   63.79    3.70
   5   3   2   70.69    2.90
   5   3   2   69.39    4.60
   5   3   2   59.99    5.10
   5   3   2   67.09    4.90
  -6  -3  -2   39.60    4.50
  -6  -3  -2   43.30    4.30
  -6  -3  -2   29.30    3.40
  -6  -3  -2   43.30    4.90
  -6  -3  -2   33.50    3.80
   6   3   2   37.00    4.20
   6   3   2   28.00    3.90
   6   3   2   29.30    4.00
   6   3   2   35.40    3.80
  -7  -3  -2    9.30    3.40
  -7  -3  -2    2.40    3.00
  -7  -3  -2    6.00    4.10
  -7  -3  -2    4.60    3.20
   7   3   2    5.10    3.10
   7   3   2    6.70    4.00
   7   3   2    9.30    4.00
  -8  -3  -2  103.29    7.60
  -8  -3  -2  107.69   11.40
  -8  -3  -2   99.89    7.30
   8   3   2   90.19    9.90
   8   3   2   88.79    7.60
  -9  -3  -2    6.60    5.80
  -9  -3  -2   -5.10    7.70
   9   3   2    6.50    6.60
   7  -4  -2    1.00    5.70
   7  -4  -2    0.00    4.80
  -7   4   2    3.10    5.20
  -7   4   2   -2.60    6.30
  -7   4   2    6.20    3.80
   6  -4  -2   -2.30    3.60
   6  -4  -2    0.30    4.50
  -6   4   2    2.80    5.40
  -6   4   2    0.00    3.60
  -6   4   2    0.10    3.60
  -6   4   2   -0.20    2.80
  -6   4   2   -6.20    3.90
   5  -4  -2   52.09    5.50
   5  -4  -2   47.50    4.80
  -5   4   2   51.49    5.50
  -5   4   2   45.00    3.70
  -5   4   2   46.50    2.70
  -5   4   2   43.80    4.20
  -5   4   2   43.50    5.30
  -5   4   2   56.09    4.90
  -5   4   2   50.79    2.90
   4  -4  -2   15.10    3.40
   4  -4  -2   18.20    3.70
   4  -4  -2   14.90    2.80
  -4   4   2   14.70    1.80
  -4   4   2   15.10    6.20
  -4   4   2   17.80    2.40
  -4   4   2   18.60    2.50
  -4   4   2   19.90    3.80
  -4   4   2   19.90    6.80
  -4   4   2   18.40    3.60
  -4   4   2   17.30    3.30
  -4   4   2   14.90    2.40
   3  -4  -2  314.77   10.20
   3  -4  -2  303.37   10.40
   3  -4  -2  321.47    7.90
   3  -4  -2  319.57    8.00
   3  -4  -2  313.37   10.90
  -3   4   2  318.57    9.20
  -3   4   2  319.77    8.40
  -3   4   2  322.57   10.90
  -3   4   2  299.27    9.00
  -3   4   2  310.87    8.70
  -3   4   2  335.07   10.80
  -3   4   2  309.37   10.60
  -3   4   2  323.77   10.70
   2  -4  -2   20.40    2.00
   2  -4  -2   17.70    1.50
   2  -4  -2   20.80    2.40
   2  -4  -2   16.30    2.70
   2  -4  -2   23.20    2.60
  -2   4   2   19.20    2.60
  -2   4   2   15.40    2.20
  -2   4   2   18.00    2.60
  -2   4   2   22.20    2.30
  -2   4   2   20.10    2.20
  -2   4   2   15.20    2.40
  -2   4   2   19.30    2.00
   1  -4  -2 3443.86   78.99
   1  -4  -2 3396.66   79.59
   1  -4  -2 3436.66   78.59
   1  -4  -2 3398.16   79.39
   1  -4  -2 3476.95   77.89
   1  -4  -2 3413.96   79.59
   1  -4  -2 3252.17   79.39
  -1   4   2 3451.75   78.89
  -1   4   2 3408.96   79.59
  -1   4   2 3334.87   79.59
  -1   4   2 3407.56   78.79
  -1   4   2 3558.94   79.49
   0  -4  -2 1951.40   46.30
   0  -4  -2 1997.00   46.30
   0  -4  -2 2015.10   46.90
   0  -4  -2 1975.10   46.60
   0  -4  -2 1945.61   46.90
   0  -4  -2 1933.01   46.40
   0   4   2 2064.19   46.40
   0   4   2 1986.50   46.40
   0   4   2 1959.30   46.90
   0   4   2 1992.00   46.80
   0   4   2 2025.80   46.40
   0   4   2 1886.61   46.40
  -1  -4  -2 6309.17  143.49
  -1  -4  -2 6229.18  143.29
  -1  -4  -2 6418.16  143.19
  -1  -4  -2 6426.56  143.79
   1   4   2 6280.07  143.39
   1   4   2 6309.07  143.79
   1   4   2 6309.17  143.39
   1   4   2 6282.27  143.19
   1   4   2 6163.48  142.49
   1   4   2 5913.81  143.09
  -2  -4  -2  213.88    7.00
  -2  -4  -2  219.48    6.60
  -2  -4  -2  213.68    6.80
  -2  -4  -2  214.58    6.80
   2   4   2  212.38    5.70
   2   4   2  213.78    7.00
   2   4   2  222.08    6.80
   2   4   2  205.28    6.70
   2   4   2  215.68    6.50
   2   4   2  226.88    6.90
  -3  -4  -2  110.79    4.90
  -3  -4  -2  110.39    4.70
  -3  -4  -2  111.79    4.60
  -3  -4  -2  122.19    4.90
  -3  -4  -2  118.39    4.90
   3   4   2  119.79    5.00
   3   4   2  105.59    4.70
   3   4   2  107.09    4.50
   3   4   2  116.49    4.50
   3   4   2  108.09    4.70
  -4  -4  -2    3.60    1.70
  -4  -4  -2    2.40    2.40
  -4  -4  -2    3.00    2.00
  -4  -4  -2    0.20    1.70
  -4  -4  -2    2.80    1.90
   4   4   2    2.30    1.80
   4   4   2    2.20    1.10
   4   4   2    1.20    1.90
   4   4   2    4.20    1.70
   4   4   2    1.80    2.00
   4   4   2    1.80    1.60
   4   4   2    0.40    1.70
  -5  -4  -2   56.69    5.10
  -5  -4  -2   53.99    4.80
  -5  -4  -2   60.89    4.40
  -5  -4  -2   62.89    4.50
  -5  -4  -2   52.99    5.70
   5   4   2   60.59    3.40
   5   4   2   64.79    5.10
   5   4   2   58.99    3.60
   5   4   2   68.29    3.80
   5   4   2   65.09    4.70
   5   4   2   65.69    5.20
  -6  -4  -2   -4.10    3.30
  -6  -4  -2   -0.60    2.60
  -6  -4  -2    1.80    2.50
  -6  -4  -2    6.20    3.90
  -6  -4  -2   -4.30    2.40
   6   4   2   -2.00    2.00
   6   4   2    1.60    2.20
   6   4   2    0.20    2.00
   6   4   2    1.90    2.60
   6   4   2    1.90    3.20
   6   4   2   -1.10    2.90
  -7  -4  -2    4.10    3.40
  -7  -4  -2    3.00    3.20
  -7  -4  -2    3.10    3.30
   7   4   2    3.80    4.00
   7   4   2   -0.30    2.70
   7   4   2    8.30    4.30
  -8  -4  -2   11.30    6.90
  -8  -4  -2   11.60    4.40
  -8  -4  -2    8.60    4.70
   8   4   2    4.60    4.00
   8   4   2   15.60    5.90
  -9  -4  -2    5.60    8.00
  -9  -4  -2   -2.60    6.20
   9   4   2    4.80    6.70
   7  -5  -2   -2.60    5.70
   7  -5  -2   -5.20    5.40
  -7   5   2    2.10    4.20
  -7   5   2    0.90    6.50
  -7   5   2    5.10    6.50
   6  -5  -2    0.30    4.10
   6  -5  -2   -0.10    5.00
  -6   5   2    1.10    5.20
  -6   5   2   -1.30    4.70
  -6   5   2    5.40    1.90
  -6   5   2    0.00    3.20
  -6   5   2   -0.30    4.40
   5  -5  -2    2.20    3.50
   5  -5  -2    0.30    3.80
  -5   5   2   -1.00    3.10
  -5   5   2    2.90    3.80
  -5   5   2    3.90    4.20
  -5   5   2    1.30    2.40
  -5   5   2    5.60    2.70
   4  -5  -2   33.50    4.30
   4  -5  -2   30.30    4.60
   4  -5  -2   32.80    5.10
  -4   5   2   34.70    3.50
  -4   5   2   36.90    3.40
  -4   5   2   31.80    3.30
  -4   5   2   33.30    4.10
  -4   5   2   37.10    4.80
  -4   5   2   32.90    4.30
  -4   5   2   34.10    3.50
   3  -5  -2    1.60    1.10
   3  -5  -2    3.80    1.10
   3  -5  -2   -0.30    3.00
   3  -5  -2    4.00    2.20
   3  -5  -2   -1.20    2.00
  -3   5   2   -0.40    2.70
  -3   5   2    2.60    2.20
  -3   5   2    4.50    2.80
  -3   5   2    8.50    2.90
  -3   5   2    0.80    2.40
  -3   5   2    4.00    1.80
  -3   5   2    5.30    1.90
   2  -5  -2    7.30    1.30
   2  -5  -2    8.60    2.50
   2  -5  -2    8.00    1.90
   2  -5  -2    9.10    1.60
   2  -5  -2    7.10    2.00
   2  -5  -2    9.80    2.80
  -2   5   2    9.20    2.00
  -2   5   2   11.10    1.80
  -2   5   2    6.10    2.30
  -2   5   2    9.30    2.50
  -2   5   2    7.30    1.90
  -2   5   2    5.10    2.30
   1  -5  -2  174.08    5.80
   1  -5  -2  170.58    6.10
   1  -5  -2  174.38    6.60
   1  -5  -2  171.38    5.10
   1  -5  -2  166.68    6.40
   1  -5  -2  166.58    6.80
   1  -5  -2  163.68    5.60
   1  -5  -2  167.18    6.60
  -1   5   2  165.28    6.40
  -1   5   2  172.38    5.90
  -1   5   2  166.28    6.10
  -1   5   2  166.68    5.90
  -1   5   2  169.38    6.60
  -1   5   2  161.68    6.60
   0  -5  -2   13.30    2.30
   0  -5  -2   11.60    1.80
   0  -5  -2   18.10    2.40
   0  -5  -2   15.50    2.10
   0  -5  -2   11.90    1.80
   0  -5  -2   11.90    1.90
   0  -5  -2   11.80    2.00
   0   5   2   11.70    2.20
   0   5   2   17.00    2.30
   0   5   2   17.40    2.10
   0   5   2   13.50    2.20
   0   5   2   11.50    1.90
   0   5   2   15.10    2.00
  -1  -5  -2 2281.17   53.59
  -1  -5  -2 2309.87   53.69
  -1  -5  -2 2252.87   53.09
  -1  -5  -2 2240.98   53.39
   1   5   2 2263.27   53.09
   1   5   2 2272.57   52.09
   1   5   2 2207.18   53.59
   1   5   2 2185.98   53.49
   1   5   2 2239.98   53.39
   1   5   2 2280.27   52.59
  -2  -5  -2  333.97   10.10
  -2  -5  -2  337.17    9.40
  -2  -5  -2  343.17   10.20
  -2  -5  -2  352.26   10.70
  -2  -5  -2  340.87   10.40
  -2  -5  -2  326.67   10.00
   2   5   2  334.27   10.00
   2   5   2  359.26    9.40
   2   5   2  335.27   10.20
   2   5   2  341.17   10.10
   2   5   2  343.37    9.10
   2   5   2  344.67   10.40
  -3  -5  -2  378.66   11.10
  -3  -5  -2  386.76   10.80
  -3  -5  -2  371.16   12.00
  -3  -5  -2  395.26   11.60
  -3  -5  -2  378.86   11.20
  -3  -5  -2  374.76   11.30
   3   5   2  362.26   11.00
   3   5   2  369.86   10.80
   3   5   2  383.26   11.00
   3   5   2  374.56   11.30
   3   5   2  367.26   11.30
  -4  -5  -2   54.39    4.50
  -4  -5  -2   52.49    4.00
  -4  -5  -2   37.50    3.60
  -4  -5  -2   47.20    4.10
  -4  -5  -2   38.00    3.70
   4   5   2   44.10    4.10
   4   5   2   46.40    4.10
   4   5   2   48.50    4.30
   4   5   2   45.90    3.70
   4   5   2   45.00    3.90
   4   5   2   44.10    3.90
  -5  -5  -2    7.70    3.10
  -5  -5  -2    7.60    3.50
  -5  -5  -2    9.20    3.70
  -5  -5  -2    9.30    2.70
  -5  -5  -2   12.30    2.90
   5   5   2    9.00    2.40
   5   5   2   10.30    3.30
   5   5   2   12.10    1.90
   5   5   2   11.70    2.80
   5   5   2   14.50    3.30
   5   5   2    9.10    2.50
   5   5   2   11.50    2.90
  -6  -5  -2   60.89    5.60
  -6  -5  -2   62.99    7.30
  -6  -5  -2   63.49    5.80
   6   5   2   65.49    4.70
   6   5   2   63.39    6.20
   6   5   2   58.99    4.10
   6   5   2   55.29    5.50
   6   5   2   58.99    6.60
  -7  -5  -2    1.00    3.70
  -7  -5  -2   -5.30    3.70
  -7  -5  -2    1.90    3.40
   7   5   2   -1.90    2.60
   7   5   2    0.80    4.40
   7   5   2    2.70    4.10
   7   5   2   -1.10    2.20
  -8  -5  -2    9.10    4.50
  -8  -5  -2    6.70    4.70
   8   5   2    7.60    3.80
   8   5   2   -7.10    5.00
   7  -6  -2    5.50    7.60
   7  -6  -2   -4.50    6.50
  -7   6   2    4.00    7.60
  -7   6   2    4.60    7.40
   6  -6  -2   13.60    5.30
   6  -6  -2    4.60    5.40
  -6   6   2   11.60    5.80
  -6   6   2   12.20    3.70
  -6   6   2    4.90    5.70
   5  -6  -2   21.30    5.50
   5  -6  -2    9.00    5.70
  -5   6   2   19.30    3.40
  -5   6   2   24.90    4.40
  -5   6   2   17.90    5.10
  -5   6   2   16.50    3.30
  -5   6   2   13.00    5.10
   4  -6  -2    1.10    3.10
   4  -6  -2   10.10    4.00
   4  -6  -2    3.80    2.20
  -4   6   2    3.60    2.40
  -4   6   2    8.40    3.40
  -4   6   2    2.40    3.60
  -4   6   2    2.70    3.00
  -4   6   2    5.90    2.70
  -4   6   2    4.60    3.70
   3  -6  -2    3.30    3.70
   3  -6  -2    1.60    1.50
   3  -6  -2    2.90    2.90
   3  -6  -2    7.40    3.00
  -3   6   2    0.20    1.90
  -3   6   2    3.20    2.40
  -3   6   2    7.70    3.20
  -3   6   2    2.10    2.60
  -3   6   2    4.30    2.50
  -3   6   2    4.50    2.80
   2  -6  -2    5.00    1.60
   2  -6  -2    6.10    1.80
   2  -6  -2    4.10    2.50
   2  -6  -2    4.40    3.00
   2  -6  -2    4.80    3.00
   2  -6  -2    6.50    2.00
   2  -6  -2    2.10    2.40
  -2   6   2    4.80    2.30
  -2   6   2    6.40    2.40
  -2   6   2    4.80    1.90
  -2   6   2    2.00    2.20
  -2   6   2    8.20    3.00
  -2   6   2    7.20    2.60
   1  -6  -2   25.10    2.70
   1  -6  -2   21.60    3.70
   1  -6  -2   21.00    3.10
   1  -6  -2   15.40    2.50
   1  -6  -2   22.00    2.00
   1  -6  -2   18.80    2.80
   1  -6  -2   20.80    2.70
   1  -6  -2   20.50    2.30
  -1   6   2   22.20    3.10
  -1   6   2   18.50    2.70
  -1   6   2   20.80    2.70
  -1   6   2   18.80    3.10
  -1   6   2   23.50    2.60
  -1   6   2   20.90    2.90
   0  -6  -2  183.18    7.00
   0  -6  -2  185.98    7.40
   0  -6  -2  181.08    7.10
   0  -6  -2  180.58    6.50
   0  -6  -2  174.28    6.40
   0  -6  -2  178.98    7.20
   0   6   2  180.28    7.20
   0   6   2  183.98    6.90
   0   6   2  176.98    7.10
   0   6   2  169.78    6.70
   0   6   2  184.38    7.00
   0   6   2  171.78    6.50
  -1  -6  -2   -0.60    1.90
  -1  -6  -2    2.10    2.10
  -1  -6  -2   -1.70    2.10
  -1  -6  -2    2.40    2.00
  -1  -6  -2   -0.50    1.60
  -1  -6  -2   -0.40    1.90
   1   6   2    1.10    1.60
   1   6   2    0.50    1.80
   1   6   2    0.50    1.70
   1   6   2    0.00    1.00
   1   6   2    3.40    1.70
   1   6   2    3.30    2.00
   1   6   2   -1.40    1.70
  -2  -6  -2    4.80    2.20
  -2  -6  -2    3.70    2.00
  -2  -6  -2    4.80    2.20
  -2  -6  -2    5.90    2.10
  -2  -6  -2    4.30    2.60
   2   6   2    4.40    1.60
   2   6   2    5.00    2.20
   2   6   2    4.70    2.40
   2   6   2    5.70    1.40
   2   6   2    3.60    1.70
   2   6   2    4.60    1.80
  -3  -6  -2    4.10    2.30
  -3  -6  -2    1.90    2.50
  -3  -6  -2    2.80    2.80
  -3  -6  -2    7.50    2.20
  -3  -6  -2    3.70    1.80
  -3  -6  -2    1.90    2.30
   3   6   2    3.10    2.40
   3   6   2    7.00    2.10
   3   6   2    3.40    2.20
   3   6   2    0.40    1.80
   3   6   2    2.70    1.60
  -4  -6  -2    5.70    2.60
  -4  -6  -2    5.10    2.60
  -4  -6  -2    9.30    3.70
  -4  -6  -2    7.40    3.20
  -4  -6  -2    2.50    2.60
  -4  -6  -2    2.60    2.70
   4   6   2    5.90    2.90
   4   6   2    2.90    2.60
   4   6   2    3.20    2.10
   4   6   2    3.20    2.20
   4   6   2    3.30    2.60
  -5  -6  -2    5.80    3.40
  -5  -6  -2    1.40    2.90
  -5  -6  -2    4.20    3.70
  -5  -6  -2    0.10    2.80
   5   6   2   -1.50    2.90
   5   6   2    0.50    2.50
   5   6   2    2.00    1.70
   5   6   2    0.20    2.70
   5   6   2    0.40    3.40
   5   6   2    0.70    2.40
   5   6   2   -3.60    2.50
  -6  -6  -2   42.10    4.90
  -6  -6  -2   65.19    6.20
   6   6   2   48.50    6.40
   6   6   2   53.99    5.30
   6   6   2   43.50    3.90
   6   6   2   42.90    4.40
   6   6   2   38.90    4.70
  -7  -6  -2   17.20    4.30
  -7  -6  -2   17.60    4.80
   7   6   2    7.80    3.10
   7   6   2   16.30    3.50
   7   6   2    8.80    4.40
  -8  -6  -2   -9.00    4.70
  -8  -6  -2    4.90    5.00
   8   6   2    3.50    5.30
   8   6   2    0.20    4.30
   6  -7  -2   30.10    6.90
   6  -7  -2   27.00    7.70
  -6   7   2   22.20    7.20
  -6   7   2   23.40    7.40
  -6   7   2   30.30    4.90
   5  -7  -2    7.40    5.90
   5  -7  -2    1.10    4.90
  -5   7   2    1.00    3.40
  -5   7   2    4.80    5.40
  -5   7   2    6.00    5.00
   4  -7  -2   -6.30    3.80
   4  -7  -2    0.10    4.70
   4  -7  -2   -0.70    2.50
  -4   7   2   -1.30    2.80
  -4   7   2    4.80    3.90
  -4   7   2   -4.40    3.70
  -4   7   2    3.60    3.90
  -4   7   2    6.40    4.10
  -4   7   2    0.60    3.40
   3  -7  -2    3.40    3.20
   3  -7  -2   -6.70    4.40
   3  -7  -2    0.10    3.30
   3  -7  -2    3.40    2.10
  -3   7   2    3.70    2.90
  -3   7   2   -1.30    3.10
  -3   7   2    0.20    3.40
  -3   7   2    0.00    3.20
  -3   7   2    3.40    3.20
  -3   7   2    0.30    2.30
   2  -7  -2   40.30    4.90
   2  -7  -2   35.30    3.30
   2  -7  -2   45.50    5.10
   2  -7  -2   34.50    4.40
   2  -7  -2   37.30    4.00
   2  -7  -2   43.20    3.50
  -2   7   2   37.10    4.00
  -2   7   2   36.10    4.10
  -2   7   2   43.60    4.40
  -2   7   2   38.20    3.60
  -2   7   2   33.70    4.40
   1  -7  -2  104.59    5.30
   1  -7  -2  100.49    5.10
   1  -7  -2  100.09    5.90
   1  -7  -2  105.49    6.70
   1  -7  -2   92.89    6.90
   1  -7  -2   99.99    4.50
   1  -7  -2   98.79    6.00
  -1   7   2   98.79    5.80
  -1   7   2  107.69    6.40
  -1   7   2  107.99    6.60
  -1   7   2   94.29    5.90
  -1   7   2   93.19    5.40
  -1   7   2  104.19    5.90
   0  -7  -2   27.80    3.20
   0  -7  -2   31.90    3.80
   0  -7  -2   23.20    3.70
   0  -7  -2   28.10    3.30
   0  -7  -2   30.20    3.20
   0  -7  -2   27.30    3.40
   0   7   2   31.60    3.80
   0   7   2   26.30    2.20
   0   7   2   28.10    3.50
   0   7   2   26.50    3.20
   0   7   2   31.40    3.60
   0   7   2   29.20    3.20
   0   7   2   36.00    3.90
  -1  -7  -2    9.00    2.60
  -1  -7  -2    7.30    2.90
  -1  -7  -2   11.40    2.60
  -1  -7  -2    3.70    2.80
  -1  -7  -2    8.00    2.50
  -1  -7  -2    7.50    2.30
   1   7   2   10.40    2.70
   1   7   2    8.90    2.10
   1   7   2    5.70    2.30
   1   7   2    7.20    1.40
   1   7   2   13.50    2.60
   1   7   2   10.10    2.70
   1   7   2    4.70    2.20
  -2  -7  -2    8.90    2.70
  -2  -7  -2    8.90    2.60
  -2  -7  -2    4.70    3.30
  -2  -7  -2    6.50    2.30
  -2  -7  -2    7.70    2.60
  -2  -7  -2    6.90    3.30
   2   7   2    8.50    2.70
   2   7   2    6.30    2.30
   2   7   2    4.60    2.50
   2   7   2    4.40    2.00
   2   7   2    9.50    1.70
   2   7   2    4.60    2.10
  -3  -7  -2    3.10    2.80
  -3  -7  -2   -0.60    3.00
  -3  -7  -2    8.00    3.30
  -3  -7  -2    9.10    2.60
  -3  -7  -2    4.90    3.20
  -3  -7  -2    4.30    2.00
   3   7   2    6.20    2.90
   3   7   2    2.20    2.10
   3   7   2    2.90    3.00
   3   7   2    1.40    2.10
   3   7   2    1.10    1.80
   3   7   2    2.90    2.40
  -4  -7  -2    1.10    2.80
  -4  -7  -2   -2.20    2.60
  -4  -7  -2   -0.20    2.70
  -4  -7  -2   -1.10    3.50
   4   7   2    0.90    2.10
   4   7   2   -2.50    2.70
   4   7   2   -0.30    2.30
  -5  -7  -2    7.10    3.40
  -5  -7  -2    3.30    3.80
  -5  -7  -2   -0.20    2.90
   5   7   2   -0.90    3.10
   5   7   2   -0.20    2.70
   5   7   2    6.70    2.90
   5   7   2    6.30    3.30
  -6  -7  -2   -3.00    3.60
  -6  -7  -2    0.10    3.80
   6   7   2    5.80    4.10
   6   7   2    1.80    4.40
   6   7   2    9.70    3.80
   6   7   2    0.90    3.20
   6   7   2    2.90    2.40
  -7  -7  -2   -5.00    4.30
  -7  -7  -2    4.50    9.00
   7   7   2   -3.40    3.00
   7   7   2    2.20    4.80
  -8  -7  -2   14.00    5.90
  -8  -7  -2    4.70    5.70
   8   7   2    8.90    6.30
   5  -8  -2    0.10    6.70
   5  -8  -2    0.70    5.70
  -5   8   2   -1.90    5.70
  -5   8   2   -1.10    5.90
  -5   8   2   -6.00    3.70
   4  -8  -2   12.40    3.10
   4  -8  -2    9.90    4.70
   4  -8  -2   17.30    5.20
  -4   8   2   10.00    4.70
  -4   8   2    7.10    4.80
  -4   8   2   14.80    4.70
  -4   8   2   12.40    5.00
  -4   8   2   10.60    3.70
   3  -8  -2   21.40    3.20
   3  -8  -2   22.50    4.90
   3  -8  -2   32.30    5.70
  -3   8   2   27.20    3.90
  -3   8   2   27.40    5.00
  -3   8   2   19.10    4.70
  -3   8   2   22.60    3.70
  -3   8   2   21.20    4.90
   2  -8  -2   14.70    4.40
   2  -8  -2    7.30    2.50
   2  -8  -2    9.50    3.20
   2  -8  -2   10.00    2.50
   2  -8  -2    7.90    3.90
   2  -8  -2    7.50    4.60
  -2   8   2    6.00    3.70
  -2   8   2    7.90    3.70
  -2   8   2   14.40    4.10
  -2   8   2    9.80    3.00
  -2   8   2   11.30    2.60
   1  -8  -2   40.30    4.40
   1  -8  -2   38.10    3.90
   1  -8  -2   37.00    5.00
   1  -8  -2   27.00    3.70
   1  -8  -2   43.50    4.20
  -1   8   2   40.40    4.00
  -1   8   2   42.60    5.70
  -1   8   2   40.90    4.40
  -1   8   2   36.60    4.40
   0  -8  -2   24.10    3.50
   0  -8  -2   33.40    3.70
   0  -8  -2   34.80    4.10
   0  -8  -2   36.70    4.50
   0  -8  -2   40.60    5.00
   0   8   2   33.60    4.30
   0   8   2   28.00    4.40
   0   8   2   44.30    4.40
   0   8   2   44.60    5.10
   0   8   2   37.30    2.40
  -1  -8  -2   14.00    3.90
  -1  -8  -2   18.60    3.50
  -1  -8  -2   19.60    3.30
  -1  -8  -2   15.60    3.00
  -1  -8  -2   19.90    3.60
   1   8   2   20.70    3.90
   1   8   2   15.90    3.40
   1   8   2   19.50    1.70
   1   8   2   19.30    3.50
   1   8   2   20.60    3.60
  -2  -8  -2    2.70    3.60
  -2  -8  -2   -0.30    2.40
  -2  -8  -2    0.50    2.50
  -2  -8  -2    3.80    2.60
   2   8   2   -3.30    2.70
   2   8   2    4.70    2.80
   2   8   2    3.20    2.00
   2   8   2    1.90    2.30
  -3  -8  -2   66.99    6.30
  -3  -8  -2   51.39    6.10
  -3  -8  -2   54.19    5.50
  -3  -8  -2   61.19    5.30
   3   8   2   60.79    5.20
   3   8   2   60.49    5.10
   3   8   2   66.39    4.00
   3   8   2   52.79    5.70
  -4  -8  -2   58.59    5.90
  -4  -8  -2   56.69    5.10
  -4  -8  -2   52.69    5.80
  -4  -8  -2   51.19    4.40
   4   8   2   52.39    4.70
   4   8   2   48.80    5.30
   4   8   2   57.89    5.40
   4   8   2   41.30    4.90
  -5  -8  -2   15.10    4.10
  -5  -8  -2   36.50    5.40
  -5  -8  -2   20.50    3.30
  -5  -8  -2   21.70    4.40
   5   8   2   21.80    4.40
   5   8   2   20.20    4.30
   5   8   2   20.80    3.70
   5   8   2   18.90    4.40
  -6  -8  -2    8.00    4.40
  -6  -8  -2    8.10    3.10
  -6  -8  -2   15.10    4.80
   6   8   2    1.40    4.00
   6   8   2    2.50    3.60
   6   8   2    3.30    4.40
   6   8   2    2.60    2.50
  -7  -8  -2   -3.30    5.20
  -7  -8  -2    4.60    5.30
  -7  -8  -2   -6.30    3.40
   7   8   2    3.20    5.00
   7   8   2    7.00    4.50
  -8  -8  -2   -2.90    6.30
  -8  -8  -2    3.90    6.60
   8   8   2    0.70    6.70
   4  -9  -2   -2.40    6.30
   4  -9  -2    3.70    5.70
  -4   9   2    9.00    5.80
  -4   9   2   -2.70    6.10
   3  -9  -2    3.30    5.20
   3  -9  -2   -0.30    4.10
   3  -9  -2    3.00    3.30
  -3   9   2    2.30    4.50
  -3   9   2    4.00    3.80
  -3   9   2   14.70    5.30
   2  -9  -2   18.10    3.40
   2  -9  -2   18.60    4.00
   2  -9  -2   12.30    4.10
   2  -9  -2   18.70    3.20
  -2   9   2   20.00    3.80
  -2   9   2   20.40    4.60
  -2   9   2   18.70    5.40
  -2   9   2   18.20    2.90
   1  -9  -2   21.60    3.50
   1  -9  -2   11.10    5.10
   1  -9  -2   24.60    4.40
   1  -9  -2   26.60    3.30
   1  -9  -2   26.90    4.50
  -1   9   2   23.50    2.00
  -1   9   2   23.50    3.70
  -1   9   2   21.50    4.20
  -1   9   2   24.40    2.20
  -1   9   2   27.40    4.90
   0  -9  -2  272.87   11.30
   0  -9  -2  262.27   11.90
   0  -9  -2  290.27   10.30
   0  -9  -2  269.27   11.30
   0   9   2  268.37   10.90
   0   9   2  273.47   11.70
   0   9   2  273.67   10.40
  -1  -9  -2   62.89    6.80
  -1  -9  -2   69.89    6.30
  -1  -9  -2   73.89    8.00
  -1  -9  -2   72.39    5.80
   1   9   2   68.19    5.60
   1   9   2   71.89    6.40
   1   9   2   64.29    7.00
  -2  -9  -2   55.69    6.00
  -2  -9  -2   54.89    5.70
  -2  -9  -2   49.90    5.80
   2   9   2   62.99    6.10
   2   9   2   63.99    6.40
   2   9   2   53.09    5.70
   2   9   2   53.09    3.30
  -3  -9  -2   92.79    7.90
  -3  -9  -2  104.29    6.80
   3   9   2  106.49    7.20
   3   9   2  105.19    7.80
   3   9   2  112.39    5.10
  -4  -9  -2   18.90    4.30
  -4  -9  -2   11.80    3.40
  -4  -9  -2   21.40    4.60
   4   9   2   15.20    3.90
   4   9   2   16.10    4.00
   4   9   2   28.00    8.40
   4   9   2   20.90    3.30
  -5  -9  -2   11.90    4.80
  -5  -9  -2   -5.00    3.20
  -5  -9  -2    1.50    4.10
  -5  -9  -2    4.40    4.20
   5   9   2   -4.80    3.80
   5   9   2    0.80    4.10
  -6  -9  -2    4.80    3.70
  -6  -9  -2   13.70    5.50
  -6  -9  -2    4.40    5.60
   6   9   2    8.40    4.90
   6   9   2    9.80    4.70
   6   9   2    7.80    5.20
  -7  -9  -2    6.70    5.50
  -7  -9  -2    6.00    5.60
   7   9   2    8.90    6.10
   7   9   2    7.10    6.00
   7   9   2   -4.80    5.40
   3 -10  -2   -4.10    5.70
  -3  10   2    1.60    4.70
  -3  10   2    5.00    5.50
  -3  10   2   -6.70    6.00
   2 -10  -2   -2.10    3.40
   2 -10  -2   -1.50    4.50
   2 -10  -2   -0.30    3.40
  -2  10   2    5.70    5.60
  -2  10   2    2.00    4.90
  -2  10   2    1.90    4.00
   1 -10  -2    9.20    4.50
   1 -10  -2    1.70    3.60
   1 -10  -2   -0.10    4.80
   1 -10  -2    2.20    3.40
  -1  10   2   -2.40    3.60
  -1  10   2    7.00    4.10
  -1  10   2    0.80    4.60
   0 -10  -2   21.40    3.70
   0 -10  -2   27.40    4.80
   0 -10  -2   16.70    4.10
   0  10   2   20.00    4.70
   0  10   2   15.70    4.50
   0  10   2   13.20    4.20
  -1 -10  -2   -0.90    3.50
  -1 -10  -2    2.90    3.80
  -1 -10  -2    3.90    4.80
   1  10   2   -2.70    3.60
   1  10   2    2.60    3.40
  -2 -10  -2    9.40    4.50
  -2 -10  -2   11.40    4.30
  -2 -10  -2    5.80    4.10
   2  10   2   13.70    4.20
   2  10   2   17.70    4.50
   2  10   2   23.00    5.30
  -3 -10  -2   60.09    6.60
  -3 -10  -2   80.19    7.80
  -3 -10  -2   54.69    5.90
   3  10   2   63.99    6.40
   3  10   2   62.59    7.30
   3  10   2   48.20    6.00
  -4 -10  -2   78.79    8.00
  -4 -10  -2   57.39    6.70
  -4 -10  -2   74.19    7.20
   4  10   2   61.59    6.90
   4  10   2   77.29    7.70
  -5 -10  -2   45.20    5.40
  -5 -10  -2   26.40    6.00
  -5 -10  -2   43.80    6.00
   5  10   2   35.10    6.30
   5  10   2   27.90    6.40
  -6 -10  -2   97.99    8.90
  -6 -10  -2  117.69    9.80
  -6 -10  -2   97.49   10.70
   6  10   2   94.79   10.10
   6  10   2  112.49   10.80
   6  10   2   80.39    8.80
   2 -11  -2   -7.60    5.00
   2 -11  -2   -1.20    6.10
  -2  11   2   -1.70    5.10
  -2  11   2   -5.90    5.30
  -2  11   2    0.80    5.90
   1 -11  -2    1.50    5.60
   1 -11  -2    7.00    4.50
   1 -11  -2    8.50    4.40
  -1  11   2   10.20    5.80
  -1  11   2    1.00    5.00
  -1  11   2    3.90    5.10
   0 -11  -2    3.20    4.80
   0 -11  -2    9.60    4.60
   0 -11  -2   -0.70    4.00
   0  11   2    0.00    5.10
   0  11   2   -8.30    4.30
   0  11   2    3.60    4.50
  -1 -11  -2   -4.30    4.60
  -1 -11  -2    4.40    4.40
   1  11   2   -2.60    4.10
   1  11   2    6.10    4.80
  -2 -11  -2    6.30    5.00
  -2 -11  -2   -1.90    4.40
  -2 -11  -2    0.00    5.80
   2  11   2    1.40    4.90
   2  11   2   -2.70    4.20
  -3 -11  -2   15.20    4.80
  -3 -11  -2   16.70    5.60
  -3 -11  -2    5.80    5.60
   3  11   2    7.30    5.60
   3  11   2   17.20    4.80
  -4 -11  -2    3.90    5.60
  -4 -11  -2    8.10    6.10
  -4 -11  -2    4.50    4.90
   4  11   2    3.30    5.30
   4  11   2   -0.60    6.00
  -5 -11  -2    9.70    6.90
  -5 -11  -2    7.00    5.60
  -5 -11  -2    0.10    5.00
   5  11   2   -6.60    5.60
   5  11   2   -3.30    6.50
   0 -12  -2   62.59    8.40
   0 -12  -2   54.79    6.60
   0 -12  -2   61.79    7.20
   0  12   2   61.19    7.50
   0  12   2   54.29    7.80
  -1 -12  -2   46.20    6.50
  -1 -12  -2   28.20    6.60
   1  12   2   36.60    7.50
   1  12   2   37.10    6.20
  -2 -12  -2    4.60    5.70
  -2 -12  -2    4.50    6.20
   2  12   2    0.80    5.40
   2  12   2    2.90    6.20
  -3 -12  -2   -6.20    5.80
  -3 -12  -2    9.90    5.70
   3  12   2    2.30    5.70
   3  12   2   -0.20    6.30
  -4 -12  -2   -4.00    6.50
  -4 -12  -2   12.60    6.30
  -4 -12  -2    7.40    7.80
   4  12   2   -2.40    7.00
   4  12   2    7.30    6.60
   2  11  -3   24.10    7.20
   2  11  -3    9.00    7.40
  -2 -11   3    4.50    6.30
  -2 -11   3    4.00    6.20
  -2 -11   3    6.00    5.20
   1  11  -3   44.40    7.70
   1  11  -3   34.70    8.00
  -1 -11   3   35.20    6.80
  -1 -11   3   44.70    8.50
  -1 -11   3   28.30    7.20
   5  10  -3    6.80    6.70
   5  10  -3    2.40    6.10
   5  10  -3   -1.10    6.20
  -5 -10   3   -2.50    6.00
  -5 -10   3    2.90    6.50
   4  10  -3   -7.60    5.60
   4  10  -3   13.80    6.30
  -4 -10   3    4.10    5.10
  -4 -10   3    9.20    6.00
  -4 -10   3   -4.40    5.40
   3  10  -3    7.40    6.50
   3  10  -3   -1.10    5.20
  -3 -10   3   -5.00    5.10
  -3 -10   3    1.50    5.30
   2  10  -3   -4.60    5.50
   2  10  -3   17.70    6.00
  -2 -10   3   -9.30    4.90
  -2 -10   3    9.80    4.80
  -2 -10   3    5.60    5.10
   1  10  -3    2.70    5.40
   1  10  -3   -5.60    5.10
  -1 -10   3   -2.50    4.90
  -1 -10   3   -4.50    4.50
  -1 -10   3    1.30    5.60
   0  10  -3   12.90    5.60
   0  10  -3    6.00    5.70
   0 -10   3   -7.30    5.80
   0 -10   3   13.80    5.10
   0 -10   3   11.70    4.30
  -1  10  -3   10.40    6.10
  -1  10  -3    5.40    5.40
   1 -10   3    4.30    6.30
   1 -10   3    6.00    5.60
  -2  10  -3    8.20    6.70
  -2  10  -3    5.90    5.60
   2 -10   3   -4.00    5.90
   2 -10   3    5.50    7.50
   6   9  -3    7.70    6.90
   6   9  -3   11.60    6.00
  -6  -9   3    2.10    6.70
  -6  -9   3   -6.80    5.30
   5   9  -3   58.49    7.30
   5   9  -3   56.09    7.30
   5   9  -3   68.19    8.50
  -5  -9   3   55.99    7.50
  -5  -9   3   52.39    5.40
   4   9  -3    1.60    4.50
   4   9  -3   -1.40    4.90
   4   9  -3   13.60    5.50
  -4  -9   3   -0.80    4.90
  -4  -9   3    1.90    4.00
   3   9  -3    0.20    4.30
   3   9  -3   -6.20    4.40
  -3  -9   3   -1.80    3.90
  -3  -9   3   -1.30    4.80
   2   9  -3   23.00    5.00
   2   9  -3   19.80    5.30
  -2  -9   3   19.70    5.40
  -2  -9   3   12.30    4.70
   1   9  -3   16.30    5.10
   1   9  -3   23.00    5.00
  -1  -9   3   19.80    5.30
  -1  -9   3   23.10    5.00
  -1  -9   3   19.50    4.40
   0   9  -3    8.40    4.30
   0   9  -3    3.90    4.70
   0  -9   3    5.50    3.60
   0  -9   3    0.90    4.80
   0  -9   3    2.10    4.00
  -1   9  -3    5.10    4.10
  -1   9  -3   -7.40    4.60
   1  -9   3    5.90    4.40
   1  -9   3    3.00    4.70
  -2   9  -3   10.90    5.50
  -2   9  -3   -0.70    5.50
   2  -9   3   16.80    6.30
   2  -9   3    5.10    4.90
  -3   9  -3   -9.20    6.00
   3  -9   3    0.00    6.80
   3  -9   3   -2.00    5.30
   7   8  -3   -0.40    6.40
   7   8  -3    2.50    6.00
  -7  -8   3    5.00    7.70
  -7  -8   3   -1.30    6.30
   6   8  -3    7.00    5.90
   6   8  -3   10.50    5.40
   6   8  -3   -2.00    5.40
  -6  -8   3    6.50    6.00
  -6  -8   3    2.00    5.20
   5   8  -3    3.10    5.10
   5   8  -3   18.70    5.20
   5   8  -3   10.90    4.50
  -5  -8   3   17.70    3.50
  -5  -8   3   14.90    5.20
  -5  -8   3   15.70    5.30
   4   8  -3    0.90    4.20
   4   8  -3   -1.50    3.50
   4   8  -3   -4.80    4.30
  -4  -8   3    4.00    5.10
  -4  -8   3    2.40    3.20
  -4  -8   3    4.40    4.30
   3   8  -3    2.80    4.00
   3   8  -3   -3.90    3.30
  -3  -8   3   -1.30    3.10
  -3  -8   3    2.70    2.00
  -3  -8   3    0.40    3.90
   2   8  -3   19.60    4.60
   2   8  -3   14.50    4.70
  -2  -8   3   15.20    4.00
  -2  -8   3   22.00    4.10
  -2  -8   3   12.40    3.50
   1   8  -3   11.90    5.00
   1   8  -3   15.30    4.00
  -1  -8   3   15.80    3.80
  -1  -8   3   18.10    2.80
  -1  -8   3   21.70    4.40
   0   8  -3   33.20    4.60
   0   8  -3   37.00    6.00
   0  -8   3   34.60    5.50
   0  -8   3   37.70    4.20
   0  -8   3   35.00    4.00
   0  -8   3   34.10    5.00
  -1   8  -3   20.70    6.90
  -1   8  -3   22.40    4.00
   1  -8   3   19.80    3.10
   1  -8   3   14.40    2.60
   1  -8   3    9.20    4.50
  -2   8  -3   -3.30    4.30
  -2   8  -3   -3.00    3.70
   2  -8   3    1.60    3.90
   2  -8   3   -2.20    5.00
  -3   8  -3    1.60    4.00
  -3   8  -3    4.70    5.30
   3  -8   3   -3.10    5.50
   3  -8   3   18.50    5.00
  -4   8  -3   -0.70    4.10
  -4   8  -3    4.40    5.90
   4  -8   3   -0.80    5.40
   4  -8   3   10.20    6.90
   7   7  -3    6.40    5.70
   7   7  -3    7.30    5.50
  -7  -7   3    7.20    6.50
  -7  -7   3   -0.60    5.30
   6   7  -3    3.90    5.10
   6   7  -3   -1.80    4.80
   6   7  -3    0.90    4.80
  -6  -7   3    3.10    5.60
  -6  -7   3   -0.70    4.80
   5   7  -3    3.50    4.00
   5   7  -3   11.80    4.40
   5   7  -3   11.50    4.70
  -5  -7   3    0.60    4.00
  -5  -7   3    7.40    4.30
  -5  -7   3    5.90    2.30
  -5  -7   3    3.70    4.20
   4   7  -3   62.39    6.70
   4   7  -3   66.09    7.30
   4   7  -3   66.99    6.20
  -4  -7   3   59.19    6.70
  -4  -7   3   59.09    9.40
  -4  -7   3   69.29    5.20
  -4  -7   3   59.49    5.60
   3   7  -3    0.70    2.90
   3   7  -3   -2.30    3.40
  -3  -7   3    2.50    3.40
  -3  -7   3    1.00    2.80
  -3  -7   3   -1.80    2.80
   2   7  -3  139.99    8.00
   2   7  -3  141.19    7.20
   2   7  -3  134.79    7.40
  -2  -7   3  136.39    4.10
  -2  -7   3  137.59    7.10
  -2  -7   3  130.29    7.30
  -2  -7   3  144.59    6.40
   1   7  -3   -3.50    2.40
   1   7  -3   -0.20    3.10
   1   7  -3    3.50    3.10
  -1  -7   3   -1.00    2.00
  -1  -7   3   -2.50    3.10
  -1  -7   3    4.60    2.80
  -1  -7   3    1.90    3.00
  -1  -7   3    2.90    2.50
   0   7  -3   22.00    3.80
   0   7  -3   22.30    3.60
   0  -7   3   23.90    3.20
   0  -7   3   19.30    4.00
   0  -7   3   15.40    1.70
   0  -7   3   18.40    3.50
   0  -7   3   20.40    3.10
  -1   7  -3   15.00    3.90
  -1   7  -3   17.50    4.00
  -1   7  -3   22.00    3.20
   1  -7   3   25.90    4.00
   1  -7   3   18.10    3.80
   1  -7   3   23.90    2.60
   1  -7   3   14.80    4.00
  -2   7  -3   73.59    6.40
  -2   7  -3   61.49    6.50
  -2   7  -3   73.49    5.60
   2  -7   3   58.29    6.20
   2  -7   3   68.99    7.80
  -3   7  -3    4.30    2.00
  -3   7  -3   -4.00    3.90
  -3   7  -3    2.50    3.10
  -3   7  -3    3.50    3.70
   3  -7   3    3.30    4.00
   3  -7   3    1.10    4.60
  -4   7  -3   20.60    3.90
  -4   7  -3   24.50    6.00
   4  -7   3   24.90    6.80
   4  -7   3   20.60    5.00
  -5   7  -3    4.30    5.90
  -5   7  -3   -0.80    6.00
   5  -7   3   -0.70    6.50
   5  -7   3    2.40    5.40
   8   6  -3    4.40    6.20
   8   6  -3    1.70    5.60
   8   6  -3   12.40    6.10
  -8  -6   3   -5.00    8.00
  -8  -6   3   -0.80    6.30
   7   6  -3    2.50    5.40
   7   6  -3   -4.20    4.50
  -7  -6   3   -2.00    6.20
  -7  -6   3   -4.50    5.20
   6   6  -3    6.70    5.00
   6   6  -3    7.80    4.80
  -6  -6   3    5.50    5.10
  -6  -6   3    1.00    4.20
   5   6  -3   13.50    3.50
   5   6  -3   12.10    4.00
  -5  -6   3   16.20    4.20
  -5  -6   3    9.00    3.80
  -5  -6   3   15.30    4.60
   4   6  -3   14.00    3.30
   4   6  -3   14.10    3.50
   4   6  -3   15.70    4.10
  -4  -6   3   21.20    3.40
  -4  -6   3   15.20    3.60
  -4  -6   3   17.30    3.70
  -4  -6   3   12.20    2.30
   3   6  -3   15.30    4.20
   3   6  -3   12.90    3.60
   3   6  -3   17.30    3.60
  -3  -6   3   16.20    2.60
  -3  -6   3   15.70    2.40
  -3  -6   3   15.30    3.20
   2   6  -3   39.50    4.60
   2   6  -3   42.10    4.50
   2   6  -3   44.70    4.60
   2   6  -3   47.40    4.40
  -2  -6   3   48.00    4.20
  -2  -6   3   44.40    4.50
  -2  -6   3   36.30    4.50
  -2  -6   3   33.60    4.00
  -2  -6   3   40.80    2.80
  -2  -6   3   41.50    4.50
   1   6  -3   -1.60    2.80
   1   6  -3    3.00    2.60
   1   6  -3   -0.40    2.70
   1   6  -3    3.60    2.60
   1   6  -3    2.30    2.50
  -1  -6   3    2.80    0.90
  -1  -6   3    3.80    2.30
  -1  -6   3    3.30    1.70
  -1  -6   3   -1.40    2.20
  -1  -6   3   -4.90    3.10
  -1  -6   3    2.30    2.10
  -1  -6   3   -0.30    2.50
   0   6  -3    4.80    2.90
   0   6  -3    8.00    2.60
   0   6  -3    3.40    2.70
   0   6  -3    5.50    2.30
   0  -6   3    0.70    2.20
   0  -6   3    4.10    2.60
   0  -6   3    4.90    2.20
   0  -6   3    4.50    2.60
   0  -6   3    2.40    2.90
  -1   6  -3   18.70    3.40
  -1   6  -3   24.70    3.60
  -1   6  -3   23.00    3.20
   1  -6   3   26.80    2.50
   1  -6   3   27.20    2.90
   1  -6   3   24.60    4.00
   1  -6   3   19.20    3.10
   1  -6   3   22.90    4.50
  -2   6  -3    9.50    2.90
  -2   6  -3    5.80    3.50
  -2   6  -3   10.50    3.30
  -2   6  -3   12.00    2.50
   2  -6   3    8.40    3.80
   2  -6   3    9.00    3.20
   2  -6   3   11.80    4.20
  -3   6  -3   18.10    3.60
  -3   6  -3   19.30    3.20
  -3   6  -3   24.00    4.30
  -3   6  -3   20.50    2.30
  -3   6  -3   19.50    3.00
   3  -6   3   17.90    3.80
   3  -6   3   22.50    5.40
  -4   6  -3   11.20    4.00
  -4   6  -3   19.10    3.00
  -4   6  -3   15.30    4.60
  -4   6  -3   17.40    3.20
  -4   6  -3   11.30    3.50
   4  -6   3   18.50    5.60
   4  -6   3   18.30    4.20
  -5   6  -3    2.10    5.30
  -5   6  -3    1.10    2.80
  -5   6  -3   -0.60    3.70
  -5   6  -3   -8.20    4.60
   5  -6   3   -0.70    4.40
   5  -6   3  -13.10    5.10
  -6   6  -3   11.60    6.50
  -6   6  -3   12.80    5.90
   6  -6   3    9.90    7.40
   6  -6   3    1.30    6.20
   8   5  -3    7.40    5.80
   8   5  -3   21.80    5.10
   8   5  -3   22.50    6.70
  -8  -5   3    7.30    8.10
  -8  -5   3   23.00    6.60
   7   5  -3   -7.40    4.50
   7   5  -3    7.10    4.20
   7   5  -3   -0.80    4.50
  -7  -5   3   -0.60    4.60
  -7  -5   3   -6.90    5.90
   6   5  -3    0.20    3.80
   6   5  -3    2.00    3.60
   6   5  -3    0.10    3.90
  -6  -5   3    0.10    3.60
  -6  -5   3    6.80    5.40
   5   5  -3    8.30    3.30
   5   5  -3    3.00    3.50
   5   5  -3    7.50    2.90
   5   5  -3    7.40    3.60
  -5  -5   3    3.00    3.60
  -5  -5   3    2.20    3.50
  -5  -5   3    2.40    3.00
   4   5  -3  110.09    6.80
   4   5  -3  111.59    6.30
   4   5  -3  120.19    6.60
   4   5  -3  114.29    7.10
  -4  -5   3  122.99    6.90
  -4  -5   3  120.29    6.10
  -4  -5   3  119.19    4.50
  -4  -5   3  114.89    6.50
   3   5  -3    3.30    2.90
   3   5  -3   -0.30    2.90
   3   5  -3    5.90    2.00
   3   5  -3    3.10    1.50
   3   5  -3    3.00    2.40
   3   5  -3    0.10    2.50
  -3  -5   3    3.20    1.70
  -3  -5   3    1.10    2.90
  -3  -5   3    4.50    1.90
  -3  -5   3    2.10    2.20
  -3  -5   3    5.40    2.30
  -3  -5   3    5.20    2.70
   2   5  -3  153.18    6.00
   2   5  -3  144.19    6.90
   2   5  -3  159.08    7.20
   2   5  -3  153.38    6.60
   2   5  -3  143.49    6.70
  -2  -5   3  158.48    6.80
  -2  -5   3  154.48    6.30
  -2  -5   3  140.09    6.50
  -2  -5   3  147.89    7.20
   1   5  -3  113.69    6.00
   1   5  -3   99.69    5.50
   1   5  -3  101.69    5.20
   1   5  -3  100.99    5.20
   1   5  -3  103.49    5.70
  -1  -5   3  104.99    5.90
  -1  -5   3  108.79    5.20
  -1  -5   3  105.39    5.60
  -1  -5   3  102.59    4.00
  -1  -5   3  109.59    5.30
   0   5  -3  266.87    8.80
   0   5  -3  273.37    8.90
   0   5  -3  274.57    9.40
   0   5  -3  261.57    9.40
   0  -5   3  274.97    9.70
   0  -5   3  262.17    8.30
   0  -5   3  262.57    9.10
   0  -5   3  265.77    6.90
   0  -5   3  248.28    9.30
   0  -5   3  265.67    8.10
  -1   5  -3    0.70    2.10
  -1   5  -3   -2.40    1.60
  -1   5  -3    2.80    3.50
  -1   5  -3   -1.40    2.30
  -1   5  -3    3.00    2.20
   1  -5   3   -3.10    2.40
   1  -5   3   -0.80    1.30
   1  -5   3   -1.60    2.00
   1  -5   3   -1.60    2.40
   1  -5   3   -0.50    1.60
   1  -5   3   -1.90    1.10
  -2   5  -3  175.88    7.60
  -2   5  -3  180.18    4.90
  -2   5  -3  177.38    6.40
  -2   5  -3  174.28    7.50
  -2   5  -3  183.98    6.10
  -2   5  -3  190.88    6.80
   2  -5   3  189.98    6.20
   2  -5   3  174.78    8.30
   2  -5   3  180.78    7.80
   2  -5   3  174.98    8.10
  -3   5  -3   44.40    3.70
  -3   5  -3   49.30    5.30
  -3   5  -3   52.39    5.10
  -3   5  -3   42.20    4.10
  -3   5  -3   45.60    3.30
  -3   5  -3   48.60    3.50
   3  -5   3   46.10    4.50
   3  -5   3   38.70    3.40
   3  -5   3   43.40    4.80
   3  -5   3   35.80    4.70
  -4   5  -3    7.10    3.50
  -4   5  -3    1.60    1.80
  -4   5  -3   -4.10    2.50
  -4   5  -3   -0.80    2.40
  -4   5  -3    3.40    3.40
   4  -5   3    0.90    3.00
   4  -5   3    4.30    6.20
  -5   5  -3    2.10    3.40
  -5   5  -3    0.20    2.20
  -5   5  -3   -2.00    3.90
  -5   5  -3    6.00    4.30
   5  -5   3    1.40    4.60
   5  -5   3   -2.60    4.60
  -6   5  -3   35.10    6.20
  -6   5  -3   24.20    5.30
  -6   5  -3   26.40    5.80
   6  -5   3   33.50    7.30
   6  -5   3   20.30    5.70
   8   4  -3    5.60    4.20
   8   4  -3    1.30    5.50
   8   4  -3   -6.20    5.60
  -8  -4   3   -0.50    7.50
  -8  -4   3   -1.80    5.80
   7   4  -3   15.80    4.70
   7   4  -3    4.60    3.70
   7   4  -3   13.90    4.90
  -7  -4   3    3.70    6.30
  -7  -4   3   18.40    4.90
   6   4  -3    7.60    3.80
   6   4  -3   11.70    3.60
   6   4  -3    7.00    3.30
  -6  -4   3    5.30    4.30
  -6  -4   3    9.10    3.70
   5   4  -3  303.17   10.00
   5   4  -3  315.77   11.20
   5   4  -3  307.57   10.60
   5   4  -3  266.07   10.60
  -5  -4   3  306.77   11.80
  -5  -4   3  278.97   10.80
  -5  -4   3  306.57   11.10
   4   4  -3  181.98    7.50
   4   4  -3  184.98    8.20
   4   4  -3  186.28    7.50
   4   4  -3  176.68    7.20
   4   4  -3  182.98    7.80
  -4  -4   3  161.38    7.70
  -4  -4   3  189.38    8.10
  -4  -4   3  163.18    8.20
  -4  -4   3  181.08    7.30
  -4  -4   3  180.68    7.60
   3   4  -3  230.48    8.30
   3   4  -3  230.38    8.70
   3   4  -3  202.98    8.00
   3   4  -3  219.78    6.50
   3   4  -3  223.38    7.80
   3   4  -3  222.98    8.10
  -3  -4   3  229.78    6.90
  -3  -4   3  237.18    8.40
  -3  -4   3  216.38    8.20
  -3  -4   3  225.18    8.20
  -3  -4   3  221.38    8.70
   2   4  -3  508.35   14.50
   2   4  -3  465.85   13.90
   2   4  -3  493.15   13.10
   2   4  -3  481.65   14.00
   2   4  -3  486.55   14.10
  -2  -4   3  487.45   14.00
  -2  -4   3  498.55   13.30
  -2  -4   3  499.75   14.30
  -2  -4   3  489.85   13.90
  -2  -4   3  493.55   13.30
   1   4  -3   37.40    3.50
   1   4  -3   47.00    3.60
   1   4  -3   34.10    3.20
   1   4  -3   39.50    3.30
  -1  -4   3   41.80    3.50
  -1  -4   3   36.40    2.40
  -1  -4   3   38.10    3.50
  -1  -4   3   36.20    3.20
  -1  -4   3   36.70    3.30
   0   4  -3  332.47   10.40
   0   4  -3  332.67   10.20
   0   4  -3  326.07    9.70
   0   4  -3  316.17    9.70
   0  -4   3  333.47   10.10
   0  -4   3  322.27    9.20
   0  -4   3  333.37    9.40
   0  -4   3  325.47   10.40
   0  -4   3  317.37   10.00
   0  -4   3  327.17    8.40
  -1   4  -3  219.58    7.70
  -1   4  -3  223.88    7.00
  -1   4  -3  211.28    7.10
  -1   4  -3  212.98    8.40
   1  -4   3  223.58    6.00
   1  -4   3  226.08    7.80
   1  -4   3  184.98    6.80
   1  -4   3  225.88    7.80
   1  -4   3  222.08    6.20
   1  -4   3  229.88    8.60
  -2   4  -3  253.77    7.30
  -2   4  -3  239.48    8.40
  -2   4  -3  241.28    6.40
  -2   4  -3  242.48    7.40
  -2   4  -3  244.28    8.70
  -2   4  -3  241.48    9.40
  -2   4  -3  236.58    8.40
  -2   4  -3  240.58    7.40
  -2   4  -3  239.58    9.30
   2  -4   3  248.08    8.70
   2  -4   3  243.68    7.40
   2  -4   3  244.68    8.70
   2  -4   3  246.68    9.60
  -3   4  -3    1.10    1.70
  -3   4  -3    8.50    3.70
  -3   4  -3    1.50    1.50
  -3   4  -3   -0.50    2.70
  -3   4  -3    7.50    2.30
  -3   4  -3    5.80    3.10
  -3   4  -3    2.10    2.30
   3  -4   3    0.70    2.80
   3  -4   3    1.90    2.00
   3  -4   3    4.60    2.60
   3  -4   3    2.00    2.30
  -4   4  -3   83.39    7.20
  -4   4  -3   74.19    5.80
  -4   4  -3   75.89    5.90
  -4   4  -3   68.19    4.80
  -4   4  -3   76.19    3.60
  -4   4  -3   72.29    3.40
  -4   4  -3   75.79    6.00
   4  -4   3   68.39    6.60
   4  -4   3   70.59    5.70
   4  -4   3   66.59    5.30
  -5   4  -3    4.60    1.90
  -5   4  -3    0.70    3.20
  -5   4  -3    2.40    3.10
  -5   4  -3   -2.40    1.50
  -5   4  -3    4.80    3.40
   5  -4   3   10.20    7.20
   5  -4   3    4.10    3.60
  -6   4  -3   -2.40    3.90
  -6   4  -3    0.40    4.00
  -6   4  -3    2.30    4.20
   6  -4   3   -4.90    4.30
   6  -4   3    3.80    4.80
  -7   4  -3    3.60    5.80
  -7   4  -3   -2.10    4.60
  -7   4  -3   11.10    5.80
   7  -4   3    6.40    6.60
   8   3  -3    3.90    5.40
   8   3  -3    8.50    5.50
  -8  -3   3  -16.40    6.30
  -8  -3   3    7.70    5.40
   7   3  -3   -2.20    4.00
   7   3  -3    1.50    4.20
   7   3  -3    3.40    4.70
   7   3  -3   -5.70    2.90
  -7  -3   3   -5.60    5.80
  -7  -3   3   -4.00    5.40
   6   3  -3    7.20    2.60
   6   3  -3    0.70    3.00
   6   3  -3   -1.50    2.70
   6   3  -3    1.60    3.60
   6   3  -3    6.70    3.50
  -6  -3   3    1.10    4.10
  -6  -3   3    5.70    3.20
   5   3  -3   37.10    3.80
   5   3  -3   32.50    3.60
   5   3  -3   36.50    4.00
   5   3  -3   26.60    3.90
  -5  -3   3   36.10    4.70
  -5  -3   3   18.30    3.70
  -5  -3   3   22.10    4.10
  -5  -3   3   32.10    3.80
   4   3  -3   13.80    2.30
   4   3  -3   19.70    3.00
   4   3  -3   13.90    2.70
   4   3  -3   16.90    2.60
  -4  -3   3   13.80    2.70
  -4  -3   3   18.50    3.30
  -4  -3   3   24.40    3.80
  -4  -3   3   16.30    2.80
   3   3  -3  274.67    9.00
   3   3  -3  269.97    8.60
   3   3  -3  278.17    8.80
   3   3  -3  277.07    9.50
   3   3  -3  270.57    9.00
   3   3  -3  273.67    7.20
  -3  -3   3  274.27    9.60
  -3  -3   3  280.77    9.20
  -3  -3   3  277.27    9.10
  -3  -3   3  275.67    9.10
   2   3  -3  105.49    4.30
   2   3  -3  114.89    4.10
   2   3  -3  111.79    5.00
   2   3  -3  110.09    4.90
   2   3  -3   97.39    4.70
  -2  -3   3  114.39    5.20
  -2  -3   3   99.99    4.70
  -2  -3   3  101.49    4.30
  -2  -3   3  103.49    4.90
  -2  -3   3  114.59    4.50
   1   3  -3 3360.76   78.09
   1   3  -3 3371.36   78.29
   1   3  -3 3229.48   77.99
   1   3  -3 3280.87   77.79
  -1  -3   3 3491.45   78.09
  -1  -3   3 3310.67   76.99
  -1  -3   3 3338.67   78.09
  -1  -3   3 3458.05   77.89
  -1  -3   3 3365.86   77.99
   0   3  -3  240.98    7.50
   0   3  -3  232.48    7.30
   0   3  -3  234.08    7.20
   0   3  -3  246.78    7.80
   0  -3   3  224.68    7.70
   0  -3   3  233.98    6.50
   0  -3   3  227.78    7.50
   0  -3   3  235.48    7.40
   0  -3   3  235.18    7.00
  -1   3  -3 6116.79  137.59
  -1   3  -3 6047.50  138.09
  -1   3  -3 5637.94  137.99
  -1   3  -3 6281.27  137.59
  -1   3  -3 6062.09  138.29
  -1   3  -3 6101.49  138.99
   1  -3   3 5891.91  138.19
   1  -3   3 6014.30  136.79
   1  -3   3 5802.82  138.99
   1  -3   3 6181.28  138.59
   1  -3   3 5995.60  137.99
   1  -3   3 6122.39  136.69
  -2   3  -3  135.19    5.40
  -2   3  -3  135.19    5.00
  -2   3  -3  135.79    6.20
  -2   3  -3  129.09    6.20
  -2   3  -3  136.79    4.20
  -2   3  -3  144.69    5.50
  -2   3  -3  148.09    6.00
  -2   3  -3  141.19    4.60
  -2   3  -3  127.49    4.70
   2  -3   3  141.09    5.90
   2  -3   3  136.19    5.10
   2  -3   3  149.09    6.50
   2  -3   3  137.89    5.50
  -3   3  -3   68.99    4.80
  -3   3  -3   63.19    4.30
  -3   3  -3   74.89    4.30
  -3   3  -3   62.89    5.40
  -3   3  -3   57.19    4.00
  -3   3  -3   74.39    5.60
  -3   3  -3   68.39    3.00
  -3   3  -3   67.19    2.80
  -3   3  -3   64.89    5.10
   3  -3   3   64.69    4.50
   3  -3   3   69.99    4.10
   3  -3   3   65.39    5.10
  -4   3  -3   14.00    2.70
  -4   3  -3   10.10    3.50
  -4   3  -3   15.90    3.70
  -4   3  -3   12.20    3.00
  -4   3  -3   11.10    4.00
  -4   3  -3   13.30    2.60
  -4   3  -3   14.10    3.00
   4  -3   3   11.60    3.30
   4  -3   3   13.20    2.90
   4  -3   3   14.80    2.80
  -5   3  -3   80.59    6.20
  -5   3  -3   76.99    6.10
  -5   3  -3   92.49    6.20
   5  -3   3   86.59    7.40
   5  -3   3   76.69    6.60
   5  -3   3   91.09    6.30
  -6   3  -3   -5.70    3.50
  -6   3  -3    8.80    3.70
  -6   3  -3    7.80    4.00
   6  -3   3   18.70    4.70
   6  -3   3    1.60    4.30
   6  -3   3    3.50    6.40
  -7   3  -3    3.90    5.20
  -7   3  -3   10.80    4.50
  -7   3  -3   13.00    5.70
   7  -3   3   22.70    6.20
   8   2  -3   -2.20    5.30
   8   2  -3   -6.90    5.50
  -8  -2   3   -3.10    6.40
  -8  -2   3    1.50    5.50
   7   2  -3   19.60    3.00
   7   2  -3   25.60    5.30
   7   2  -3   14.80    5.10
   7   2  -3   14.00    3.70
   7   2  -3   10.30    2.80
  -7  -2   3    8.10    5.50
  -7  -2   3   17.00    4.20
   6   2  -3   11.10    2.70
   6   2  -3   14.00    3.50
   6   2  -3   12.00    4.00
   6   2  -3   17.00    3.90
   6   2  -3   15.50    2.20
  -6  -2   3   12.20    3.50
  -6  -2   3   23.10    5.00
   5   2  -3    5.50    1.90
   5   2  -3    3.10    2.60
   5   2  -3    6.90    2.80
   5   2  -3    3.70    2.00
   5   2  -3    5.60    2.70
  -5  -2   3    6.40    3.30
  -5  -2   3    6.50    2.60
  -5  -2   3    5.30    3.00
  -5  -2   3    7.60    3.60
  -5  -2   3    7.60    3.30
   4   2  -3    0.40    1.80
   4   2  -3   -0.70    2.20
   4   2  -3    0.50    1.70
   4   2  -3   -0.60    1.40
  -4  -2   3   -2.60    1.90
  -4  -2   3   -0.70    2.10
  -4  -2   3   -3.00    2.50
  -4  -2   3    1.00    2.10
  -4  -2   3    1.10    2.60
   3   2  -3    5.60    0.70
   3   2  -3    2.80    2.40
   3   2  -3    5.30    1.50
   3   2  -3    4.50    2.00
   3   2  -3    3.70    1.70
  -3  -2   3    5.70    1.90
  -3  -2   3    2.80    2.00
  -3  -2   3    3.00    1.60
  -3  -2   3   -0.20    1.60
   2   2  -3   62.99    3.50
   2   2  -3   58.89    3.30
   2   2  -3   67.99    2.80
   2   2  -3   72.29    3.80
   2   2  -3   65.99    3.70
  -2  -2   3   65.59    3.60
  -2  -2   3   70.29    4.00
  -2  -2   3   71.99    3.70
  -2  -2   3   63.59    3.60
   1   2  -3   13.00    1.60
   1   2  -3   10.80    1.60
   1   2  -3    8.70    1.60
   1   2  -3    6.70    1.30
  -1  -2   3   10.90    1.70
  -1  -2   3   10.10    1.20
  -1  -2   3    7.70    1.40
  -1  -2   3   11.30    1.60
   0   2  -3  111.09    4.10
   0   2  -3   98.79    4.50
   0   2  -3  109.29    4.10
   0   2  -3  105.69    4.40
   0  -2   3  111.19    3.90
   0  -2   3  109.79    4.20
   0  -2   3  116.39    4.10
   0  -2   3  109.59    4.40
   0  -2   3  109.39    2.90
   0  -2   3  102.89    4.20
  -1   2  -3   16.30    1.70
  -1   2  -3   17.70    1.70
  -1   2  -3   16.00    2.10
  -1   2  -3   16.30    1.60
  -1   2  -3   16.30    1.90
   1  -2   3   12.60    1.40
   1  -2   3   14.20    2.00
   1  -2   3   14.50    1.30
   1  -2   3   15.90    1.80
   1  -2   3   13.10    1.20
   1  -2   3   18.50    2.10
  -2   2  -3    2.40    1.00
  -2   2  -3    2.10    1.40
  -2   2  -3    2.10    1.20
  -2   2  -3    2.40    1.80
  -2   2  -3    2.80    1.00
  -2   2  -3    2.30    1.60
  -2   2  -3    2.20    0.90
  -2   2  -3    0.70    1.50
  -2   2  -3   -1.80    1.60
   2  -2   3    2.50    1.30
   2  -2   3    4.40    1.70
   2  -2   3    1.80    1.50
   2  -2   3    3.20    1.40
  -3   2  -3   75.09    3.80
  -3   2  -3   73.59    2.30
  -3   2  -3   79.99    4.60
  -3   2  -3   75.09    3.80
  -3   2  -3   76.79    2.40
  -3   2  -3   81.59    4.90
  -3   2  -3   77.29    4.70
  -3   2  -3   75.79    4.40
  -3   2  -3   80.69    4.40
   3  -2   3   76.19    4.20
   3  -2   3   74.89    4.40
   3  -2   3   76.29    4.10
   3  -2   3   79.49    5.00
  -4   2  -3   42.70    4.20
  -4   2  -3   49.60    5.20
  -4   2  -3   44.00    3.70
  -4   2  -3   36.00    4.00
  -4   2  -3   44.90    4.30
  -4   2  -3   44.80    5.20
  -4   2  -3   49.10    5.20
  -4   2  -3   44.70    4.10
   4  -2   3   46.30    4.80
   4  -2   3   48.10    4.30
   4  -2   3   48.80    4.20
   4  -2   3   46.20    4.20
  -5   2  -3   74.79    6.00
  -5   2  -3   83.69    5.60
  -5   2  -3   76.29    5.50
   5  -2   3   86.69    6.10
   5  -2   3   76.29    6.40
   5  -2   3   85.19    6.00
   5  -2   3   77.69    5.90
   5  -2   3   87.79    6.00
  -6   2  -3  164.28    7.70
  -6   2  -3  177.68    8.10
  -6   2  -3  160.28    8.90
   6  -2   3  151.68    8.60
   6  -2   3  149.59    8.80
   6  -2   3  165.58    9.00
  -7   2  -3    8.60    5.30
  -7   2  -3   11.90    4.00
  -7   2  -3   19.70    4.70
   7  -2   3    8.40    5.00
   7  -2   3   11.90    5.00
  -8   2  -3    9.80    7.40
  -8   2  -3   10.20    5.90
   8  -2   3    4.90    6.50
   8  -2   3   11.00    6.40
   8   1  -3    9.10    5.40
   8   1  -3   10.80    6.00
  -8  -1   3   11.30    5.50
  -8  -1   3    2.00    6.10
   7   1  -3   51.79    3.80
   7   1  -3   56.19    6.80
   7   1  -3   65.59    7.00
  -7  -1   3   58.49    5.80
  -7  -1   3   48.20    6.80
   6   1  -3  220.98    7.50
   6   1  -3  224.18   10.00
   6   1  -3  233.38   10.00
   6   1  -3  226.58    8.00
  -6  -1   3  238.28    9.40
  -6  -1   3  224.48   10.00
  -6  -1   3  251.77   11.60
   5   1  -3  131.69    6.60
   5   1  -3  136.09    5.40
   5   1  -3  124.99    4.00
   5   1  -3  127.59    5.90
   5   1  -3  143.19    6.90
  -5  -1   3  116.49    7.40
  -5  -1   3  124.09    7.40
  -5  -1   3  116.49    7.10
  -5  -1   3  139.59    6.20
  -5  -1   3  135.59    6.80
  -5  -1   3  127.19    7.30
   4   1  -3   18.60    2.50
   4   1  -3   17.10    1.60
   4   1  -3   10.70    2.10
   4   1  -3   15.40    2.20
   4   1  -3   14.40    2.60
  -4  -1   3   14.30    2.40
  -4  -1   3   23.00    3.60
  -4  -1   3   11.60    2.60
  -4  -1   3   18.00    2.80
  -4  -1   3   13.80    2.70
   3   1  -3   -0.70    0.90
   3   1  -3    1.40    1.30
   3   1  -3    0.70    1.60
   3   1  -3    2.30    1.50
  -3  -1   3   -0.90    1.30
  -3  -1   3   -0.30    1.60
  -3  -1   3   -2.40    1.20
  -3  -1   3    0.70    1.70
  -3  -1   3    3.60    1.80
   2   1  -3  334.77    9.40
   2   1  -3  320.67    9.60
   2   1  -3  324.07    9.30
   2   1  -3  319.57    9.00
   2   1  -3  326.97    8.40
  -2  -1   3  333.67    9.00
  -2  -1   3  326.37    9.40
  -2  -1   3  326.77    9.70
  -2  -1   3  340.37    9.50
  -2  -1   3  330.97    9.50
   1   1  -3  137.59    4.40
   1   1  -3  131.89    4.70
   1   1  -3  130.19    3.80
   1   1  -3  126.79    4.30
   1   1  -3  118.59    5.00
   1   1  -3  129.69    4.50
  -1  -1   3  132.59    4.60
  -1  -1   3  130.29    4.60
  -1  -1   3  129.89    4.40
   0   1  -3 1011.40   23.50
   0   1  -3  989.10   23.90
   0   1  -3 1004.20   24.20
   0   1  -3 1008.20   24.10
   0   1  -3  995.20   24.40
   0  -1   3 1004.80   24.00
   0  -1   3 1020.90   23.90
   0  -1   3 1018.20   23.90
   0  -1   3  994.90   24.20
   0  -1   3  980.80   23.40
  -1   1  -3  247.38    7.20
  -1   1  -3  239.48    7.60
  -1   1  -3  230.38    6.50
  -1   1  -3  240.48    6.40
  -1   1  -3  239.48    6.30
  -1   1  -3  233.98    6.50
  -1   1  -3  233.68    6.10
   1  -1   3  240.28    6.10
   1  -1   3  238.68    6.80
   1  -1   3  246.28    7.20
   1  -1   3  231.38    6.00
   1  -1   3  237.78    6.40
  -2   1  -3    1.50    1.40
  -2   1  -3   -0.60    1.30
  -2   1  -3    1.00    1.20
  -2   1  -3    0.00    1.40
  -2   1  -3    1.40    1.00
  -2   1  -3    0.50    1.40
  -2   1  -3    1.20    1.10
  -2   1  -3    0.90    0.70
  -2   1  -3    1.30    0.80
   2  -1   3    1.40    1.00
   2  -1   3   -1.40    1.10
   2  -1   3   -0.20    0.80
   2  -1   3    1.20    1.40
   2  -1   3   -0.30    1.00
  -3   1  -3    7.80    2.00
  -3   1  -3    4.30    2.00
  -3   1  -3    8.80    2.00
  -3   1  -3    5.50    1.30
  -3   1  -3    7.40    2.00
  -3   1  -3    3.70    1.90
  -3   1  -3    1.60    2.10
   3  -1   3    5.50    1.80
   3  -1   3    5.20    1.70
   3  -1   3    4.10    1.70
   3  -1   3    5.40    1.90
  -4   1  -3   22.20    3.40
  -4   1  -3   20.70    2.80
  -4   1  -3   18.10    2.90
  -4   1  -3   23.40    2.50
  -4   1  -3   25.40    3.50
  -4   1  -3   21.10    2.80
  -4   1  -3   26.60    3.40
  -4   1  -3   19.90    3.20
   4  -1   3   23.50    2.90
   4  -1   3   24.50    3.30
   4  -1   3   25.70    3.10
   4  -1   3   26.00    3.20
  -5   1  -3   24.10    4.20
  -5   1  -3   25.50    3.80
  -5   1  -3   22.90    3.10
  -5   1  -3   21.40    3.90
  -5   1  -3   22.40    3.10
  -5   1  -3   17.90    4.30
  -5   1  -3   27.10    4.60
   5  -1   3   20.10    3.40
   5  -1   3   24.30    3.60
   5  -1   3   25.70    3.70
   5  -1   3   18.50    3.50
  -6   1  -3   26.00    4.70
  -6   1  -3   28.40    2.30
  -6   1  -3   46.40    5.10
  -6   1  -3   32.60    3.80
   6  -1   3   28.30    4.70
   6  -1   3   29.40    4.50
   6  -1   3   31.00    5.00
  -7   1  -3    8.50    3.70
  -7   1  -3   13.40    4.00
  -7   1  -3    7.20    2.80
  -7   1  -3    1.00    4.80
   7  -1   3   -2.10    4.00
   7  -1   3    7.40    4.80
  -8   1  -3    6.10    6.60
  -8   1  -3    3.50    4.40
  -8   1  -3   -0.70    5.20
   8  -1   3    1.50    5.80
   8  -1   3   14.30    5.80
   8   0  -3   -3.70    5.50
   8   0  -3   -3.70    5.20
  -8   0   3    6.40    6.60
   7   0  -3    4.40    4.60
   7   0  -3    2.10    4.30
  -7   0   3    8.90    5.00
  -7   0   3    7.00    3.60
  -7   0   3    7.80    5.20
   6   0  -3   76.59    6.30
   6   0  -3   66.29    3.50
   6   0  -3   66.49    3.60
  -6   0   3   66.39    6.60
  -6   0   3   62.79    5.80
  -6   0   3   74.29    7.40
   5   0  -3    6.20    2.90
   5   0  -3    2.70    1.50
   5   0  -3    1.70    2.70
   5   0  -3    0.70    1.20
   5   0  -3    2.10    2.10
  -5   0   3   -0.30    2.30
  -5   0   3    0.70    3.30
  -5   0   3   -4.60    2.40
  -5   0   3    8.10    3.30
  -5   0   3    3.30    3.10
   4   0  -3   67.79    2.80
   4   0  -3   73.89    4.50
   4   0  -3   82.89    3.80
   4   0  -3   69.59    5.30
   4   0  -3   73.89    4.10
   4   0  -3   71.39    4.40
  -4   0   3   80.39    5.00
  -4   0   3   69.89    4.30
  -4   0   3   67.69    4.90
  -4   0   3   69.29    4.20
   3   0  -3   34.10    2.90
   3   0  -3   36.20    2.90
   3   0  -3   33.40    2.50
   3   0  -3   34.20    1.70
   3   0  -3   33.70    2.90
   3   0  -3   30.00    3.20
  -3   0   3   36.40    2.90
  -3   0   3   30.40    3.00
  -3   0   3   44.00    3.60
  -3   0   3   39.10    3.20
   2   0  -3   33.60    2.50
   2   0  -3   31.30    2.40
   2   0  -3   31.40    2.80
  -2   0   3   31.10    2.40
  -2   0   3   31.80    2.60
  -2   0   3   35.20    2.40
  -2   0   3   34.30    2.50
   1   0  -3 2125.59   49.10
   1   0  -3 2071.59   49.10
   1   0  -3 2086.49   48.90
   1   0  -3 2217.38   49.30
   1   0  -3 2056.39   48.30
  -1   0   3 2111.79   49.10
  -1   0   3 2096.39   48.60
  -1   0   3 2044.10   49.10
  -1   0   3 2126.79   49.20
  -1   0   3 2101.59   48.40
  -1   0   3 2119.09   49.10
   0   0  -3 2236.58   51.59
   0   0  -3 2156.18   51.69
   0   0  -3 2307.47   51.69
   0   0  -3 2204.98   51.79
   0   0   3 2215.18   51.29
   0   0   3 2245.08   51.59
   0   0   3 2241.78   51.69
   0   0   3 2284.47   51.79
   0   0   3 2223.38   51.69
  -1   0  -3  468.15   11.70
  -1   0  -3  453.95   12.40
  -1   0  -3  483.15   12.30
  -1   0  -3  471.65   11.80
  -1   0  -3  483.25   11.10
  -1   0  -3  477.85   11.40
  -1   0  -3  467.05   11.70
   1   0   3  486.35   11.50
   1   0   3  462.65   11.40
   1   0   3  473.45   11.10
   1   0   3  473.35   12.30
   1   0   3  475.55   11.40
   1   0   3  475.35   12.10
  -2   0  -3    9.70    1.10
  -2   0  -3   10.00    1.60
  -2   0  -3   10.50    1.00
  -2   0  -3    8.10    1.50
  -2   0  -3   11.20    1.20
  -2   0  -3   10.60    1.70
  -2   0  -3   10.90    1.50
  -2   0  -3    7.80    1.40
  -2   0  -3   12.30    1.90
   2   0   3    9.40    1.40
   2   0   3    8.60    1.40
   2   0   3   11.80    1.50
  -3   0  -3   52.59    3.40
  -3   0  -3   50.69    3.50
  -3   0  -3   44.90    1.90
  -3   0  -3   49.60    2.50
  -3   0  -3   48.90    3.80
  -3   0  -3   51.19    3.20
  -3   0  -3   49.30    3.20
  -3   0  -3   44.10    3.60
  -3   0  -3   45.10    1.80
   3   0   3   46.40    3.30
   3   0   3   50.29    3.30
   3   0   3   48.60    3.30
  -4   0  -3   40.40    4.10
  -4   0  -3   40.60    1.80
  -4   0  -3   36.40    2.80
  -4   0  -3   41.40    4.10
  -4   0  -3   40.90    3.70
  -4   0  -3   44.50    4.40
  -4   0  -3   38.70    1.90
  -4   0  -3   42.50    3.40
  -4   0  -3   38.30    3.90
   4   0   3   36.00    3.70
   4   0   3   38.10    3.30
   4   0   3   43.90    3.80
   4   0   3   41.20    3.80
  -5   0  -3   65.79    6.30
  -5   0  -3   78.19    5.80
  -5   0  -3   78.09    4.80
  -5   0  -3   70.79    3.00
  -5   0  -3   76.89    5.50
  -5   0  -3   76.79    6.30
  -5   0  -3   84.89    4.40
  -5   0  -3   75.09    2.90
  -5   0  -3   74.29    6.30
   5   0   3   79.59    5.00
   5   0   3   79.99    5.50
   5   0   3   73.19    5.50
  -6   0  -3   -6.70    3.50
  -6   0  -3    1.70    3.40
  -6   0  -3    1.90    1.90
  -6   0  -3    1.40    3.80
  -6   0  -3    0.40    2.50
  -6   0  -3    0.90    2.30
   6   0   3    3.80    3.00
   6   0   3    2.80    3.10
   6   0   3    2.20    3.40
  -7   0  -3   -2.00    3.30
  -7   0  -3   -4.60    5.30
  -7   0  -3    1.80    4.30
  -7   0  -3    2.10    2.30
  -7   0  -3   -0.60    3.00
  -7   0  -3    2.80    3.70
   7   0   3    0.40    3.60
   7   0   3   -4.20    4.30
   7   0   3    0.10    4.30
  -8   0  -3   -0.50    3.90
  -8   0  -3    1.30    4.60
  -8   0  -3   -5.80    6.00
   8   0   3   -3.90    5.30
   8   0   3    0.30    5.00
   8  -1  -3   11.60    5.40
   8  -1  -3    3.80    5.70
  -8   1   3    3.50    5.10
  -8   1   3   -3.70    6.20
   7  -1  -3    7.30    2.80
   7  -1  -3    1.70    4.00
   7  -1  -3   -4.20    4.10
  -7   1   3    1.40    4.30
  -7   1   3   -5.10    4.80
  -7   1   3    0.40    3.90
   6  -1  -3    5.50    3.20
   6  -1  -3    2.30    3.30
   6  -1  -3   -1.00    2.00
  -6   1   3   -2.90    3.30
  -6   1   3   -5.20    3.40
  -6   1   3    1.30    2.70
  -6   1   3    3.60    3.20
   5  -1  -3   12.90    2.10
   5  -1  -3   19.10    2.20
   5  -1  -3   16.10    3.60
   5  -1  -3   18.60    3.60
   5  -1  -3   21.00    2.60
  -5   1   3   20.20    3.00
  -5   1   3   20.00    2.90
  -5   1   3   14.50    3.60
  -5   1   3   17.30    3.90
   4  -1  -3   12.30    3.00
   4  -1  -3   13.20    2.50
   4  -1  -3   13.60    1.70
   4  -1  -3   14.20    2.90
   4  -1  -3   13.60    1.70
   4  -1  -3   11.90    2.00
  -4   1   3   10.40    2.70
  -4   1   3   11.30    2.30
  -4   1   3   14.90    3.20
  -4   1   3   18.90    2.50
   3  -1  -3  469.05   13.20
   3  -1  -3  460.05   13.70
   3  -1  -3  477.45   13.50
   3  -1  -3  476.35   12.40
   3  -1  -3  484.05   12.60
   3  -1  -3  466.25   12.80
  -3   1   3  459.15   13.20
  -3   1   3  486.55   12.90
  -3   1   3  478.55   13.90
  -3   1   3  486.05   12.80
   2  -1  -3 1531.05   37.20
   2  -1  -3 1408.46   37.00
   2  -1  -3 1535.75   35.40
   2  -1  -3 1574.34   36.90
   2  -1  -3 1556.04   36.30
   2  -1  -3 1593.44   36.60
  -2   1   3 1521.95   36.50
  -2   1   3 1528.25   36.50
  -2   1   3 1536.35   37.20
  -2   1   3 1569.14   36.40
   1  -1  -3  160.78    4.80
   1  -1  -3  165.58    5.30
   1  -1  -3  170.08    5.20
   1  -1  -3  170.58    5.60
  -1   1   3  166.68    4.50
  -1   1   3  166.88    5.60
  -1   1   3  166.98    4.90
  -1   1   3  169.08    5.00
  -1   1   3  169.08    5.20
  -1   1   3  166.48    5.30
   0  -1  -3    9.70    1.30
   0  -1  -3   11.00    1.50
   0  -1  -3   11.70    1.50
   0  -1  -3   11.00    1.40
   0  -1  -3    8.40    1.50
   0   1   3   12.20    1.50
   0   1   3   12.90    1.50
   0   1   3    8.60    1.10
   0   1   3    7.90    1.30
   0   1   3   11.20    1.50
  -1  -1  -3  105.39    3.90
  -1  -1  -3  111.09    3.50
  -1  -1  -3  103.59    3.80
  -1  -1  -3  100.49    3.70
  -1  -1  -3   93.59    3.40
   1   1   3  101.59    3.20
   1   1   3  104.59    3.30
   1   1   3  108.59    4.00
   1   1   3  105.69    3.80
   1   1   3  102.69    3.70
   1   1   3  112.19    3.50
  -2  -1  -3   37.10    2.00
  -2  -1  -3   36.80    2.40
  -2  -1  -3   35.90    2.60
  -2  -1  -3   36.40    1.30
  -2  -1  -3   35.10    1.90
  -2  -1  -3   36.50    2.60
  -2  -1  -3   35.30    2.50
  -2  -1  -3   36.30    1.90
   2   1   3   38.10    2.60
   2   1   3   32.60    2.60
   2   1   3   39.60    2.60
   2   1   3   33.20    2.40
   2   1   3   37.40    1.60
   2   1   3   34.30    1.50
  -3  -1  -3  619.34   16.20
  -3  -1  -3  622.64   14.90
  -3  -1  -3  626.14   16.10
  -3  -1  -3  610.14   16.40
  -3  -1  -3  629.14   15.50
  -3  -1  -3  618.24   15.00
  -3  -1  -3  618.04   14.90
  -3  -1  -3  628.94   16.30
  -3  -1  -3  618.74   16.30
   3   1   3  550.24   16.00
   3   1   3  626.44   16.40
   3   1   3  615.14   16.30
   3   1   3  598.24   16.30
   3   1   3  604.14   16.10
  -4  -1  -3   30.40    2.80
  -4  -1  -3   31.00    2.30
  -4  -1  -3   30.40    3.30
  -4  -1  -3   33.10    2.20
  -4  -1  -3   28.90    3.10
  -4  -1  -3   34.40    3.00
  -4  -1  -3   36.30    3.80
  -4  -1  -3   32.70    3.70
  -4  -1  -3   33.10    3.20
   4   1   3   31.10    3.20
   4   1   3   25.50    3.00
   4   1   3   32.40    2.70
   4   1   3   33.30    3.50
  -5  -1  -3   80.59    3.80
  -5  -1  -3   90.69    6.30
  -5  -1  -3   86.79    6.00
  -5  -1  -3   81.59    6.10
  -5  -1  -3   91.19    3.60
  -5  -1  -3   85.09    4.90
  -5  -1  -3   84.39    6.20
  -5  -1  -3   87.99    5.00
  -5  -1  -3   86.59    5.00
   5   1   3   82.09    5.40
   5   1   3   88.39    5.60
   5   1   3   90.89    4.90
   5   1   3   89.29    5.80
  -6  -1  -3    5.00    2.30
  -6  -1  -3    0.00    3.10
  -6  -1  -3    1.40    3.30
  -6  -1  -3    1.70    1.80
  -6  -1  -3    6.80    2.60
  -6  -1  -3   -0.30    3.50
   6   1   3    4.20    2.70
   6   1   3   -2.00    2.80
   6   1   3   -0.60    3.10
  -7  -1  -3    0.40    4.60
  -7  -1  -3    5.80    5.10
  -7  -1  -3    3.10    7.50
  -7  -1  -3    4.60    3.20
  -7  -1  -3   -1.30    3.20
  -7  -1  -3    3.90    2.60
   7   1   3   -2.30    4.10
   7   1   3   -1.90    4.10
   7   1   3   -0.70    3.20
  -8  -1  -3    6.20    6.30
  -8  -1  -3    5.20    4.00
  -8  -1  -3    4.80    3.60
   8   1   3    2.00    5.50
   8   1   3    0.70    4.40
   8  -2  -3   -4.00    5.70
   8  -2  -3    5.20    5.70
  -8   2   3    1.40    7.00
  -8   2   3   -0.30    5.00
   7  -2  -3    6.90    4.80
   7  -2  -3   11.70    5.00
   7  -2  -3    7.90    3.50
  -7   2   3    8.60    5.30
  -7   2   3    9.80    4.00
  -7   2   3    6.50    4.60
   6  -2  -3    1.80    3.70
   6  -2  -3   13.00    4.20
   6  -2  -3    6.10    2.50
  -6   2   3   12.30    4.50
  -6   2   3    7.30    3.70
  -6   2   3    8.90    3.10
  -6   2   3    9.50    3.20
   5  -2  -3    2.50    2.60
   5  -2  -3    3.90    1.10
   5  -2  -3    0.30    1.80
   5  -2  -3    3.00    2.80
   5  -2  -3    3.00    1.20
  -5   2   3    3.60    2.40
  -5   2   3    6.10    2.60
  -5   2   3    5.10    2.00
  -5   2   3    9.60    3.50
   4  -2  -3   15.40    2.70
   4  -2  -3   13.80    2.80
   4  -2  -3   16.80    2.00
   4  -2  -3   13.50    3.10
   4  -2  -3   15.20    2.70
   4  -2  -3   16.70    2.10
  -4   2   3   16.70    2.50
  -4   2   3   14.80    3.20
  -4   2   3   12.90    2.80
  -4   2   3   16.40    1.80
  -4   2   3   14.50    2.30
   3  -2  -3   99.09    5.60
   3  -2  -3  114.29    5.10
   3  -2  -3  109.39    4.00
   3  -2  -3  108.69    5.10
   3  -2  -3  109.29    4.40
  -3   2   3  109.19    3.50
  -3   2   3  112.39    4.60
  -3   2   3  114.59    4.60
  -3   2   3  108.99    5.30
  -3   2   3  105.09    5.40
   2  -2  -3  117.59    5.20
   2  -2  -3  119.59    4.90
   2  -2  -3  118.19    3.50
   2  -2  -3  126.19    4.30
  -2   2   3  123.69    4.80
  -2   2   3  121.09    5.30
  -2   2   3  120.99    3.60
  -2   2   3  114.29    4.40
   1  -2  -3   41.00    2.00
   1  -2  -3   39.00    2.70
   1  -2  -3   37.40    2.50
   1  -2  -3   39.90    2.40
   1  -2  -3   39.50    2.20
  -1   2   3   41.80    1.30
  -1   2   3   39.10    2.80
  -1   2   3   37.60    2.30
  -1   2   3   42.80    2.00
   0  -2  -3  437.06   11.10
   0  -2  -3  440.46   11.50
   0  -2  -3  451.05   10.90
   0  -2  -3  445.76   11.90
   0  -2  -3  435.86   11.50
   0  -2  -3  437.06   11.60
   0   2   3  458.55   11.50
   0   2   3  442.76   10.90
   0   2   3  457.95   11.50
   0   2   3  456.75   11.30
   0   2   3  454.95   11.90
   0   2   3  451.15   11.50
  -1  -2  -3 1442.06   32.30
  -1  -2  -3 1401.56   33.50
  -1  -2  -3 1407.26   32.90
  -1  -2  -3 1343.47   32.90
  -1  -2  -3 1374.46   32.90
  -1  -2  -3 1417.76   33.30
   1   2   3 1365.86   32.30
   1   2   3 1429.96   33.10
   1   2   3 1406.96   32.90
   1   2   3 1400.46   33.50
   1   2   3 1401.16   33.40
  -2  -2  -3   83.49    3.60
  -2  -2  -3   81.29    3.10
  -2  -2  -3   82.19    2.60
  -2  -2  -3   81.19    3.60
  -2  -2  -3   82.49    3.80
  -2  -2  -3   79.19    3.10
  -2  -2  -3   82.59    2.40
  -2  -2  -3   80.49    3.50
   2   2   3   84.19    3.60
   2   2   3   79.69    2.60
   2   2   3   81.69    3.00
   2   2   3   82.29    3.40
   2   2   3   76.99    3.60
   2   2   3   80.89    3.00
  -3  -2  -3   12.50    2.00
  -3  -2  -3    8.10    1.90
  -3  -2  -3   11.00    1.40
  -3  -2  -3    9.70    1.10
  -3  -2  -3   11.90    2.10
  -3  -2  -3    9.60    1.40
  -3  -2  -3   11.20    1.50
   3   2   3    9.40    1.10
   3   2   3    9.60    1.20
   3   2   3   10.80    1.70
   3   2   3    9.60    1.10
   3   2   3    8.80    1.70
   3   2   3    8.40    1.80
  -4  -2  -3   14.00    2.00
  -4  -2  -3   11.20    1.60
  -4  -2  -3   10.30    2.80
  -4  -2  -3    8.60    2.90
  -4  -2  -3   12.60    2.30
  -4  -2  -3   16.30    1.90
  -4  -2  -3   10.50    2.40
   4   2   3    9.70    2.20
   4   2   3   12.70    2.50
   4   2   3   12.50    2.50
   4   2   3   12.90    1.70
  -5  -2  -3    5.40    2.80
  -5  -2  -3    3.80    2.90
  -5  -2  -3    6.20    2.40
  -5  -2  -3    6.10    3.10
  -5  -2  -3    4.90    2.10
  -5  -2  -3    5.50    2.20
  -5  -2  -3    0.90    1.80
  -5  -2  -3    4.50    1.70
  -5  -2  -3    7.60    2.60
   5   2   3    6.50    2.60
   5   2   3    1.70    2.20
   5   2   3    4.60    1.90
   5   2   3    5.20    2.40
  -6  -2  -3   49.10    4.60
  -6  -2  -3   44.70    4.50
  -6  -2  -3   41.20    4.40
  -6  -2  -3   53.69    5.60
  -6  -2  -3   49.40    3.90
   6   2   3   45.50    5.10
   6   2   3   50.29    5.20
   6   2   3   50.49    4.40
   6   2   3   41.40    4.60
  -7  -2  -3   -1.30    3.00
  -7  -2  -3    2.00    2.70
  -7  -2  -3   -1.50    3.50
  -7  -2  -3    5.70    5.00
  -7  -2  -3   -0.40    4.10
   7   2   3   -2.40    4.40
   7   2   3    1.40    3.00
   7   2   3    0.50    4.00
   7   2   3   -3.20    4.00
  -8  -2  -3    4.30    3.90
  -8  -2  -3    3.00    6.00
  -8  -2  -3    0.90    4.20
   8   2   3    1.30    5.20
   8   2   3    1.00    4.20
   8  -3  -3    3.40    6.80
  -8   3   3   -4.10    7.40
  -8   3   3  -10.20    6.20
  -8   3   3   13.00    5.40
   7  -3  -3    2.70    5.30
   7  -3  -3    2.90    4.00
  -7   3   3    8.60    4.20
  -7   3   3   -6.70    5.60
  -7   3   3   12.00    4.80
   6  -3  -3    7.00    4.00
   6  -3  -3    5.10    3.00
  -6   3   3    8.00    4.20
  -6   3   3    6.20    3.00
  -6   3   3    6.70    3.10
   5  -3  -3   15.00    3.10
   5  -3  -3   21.80    4.20
  -5   3   3   20.50    2.50
  -5   3   3   19.90    3.40
  -5   3   3   16.60    4.10
  -5   3   3   23.10    3.20
   4  -3  -3   37.40    3.70
   4  -3  -3   35.60    2.40
   4  -3  -3   34.60    4.10
   4  -3  -3   38.30    2.70
   4  -3  -3   33.00    4.10
  -4   3   3   31.10    2.50
  -4   3   3   29.70    3.30
  -4   3   3   41.10    4.70
  -4   3   3   36.50    3.30
  -4   3   3   36.80    4.50
  -4   3   3   34.70    4.00
   3  -3  -3   44.70    3.10
   3  -3  -3   37.30    3.50
   3  -3  -3   38.60    3.30
   3  -3  -3   27.80    3.60
   3  -3  -3   45.00    2.50
  -3   3   3   37.10    1.80
  -3   3   3   41.70    3.20
  -3   3   3   45.80    3.20
  -3   3   3   41.30    4.10
  -3   3   3   33.20    3.70
  -3   3   3   43.70    4.30
  -3   3   3   39.80    1.80
   2  -3  -3  365.76    9.70
   2  -3  -3  382.06   10.40
   2  -3  -3  381.66   11.10
   2  -3  -3  387.76   10.20
   2  -3  -3  382.36   11.60
  -2   3   3  374.76   11.20
  -2   3   3  382.06    9.70
  -2   3   3  380.56   11.60
  -2   3   3  388.56   10.50
  -2   3   3  374.46   11.00
  -2   3   3  380.26   10.50
  -2   3   3  380.06   11.00
   1  -3  -3   92.59    3.60
   1  -3  -3   91.39    3.50
   1  -3  -3   87.09    4.50
   1  -3  -3   94.79    3.90
   1  -3  -3   95.89    3.90
  -1   3   3   93.89    4.00
  -1   3   3   95.39    3.70
  -1   3   3   86.19    3.60
  -1   3   3   93.09    4.40
  -1   3   3   82.09    4.20
  -1   3   3   95.59    3.50
   0  -3  -3  129.69    4.50
   0  -3  -3  127.59    4.20
   0  -3  -3  125.79    5.00
   0  -3  -3  128.19    3.80
   0  -3  -3  128.19    4.40
   0  -3  -3  126.29    4.40
   0  -3  -3  126.99    4.50
   0   3   3  129.89    4.20
   0   3   3  132.99    4.50
   0   3   3  134.39    5.00
   0   3   3  133.69    4.50
   0   3   3  122.19    4.40
  -1  -3  -3 2524.65   58.09
  -1  -3  -3 2479.15   57.79
  -1  -3  -3 2513.75   56.79
  -1  -3  -3 2539.95   57.49
  -1  -3  -3 2492.95   58.49
  -1  -3  -3 2539.85   57.89
   1   3   3 2473.95   57.49
   1   3   3 2452.05   58.39
   1   3   3 2444.16   57.79
   1   3   3 2546.75   57.79
   1   3   3 2484.05   57.79
   1   3   3 2373.96   57.99
  -2  -3  -3    8.10    1.70
  -2  -3  -3   12.40    1.40
  -2  -3  -3   13.90    1.80
  -2  -3  -3   11.10    1.50
  -2  -3  -3   14.10    2.00
  -2  -3  -3   13.40    1.70
  -2  -3  -3   11.30    1.60
   2   3   3   12.60    1.60
   2   3   3   12.60    1.80
   2   3   3   15.90    1.70
   2   3   3   13.90    1.80
   2   3   3   14.30    1.50
  -3  -3  -3   81.99    4.10
  -3  -3  -3   78.09    3.60
  -3  -3  -3   79.59    4.30
  -3  -3  -3   83.19    4.20
  -3  -3  -3   83.89    3.70
  -3  -3  -3   82.69    3.40
  -3  -3  -3   87.19    4.80
   3   3   3   79.29    4.10
   3   3   3   81.39    3.40
   3   3   3   81.39    4.10
   3   3   3   86.19    3.50
   3   3   3   72.59    4.00
  -4  -3  -3  154.18    6.50
  -4  -3  -3  141.99    5.50
  -4  -3  -3  143.09    5.40
  -4  -3  -3  148.99    6.00
  -4  -3  -3  139.89    6.50
  -4  -3  -3  149.49    5.30
   4   3   3  147.59    4.70
   4   3   3  140.89    6.20
   4   3   3  142.39    6.10
   4   3   3  147.39    4.60
   4   3   3  142.39    6.30
   4   3   3  141.49    4.70
  -5  -3  -3   75.29    4.20
  -5  -3  -3   86.59    5.30
  -5  -3  -3   72.29    5.90
  -5  -3  -3   77.89    4.80
  -5  -3  -3   79.89    4.60
  -5  -3  -3   79.49    5.00
   5   3   3   78.19    5.40
   5   3   3   72.09    3.70
   5   3   3   74.69    5.30
   5   3   3   73.19    5.10
  -6  -3  -3  125.69    7.10
  -6  -3  -3  138.79    6.20
  -6  -3  -3  130.19    6.60
  -6  -3  -3  132.59    6.80
  -6  -3  -3  122.69    7.50
   6   3   3  132.29    5.80
   6   3   3  133.39    7.50
   6   3   3  161.08    7.70
   6   3   3  168.28    8.30
  -7  -3  -3   -0.20    5.00
  -7  -3  -3   -0.70    3.30
  -7  -3  -3   -7.30    3.90
  -7  -3  -3    1.40    3.80
  -7  -3  -3    3.80    3.10
   7   3   3    0.40    3.70
   7   3   3   -6.80    2.50
   7   3   3    2.60    3.90
   7   3   3   -3.70    4.50
  -8  -3  -3   46.30    5.60
  -8  -3  -3   41.10    5.20
  -8  -3  -3   43.80    6.90
   8   3   3   40.10    6.40
   8   3   3   37.90    5.00
   7  -4  -3   19.80    5.20
   7  -4  -3   11.90    6.00
  -7   4   3   15.50    5.60
  -7   4   3   12.60    6.80
  -7   4   3   15.20    4.50
   6  -4  -3    7.90    4.80
   6  -4  -3    6.80    3.60
  -6   4   3    4.30    4.20
  -6   4   3    3.70    5.00
  -6   4   3    1.70    3.30
  -6   4   3   14.20    4.10
  -6   4   3   10.90    3.30
   5  -4  -3   64.99    6.00
   5  -4  -3   66.69    6.50
  -5   4   3   77.99    6.60
  -5   4   3   65.69    5.10
  -5   4   3   79.19    7.50
  -5   4   3   71.49    5.70
   4  -4  -3    3.50    4.10
   4  -4  -3    3.20    1.30
   4  -4  -3    2.10    1.20
   4  -4  -3    3.80    2.60
   4  -4  -3    2.60    2.10
  -4   4   3    3.10    2.70
  -4   4   3    3.30    2.80
  -4   4   3    3.00    2.40
  -4   4   3    1.80    1.40
  -4   4   3   -1.60    2.00
  -4   4   3    1.60    1.10
   3  -4  -3 1080.49   28.20
   3  -4  -3 1085.49   27.30
   3  -4  -3 1080.09   25.80
   3  -4  -3 1088.79   27.50
   3  -4  -3 1116.09   28.60
  -3   4   3 1095.99   28.50
  -3   4   3 1024.80   27.70
  -3   4   3 1108.59   26.70
  -3   4   3 1022.90   27.90
  -3   4   3 1041.90   26.70
  -3   4   3 1086.29   25.70
  -3   4   3 1097.29   28.20
   2  -4  -3    0.40    1.40
   2  -4  -3   -1.80    1.10
   2  -4  -3    0.40    1.70
   2  -4  -3   -2.10    2.10
   2  -4  -3   -0.20    1.50
   2  -4  -3    0.00    1.10
  -2   4   3   -2.40    1.40
  -2   4   3   -1.30    1.80
  -2   4   3    0.20    1.90
  -2   4   3   -1.20    1.30
  -2   4   3    0.60    1.20
  -2   4   3   -0.50    1.50
  -2   4   3   -0.30    1.20
   1  -4  -3  574.04   15.70
   1  -4  -3  609.64   15.30
   1  -4  -3  601.54   16.40
   1  -4  -3  620.24   15.50
   1  -4  -3  585.44   15.20
  -1   4   3  601.94   15.60
  -1   4   3  582.14   16.00
  -1   4   3  589.24   15.50
  -1   4   3  592.14   15.40
  -1   4   3  609.54   15.40
  -1   4   3  594.84   16.30
   0  -4  -3 1888.91   45.50
   0  -4  -3 1965.80   45.80
   0  -4  -3 1913.81   46.30
   0  -4  -3 1905.91   45.60
   0  -4  -3 1951.60   45.60
   0   4   3 1975.40   45.60
   0   4   3 1955.30   46.40
   0   4   3 1962.90   45.20
   0   4   3 1888.41   45.60
   0   4   3 1935.21   45.80
   0   4   3 1917.71   45.60
  -1  -4  -3  162.88    4.80
  -1  -4  -3  167.18    5.90
  -1  -4  -3  173.18    5.80
  -1  -4  -3  170.38    5.80
  -1  -4  -3  169.78    6.40
   1   4   3  171.08    5.40
   1   4   3  164.58    4.80
   1   4   3  171.58    5.90
   1   4   3  172.78    5.70
   1   4   3  168.18    5.80
   1   4   3  167.38    5.70
   1   4   3  172.18    6.30
  -2  -4  -3  706.23   18.20
  -2  -4  -3  706.93   18.10
  -2  -4  -3  710.03   18.60
  -2  -4  -3  702.23   18.10
  -2  -4  -3  731.63   18.10
  -2  -4  -3  712.23   19.00
   2   4   3  691.03   18.10
   2   4   3  736.63   18.00
   2   4   3  738.23   18.10
   2   4   3  714.13   18.60
   2   4   3  700.43   18.10
  -3  -4  -3  188.28    6.50
  -3  -4  -3  186.98    6.40
  -3  -4  -3  189.08    6.20
  -3  -4  -3  179.28    6.80
  -3  -4  -3  186.78    7.50
  -3  -4  -3  185.98    6.60
   3   4   3  188.08    6.30
   3   4   3  185.68    6.20
   3   4   3  189.88    6.60
   3   4   3  182.48    6.30
   3   4   3  186.98    6.90
  -4  -4  -3  197.28    7.00
  -4  -4  -3  206.98    7.10
  -4  -4  -3  203.48    7.50
  -4  -4  -3  207.98    7.90
  -4  -4  -3  201.58    7.10
   4   4   3  205.78    8.00
   4   4   3  206.48    6.80
   4   4   3  205.88    7.70
   4   4   3  202.68    7.10
   4   4   3  186.78    7.50
   4   4   3  199.58    5.50
   4   4   3  205.58    6.60
  -5  -4  -3  128.29    6.20
  -5  -4  -3  127.69    7.20
  -5  -4  -3  134.39    6.60
  -5  -4  -3  138.79    6.60
  -5  -4  -3  148.39    6.10
   5   4   3  142.99    6.80
   5   4   3  148.59    5.20
   5   4   3  136.59    6.90
   5   4   3  139.59    5.10
   5   4   3  136.49    7.10
  -6  -4  -3    0.30    2.60
  -6  -4  -3    5.80    3.70
  -6  -4  -3   -2.90    2.70
  -6  -4  -3    0.80    3.00
  -6  -4  -3    0.50    3.30
   6   4   3    0.10    3.60
   6   4   3    3.00    2.90
   6   4   3    2.00    1.90
   6   4   3    3.40    3.30
  -7  -4  -3   -4.50    4.60
  -7  -4  -3    1.40    3.50
  -7  -4  -3    2.60    4.80
  -7  -4  -3    0.40    4.00
  -7  -4  -3    3.50    3.20
   7   4   3   -3.70    2.40
   7   4   3   -0.50    4.00
   7   4   3   -0.90    3.40
  -8  -4  -3   -0.30    4.30
  -8  -4  -3   -3.90    4.40
   8   4   3   -4.00    3.40
   8   4   3    2.10    5.00
   7  -5  -3    0.80    6.30
   7  -5  -3    7.30    5.40
  -7   5   3    7.90    7.30
  -7   5   3    2.50    6.20
  -7   5   3    4.20    4.60
   6  -5  -3    6.40    5.30
   6  -5  -3   -3.90    4.10
  -6   5   3    2.70    5.50
  -6   5   3    3.70    3.60
  -6   5   3    2.10    4.80
  -6   5   3    1.50    4.70
   5  -5  -3    9.90    4.30
   5  -5  -3    0.00    3.30
  -5   5   3    6.10    4.40
  -5   5   3   12.00    3.90
  -5   5   3    9.20    4.20
  -5   5   3    2.30    2.80
  -5   5   3    4.40    1.70
  -5   5   3    7.40    2.20
   4  -5  -3    7.30    3.40
   4  -5  -3    9.20    3.10
  -4   5   3    9.50    3.40
  -4   5   3    6.60    2.40
  -4   5   3    4.20    3.30
  -4   5   3   10.80    2.90
  -4   5   3   10.10    1.90
   3  -5  -3   35.80    4.10
   3  -5  -3   29.10    2.80
   3  -5  -3   35.30    4.10
   3  -5  -3   30.70    4.50
  -3   5   3   30.60    4.10
  -3   5   3   28.20    3.70
  -3   5   3   32.50    3.30
  -3   5   3   30.10    3.00
  -3   5   3   31.60    4.00
  -3   5   3   26.70    3.60
  -3   5   3   33.70    3.40
   2  -5  -3  171.88    5.80
   2  -5  -3  170.88    6.10
   2  -5  -3  179.38    6.20
   2  -5  -3  165.58    4.50
   2  -5  -3  163.38    7.40
   2  -5  -3  161.98    6.90
   2  -5  -3  166.88    7.00
  -2   5   3  168.28    6.30
  -2   5   3  169.38    7.10
  -2   5   3  180.28    6.10
  -2   5   3  161.98    7.00
  -2   5   3  165.38    7.20
  -2   5   3  167.18    6.20
   1  -5  -3  700.53   17.60
   1  -5  -3  678.13   18.40
   1  -5  -3  684.73   18.80
   1  -5  -3  674.23   17.70
   1  -5  -3  673.73   18.50
   1  -5  -3  695.03   17.70
   1  -5  -3  687.33   18.20
  -1   5   3  642.44   17.70
  -1   5   3  682.33   18.70
  -1   5   3  704.63   18.20
  -1   5   3  679.03   17.60
  -1   5   3  703.13   17.90
  -1   5   3  676.73   18.50
   0  -5  -3 2890.41   69.49
   0  -5  -3 2995.10   70.49
   0  -5  -3 2988.00   69.39
   0  -5  -3 2964.40   69.59
   0  -5  -3 3043.40   69.89
   0  -5  -3 3076.69   70.19
   0   5   3 2953.00   70.09
   0   5   3 2917.91   69.59
   0   5   3 2921.91   69.69
   0   5   3 3010.80   69.39
   0   5   3 3029.00   69.59
   0   5   3 3001.10   70.49
  -1  -5  -3  586.54   15.50
  -1  -5  -3  594.84   15.70
  -1  -5  -3  583.74   15.80
  -1  -5  -3  572.74   15.40
  -1  -5  -3  575.64   16.10
   1   5   3  573.94   16.10
   1   5   3  587.84   14.60
   1   5   3  576.34   15.70
   1   5   3  591.64   15.50
   1   5   3  574.14   15.60
   1   5   3  595.24   14.80
   1   5   3  568.44   15.40
  -2  -5  -3   70.29    4.90
  -2  -5  -3   68.99    4.00
  -2  -5  -3   68.39    4.00
  -2  -5  -3   70.69    3.90
  -2  -5  -3   65.89    3.80
   2   5   3   72.99    3.90
   2   5   3   75.69    3.60
   2   5   3   74.59    3.80
   2   5   3   74.19    2.60
   2   5   3   67.69    4.20
   2   5   3   70.19    3.90
  -3  -5  -3  373.16   11.60
  -3  -5  -3  388.06   11.00
  -3  -5  -3  389.66   12.30
  -3  -5  -3  374.66   11.10
  -3  -5  -3  380.86   11.00
  -3  -5  -3  359.96   11.10
   3   5   3  368.66   11.50
   3   5   3  373.66   11.00
   3   5   3  369.06   10.80
   3   5   3  360.86   10.90
   3   5   3  382.26    8.90
   3   5   3  365.46   11.00
  -4  -5  -3  298.27    9.80
  -4  -5  -3  290.67    9.50
  -4  -5  -3  303.37    9.70
  -4  -5  -3  295.97    9.90
  -4  -5  -3  288.57   11.10
  -4  -5  -3  297.57   10.10
   4   5   3  295.87    9.70
   4   5   3  315.27   10.20
   4   5   3  294.57    7.50
   4   5   3  303.27   10.00
   4   5   3  282.27    9.20
   4   5   3  301.37    9.40
  -5  -5  -3    3.10    2.30
  -5  -5  -3    0.20    3.10
  -5  -5  -3    0.20    2.40
  -5  -5  -3   -0.20    2.80
  -5  -5  -3   -1.50    2.80
   5   5   3    0.70    1.40
   5   5   3    0.20    2.30
   5   5   3    2.10    2.10
   5   5   3    0.90    3.00
   5   5   3    0.50    2.00
   5   5   3   -1.10    2.50
   5   5   3   -3.60    2.50
  -6  -5  -3   -1.60    2.90
  -6  -5  -3    2.60    4.10
  -6  -5  -3    0.50    3.00
   6   5   3   -0.30    1.80
   6   5   3   -3.10    3.10
   6   5   3    0.80    2.30
   6   5   3    0.80    3.00
  -7  -5  -3   24.60    4.40
  -7  -5  -3   22.60    4.50
  -7  -5  -3   20.10    4.50
   7   5   3   19.30    3.00
   7   5   3   24.90    5.10
   7   5   3   23.80    5.00
  -8  -5  -3   -6.90    4.90
  -8  -5  -3    1.50    4.90
   8   5   3   -7.70    4.00
   8   5   3   -7.20    5.30
   7  -6  -3   -9.20    7.30
   7  -6  -3   -3.20    6.20
  -7   6   3   -4.10    7.60
   6  -6  -3   -7.80    5.30
   6  -6  -3    0.30    5.40
  -6   6   3    4.90    5.70
  -6   6   3   -1.30    3.70
  -6   6   3   -3.70    5.70
   5  -6  -3    3.50    4.80
   5  -6  -3    1.10    4.20
  -5   6   3    8.90    3.30
  -5   6   3   17.30    5.00
  -5   6   3   10.20    2.70
  -5   6   3    4.60    5.30
  -5   6   3    4.40    4.30
   4  -6  -3   -9.00    3.60
   4  -6  -3    1.20    2.90
  -4   6   3   -1.80    3.30
  -4   6   3   -2.80    3.40
  -4   6   3    0.60    3.50
  -4   6   3    3.10    4.00
  -4   6   3   -0.40    2.30
  -4   6   3    2.40    2.40
   3  -6  -3    4.70    3.20
   3  -6  -3    1.40    3.50
   3  -6  -3    3.20    4.00
   3  -6  -3   10.40    2.70
   3  -6  -3    6.70    1.40
   3  -6  -3    6.10    1.90
  -3   6   3    4.10    2.30
  -3   6   3    9.10    2.90
  -3   6   3    9.00    3.20
  -3   6   3    9.90    3.20
  -3   6   3    5.50    2.40
   2  -6  -3   88.59    4.80
   2  -6  -3   86.39    5.50
   2  -6  -3   90.59    5.50
   2  -6  -3   89.39    4.90
   2  -6  -3   90.89    6.60
   2  -6  -3   82.29    4.30
   2  -6  -3   80.59    3.20
  -2   6   3   79.49    5.60
  -2   6   3   83.09    5.70
  -2   6   3   78.79    4.70
  -2   6   3   86.39    5.10
  -2   6   3   92.99    5.90
  -2   6   3   75.29    4.60
   1  -6  -3   43.30    4.50
   1  -6  -3   35.30    3.50
   1  -6  -3   38.40    3.40
   1  -6  -3   39.90    3.80
   1  -6  -3   45.90    5.00
   1  -6  -3   41.00    4.00
   1  -6  -3   35.30    2.60
   1  -6  -3   34.50    3.90
  -1   6   3   36.70    3.30
  -1   6   3   38.40    3.30
  -1   6   3   37.50    4.20
  -1   6   3   35.00    3.60
  -1   6   3   35.20    3.90
  -1   6   3   36.10    3.70
   0  -6  -3    6.90    2.30
   0  -6  -3    7.50    2.60
   0  -6  -3   10.70    2.10
   0  -6  -3   15.30    2.50
   0  -6  -3   10.90    2.80
   0  -6  -3   14.20    2.10
   0   6   3    9.40    2.30
   0   6   3   10.60    2.40
   0   6   3   12.40    2.00
   0   6   3    8.60    2.20
   0   6   3   10.60    2.40
   0   6   3    9.30    2.20
  -1  -6  -3   44.80    4.40
  -1  -6  -3   44.90    4.30
  -1  -6  -3   45.30    3.90
  -1  -6  -3   38.60    3.30
  -1  -6  -3   47.50    3.90
   1   6   3   44.50    3.80
   1   6   3   46.20    3.70
   1   6   3   48.20    3.50
   1   6   3   44.20    3.80
   1   6   3   43.20    4.20
   1   6   3   44.30    3.60
   1   6   3   50.39    2.80
  -2  -6  -3   79.39    5.00
  -2  -6  -3   68.79    4.70
  -2  -6  -3   78.59    5.50
  -2  -6  -3   79.19    4.50
  -2  -6  -3   74.79    4.70
   2   6   3   71.29    4.50
   2   6   3   79.89    4.40
   2   6   3   73.59    4.50
   2   6   3   81.09    3.80
   2   6   3   81.09    4.90
   2   6   3   79.19    3.40
  -3  -6  -3  240.78    7.90
  -3  -6  -3  229.78    8.40
  -3  -6  -3  233.38    8.80
  -3  -6  -3  228.48    8.30
  -3  -6  -3  218.78    9.10
  -3  -6  -3  235.28    8.30
   3   6   3  225.48    6.30
   3   6   3  222.78    8.30
   3   6   3  241.88    8.20
   3   6   3  219.88    8.00
   3   6   3  220.48    8.40
   3   6   3  231.18    7.80
  -4  -6  -3   55.09    5.20
  -4  -6  -3   55.69    4.90
  -4  -6  -3   53.99    6.10
  -4  -6  -3   56.79    5.40
  -4  -6  -3   57.99    4.70
  -4  -6  -3   65.29    5.20
   4   6   3   50.59    4.50
   4   6   3   62.19    4.70
   4   6   3   61.39    2.50
   4   6   3   55.99    4.20
   4   6   3   54.79    5.30
   4   6   3   60.09    4.80
  -5  -6  -3  502.75   15.60
  -5  -6  -3  512.25   15.90
  -5  -6  -3  473.15   15.60
  -5  -6  -3  517.35   15.60
   5   6   3  506.05   12.80
   5   6   3  520.85   15.50
   5   6   3  499.05   14.70
   5   6   3  528.85   14.90
   5   6   3  517.45   15.60
   5   6   3  519.45   16.50
  -6  -6  -3   22.60    4.80
  -6  -6  -3   13.30    4.00
  -6  -6  -3   15.50    3.90
   6   6   3   17.00    2.30
   6   6   3   16.50    3.40
   6   6   3   16.50    4.00
   6   6   3   11.20    3.30
   6   6   3   14.70    3.80
  -7  -6  -3   31.90    5.40
  -7  -6  -3   29.70    8.90
   7   6   3   28.00    3.60
   7   6   3   25.50    5.70
   7   6   3   22.70    5.20
   7   6   3   21.70    3.10
  -8  -6  -3    4.30    5.40
  -8  -6  -3   15.00    5.50
   8   6   3    0.50    5.50
   6  -7  -3   18.50    6.80
   6  -7  -3   26.40    7.20
  -6   7   3   25.10    7.90
  -6   7   3   28.20    5.10
  -6   7   3   30.30    7.00
   5  -7  -3    4.70    4.80
   5  -7  -3    0.30    5.30
  -5   7   3    0.80    3.60
  -5   7   3   -0.50    5.10
  -5   7   3   10.30    4.80
   4  -7  -3   25.40    4.80
   4  -7  -3   31.30    5.10
  -4   7   3   17.40    4.80
  -4   7   3   18.10    8.10
  -4   7   3   22.70    4.00
  -4   7   3   20.90    3.60
  -4   7   3   18.60    5.00
  -4   7   3   24.20    5.00
   3  -7  -3   72.89    6.20
   3  -7  -3   72.49    4.00
   3  -7  -3   70.19    6.40
   3  -7  -3   68.49    5.40
  -3   7   3   68.69    5.40
  -3   7   3   62.49    6.00
  -3   7   3   74.09    6.70
  -3   7   3   69.89    5.20
  -3   7   3   66.89    6.60
   2  -7  -3   26.70    4.90
   2  -7  -3   22.40    2.80
   2  -7  -3   26.10    4.00
   2  -7  -3   23.90    3.50
   2  -7  -3   21.60    2.10
   2  -7  -3   22.90    3.40
  -2   7   3   22.90    3.10
  -2   7   3   18.60    3.60
  -2   7   3   18.50    3.90
  -2   7   3   23.60    3.40
  -2   7   3   24.70    3.80
   1  -7  -3    5.70    3.40
   1  -7  -3    2.50    2.30
   1  -7  -3    2.80    2.70
   1  -7  -3   -1.10    2.00
   1  -7  -3    4.10    2.80
   1  -7  -3    4.60    3.30
   1  -7  -3    2.40    1.60
   1  -7  -3    1.90    2.30
  -1   7   3    2.90    2.50
  -1   7   3    4.40    3.00
  -1   7   3    3.30    2.70
  -1   7   3    2.10    2.70
  -1   7   3    2.20    2.10
  -1   7   3    2.70    2.80
   0  -7  -3   -1.90    2.50
   0  -7  -3   -0.50    2.10
   0  -7  -3    1.90    2.00
   0  -7  -3    1.40    3.10
   0  -7  -3    3.40    3.00
   0  -7  -3    4.00    2.00
   0  -7  -3   -2.90    2.10
   0   7   3    2.00    2.50
   0   7   3    1.20    2.20
   0   7   3    1.40    2.50
   0   7   3   -1.80    2.20
   0   7   3    4.00    2.10
   0   7   3    5.00    2.70
  -1  -7  -3    7.90    3.30
  -1  -7  -3    0.90    2.00
  -1  -7  -3    0.30    3.00
  -1  -7  -3   -0.10    2.50
  -1  -7  -3    5.40    2.60
   1   7   3    2.00    1.90
   1   7   3    2.00    1.40
   1   7   3    3.60    2.30
   1   7   3    5.80    2.70
   1   7   3    4.90    2.10
   1   7   3    5.90    2.50
   1   7   3    2.50    2.30
  -2  -7  -3   33.70    3.80
  -2  -7  -3   38.30    4.10
  -2  -7  -3   35.40    4.00
  -2  -7  -3   30.60    3.60
  -2  -7  -3   30.20    4.50
   2   7   3   31.30    3.60
   2   7   3   25.60    3.00
   2   7   3   24.60    3.50
   2   7   3   28.80    2.90
   2   7   3   35.30    4.00
   2   7   3   34.50    3.20
  -3  -7  -3    5.60    3.20
  -3  -7  -3    1.60    2.20
  -3  -7  -3    3.10    2.70
  -3  -7  -3    4.80    3.60
   3   7   3    4.80    1.80
   3   7   3   -0.90    2.30
   3   7   3    2.50    2.00
   3   7   3    0.60    2.70
   3   7   3    2.00    2.20
  -4  -7  -3   17.90    3.50
  -4  -7  -3   16.70    3.30
  -4  -7  -3   12.90    3.40
  -4  -7  -3   10.20    3.60
   4   7   3   12.90    3.00
   4   7   3   12.50    2.10
   4   7   3   16.70    3.60
   4   7   3   18.20    2.90
   4   7   3   10.40    3.50
  -5  -7  -3   31.70    4.70
  -5  -7  -3   38.60    5.10
  -5  -7  -3   35.90    5.20
  -5  -7  -3   39.10    4.40
   5   7   3   44.30    5.20
   5   7   3   39.90    4.20
   5   7   3   35.80    2.80
   5   7   3   42.20    4.70
   5   7   3   36.90    4.20
  -6  -7  -3    4.20    4.80
  -6  -7  -3    3.80    4.20
   6   7   3    9.00    4.00
   6   7   3    5.00    2.30
   6   7   3    2.80    3.40
   6   7   3   11.20    4.00
   6   7   3    5.10    3.70
  -7  -7  -3   10.50    4.80
  -7  -7  -3    6.50    4.90
   7   7   3    0.00    4.80
   7   7   3    0.70    4.70
   7   7   3   -0.70    3.90
  -8  -7  -3    6.00    5.80
  -8  -7  -3   10.70    5.80
   8   7   3    9.70    6.50
   5  -8  -3    7.50    6.90
   5  -8  -3   -0.30    5.70
  -5   8   3   13.20    5.70
  -5   8   3   -2.60    5.70
  -5   8   3   -2.80    4.20
   4  -8  -3   30.30    5.90
   4  -8  -3   41.20    6.90
  -4   8   3   34.10    4.60
  -4   8   3   31.70    6.70
  -4   8   3   35.50    6.00
   3  -8  -3   36.30    3.80
   3  -8  -3   36.60    5.40
   3  -8  -3   42.30    5.60
   3  -8  -3   44.80    3.70
  -3   8   3   43.80    5.50
  -3   8   3   38.50    4.80
  -3   8   3   48.60    5.00
  -3   8   3   39.30    4.60
  -3   8   3   44.70    5.90
   2  -8  -3  125.79    5.20
   2  -8  -3  130.89    8.00
   2  -8  -3  125.69    7.90
   2  -8  -3  135.09    6.20
   2  -8  -3  129.69    7.10
  -2   8   3  118.79    6.60
  -2   8   3  132.79    8.00
  -2   8   3  116.69    7.30
  -2   8   3  128.19    8.30
   1  -8  -3    1.70    2.90
   1  -8  -3    1.40    3.50
   1  -8  -3   -2.10    2.50
   1  -8  -3    1.20    2.90
   1  -8  -3    1.60    2.60
   1  -8  -3    0.90    1.90
   1  -8  -3    2.50    4.20
  -1   8   3    2.60    3.60
  -1   8   3   -0.70    2.50
  -1   8   3   -1.20    2.90
  -1   8   3   -0.30    3.20
  -1   8   3    0.20    3.10
   0  -8  -3   64.19    5.30
   0  -8  -3   52.09    5.30
   0  -8  -3   50.69    5.50
   0  -8  -3   67.29    5.10
   0  -8  -3   65.19    6.90
   0   8   3   63.99    5.50
   0   8   3   52.29    5.30
   0   8   3   60.99    5.80
   0   8   3   62.89    4.90
   0   8   3   66.39    3.40
  -1  -8  -3   27.10    4.20
  -1  -8  -3   25.80    3.50
  -1  -8  -3   27.50    4.50
  -1  -8  -3   23.30    3.60
   1   8   3   27.40    3.70
   1   8   3   26.60    2.70
   1   8   3   30.00    4.10
   1   8   3   27.70    3.60
   1   8   3   25.40    3.20
  -2  -8  -3   10.40    4.10
  -2  -8  -3    8.50    3.00
  -2  -8  -3    2.40    2.50
  -2  -8  -3   12.80    5.20
  -2  -8  -3    7.60    3.10
   2   8   3    4.80    2.40
   2   8   3    5.80    2.80
   2   8   3    9.70    2.80
   2   8   3   10.80    2.00
  -3  -8  -3   16.10    3.40
  -3  -8  -3   18.30    3.90
   3   8   3   24.00    3.70
   3   8   3   25.90    3.10
   3   8   3   33.30    3.80
   3   8   3   23.90    4.10
  -4  -8  -3    0.20    3.40
  -4  -8  -3    5.50    3.20
  -4  -8  -3    0.10    3.20
   4   8   3    0.20    3.20
   4   8   3    0.10    2.10
   4   8   3   -4.00    2.60
   4   8   3   -2.60    2.40
  -5  -8  -3    5.00    4.40
  -5  -8  -3    2.00    3.30
   5   8   3    2.80    3.50
   5   8   3    2.90    3.00
   5   8   3    5.90    3.60
   5   8   3    4.70    3.50
   5   8   3    1.80    2.40
  -6  -8  -3   -2.20    4.30
  -6  -8  -3    4.20    4.50
   6   8   3    3.70    2.10
   6   8   3    3.20    4.10
   6   8   3    1.80    4.30
   6   8   3   -1.10    4.00
   6   8   3    1.30    3.80
  -7  -8  -3   -8.00    5.10
  -7  -8  -3   -3.60    5.10
   7   8   3   13.80    6.00
   7   8   3    3.90    4.40
   7   8   3    3.60    5.10
  -8  -8  -3   -0.70    6.00
  -8  -8  -3    0.40    6.00
   8   8   3   -4.10    6.30
   4  -9  -3    5.00    6.30
   4  -9  -3    6.20    5.70
  -4   9   3   16.70    6.40
  -4   9   3    4.30    6.40
  -4   9   3    3.80    4.10
   3  -9  -3   43.80    6.10
   3  -9  -3   44.40    3.80
   3  -9  -3   48.80    6.90
  -3   9   3   52.29    6.80
  -3   9   3   44.00    6.20
   2  -9  -3   19.80    4.70
   2  -9  -3   24.20    3.60
   2  -9  -3   17.50    6.30
   2  -9  -3   20.70    3.20
   2  -9  -3   24.80    4.70
  -2   9   3   21.40    5.00
  -2   9   3   28.30    4.20
  -2   9   3   24.20    3.90
  -2   9   3   28.30    5.50
   1  -9  -3   -4.00    3.00
   1  -9  -3    3.40    4.30
   1  -9  -3    2.90    2.40
   1  -9  -3    1.10    3.10
  -1   9   3    0.70    2.90
  -1   9   3   -1.40    3.40
  -1   9   3    4.10    3.70
   0  -9  -3    8.30    4.00
   0  -9  -3    3.90    3.20
   0  -9  -3    5.20    3.30
   0   9   3    6.80    1.70
   0   9   3    4.70    4.20
   0   9   3    3.60    2.90
   0   9   3    2.00    3.30
   0   9   3    9.30    3.70
  -1  -9  -3    0.10    2.90
  -1  -9  -3   -6.60    3.00
  -1  -9  -3    3.20    3.30
   1   9   3    0.60    3.00
   1   9   3    3.60    3.70
   1   9   3   -1.80    2.70
   1   9   3    2.60    1.70
   1   9   3    1.60    3.20
  -2  -9  -3   -1.20    2.80
  -2  -9  -3    1.60    3.30
  -2  -9  -3   -0.40    3.40
   2   9   3    0.70    2.90
   2   9   3    2.80    3.30
   2   9   3   -0.80    3.20
   2   9   3    2.30    2.00
  -3  -9  -3   28.80    4.10
  -3  -9  -3   28.40    7.30
   3   9   3   26.10    3.80
   3   9   3   30.70    3.30
   3   9   3   30.20    5.00
  -4  -9  -3   20.60    4.90
  -4  -9  -3   20.80    3.80
  -4  -9  -3   11.90    4.10
   4   9   3   16.80    3.20
   4   9   3    8.20    3.90
   4   9   3   12.60    3.90
   4   9   3   17.50    3.20
  -5  -9  -3    4.00    4.20
  -5  -9  -3    4.30    4.20
  -5  -9  -3    0.30    4.90
   5   9   3   -0.50    5.10
   5   9   3   -0.50    3.20
   5   9   3    3.40    3.90
  -6  -9  -3    2.30    5.10
  -6  -9  -3   -4.70    4.80
   6   9   3   -6.30    4.50
   6   9   3    8.00    4.70
   6   9   3   -3.40    4.00
   6   9   3   -2.60    5.00
  -7  -9  -3    3.80    5.60
  -7  -9  -3    5.10    5.50
  -7  -9  -3   19.10    6.30
   7   9   3    4.10    5.40
   7   9   3    8.40    6.10
   7   9   3    7.80    5.50
   4 -10  -3   14.90    8.20
   4 -10  -3   -1.40    6.80
  -4  10   3   13.80    7.40
  -4  10   3    8.20    7.30
  -4  10   3    9.00    5.60
   3 -10  -3   -3.80    5.70
  -3  10   3   -3.20    4.50
  -3  10   3    0.90    6.10
  -3  10   3   -3.30    5.50
   2 -10  -3    5.90    3.60
   2 -10  -3    1.10    4.40
   2 -10  -3   -3.00    3.10
  -2  10   3   -0.60    4.20
  -2  10   3   -6.00    4.60
  -2  10   3    9.20    5.10
   1 -10  -3    6.20    3.80
   1 -10  -3    5.60    4.00
   1 -10  -3   10.40    3.30
  -1  10   3   13.70    5.10
  -1  10   3    9.40    2.30
  -1  10   3    4.80    4.30
  -1  10   3   14.70    4.10
   0 -10  -3    2.30    4.60
   0 -10  -3    6.40    3.80
   0 -10  -3   -2.20    3.70
   0  10   3   10.20    3.70
   0  10   3    0.30    4.00
   0  10   3    2.10    4.30
   0  10   3    1.70    1.90
  -1 -10  -3    6.90    3.90
  -1 -10  -3   18.70    5.30
  -1 -10  -3   13.60    4.30
   1  10   3    9.40    5.40
   1  10   3   15.40    4.20
   1  10   3   15.90    2.20
   1  10   3   13.40    4.40
   1  10   3   16.60    4.10
  -2 -10  -3   30.30    5.00
  -2 -10  -3   32.60    4.90
   2  10   3   28.50    5.20
   2  10   3   24.90    4.80
   2  10   3   31.00    2.80
   2  10   3   27.30    4.70
  -3 -10  -3   24.40    5.50
  -3 -10  -3   23.60    4.50
  -3 -10  -3   20.10    4.70
   3  10   3   26.20    3.10
   3  10   3   28.20    5.40
   3  10   3   21.70    4.70
   3  10   3   21.20    4.70
  -4 -10  -3   62.89    6.60
  -4 -10  -3   64.19    7.30
  -4 -10  -3   53.59    5.70
   4  10   3   59.49    5.70
   4  10   3   52.69    6.40
   4  10   3   58.79    6.90
  -5 -10  -3   13.70    5.50
  -5 -10  -3   14.80    5.50
  -5 -10  -3   18.30    4.50
   5  10   3   16.50    5.30
   5  10   3   14.70    5.60
   5  10   3   21.30    4.30
  -6 -10  -3    7.10    6.90
  -6 -10  -3   17.40    4.80
  -6 -10  -3   15.90    5.70
   6  10   3   18.40    6.70
   6  10   3   12.70    5.80
   6  10   3   11.00    6.30
   2 -11  -3   28.10    6.60
  -2  11   3   10.90    6.80
  -2  11   3   33.10    7.40
  -2  11   3   26.20    5.70
   1 -11  -3   14.00    4.10
   1 -11  -3   11.60    5.30
   1 -11  -3    9.40    4.70
  -1  11   3   10.20    5.10
  -1  11   3    9.50    4.90
  -1  11   3   13.30    7.10
   0 -11  -3   64.29    6.80
   0 -11  -3   49.70    5.30
   0 -11  -3   36.20    5.60
   0  11   3   69.69   12.10
   0  11   3   53.49    6.30
   0  11   3   54.59    7.10
  -1 -11  -3    9.30    6.00
  -1 -11  -3    2.10    4.10
  -1 -11  -3   12.80    4.90
   1  11   3   10.50    4.50
   1  11   3    1.20    5.00
  -2 -11  -3    8.10    4.40
  -2 -11  -3   16.20    5.60
  -2 -11  -3    8.80    5.30
   2  11   3   10.20    4.80
   2  11   3   16.50    5.20
  -3 -11  -3    2.10    4.40
  -3 -11  -3    4.40    5.20
  -3 -11  -3    1.70    5.00
   3  11   3    0.20    5.00
   3  11   3    1.50    4.60
  -4 -11  -3    3.70    5.60
  -4 -11  -3   -3.20    4.40
  -4 -11  -3    6.00    5.30
   4  11   3   -7.70    5.10
   4  11   3    0.40    4.80
  -5 -11  -3    6.40    6.00
  -5 -11  -3   10.90    5.70
  -5 -11  -3    6.80    5.00
   5  11   3    7.50    6.20
   5  11   3   13.20    6.00
   0 -12  -3    7.20    6.00
   0 -12  -3    6.80    5.30
   0 -12  -3    1.90    6.00
   0  12   3    3.90    5.40
   0  12   3    1.90    5.90
   0  12   3   -0.80    6.10
  -1 -12  -3   42.20    6.70
  -1 -12  -3   46.50    7.30
   1  12   3   48.70    6.80
   1  12   3   47.00    7.50
  -2 -12  -3    7.20    6.00
  -2 -12  -3   -0.30    5.50
  -2 -12  -3   12.20    7.40
   2  12   3    0.90    4.90
   2  12   3   -5.30    5.80
  -3 -12  -3   37.80    7.80
  -3 -12  -3   12.90    5.90
  -3 -12  -3   24.20    6.70
   3  12   3   14.60    5.60
   3  12   3   23.10    7.10
  -4 -12  -3   -1.90    6.10
  -4 -12  -3    2.20    6.80
  -4 -12  -3   -5.50    5.60
   4  12   3    8.10    5.70
   4  12   3   -4.00    6.50
   4  10  -4    1.90    6.10
   4  10  -4   -3.50    6.80
   4  10  -4    8.40    5.50
  -4 -10   4    6.90    5.80
  -4 -10   4    4.10    6.20
   3  10  -4   -7.80    6.00
   3  10  -4   -7.30    6.80
  -3 -10   4    4.30    5.90
  -3 -10   4    4.60    4.50
  -3 -10   4    7.20    5.50
   2  10  -4    1.20    6.20
   2  10  -4   -7.40    5.20
  -2 -10   4   -2.80    5.70
  -2 -10   4   -8.80    5.40
  -2 -10   4    5.20    5.00
   1  10  -4   12.50    6.20
   1  10  -4   11.60    6.80
  -1 -10   4   15.60    5.30
  -1 -10   4   17.80    5.10
  -1 -10   4    9.70    6.10
   0  10  -4    2.30    5.80
   0  10  -4   -4.80    6.20
   0 -10   4   -3.00    6.30
   0 -10   4    0.30    5.20
  -1  10  -4   52.39    8.50
   1 -10   4   47.70    7.10
   1 -10   4   60.09    9.30
   5   9  -4   -4.60    6.20
   5   9  -4   -6.80    5.60
   5   9  -4    0.60    5.40
  -5  -9   4   -0.50    5.70
   4   9  -4    2.20    4.60
   4   9  -4   10.60    5.70
   4   9  -4   -4.30    5.50
  -4  -9   4   -0.60    4.50
  -4  -9   4    5.60    5.00
  -4  -9   4    7.30    5.30
   3   9  -4    7.50    5.40
   3   9  -4   10.00    6.00
  -3  -9   4   24.30    5.00
  -3  -9   4   15.10    5.50
  -3  -9   4   16.40    4.30
   2   9  -4   -8.20    4.40
   2   9  -4   -2.60    4.90
  -2  -9   4    0.10    3.70
  -2  -9   4   -8.40    5.00
  -2  -9   4    1.10    4.30
   1   9  -4    5.90    4.90
   1   9  -4    5.70    5.30
  -1  -9   4    0.80    4.10
  -1  -9   4    3.00    4.90
  -1  -9   4   -4.80    4.40
   0   9  -4   -6.30    5.10
   0   9  -4    8.60    4.50
   0  -9   4   -0.30    4.10
   0  -9   4   -6.50    5.10
   0  -9   4    2.90    3.80
  -1   9  -4   -4.90    4.90
  -1   9  -4   -4.50    5.20
   1  -9   4    8.90    4.70
   1  -9   4   -1.80    5.50
  -2   9  -4   -0.20    5.30
  -2   9  -4    0.70    5.70
   2  -9   4   -0.70    6.30
   2  -9   4   -5.80    5.00
   6   8  -4   31.00    7.70
   6   8  -4   20.40    6.40
   6   8  -4   30.70    6.90
  -6  -8   4   30.70    7.00
  -6  -8   4   15.50    7.10
   5   8  -4   72.09    8.30
   5   8  -4   80.79    8.00
   5   8  -4   73.59    8.10
  -5  -8   4   86.19   10.00
  -5  -8   4   70.99    8.00
   4   8  -4    5.40    5.20
   4   8  -4    4.40    4.40
   4   8  -4    3.30    4.00
  -4  -8   4    0.70    4.10
  -4  -8   4   -4.80    4.30
  -4  -8   4    6.40    3.70
   3   8  -4   86.99    8.20
   3   8  -4   86.89    8.80
  -3  -8   4  108.49    7.60
  -3  -8   4  102.89    6.90
  -3  -8   4  102.49    8.00
   2   8  -4   64.09    6.90
   2   8  -4   80.79    7.10
  -2  -8   4   69.99    5.30
  -2  -8   4   76.49    7.20
  -2  -8   4   63.79    6.20
  -2  -8   4   60.89    5.50
  -2  -8   4   69.89    6.70
   1   8  -4   46.80    5.60
   1   8  -4   41.70    5.70
  -1  -8   4   37.30    4.70
  -1  -8   4   39.70    4.80
  -1  -8   4   42.30    5.60
   0   8  -4    3.60    4.20
   0  -8   4    5.30    3.60
   0  -8   4    4.80    3.70
   0  -8   4   -3.20    3.10
   0  -8   4   -1.80    4.30
  -1   8  -4   -2.30    4.00
  -1   8  -4    5.50    4.50
   1  -8   4    0.00    4.60
   1  -8   4    8.00    4.20
  -2   8  -4   17.00    4.60
  -2   8  -4   13.30    5.30
   2  -8   4    6.60    4.40
   2  -8   4   13.20    5.80
  -3   8  -4    8.80    5.40
  -3   8  -4    6.00    4.50
   3  -8   4    4.00    5.30
   3  -8   4   11.50    6.30
  -4   8  -4    7.70    6.30
  -4   8  -4   -4.40    6.40
   4  -8   4   -3.40    5.90
   4  -8   4    1.90    7.80
   7   7  -4   -4.80    6.00
   7   7  -4   -0.60    6.10
  -7  -7   4    0.70    6.10
  -7  -7   4  -10.90    7.50
   6   7  -4    6.80    5.00
   6   7  -4    9.90    5.10
  -6  -7   4  -12.70    6.00
  -6  -7   4    7.50    5.20
   5   7  -4    3.70    4.10
   5   7  -4   -4.10    4.40
   5   7  -4    0.60    4.70
  -5  -7   4    0.90    4.70
  -5  -7   4   -0.60    4.50
  -5  -7   4    1.10    5.10
   4   7  -4    5.90    4.00
   4   7  -4   10.30    4.00
   4   7  -4   11.50    3.70
  -4  -7   4    8.30    3.00
  -4  -7   4   11.20    4.00
  -4  -7   4    8.10    4.10
  -4  -7   4   10.60    3.60
   3   7  -4    6.60    3.00
   3   7  -4   12.00    6.10
   3   7  -4   17.90    4.00
  -3  -7   4    8.20    3.30
  -3  -7   4   12.70    2.70
  -3  -7   4   11.40    3.70
  -3  -7   4    9.00    3.60
  -3  -7   4   15.10    3.30
   2   7  -4    3.70    3.30
   2   7  -4    2.10    3.30
   2   7  -4   -0.30    3.60
  -2  -7   4    4.10    2.60
  -2  -7   4    1.30    3.20
  -2  -7   4   -1.20    2.20
  -2  -7   4   -0.80    3.30
  -2  -7   4   -1.40    1.60
   1   7  -4  129.59    7.70
   1   7  -4  123.09    7.90
  -1  -7   4  124.19    7.30
  -1  -7   4  111.59    7.20
  -1  -7   4  123.19    6.90
  -1  -7   4  127.09    4.40
  -1  -7   4  125.29    4.40
  -1  -7   4  125.79    8.10
   0   7  -4   94.99    7.30
   0   7  -4   96.09    6.30
   0  -7   4   84.29    5.60
   0  -7   4   84.49    5.80
   0  -7   4   84.79    7.50
   0  -7   4   99.39    6.80
  -1   7  -4  163.98    8.80
  -1   7  -4  160.68    8.00
   1  -7   4  177.38    6.90
   1  -7   4  125.49   14.50
   1  -7   4  154.68    9.60
  -2   7  -4    1.90    4.00
  -2   7  -4    2.90    4.70
  -2   7  -4    9.00    3.50
   2  -7   4    5.80    4.00
   2  -7   4    9.10    4.70
  -3   7  -4   -0.80    6.50
  -3   7  -4    2.50    3.70
  -3   7  -4    2.20    5.20
   3  -7   4    8.70    5.00
   3  -7   4    5.90    4.40
  -4   7  -4    9.00    5.80
  -4   7  -4   -0.90    3.90
   4  -7   4   -7.70    5.60
   4  -7   4   -0.30    4.80
  -5   7  -4    6.50    6.40
   5  -7   4   14.40    7.60
   5  -7   4    5.30    5.90
   7   6  -4   -4.80    5.00
   7   6  -4   -1.00    5.20
  -7  -6   4   -5.70    6.90
  -7  -6   4    5.50    5.70
   6   6  -4    7.30    4.90
   6   6  -4    2.50    4.40
  -6  -6   4    1.20    5.30
  -6  -6   4   -1.20    5.40
   5   6  -4   -0.50    3.50
   5   6  -4   -4.80    3.40
   5   6  -4    5.50    4.50
  -5  -6   4    1.80    4.20
  -5  -6   4   -3.30    3.80
  -5  -6   4   -4.40    4.10
   4   6  -4    1.70    3.00
   4   6  -4    0.30    3.40
   4   6  -4   -5.80    3.20
  -4  -6   4   -0.30    3.20
  -4  -6   4   -3.30    3.20
  -4  -6   4    2.80    3.30
   3   6  -4   62.79    5.70
   3   6  -4   51.99    4.60
   3   6  -4   49.40    5.80
   3   6  -4   51.99    4.90
  -3  -6   4   61.39    5.00
  -3  -6   4   64.49    5.20
  -3  -6   4   55.59    5.60
  -3  -6   4   57.79    4.70
   2   6  -4   50.99    5.60
   2   6  -4   62.49    5.10
   2   6  -4   61.19    5.60
  -2  -6   4   56.39    4.50
  -2  -6   4   52.39    5.30
  -2  -6   4   67.99    5.20
  -2  -6   4   53.19    4.30
   1   6  -4   10.30    3.00
   1   6  -4   11.90    3.20
   1   6  -4    9.40    3.10
  -1  -6   4    8.10    3.10
  -1  -6   4    7.90    2.70
  -1  -6   4   12.30    1.70
  -1  -6   4    7.90    1.50
  -1  -6   4    8.70    2.90
  -1  -6   4    9.80    3.30
  -1  -6   4    9.30    1.60
   0   6  -4  153.78    7.80
   0   6  -4  159.78    7.20
   0   6  -4  144.39    7.90
   0  -6   4  154.98    7.50
   0  -6   4  153.48    6.40
   0  -6   4  130.99    7.80
   0  -6   4  155.68    8.20
   0  -6   4  154.68    4.70
   0  -6   4  151.68    6.30
  -1   6  -4   -2.00    2.60
  -1   6  -4   -1.10    2.40
  -1   6  -4   -0.60    3.40
   1  -6   4    3.60    2.50
   1  -6   4   -1.10    3.70
   1  -6   4   -2.70    3.60
   1  -6   4    0.30    2.10
   1  -6   4    2.50    2.20
  -2   6  -4   21.50    4.00
  -2   6  -4   26.50    4.20
  -2   6  -4   26.20    3.50
  -2   6  -4   24.60    4.00
   2  -6   4   25.40    2.60
   2  -6   4   19.30    4.10
   2  -6   4   16.20    4.20
  -3   6  -4   16.10    4.30
  -3   6  -4   18.00    4.00
  -3   6  -4   16.60    3.20
   3  -6   4    9.10    5.80
   3  -6   4   19.90    4.90
  -4   6  -4    9.30    2.80
  -4   6  -4   11.30    3.10
  -4   6  -4   10.70    4.80
   4  -6   4    6.60    5.50
   4  -6   4   13.90    4.60
  -5   6  -4   16.30    5.90
  -5   6  -4    9.00    5.60
   5  -6   4    4.60    6.50
   5  -6   4   11.10    5.50
   8   5  -4   17.20    6.70
   8   5  -4   19.00    5.90
   8   5  -4   19.00    7.00
  -8  -5   4    9.20    8.30
  -8  -5   4    3.10    6.60
   7   5  -4    8.00    4.60
   7   5  -4   10.60    4.90
  -7  -5   4   13.10    5.50
  -7  -5   4  -10.50    6.30
   6   5  -4   -4.60    4.30
   6   5  -4    5.10    4.60
   6   5  -4    1.10    3.60
  -6  -5   4    5.20    4.60
  -6  -5   4   -4.10    5.30
   5   5  -4    2.00    3.40
   5   5  -4   12.70    4.20
   5   5  -4    2.70    3.10
  -5  -5   4   -1.80    4.10
  -5  -5   4    5.50    4.30
   4   5  -4    0.50    3.10
   4   5  -4    2.50    2.60
   4   5  -4    4.40    3.60
   4   5  -4   -1.50    2.80
  -4  -5   4   -5.50    2.60
  -4  -5   4    0.90    3.10
  -4  -5   4   -2.50    2.90
   3   5  -4   34.90    4.30
   3   5  -4   44.90    4.80
   3   5  -4   40.90    4.30
   3   5  -4   41.10    3.60
   3   5  -4   46.90    4.10
  -3  -5   4   41.30    4.10
  -3  -5   4   51.29    5.10
  -3  -5   4   43.10    3.90
   2   5  -4   25.20    3.50
   2   5  -4   22.70    3.60
   2   5  -4   20.10    2.70
   2   5  -4   28.50    4.00
   2   5  -4   31.20    4.00
  -2  -5   4   23.20    2.80
  -2  -5   4   25.00    3.70
  -2  -5   4   23.80    2.90
  -2  -5   4   28.80    3.60
  -2  -5   4   22.30    3.40
   1   5  -4   -2.90    2.10
   1   5  -4   -0.50    2.20
   1   5  -4    0.90    2.20
   1   5  -4    1.20    2.70
  -1  -5   4   -3.40    2.60
  -1  -5   4   -0.30    1.20
  -1  -5   4   -0.40    2.40
  -1  -5   4    1.50    2.10
  -1  -5   4   -1.10    2.00
  -1  -5   4   -1.80    1.20
  -1  -5   4    0.20    2.10
   0   5  -4   49.70    4.50
   0   5  -4   51.29    5.20
   0   5  -4   53.09    4.70
   0   5  -4   62.59    4.50
   0  -5   4   60.19    5.30
   0  -5   4   47.70    4.00
   0  -5   4   60.89    5.20
   0  -5   4   47.70    4.40
   0  -5   4   57.49    4.00
  -1   5  -4   80.89    5.20
  -1   5  -4   91.49    5.40
  -1   5  -4   69.29    6.10
  -1   5  -4   87.29    5.00
   1  -5   4   84.99    3.60
   1  -5   4   87.69    3.80
   1  -5   4   85.09    6.10
   1  -5   4   83.49    6.00
   1  -5   4   93.59    5.60
  -2   5  -4   42.60    4.30
  -2   5  -4   46.30    4.10
  -2   5  -4   43.10    4.30
  -2   5  -4   44.80    4.60
   2  -5   4   36.10    3.40
   2  -5   4   42.20    4.70
   2  -5   4   27.90    4.10
   2  -5   4   36.80    4.40
  -3   5  -4   -1.90    2.80
  -3   5  -4    3.00    3.70
  -3   5  -4   -3.10    2.20
  -3   5  -4   -2.20    2.60
  -3   5  -4    2.40    2.70
   3  -5   4    0.30    2.90
   3  -5   4   -1.10    3.60
   3  -5   4   -5.40    3.50
   3  -5   4   -0.60    2.40
  -4   5  -4    4.80    3.70
  -4   5  -4    0.60    2.30
  -4   5  -4    4.60    2.30
  -4   5  -4    4.30    3.90
  -4   5  -4    9.60    3.20
  -4   5  -4    7.50    3.70
   4  -5   4    3.10    2.90
   4  -5   4    7.00    4.20
   4  -5   4   12.00    4.80
  -5   5  -4   -1.80    4.30
  -5   5  -4    7.70    4.70
  -5   5  -4    4.50    3.50
  -5   5  -4    6.00    2.70
   5  -5   4    4.20    5.30
   5  -5   4   -3.50    4.20
  -6   5  -4   -2.20    6.60
  -6   5  -4   -7.50    5.30
   6  -5   4   -1.80    6.40
   6  -5   4  -11.60    5.70
   8   4  -4    3.70    6.20
   8   4  -4    0.00    4.70
   8   4  -4    2.20    6.20
  -8  -4   4   -3.60    7.70
  -8  -4   4   -6.30    5.90
   7   4  -4   -3.30    4.10
   7   4  -4   -1.00    4.50
   7   4  -4    5.80    4.70
  -7  -4   4   -0.60    5.80
  -7  -4   4    5.20    4.90
   6   4  -4    3.90    3.60
   6   4  -4   -2.90    3.50
   6   4  -4    4.30    3.50
  -6  -4   4    7.70    4.30
  -6  -4   4   -3.40    7.00
   5   4  -4   16.20    3.70
   5   4  -4   15.10    3.50
   5   4  -4   16.80    3.50
  -5  -4   4   13.80    4.30
  -5  -4   4   16.50    3.70
  -5  -4   4   15.10    4.40
   4   4  -4    4.90    3.00
   4   4  -4    4.30    2.60
   4   4  -4    1.90    2.30
   4   4  -4    0.30    2.60
  -4  -4   4    3.30    2.70
  -4  -4   4   -0.50    2.90
   3   4  -4    4.60    1.50
   3   4  -4    5.60    2.70
   3   4  -4    7.10    2.80
   3   4  -4    9.50    2.20
   3   4  -4    8.80    2.70
  -3  -4   4    6.20    2.60
  -3  -4   4   10.60    3.60
  -3  -4   4    1.10    2.20
  -3  -4   4    6.20    2.80
   2   4  -4  165.58    7.30
   2   4  -4  174.68    7.10
   2   4  -4  165.48    7.00
   2   4  -4  168.18    6.00
   2   4  -4  159.78    7.10
   2   4  -4  174.78    6.30
  -2  -4   4  164.98    6.90
  -2  -4   4  165.08    7.20
  -2  -4   4  154.48    6.80
  -2  -4   4  166.48    6.10
  -2  -4   4  162.38    6.30
   1   4  -4  182.38    7.30
   1   4  -4  184.38    7.10
   1   4  -4  183.88    7.40
   1   4  -4  187.68    7.30
  -1  -4   4  179.68    6.80
  -1  -4   4  182.48    7.20
  -1  -4   4  185.08    7.30
  -1  -4   4  183.98    7.10
  -1  -4   4  178.28    6.90
  -1  -4   4  187.58    5.50
   0   4  -4  825.42   22.30
   0   4  -4  815.52   21.60
   0   4  -4  854.41   22.10
   0   4  -4  852.21   21.60
   0  -4   4  844.82   20.40
   0  -4   4  845.02   21.00
   0  -4   4  811.22   21.10
   0  -4   4  828.82   21.90
   0  -4   4  841.42   22.50
   0  -4   4  848.12   22.10
  -1   4  -4  332.37   10.40
  -1   4  -4  316.17   11.30
  -1   4  -4  330.27   10.20
  -1   4  -4  341.67    9.80
  -1   4  -4  337.07   10.00
   1  -4   4  343.67   11.60
   1  -4   4  338.67    8.80
   1  -4   4  323.27    8.90
   1  -4   4  336.27    9.30
   1  -4   4  333.87   10.50
   1  -4   4  320.27   10.80
  -2   4  -4    9.70    3.90
  -2   4  -4    9.70    2.30
  -2   4  -4    7.40    2.70
  -2   4  -4   14.90    3.40
  -2   4  -4   12.80    2.70
  -2   4  -4   10.60    2.50
  -2   4  -4    8.30    2.00
   2  -4   4    6.00    2.50
   2  -4   4    9.40    2.00
   2  -4   4    7.60    2.60
   2  -4   4   11.20    3.10
  -3   4  -4    1.50    2.20
  -3   4  -4    2.30    2.50
  -3   4  -4   -2.20    2.90
  -3   4  -4    2.00    1.50
  -3   4  -4    2.10    2.40
  -3   4  -4    3.20    1.80
   3  -4   4    4.10    2.80
   3  -4   4    3.40    2.80
   3  -4   4    3.90    2.20
   3  -4   4    2.60    3.10
  -4   4  -4   18.80    2.60
  -4   4  -4    8.10    4.30
  -4   4  -4   13.80    3.50
  -4   4  -4   18.70    2.80
  -4   4  -4   17.60    3.90
  -4   4  -4    9.00    3.60
  -4   4  -4   16.10    2.20
   4  -4   4   16.50    3.50
   4  -4   4   21.70    4.80
   4  -4   4   19.40    3.40
  -5   4  -4   12.20    3.70
  -5   4  -4   19.20    4.10
  -5   4  -4   23.90    4.80
  -5   4  -4   12.50    2.70
   5  -4   4   11.50    4.70
   5  -4   4   19.30    4.50
   5  -4   4    9.10    3.70
  -6   4  -4    2.90    4.70
  -6   4  -4    5.80    4.70
  -6   4  -4    2.40    4.40
   6  -4   4    1.80    5.10
   6  -4   4    4.70    5.30
  -7   4  -4    4.40    8.60
   8   3  -4    2.00    5.70
   8   3  -4    6.70    4.70
   8   3  -4    0.90    5.80
  -8  -3   4    9.80    6.30
  -8  -3   4   -6.50    6.70
   7   3  -4    0.20    3.50
   7   3  -4   -1.10    4.40
   7   3  -4   10.00    4.60
  -7  -3   4    1.20    4.90
  -7  -3   4   14.00    6.00
   6   3  -4   12.20    3.70
   6   3  -4   13.20    4.40
   6   3  -4   16.30    3.90
   6   3  -4   16.90    3.40
  -6  -3   4   15.20    4.10
  -6  -3   4   15.40    5.00
   5   3  -4    8.00    2.70
   5   3  -4    0.50    2.70
   5   3  -4    0.80    3.30
   5   3  -4   -0.50    2.50
  -5  -3   4    4.50    3.30
  -5  -3   4    3.80    3.30
   4   3  -4   11.70    2.90
   4   3  -4    8.20    2.30
   4   3  -4    7.70    3.20
   4   3  -4   14.70    2.90
  -4  -3   4    9.10    3.70
  -4  -3   4    9.00    3.00
  -4  -3   4   10.50    3.00
  -4  -3   4   14.00    3.20
   3   3  -4  249.18    8.60
   3   3  -4  235.28    7.00
   3   3  -4  231.68    8.60
   3   3  -4  249.38    9.10
   3   3  -4  242.58    8.30
   3   3  -4  240.48    8.10
  -3  -3   4  237.68    8.60
  -3  -3   4  244.78    9.20
  -3  -3   4  240.68    8.70
  -3  -3   4  230.88    8.70
   2   3  -4  119.19    5.00
   2   3  -4  114.29    4.50
   2   3  -4  104.49    5.40
   2   3  -4  116.89    5.70
  -2  -3   4  115.19    5.50
  -2  -3   4  118.89    5.60
  -2  -3   4  111.39    4.80
  -2  -3   4  123.99    5.60
   1   3  -4  391.76   11.50
   1   3  -4  379.86   11.40
   1   3  -4  390.06   11.60
   1   3  -4  405.96   11.40
  -1  -3   4  381.36   10.20
  -1  -3   4  385.36   11.30
  -1  -3   4  397.26   11.50
  -1  -3   4  383.06   11.20
  -1  -3   4  378.56   11.30
  -1  -3   4  408.36   11.50
   0   3  -4   79.79    4.10
   0   3  -4   72.19    4.20
   0   3  -4   79.09    4.60
   0   3  -4   81.39    4.30
   0  -3   4   82.99    4.20
   0  -3   4   78.69    3.70
   0  -3   4   79.79    4.70
   0  -3   4   78.39    3.30
   0  -3   4   81.39    3.90
  -1   3  -4   35.60    3.80
  -1   3  -4   29.50    2.80
  -1   3  -4   26.60    2.60
  -1   3  -4   29.10    3.20
  -1   3  -4   19.60    2.20
  -1   3  -4   28.30    2.60
   1  -3   4   22.00    2.60
   1  -3   4   23.50    1.90
   1  -3   4   26.40    2.10
   1  -3   4   23.90    2.60
   1  -3   4   20.40    2.90
   1  -3   4   24.40    2.20
  -2   3  -4   18.90    2.30
  -2   3  -4   18.20    2.80
  -2   3  -4   24.30    2.60
  -2   3  -4   14.30    2.80
  -2   3  -4   21.00    2.50
  -2   3  -4   19.40    2.60
  -2   3  -4   22.40    3.60
   2  -3   4   16.20    2.70
   2  -3   4   15.30    2.90
   2  -3   4   17.60    2.20
   2  -3   4   20.30    2.60
  -3   3  -4   18.00    2.00
  -3   3  -4   20.80    4.20
  -3   3  -4   21.50    2.70
  -3   3  -4   18.90    3.60
  -3   3  -4   19.80    2.90
  -3   3  -4   14.40    3.30
  -3   3  -4   19.40    3.10
  -3   3  -4   18.10    3.10
  -3   3  -4   20.30    2.20
  -3   3  -4   17.70    2.00
   3  -3   4   17.70    2.70
   3  -3   4   17.10    3.30
   3  -3   4   16.10    2.60
   3  -3   4   19.10    3.60
  -4   3  -4    3.90    2.90
  -4   3  -4    6.20    2.50
  -4   3  -4    1.20    1.50
  -4   3  -4    0.60    2.00
  -4   3  -4    5.40    3.20
  -4   3  -4   -1.60    3.30
  -4   3  -4    1.90    1.80
   4  -3   4    0.00    3.00
   4  -3   4   -0.70    2.50
   4  -3   4    2.30    2.80
  -5   3  -4    7.20    3.20
  -5   3  -4    2.60    3.50
  -5   3  -4    8.30    3.00
   5  -3   4    3.20    4.10
   5  -3   4    7.20    3.50
   5  -3   4    5.80    3.30
  -6   3  -4    6.40    3.80
  -6   3  -4    6.80    4.10
  -6   3  -4    8.80    4.00
   6  -3   4    2.40    4.80
   6  -3   4   -0.70    4.00
  -7   3  -4    3.30    4.90
  -7   3  -4   -1.10    5.50
  -7   3  -4   -0.90    4.80
   8   2  -4    4.30    6.10
   8   2  -4    3.40    5.80
  -8  -2   4   -4.40    7.00
  -8  -2   4    4.60    5.90
   7   2  -4    0.60    4.60
   7   2  -4    2.90    3.20
   7   2  -4    2.90    4.40
   7   2  -4    7.10    4.70
  -7  -2   4   -0.60    4.40
  -7  -2   4    5.60    5.70
   6   2  -4    4.00    3.90
   6   2  -4    1.20    2.60
   6   2  -4    2.60    3.70
   6   2  -4    0.70    2.00
   6   2  -4    4.30    3.70
  -6  -2   4    2.10    4.30
  -6  -2   4   -1.30    3.30
   5   2  -4   26.20    2.90
   5   2  -4   30.00    4.00
   5   2  -4   32.50    3.60
   5   2  -4   28.50    3.90
  -5  -2   4   24.10    4.00
  -5  -2   4   28.70    4.00
  -5  -2   4   22.20    4.10
   4   2  -4   16.80    2.60
   4   2  -4   15.00    2.30
   4   2  -4   14.20    3.10
   4   2  -4   15.20    2.50
  -4  -2   4   18.00    3.20
  -4  -2   4   22.30    3.70
  -4  -2   4   15.90    2.90
  -4  -2   4   16.50    3.50
  -4  -2   4   14.80    2.80
   3   2  -4   17.40    1.70
   3   2  -4   15.50    2.20
   3   2  -4   21.50    2.90
   3   2  -4   22.50    2.60
   3   2  -4   19.20    2.70
  -3  -2   4   13.40    2.50
  -3  -2   4   17.00    2.80
  -3  -2   4   16.80    2.90
  -3  -2   4   21.90    3.30
   2   2  -4  330.27    9.00
   2   2  -4  307.87    9.90
   2   2  -4  317.87    9.80
  -2  -2   4  321.37    9.50
  -2  -2   4  306.07    9.70
  -2  -2   4  302.27    9.70
  -2  -2   4  327.07   10.00
   1   2  -4   -0.80    1.10
   1   2  -4   -0.80    1.30
   1   2  -4   -1.10    1.20
   1   2  -4    1.20    1.30
   1   2  -4   -0.80    1.50
   1   2  -4    0.80    0.70
  -1  -2   4   -1.30    1.40
  -1  -2   4    1.40    1.10
  -1  -2   4    0.70    1.50
  -1  -2   4    0.20    1.30
  -1  -2   4    0.80    1.10
   0   2  -4  335.07    9.50
   0   2  -4  334.57    9.60
   0   2  -4  337.67   10.20
   0   2  -4  338.47    9.70
   0   2  -4  336.97    8.30
   0  -2   4  342.37    9.40
   0  -2   4  320.97    8.20
   0  -2   4  319.27    9.80
   0  -2   4  338.47    9.30
  -1   2  -4  492.75   12.40
  -1   2  -4  497.85   13.00
  -1   2  -4  489.45   13.10
  -1   2  -4  513.15   13.00
  -1   2  -4  518.05   14.40
  -1   2  -4  502.35   13.80
   1  -2   4  511.15   12.30
   1  -2   4  489.55   12.90
   1  -2   4  471.45   13.70
   1  -2   4  478.15   13.00
   1  -2   4  489.05   12.30
  -2   2  -4  188.58    7.10
  -2   2  -4  188.38    5.70
  -2   2  -4  169.98    5.20
  -2   2  -4  180.78    7.20
  -2   2  -4  182.18    5.80
  -2   2  -4  176.18    5.30
  -2   2  -4  179.98    7.00
  -2   2  -4  183.28    6.30
  -2   2  -4  183.48    5.90
  -2   2  -4  176.68    7.50
   2  -2   4  184.58    6.30
   2  -2   4  182.38    6.00
   2  -2   4  180.88    6.90
   2  -2   4  179.18    7.40
  -3   2  -4 1071.89   27.20
  -3   2  -4 1035.60   24.60
  -3   2  -4 1045.70   25.60
  -3   2  -4 1026.70   25.60
  -3   2  -4 1044.60   26.20
  -3   2  -4 1022.30   26.10
  -3   2  -4 1004.90   27.40
  -3   2  -4 1042.30   24.60
  -3   2  -4 1041.20   26.80
  -3   2  -4 1020.40   27.00
   3  -2   4 1050.59   26.30
   3  -2   4 1026.50   27.50
   3  -2   4 1057.29   26.90
  -4   2  -4  351.36   10.90
  -4   2  -4  386.46   17.60
  -4   2  -4  354.76    9.00
  -4   2  -4  341.57    9.00
  -4   2  -4  343.67   11.90
  -4   2  -4  369.46   11.80
  -4   2  -4  350.56   10.60
  -4   2  -4  377.66   13.60
  -4   2  -4  366.26   12.00
  -4   2  -4  348.07   12.30
   4  -2   4  348.37   12.70
   4  -2   4  365.16   11.60
   4  -2   4  364.86   11.50
   4  -2   4  345.67   11.80
  -5   2  -4  277.87    9.40
  -5   2  -4  267.37   10.20
  -5   2  -4  274.87   10.50
   5  -2   4  275.27   10.30
   5  -2   4  272.37   10.70
   5  -2   4  269.67   11.00
  -6   2  -4    3.40    3.30
  -6   2  -4   -2.90    3.30
  -6   2  -4    4.50    3.90
   6  -2   4    7.00    4.00
   6  -2   4    4.50    3.90
   6  -2   4    0.20    3.80
  -7   2  -4   -3.10    5.30
  -7   2  -4    3.10    4.50
  -7   2  -4   -8.30    4.30
   7  -2   4   -3.40    4.90
   8   1  -4   29.80    6.90
   8   1  -4   33.20    7.50
  -8  -1   4   46.50    8.10
  -8  -1   4   35.30    6.40
   7   1  -4    7.60    2.80
   7   1  -4    5.00    4.40
   7   1  -4    4.80    4.70
  -7  -1   4    6.30    5.20
  -7  -1   4    2.20    5.80
   6   1  -4   -0.60    3.30
   6   1  -4    2.60    3.60
   6   1  -4    1.40    2.40
   6   1  -4    7.30    3.40
  -6  -1   4   -0.70    3.20
  -6  -1   4   -4.70    4.00
   5   1  -4    2.70    3.00
   5   1  -4    6.10    3.10
   5   1  -4    1.70    1.40
   5   1  -4    4.30    2.60
   5   1  -4    4.50    2.00
  -5  -1   4    0.50    2.70
  -5  -1   4    2.80    3.30
  -5  -1   4    4.70    3.20
  -5  -1   4    1.00    3.40
   4   1  -4   -1.20    2.40
   4   1  -4    5.90    2.20
   4   1  -4    3.90    1.50
   4   1  -4    4.50    0.80
   4   1  -4    1.30    1.90
   4   1  -4    5.40    1.00
  -4  -1   4    2.00    2.40
  -4  -1   4    4.70    2.40
  -4  -1   4    3.90    2.60
  -4  -1   4    4.20    2.90
  -4  -1   4    2.50    2.30
   3   1  -4   22.10    3.20
   3   1  -4   21.10    2.50
   3   1  -4   22.20    2.60
   3   1  -4   26.60    3.00
  -3  -1   4   31.30    3.40
  -3  -1   4   25.50    3.10
  -3  -1   4   25.60    2.70
  -3  -1   4   24.30    2.90
  -3  -1   4   20.10    2.70
   2   1  -4  209.48    7.00
   2   1  -4  207.28    6.40
   2   1  -4  214.78    6.40
   2   1  -4  211.48    7.10
   2   1  -4  210.98    7.20
  -2  -1   4  217.98    7.20
  -2  -1   4  219.38    6.40
  -2  -1   4  211.48    7.30
  -2  -1   4  208.88    7.30
  -2  -1   4  213.88    7.30
   1   1  -4   86.19    3.70
   1   1  -4   83.89    3.90
   1   1  -4   82.19    3.80
   1   1  -4   87.19    3.90
   1   1  -4   82.29    2.70
   1   1  -4   91.29    4.20
  -1  -1   4   77.49    4.50
  -1  -1   4   84.89    3.90
  -1  -1   4   86.89    3.80
  -1  -1   4   85.39    4.00
   0   1  -4   -3.50    1.20
   0   1  -4   -1.50    1.30
   0   1  -4   -1.40    1.10
   0   1  -4   -1.20    0.90
   0   1  -4   -3.10    1.00
   0   1  -4   -2.00    1.10
   0  -1   4   -2.30    0.90
   0  -1   4   -2.10    1.40
   0  -1   4   -2.70    0.90
   0  -1   4   -1.30    1.00
   0  -1   4   -3.20    1.00
  -1   1  -4  326.57    8.30
  -1   1  -4  329.07    8.40
  -1   1  -4  302.17    9.90
  -1   1  -4  325.97    9.60
  -1   1  -4  336.87   10.10
  -1   1  -4  342.97    9.10
  -1   1  -4  330.27    9.10
  -1   1  -4  323.67    8.60
   1  -1   4  334.57    8.60
   1  -1   4  339.47    9.80
   1  -1   4  325.27    9.20
   1  -1   4  325.77    8.50
   1  -1   4  321.97    8.60
  -2   1  -4    4.30    1.30
  -2   1  -4    6.20    1.10
  -2   1  -4    5.90    1.90
  -2   1  -4    4.20    1.90
  -2   1  -4    3.80    1.30
  -2   1  -4    5.20    1.30
  -2   1  -4    4.40    1.30
  -2   1  -4    6.50    1.90
  -2   1  -4    5.80    1.90
  -2   1  -4    3.80    1.60
   2  -1   4    4.90    1.50
   2  -1   4    5.40    1.10
   2  -1   4    5.30    1.70
  -3   1  -4  121.59    5.40
  -3   1  -4  113.89    5.60
  -3   1  -4  117.49    5.30
  -3   1  -4  121.69    6.30
  -3   1  -4  122.09    5.80
  -3   1  -4  121.49    3.90
  -3   1  -4  122.99    3.80
  -3   1  -4  122.39    5.90
  -3   1  -4  119.29    4.40
   3  -1   4  120.19    5.10
   3  -1   4  128.99    5.80
   3  -1   4  123.79    5.40
  -4   1  -4    2.10    2.20
  -4   1  -4    3.90    1.10
  -4   1  -4    3.20    3.00
  -4   1  -4    0.40    2.60
  -4   1  -4    2.90    1.60
  -4   1  -4    1.10    2.60
  -4   1  -4    4.30    2.90
  -4   1  -4   -1.60    2.90
  -4   1  -4    0.00    1.10
   4  -1   4    2.10    2.20
   4  -1   4    4.20    2.30
   4  -1   4   -1.70    1.90
  -5   1  -4  217.48    8.80
  -5   1  -4  187.18    9.20
  -5   1  -4  206.48    5.50
  -5   1  -4  202.48    9.50
  -5   1  -4  198.08    5.50
  -5   1  -4  208.18    8.30
  -5   1  -4  205.18    7.50
   5  -1   4  196.08    8.90
   5  -1   4  204.38    8.90
   5  -1   4  211.28    8.90
  -6   1  -4   10.20    2.90
  -6   1  -4    0.60    1.50
  -6   1  -4    4.20    3.50
  -6   1  -4    5.20    3.20
   6  -1   4   -3.30    5.80
   6  -1   4    6.20    3.50
  -7   1  -4   24.30    5.90
  -7   1  -4   37.30    5.10
  -7   1  -4   36.30    4.70
   7  -1   4   35.00    5.90
   7  -1   4   34.40    5.90
  -8   1  -4   15.50    7.10
  -8   1  -4   11.80    5.30
  -8   1  -4   16.90    5.80
   8  -1   4   23.60    6.60
   8   0  -4   11.90    6.20
   8   0  -4   22.80    6.60
  -8   0   4   14.40    7.90
  -8   0   4    4.60    5.90
   7   0  -4    0.40    4.50
   7   0  -4    3.20    2.20
   7   0  -4  -10.50    4.40
  -7   0   4   -1.80    5.10
  -7   0   4    4.30    4.20
   6   0  -4   39.80    5.10
   6   0  -4   39.40    4.00
   6   0  -4   40.90    2.70
   6   0  -4   51.09    5.70
   6   0  -4   53.19    5.20
  -6   0   4   53.29    5.50
  -6   0   4   37.00    5.70
   5   0  -4   90.09    3.50
   5   0  -4   91.79    5.60
   5   0  -4   86.39    4.70
   5   0  -4   92.79    6.00
   5   0  -4   87.69    5.90
  -5   0   4   85.49    6.00
  -5   0   4   90.19    6.90
  -5   0   4   92.49    6.90
  -5   0   4   97.69    5.70
   4   0  -4  443.46   14.30
   4   0  -4  443.36   10.90
   4   0  -4  448.76   13.00
   4   0  -4  452.25   13.40
   4   0  -4  446.26   12.60
   4   0  -4  460.75   11.40
   4   0  -4  444.96   11.00
   4   0  -4  434.36   13.50
  -4   0   4  463.65   13.30
  -4   0   4  453.25   14.40
  -4   0   4  439.36   13.50
  -4   0   4  445.86   13.20
   3   0  -4 2571.74   63.29
   3   0  -4 2673.43   62.39
   3   0  -4 2757.32   61.39
   3   0  -4 2610.24   62.49
   3   0  -4 2641.14   62.59
  -3   0   4 2689.43   62.79
  -3   0   4 2553.84   62.79
  -3   0   4 2704.03   63.59
  -3   0   4 2738.63   62.69
   2   0  -4  427.36   11.80
   2   0  -4  439.56   12.20
   2   0  -4  405.06   11.60
  -2   0   4  408.96   11.70
  -2   0   4  399.16   12.00
  -2   0   4  429.06   11.20
  -2   0   4  425.36   11.80
  -2   0   4  414.36   11.90
   1   0  -4  414.36   10.70
   1   0  -4  440.16   11.90
   1   0  -4  424.56   11.80
   1   0  -4  438.76   11.90
   1   0  -4  452.95   11.80
  -1   0   4  433.36   11.90
  -1   0   4  451.65   11.80
  -1   0   4  450.55   11.40
  -1   0   4  438.86   11.90
  -1   0   4  445.36   10.80
  -1   0   4  444.76   11.90
   0   0  -4    8.90    1.60
   0   0  -4    7.80    1.30
   0   0  -4    4.90    1.40
   0   0  -4    6.30    1.20
   0   0   4    5.80    1.30
   0   0   4    6.90    1.40
   0   0   4    6.30    1.20
   0   0   4    8.40    1.20
  -1   0  -4    3.00    0.60
  -1   0  -4    2.50    1.10
  -1   0  -4    2.10    1.20
  -1   0  -4    2.70    1.50
  -1   0  -4    4.40    1.10
  -1   0  -4    3.00    1.00
   1   0   4    3.70    0.70
   1   0   4    2.30    1.00
   1   0   4    2.70    1.30
   1   0   4    3.20    0.60
   1   0   4    3.10    1.10
   1   0   4    4.80    1.00
   1   0   4    2.90    1.10
  -2   0  -4  364.46   11.00
  -2   0  -4  392.76   11.40
  -2   0  -4  367.06   10.60
  -2   0  -4  372.16   10.50
  -2   0  -4  373.56    9.00
  -2   0  -4  361.36    9.80
  -2   0  -4  380.76    9.70
  -2   0  -4  363.06   10.20
  -2   0  -4  368.96   10.80
  -2   0  -4  379.66   10.00
   2   0   4  394.36   10.80
   2   0   4  370.96   10.00
   2   0   4  381.56   10.90
  -3   0  -4   10.70    1.20
  -3   0  -4    7.20    2.20
  -3   0  -4   10.70    2.40
  -3   0  -4   10.40    2.00
  -3   0  -4    9.10    2.20
  -3   0  -4   10.40    1.40
  -3   0  -4   11.20    2.10
  -3   0  -4    9.20    1.90
  -3   0  -4   11.40    2.20
   3   0   4   10.80    1.90
   3   0   4   12.50    2.30
   3   0   4   11.10    2.20
  -4   0  -4   51.69    4.30
  -4   0  -4   51.39    2.50
  -4   0  -4   50.99    2.60
  -4   0  -4   57.69    5.10
  -4   0  -4   48.00    4.50
  -4   0  -4   53.79    4.10
  -4   0  -4   47.80    4.70
  -4   0  -4   47.20    5.10
  -4   0  -4   56.09    4.40
   4   0   4   53.79    4.20
   4   0   4   51.79    4.40
   4   0   4   47.00    4.40
  -5   0  -4    1.50    2.60
  -5   0  -4    2.30    1.80
  -5   0  -4    4.20    3.60
  -5   0  -4   -1.50    3.20
  -5   0  -4    0.20    1.30
  -5   0  -4    2.10    1.40
  -5   0  -4    0.50    2.80
   5   0   4   -0.20    2.50
   5   0   4    2.40    2.50
  -6   0  -4   10.50    3.10
  -6   0  -4   10.10    2.50
  -6   0  -4   11.40    2.80
  -6   0  -4    8.20    3.80
  -6   0  -4    2.40    4.30
  -6   0  -4    2.90    1.90
   6   0   4   11.50    3.40
   6   0   4    6.70    3.80
   6   0   4    4.50    3.80
  -7   0  -4    3.70    3.60
  -7   0  -4    2.70    5.30
  -7   0  -4    9.30    3.70
  -7   0  -4    2.10    2.30
  -7   0  -4    1.70    4.70
   7   0   4    3.10    4.10
   7   0   4    1.40    4.70
   7   0   4    4.20    4.40
  -8   0  -4    6.40    5.10
  -8   0  -4   -7.60    6.40
  -8   0  -4    7.00    4.90
   8   0   4   -2.80    6.00
   8   0   4   16.60    5.60
   8  -1  -4    4.40    5.60
   8  -1  -4    2.90    6.20
  -8   1   4   16.30    7.30
  -8   1   4   -5.90    5.20
   7  -1  -4    3.30    2.50
   7  -1  -4    7.30    4.40
   7  -1  -4    5.30    4.20
  -7   1   4   -1.90    4.00
  -7   1   4   -4.00    4.80
  -7   1   4    7.70    5.80
   6  -1  -4   37.40    3.80
   6  -1  -4   37.10    3.40
   6  -1  -4   31.20    5.50
   6  -1  -4   40.90    5.20
   6  -1  -4   34.80    3.40
  -6   1   4   39.00    4.50
  -6   1   4   42.90    4.40
   5  -1  -4   -0.70    1.70
   5  -1  -4    2.80    2.40
   5  -1  -4   -1.50    2.80
   5  -1  -4    1.60    1.60
   5  -1  -4   -2.50    2.30
  -5   1   4   -0.10    3.00
  -5   1   4   -1.00    3.80
  -5   1   4   -0.30    2.30
  -5   1   4    3.00    3.30
   4  -1  -4    0.00    2.00
   4  -1  -4    1.70    2.80
   4  -1  -4    0.30    1.20
   4  -1  -4    2.90    1.50
   4  -1  -4   -0.40    1.80
   4  -1  -4    2.00    2.40
  -4   1   4    5.30    2.70
  -4   1   4    2.10    1.90
  -4   1   4    1.80    2.30
  -4   1   4    3.10    2.50
   3  -1  -4  322.47    9.70
   3  -1  -4  318.17    9.60
   3  -1  -4  307.97    9.30
   3  -1  -4  313.37   10.10
   3  -1  -4  310.77    8.00
   3  -1  -4  328.77   10.70
  -3   1   4  324.57   10.00
  -3   1   4  327.97   10.70
  -3   1   4  315.07    9.70
  -3   1   4  325.57    9.80
   2  -1  -4 1709.13   40.00
   2  -1  -4 1694.13   39.20
   2  -1  -4 1707.23   40.20
   2  -1  -4 1601.94   39.70
   2  -1  -4 1711.13   40.90
  -2   1   4 1655.63   40.80
  -2   1   4 1690.43   40.30
  -2   1   4 1630.94   40.50
  -2   1   4 1716.03   40.20
   1  -1  -4    0.50    1.00
   1  -1  -4    2.10    1.30
   1  -1  -4    0.90    1.00
   1  -1  -4    3.20    1.40
  -1   1   4    2.10    1.20
  -1   1   4    0.70    0.90
  -1   1   4    2.20    0.90
  -1   1   4    1.50    0.90
  -1   1   4    1.30    1.30
  -1   1   4    3.00    1.40
   0  -1  -4 2112.59   49.10
   0  -1  -4 2135.49   48.60
   0  -1  -4 2136.19   49.00
   0  -1  -4 2081.19   48.90
   0  -1  -4 2180.08   49.20
   0   1   4 2066.39   48.80
   0   1   4 2118.39   49.10
   0   1   4 1908.31   49.70
   0   1   4 2070.99   48.90
  -1  -1  -4  600.54   15.30
  -1  -1  -4  619.14   15.10
  -1  -1  -4  626.74   15.10
  -1  -1  -4  583.04   15.20
  -1  -1  -4  579.24   15.60
   1   1   4  611.64   14.40
   1   1   4  607.14   15.70
   1   1   4  613.74   15.30
   1   1   4  589.74   15.30
   1   1   4  538.05   13.70
   1   1   4  576.34   15.20
   1   1   4  614.54   14.90
  -2  -1  -4  598.54   14.80
  -2  -1  -4  581.34   15.50
  -2  -1  -4  601.64   15.70
  -2  -1  -4  610.64   14.90
  -2  -1  -4  624.94   15.70
  -2  -1  -4  578.74   15.90
  -2  -1  -4  603.64   14.90
   2   1   4  603.54   14.40
   2   1   4  607.24   14.30
   2   1   4  573.04   15.90
   2   1   4  586.54   15.70
   2   1   4  578.94   15.60
  -3  -1  -4  809.42   20.80
  -3  -1  -4  814.02   21.10
  -3  -1  -4  783.12   20.60
  -3  -1  -4  777.52   20.00
  -3  -1  -4  805.82   20.90
  -3  -1  -4  824.72   20.40
  -3  -1  -4  807.22   18.80
  -3  -1  -4  762.52   20.80
  -3  -1  -4  809.82   19.30
  -3  -1  -4  838.42   19.90
  -3  -1  -4  799.22   18.80
   3   1   4  818.52   20.90
   3   1   4  759.92   20.80
   3   1   4  763.82   20.70
   3   1   4  808.12   20.40
  -4  -1  -4   80.09    4.30
  -4  -1  -4   88.59    4.80
  -4  -1  -4   77.99    5.20
  -4  -1  -4   85.29    5.60
  -4  -1  -4   82.39    3.70
  -4  -1  -4   88.89    5.50
  -4  -1  -4   82.29    3.40
  -4  -1  -4   82.99    3.50
  -4  -1  -4   85.59    5.20
   4   1   4   87.49    5.00
   4   1   4   81.69    5.30
   4   1   4   86.59    5.00
  -5  -1  -4    2.90    3.20
  -5  -1  -4    2.50    2.50
  -5  -1  -4   -1.30    2.90
  -5  -1  -4    0.20    1.40
  -5  -1  -4   -1.90    1.50
  -5  -1  -4   -0.10    2.20
  -5  -1  -4    0.90    2.20
   5   1   4   -3.10    2.50
   5   1   4   -2.30    3.00
   5   1   4    1.20    2.60
  -6  -1  -4   -0.10    3.30
  -6  -1  -4    3.60    2.80
  -6  -1  -4    2.50    3.30
  -6  -1  -4   -0.90    1.80
  -6  -1  -4   -4.90    4.00
  -6  -1  -4   -0.40    2.20
   6   1   4    1.20    2.70
   6   1   4    1.30    3.10
   6   1   4    1.70    3.20
  -7  -1  -4    5.80    3.40
  -7  -1  -4   13.00    2.70
  -7  -1  -4    2.20    5.00
  -7  -1  -4    6.60    3.10
   7   1   4    0.20    4.20
   7   1   4    6.80    3.60
   7   1   4    8.10    4.20
  -8  -1  -4    6.30    4.70
  -8  -1  -4    6.20    4.40
  -8  -1  -4    7.50    6.30
   8   1   4   14.30    4.80
   8   1   4    0.50    5.70
   8   1   4    0.20    5.40
   8  -2  -4    1.00    6.30
   8  -2  -4    0.70    6.90
  -8   2   4   -1.70    5.60
  -8   2   4   -5.00    7.80
   7  -2  -4   -6.90    3.10
   7  -2  -4    3.90    5.10
   7  -2  -4   -1.30    4.60
  -7   2   4    0.10    5.80
  -7   2   4    2.70    4.30
   6  -2  -4   -8.90    5.40
   6  -2  -4    3.00    1.80
   6  -2  -4    2.40    3.30
   6  -2  -4    3.80    1.60
   6  -2  -4    0.40    2.50
  -6   2   4   -0.10    4.50
  -6   2   4    5.20    2.90
  -6   2   4    5.10    3.60
  -6   2   4    5.70    4.50
   5  -2  -4   25.60    2.40
   5  -2  -4   30.70    3.00
   5  -2  -4   24.30    4.30
   5  -2  -4   21.90    3.40
   5  -2  -4   23.70    2.80
  -5   2   4   19.20    3.80
  -5   2   4   21.70    4.20
  -5   2   4   24.90    3.40
  -5   2   4   24.30    2.70
   4  -2  -4   36.50    3.10
   4  -2  -4   40.60    4.70
   4  -2  -4   34.40    3.90
   4  -2  -4   43.80    3.70
   4  -2  -4   41.40    4.40
   4  -2  -4   38.20    3.00
  -4   2   4   39.80    3.80
  -4   2   4   30.90    4.20
  -4   2   4   38.30    3.90
  -4   2   4   44.00    4.90
   3  -2  -4  127.19    3.60
   3  -2  -4  130.99    5.00
   3  -2  -4  136.39    6.10
   3  -2  -4  128.69    6.60
   3  -2  -4  136.59    5.40
  -3   2   4  124.59    5.50
  -3   2   4  126.59    5.50
  -3   2   4  126.19    6.30
  -3   2   4  124.39    5.80
   2  -2  -4   30.20    3.20
   2  -2  -4   29.00    1.80
   2  -2  -4   24.50    2.40
   2  -2  -4   29.80    2.70
   2  -2  -4   35.00    3.20
  -2   2   4   31.40    2.80
  -2   2   4   30.40    2.70
  -2   2   4   26.90    1.90
  -2   2   4   21.00    2.60
  -2   2   4   29.00    1.50
  -2   2   4   27.20    2.70
   1  -2  -4  554.04   14.60
   1  -2  -4  559.74   15.20
   1  -2  -4  555.54   14.80
   1  -2  -4  578.54   14.80
   1  -2  -4  547.35   14.40
  -1   2   4  555.34   14.70
  -1   2   4  581.94   14.40
  -1   2   4  584.64   15.40
  -1   2   4  558.94   13.50
  -1   2   4  578.84   14.40
  -1   2   4  553.94   14.70
   0  -2  -4  483.15   12.90
   0  -2  -4  483.35   12.80
   0  -2  -4  527.55   12.30
   0  -2  -4  488.75   12.90
   0  -2  -4  481.25   13.30
   0   2   4  486.85   12.80
   0   2   4  469.75   13.00
   0   2   4  489.55   12.80
   0   2   4  503.35   13.40
   0   2   4  500.85   12.40
   0   2   4  488.55   12.30
  -1  -2  -4    1.50    1.00
  -1  -2  -4    1.70    1.30
  -1  -2  -4    0.60    1.00
  -1  -2  -4   -1.40    1.10
  -1  -2  -4   -0.20    1.20
   1   2   4    0.00    0.90
   1   2   4   -1.60    1.10
   1   2   4   -0.10    1.10
   1   2   4   -0.40    0.50
   1   2   4    0.40    1.20
   1   2   4   -0.50    0.90
   1   2   4   -0.10    0.90
  -2  -2  -4  183.58    6.30
  -2  -2  -4  182.98    5.70
  -2  -2  -4  171.88    5.00
  -2  -2  -4  187.98    6.30
  -2  -2  -4  173.98    4.50
  -2  -2  -4  185.88    6.50
  -2  -2  -4  191.78    5.80
  -2  -2  -4  184.98    6.40
   2   2   4  185.58    5.50
   2   2   4  179.08    6.50
   2   2   4  175.58    6.20
   2   2   4  186.98    5.90
   2   2   4  191.28    6.40
  -3  -2  -4  142.69    5.90
  -3  -2  -4  144.29    4.80
  -3  -2  -4  136.89    5.70
  -3  -2  -4  141.49    6.00
  -3  -2  -4  130.59    4.30
  -3  -2  -4  142.59    4.80
  -3  -2  -4  132.89    5.60
  -3  -2  -4  138.69    3.90
   3   2   4  126.39    5.60
   3   2   4  132.29    5.60
   3   2   4  136.99    4.10
   3   2   4  126.09    4.10
   3   2   4  133.69    5.30
  -4  -2  -4  315.27    8.90
  -4  -2  -4  308.07    8.80
  -4  -2  -4  315.07   10.60
  -4  -2  -4  319.77    8.70
  -4  -2  -4  333.77   10.60
  -4  -2  -4  320.57    9.00
  -4  -2  -4  313.87   10.60
  -4  -2  -4  316.17   10.20
   4   2   4  319.17   10.40
   4   2   4  322.17   10.50
   4   2   4  308.57   10.50
  -5  -2  -4   31.50    4.00
  -5  -2  -4   38.30    3.90
  -5  -2  -4   34.50    3.80
  -5  -2  -4   31.60    2.90
  -5  -2  -4   29.60    3.00
  -5  -2  -4   30.60    2.90
   5   2   4   25.80    3.80
   5   2   4   36.20    4.20
   5   2   4   38.10    4.30
   5   2   4   35.30    3.20
  -6  -2  -4   50.39    5.40
  -6  -2  -4   59.19    5.30
  -6  -2  -4   55.59    4.30
  -6  -2  -4   50.59    4.40
  -6  -2  -4   45.50    4.40
  -6  -2  -4   56.29    5.30
   6   2   4   56.09    4.70
   6   2   4   67.29    6.20
   6   2   4   53.99    5.50
   6   2   4   40.20    4.80
  -7  -2  -4    6.90    4.60
  -7  -2  -4    5.30    3.00
  -7  -2  -4    5.80    3.60
  -7  -2  -4    7.80    3.70
   7   2   4    1.40    4.30
   7   2   4    7.10    3.30
   7   2   4    1.20    4.50
  -8  -2  -4    6.10    6.10
  -8  -2  -4   -5.50    4.20
  -8  -2  -4    9.90    4.00
   8   2   4   -7.80    5.10
   8   2   4   -3.70    5.40
   8   2   4    8.80    4.60
   8  -3  -4    4.90    7.20
  -8   3   4    0.50    5.80
  -8   3   4    7.90    8.30
  -8   3   4    8.10    6.70
   7  -3  -4    6.00    4.00
   7  -3  -4    7.90    6.30
  -7   3   4    9.20    4.70
  -7   3   4    9.20    6.30
   6  -3  -4    9.40    3.20
   6  -3  -4   11.40    4.60
  -6   3   4   16.20    3.90
  -6   3   4    8.20    3.00
  -6   3   4   17.90    5.50
   5  -3  -4    5.00    3.60
   5  -3  -4   11.20    2.40
   5  -3  -4   13.50    2.80
  -5   3   4    7.50    4.20
  -5   3   4    9.50    2.20
  -5   3   4    8.90    2.80
  -5   3   4    8.20    3.70
   4  -3  -4   14.20    2.30
   4  -3  -4   17.70    4.40
   4  -3  -4   17.00    2.10
   4  -3  -4   12.00    2.80
   4  -3  -4   16.20    2.50
  -4   3   4   15.00    3.60
  -4   3   4   14.10    2.60
  -4   3   4   15.80    3.10
  -4   3   4   10.60    3.30
  -4   3   4   13.90    1.50
   3  -3  -4    4.20    2.10
   3  -3  -4    1.50    1.00
   3  -3  -4    3.70    2.20
   3  -3  -4    2.20    2.70
   3  -3  -4    4.00    1.70
   3  -3  -4    2.40    1.60
  -3   3   4    2.90    2.30
  -3   3   4    3.10    1.90
  -3   3   4    3.00    1.10
  -3   3   4    4.10    2.30
  -3   3   4    3.90    1.80
   2  -3  -4   67.39    4.40
   2  -3  -4   69.49    4.00
   2  -3  -4   65.09    4.00
   2  -3  -4   64.79    2.90
   2  -3  -4   66.59    3.40
  -2   3   4   63.49    3.60
  -2   3   4   64.99    2.90
  -2   3   4   67.09    3.70
  -2   3   4   66.29    4.50
  -2   3   4   62.89    3.90
   1  -3  -4   98.59    3.90
   1  -3  -4  104.29    4.10
   1  -3  -4   97.29    2.70
   1  -3  -4  105.79    4.30
   1  -3  -4   97.89    5.00
   1  -3  -4  102.89    4.50
  -1   3   4   99.49    4.00
  -1   3   4  100.19    4.80
  -1   3   4  100.19    4.30
  -1   3   4  107.39    4.30
  -1   3   4   90.59    4.10
   0  -3  -4  650.93   15.50
   0  -3  -4  635.74   16.40
   0  -3  -4  613.44   16.30
   0  -3  -4  655.53   17.10
   0  -3  -4  644.14   15.90
   0  -3  -4  635.24   16.50
   0   3   4  648.14   16.40
   0   3   4  615.54   16.30
   0   3   4  638.44   17.00
   0   3   4  650.93   16.20
   0   3   4  640.94   16.40
  -1  -3  -4  302.47    7.90
  -1  -3  -4  299.77    9.40
  -1  -3  -4  295.57    9.10
  -1  -3  -4  311.77    8.90
  -1  -3  -4  319.37    8.70
  -1  -3  -4  311.07    8.30
  -1  -3  -4  317.47    9.00
   1   3   4  318.37    8.90
   1   3   4  309.87    9.50
   1   3   4  311.37    9.20
   1   3   4  314.77    8.30
   1   3   4  307.77    8.90
   1   3   4  325.87    8.90
  -2  -3  -4   16.00    1.80
  -2  -3  -4   12.00    1.80
  -2  -3  -4   13.30    1.60
  -2  -3  -4   18.00    2.00
  -2  -3  -4   13.90    2.30
  -2  -3  -4   20.70    2.30
   2   3   4   19.20    2.00
   2   3   4   21.10    2.50
   2   3   4   13.80    1.70
   2   3   4   19.30    2.00
   2   3   4   17.70    1.60
  -3  -3  -4  104.19    4.40
  -3  -3  -4  104.59    5.00
  -3  -3  -4   99.99    5.40
  -3  -3  -4   99.29    3.60
  -3  -3  -4  100.49    4.30
  -3  -3  -4  105.99    4.90
  -3  -3  -4  103.49    4.90
   3   3   4   96.79    5.00
   3   3   4  102.29    4.70
   3   3   4  101.79    3.70
   3   3   4  102.99    4.80
   3   3   4  104.29    3.90
  -4  -3  -4   60.89    3.30
  -4  -3  -4   60.79    4.00
  -4  -3  -4   66.39    3.60
  -4  -3  -4   66.29    5.40
  -4  -3  -4   69.39    4.30
  -4  -3  -4   65.29    4.80
   4   3   4   67.99    4.50
   4   3   4   63.49    4.40
   4   3   4   67.69    3.00
   4   3   4   63.99    3.00
   4   3   4   65.39    4.70
  -5  -3  -4    1.80    2.00
  -5  -3  -4   -0.20    2.30
  -5  -3  -4    2.30    2.20
  -5  -3  -4    1.30    1.90
  -5  -3  -4   -1.00    2.80
   5   3   4    2.60    1.40
   5   3   4    1.60    3.00
   5   3   4   -1.50    2.40
   5   3   4    0.70    2.50
  -6  -3  -4    5.40    2.70
  -6  -3  -4    6.50    3.10
  -6  -3  -4   12.90    4.00
  -6  -3  -4   17.10    3.40
  -6  -3  -4    3.30    2.90
   6   3   4   16.90    4.40
   6   3   4    7.70    3.40
   6   3   4   11.10    2.40
   6   3   4    5.10    3.20
  -7  -3  -4    4.90    3.40
  -7  -3  -4    3.10    4.50
  -7  -3  -4   -0.10    3.80
  -7  -3  -4    4.50    3.40
  -7  -3  -4    2.70    5.20
   7   3   4    0.60    3.90
   7   3   4    6.10    2.90
   7   3   4   11.80    4.80
  -8  -3  -4   -1.40    4.70
  -8  -3  -4    8.70    4.20
   8   3   4   -6.00    5.30
   8   3   4   -2.90    5.60
   8   3   4   -0.50    3.80
   7  -4  -4    1.30    4.40
   7  -4  -4    2.10    6.70
  -7   4   4   -5.40    5.20
  -7   4   4    8.00    4.80
  -7   4   4    5.90    6.60
   6  -4  -4   25.20    4.30
   6  -4  -4   22.70    5.80
  -6   4   4   40.10    6.70
  -6   4   4   22.60    5.30
  -6   4   4   31.20    4.60
   5  -4  -4    4.40    2.90
   5  -4  -4   -2.60    3.50
  -5   4   4    1.70    3.80
  -5   4   4   -0.30    1.60
  -5   4   4   -1.10    3.30
  -5   4   4   -3.70    4.00
  -5   4   4    0.00    2.80
   4  -4  -4   21.10    2.70
   4  -4  -4   23.70    4.10
   4  -4  -4   17.30    2.10
   4  -4  -4   19.30    2.90
  -4   4   4   13.90    3.30
  -4   4   4   23.90    4.10
  -4   4   4   23.20    3.80
  -4   4   4   20.20    1.80
  -4   4   4   13.80    3.00
   3  -4  -4  121.39    4.80
   3  -4  -4  118.89    6.20
   3  -4  -4  112.59    4.20
   3  -4  -4  119.29    5.50
   3  -4  -4  111.09    7.20
   3  -4  -4  121.69    5.80
  -3   4   4  124.49    6.50
  -3   4   4  122.29    6.60
  -3   4   4  124.59    5.50
  -3   4   4  109.29    4.10
  -3   4   4  121.19    5.70
  -3   4   4  114.19    6.70
  -3   4   4  120.79    6.20
   2  -4  -4  126.69    5.60
   2  -4  -4  125.39    4.50
   2  -4  -4  119.19    4.80
   2  -4  -4  113.59    6.30
   2  -4  -4  115.39    5.30
  -2   4   4  121.79    5.70
  -2   4   4  124.59    6.20
  -2   4   4  124.29    5.60
  -2   4   4  114.99    4.90
  -2   4   4  114.99    5.10
  -2   4   4  121.19    5.70
  -2   4   4  120.69    5.10
   1  -4  -4  132.29    5.50
   1  -4  -4  139.89    5.10
   1  -4  -4  133.29    5.40
   1  -4  -4  144.29    6.40
   1  -4  -4  137.19    5.10
  -1   4   4  140.69    5.40
  -1   4   4  145.89    5.50
  -1   4   4  139.89    5.00
  -1   4   4  137.59    5.60
  -1   4   4  138.89    6.20
  -1   4   4  136.59    5.30
   0  -4  -4  964.00   22.70
   0  -4  -4  951.60   23.80
   0  -4  -4  979.30   23.90
   0  -4  -4  966.30   23.80
   0  -4  -4  973.40   23.40
   0  -4  -4  958.30   24.70
   0  -4  -4  951.80   23.80
   0   4   4  954.30   23.80
   0   4   4  980.80   24.80
   0   4   4  967.60   23.40
   0   4   4  911.61   23.70
   0   4   4  922.01   23.80
   0   4   4  972.50   23.90
  -1  -4  -4  426.96   12.00
  -1  -4  -4  449.36   12.90
  -1  -4  -4  401.06   12.10
  -1  -4  -4  446.06   11.00
  -1  -4  -4  450.65   12.40
  -1  -4  -4  463.35   12.30
   1   4   4  435.36   12.90
   1   4   4  445.56   12.10
   1   4   4  444.66   11.80
   1   4   4  453.65   12.50
   1   4   4  444.96   12.10
   1   4   4  439.96   12.00
  -2  -4  -4   16.70    2.00
  -2  -4  -4    9.90    1.90
  -2  -4  -4   16.60    2.50
  -2  -4  -4   14.70    1.70
  -2  -4  -4   12.90    2.50
  -2  -4  -4   11.30    1.90
   2   4   4   15.10    1.70
   2   4   4   12.50    1.90
   2   4   4   13.20    2.50
   2   4   4   11.90    2.10
   2   4   4   14.90    2.30
   2   4   4   15.40    1.90
  -3  -4  -4   11.80    2.30
  -3  -4  -4   10.70    2.40
  -3  -4  -4   16.00    2.20
  -3  -4  -4   13.40    1.90
  -3  -4  -4   10.30    2.80
  -3  -4  -4    9.60    2.20
  -3  -4  -4   12.50    2.00
   3   4   4   15.80    2.10
   3   4   4   18.70    2.90
   3   4   4   11.70    1.70
   3   4   4   14.20    2.00
   3   4   4   10.20    1.90
  -4  -4  -4  178.68    7.60
  -4  -4  -4  197.58    7.00
  -4  -4  -4  192.78    7.60
  -4  -4  -4  181.78    6.40
  -4  -4  -4  179.88    6.90
  -4  -4  -4  176.78    7.50
   4   4   4  182.68    6.30
   4   4   4  188.38    6.30
   4   4   4  191.98    7.60
   4   4   4  188.58    7.60
   4   4   4  197.68    7.80
   4   4   4  193.98    6.50
  -5  -4  -4   38.10    3.50
  -5  -4  -4   39.10    4.30
  -5  -4  -4   38.00    3.80
  -5  -4  -4   47.30    4.10
   5   4   4   35.20    4.00
   5   4   4   30.80    4.00
   5   4   4   35.40    3.10
   5   4   4   35.40    3.50
   5   4   4   46.10    4.60
  -6  -4  -4    5.60    3.50
  -6  -4  -4    5.50    3.10
  -6  -4  -4    4.50    3.90
  -6  -4  -4    7.00    3.50
  -6  -4  -4    8.00    2.90
   6   4   4    8.70    3.70
   6   4   4    9.40    3.40
   6   4   4    6.40    2.00
  -7  -4  -4    0.40    4.90
  -7  -4  -4    1.20    3.90
  -7  -4  -4   -4.80    5.40
  -7  -4  -4    2.50    4.50
  -7  -4  -4    0.60    3.30
   7   4   4    4.50    2.60
   7   4   4   -3.20    4.40
   7   4   4   -1.30    4.20
  -8  -4  -4    5.30    4.60
  -8  -4  -4   11.40    4.90
   8   4   4   -2.70    5.90
   8   4   4    6.10    5.70
   7  -5  -4    0.90    5.50
   7  -5  -4    3.40    6.00
  -7   5   4   15.70    6.60
  -7   5   4    6.50    7.40
   6  -5  -4   10.60    4.30
   6  -5  -4    2.70    5.30
  -6   5   4   -3.60    5.80
  -6   5   4   -0.20    4.60
  -6   5   4    8.50    4.00
   5  -5  -4    0.50    3.40
   5  -5  -4    2.50    4.30
  -5   5   4    1.70    3.00
  -5   5   4    1.20    3.70
  -5   5   4   -0.10    4.20
   4  -5  -4    1.20    2.60
   4  -5  -4    0.50    2.30
   4  -5  -4    2.10    1.70
   4  -5  -4    1.80    3.10
  -4   5   4    0.80    1.60
  -4   5   4   -3.30    2.20
  -4   5   4    2.80    2.70
  -4   5   4    3.10    3.20
  -4   5   4    5.60    3.90
   3  -5  -4   34.70    4.20
   3  -5  -4   28.40    3.20
   3  -5  -4   29.20    3.60
   3  -5  -4   29.70    5.00
   3  -5  -4   36.80    3.20
   3  -5  -4   31.60    3.30
  -3   5   4   26.60    4.00
  -3   5   4   23.90    3.50
  -3   5   4   27.10    3.90
  -3   5   4   29.80    3.10
  -3   5   4   25.70    3.90
  -3   5   4   32.90    3.00
  -3   5   4   29.80    3.60
   2  -5  -4    0.10    1.80
   2  -5  -4    0.70    1.70
   2  -5  -4    2.70    1.60
   2  -5  -4    0.80    1.80
   2  -5  -4   -2.20    2.20
   2  -5  -4    4.90    3.00
  -2   5   4    1.00    2.00
  -2   5   4    1.40    2.20
  -2   5   4    2.10    2.40
  -2   5   4    0.70    1.70
  -2   5   4    1.60    1.60
  -2   5   4    1.10    2.50
   1  -5  -4   76.09    4.00
   1  -5  -4   71.69    4.00
   1  -5  -4   83.29    2.60
   1  -5  -4   81.89    4.60
   1  -5  -4   75.59    4.30
   1  -5  -4   73.99    5.20
  -1   5   4   81.19    4.10
  -1   5   4   82.39    4.60
  -1   5   4   83.59    4.50
  -1   5   4   79.19    4.30
  -1   5   4   84.19    4.20
  -1   5   4   78.29    5.20
   0  -5  -4  408.46   11.90
   0  -5  -4  400.16   11.10
   0  -5  -4  406.96   11.50
   0  -5  -4  402.26   11.60
   0  -5  -4  398.96   11.60
   0  -5  -4  386.86   12.40
   0   5   4  375.56   11.50
   0   5   4  400.46   11.10
   0   5   4  407.26   11.60
   0   5   4  421.36   11.80
   0   5   4  401.86   12.40
   0   5   4  410.16   11.60
  -1  -5  -4  110.89    5.10
  -1  -5  -4  105.59    4.90
  -1  -5  -4  107.59    5.70
  -1  -5  -4  107.59    5.00
  -1  -5  -4  105.19    3.90
   1   5   4  104.29    4.40
   1   5   4  108.29    5.40
   1   5   4  106.89    3.70
   1   5   4  104.39    4.70
   1   5   4  111.49    4.90
   1   5   4  109.09    4.70
   1   5   4  111.69    5.10
  -2  -5  -4    0.20    2.40
  -2  -5  -4   -0.80    1.90
  -2  -5  -4    3.30    1.90
  -2  -5  -4   -0.30    1.60
  -2  -5  -4    1.00    1.50
   2   5   4    0.80    1.40
   2   5   4    0.50    1.30
   2   5   4   -0.70    1.80
   2   5   4    2.70    1.70
   2   5   4    0.80    1.90
   2   5   4    1.00    1.50
  -3  -5  -4   79.59    4.30
  -3  -5  -4   80.29    4.50
  -3  -5  -4   74.29    4.80
  -3  -5  -4   86.99    5.70
  -3  -5  -4   79.39    4.70
  -3  -5  -4   74.29    4.80
   3   5   4   78.79    4.30
   3   5   4   82.09    5.10
   3   5   4   74.69    4.40
   3   5   4   74.69    4.20
   3   5   4   79.79    4.10
  -4  -5  -4   32.40    3.90
  -4  -5  -4   22.90    2.80
  -4  -5  -4   31.30    4.40
  -4  -5  -4   18.00    3.50
  -4  -5  -4   23.10    3.40
  -4  -5  -4   21.40    2.90
  -4  -5  -4   22.10    3.50
   4   5   4   26.40    2.80
   4   5   4   19.50    3.70
   4   5   4   19.20    3.00
   4   5   4   25.20    2.80
   4   5   4   21.10    2.80
   4   5   4   18.10    2.90
  -5  -5  -4    9.30    2.60
  -5  -5  -4    7.00    3.30
  -5  -5  -4    7.20    3.00
  -5  -5  -4   10.70    3.10
   5   5   4   10.30    2.50
   5   5   4    6.50    3.10
   5   5   4   11.40    2.40
   5   5   4    7.40    3.30
  -6  -5  -4   63.49    6.30
  -6  -5  -4   65.09    6.40
  -6  -5  -4   64.89    5.90
   6   5   4   64.79    3.40
   6   5   4   63.39    6.90
   6   5   4   64.69    6.70
   6   5   4   69.39    4.30
  -7  -5  -4    8.70    4.40
  -7  -5  -4   -1.00    5.10
  -7  -5  -4    4.10    5.00
  -7  -5  -4    2.90    4.00
   7   5   4    8.80    2.50
   7   5   4   15.40    4.80
   7   5   4   11.60    5.00
  -8  -5  -4    6.00    4.90
  -8  -5  -4   -8.10    4.90
   8   5   4   -5.80    6.00
   8   5   4   -4.10    5.40
   6  -6  -4    5.10    5.00
   6  -6  -4   11.30    6.20
  -6   6   4   11.00    4.30
  -6   6   4   19.10    7.10
  -6   6   4    9.50    6.10
   5  -6  -4    4.00    4.10
   5  -6  -4   12.50    5.00
  -5   6   4    8.30    5.60
  -5   6   4    5.90    3.40
  -5   6   4   12.00    5.40
   4  -6  -4   19.90    4.40
   4  -6  -4   23.20    4.00
   4  -6  -4   29.60    3.70
  -4   6   4   13.10    4.20
  -4   6   4   24.00    3.80
  -4   6   4   18.00    4.70
  -4   6   4   22.70    2.90
  -4   6   4   31.70    8.40
   3  -6  -4   18.70    2.60
   3  -6  -4   12.60    3.30
   3  -6  -4   17.80    3.30
   3  -6  -4   16.70    3.30
  -3   6   4   16.60    2.80
  -3   6   4   17.60    4.00
  -3   6   4   14.50    2.80
  -3   6   4   11.90    3.50
  -3   6   4   19.20    3.80
   2  -6  -4    0.00    1.90
   2  -6  -4   -4.40    2.50
   2  -6  -4    0.40    2.10
   2  -6  -4   -0.50    2.30
   2  -6  -4   -1.80    3.30
   2  -6  -4   -0.90    2.20
  -2   6   4    2.10    2.30
  -2   6   4   -1.80    1.90
  -2   6   4    4.50    2.20
  -2   6   4    3.20    2.80
  -2   6   4    1.00    2.50
  -2   6   4    2.20    2.70
   1  -6  -4   -0.90    2.90
   1  -6  -4    2.50    1.80
   1  -6  -4    2.10    2.60
   1  -6  -4   -2.60    2.50
   1  -6  -4   -3.20    1.90
   1  -6  -4    2.50    1.80
  -1   6   4    1.30    2.10
  -1   6   4    1.90    2.00
  -1   6   4    1.90    2.50
  -1   6   4    2.40    2.00
  -1   6   4    4.50    2.00
  -1   6   4    1.70    2.30
   0  -6  -4   17.50    2.40
   0  -6  -4   16.50    2.70
   0  -6  -4   18.20    3.10
   0  -6  -4   18.20    2.50
   0  -6  -4   18.70    3.30
   0  -6  -4   17.60    3.00
   0   6   4   17.90    3.00
   0   6   4   25.10    3.10
   0   6   4   14.80    2.30
   0   6   4   21.70    2.80
   0   6   4   19.50    2.50
   0   6   4   20.80    2.90
  -1  -6  -4  642.14   17.50
  -1  -6  -4  638.94   17.30
  -1  -6  -4  621.54   17.50
  -1  -6  -4  628.64   17.20
  -1  -6  -4  647.84   16.20
  -1  -6  -4  646.64   18.30
   1   6   4  648.94   17.50
   1   6   4  634.44   17.40
   1   6   4  638.84   17.30
   1   6   4  637.24   16.10
   1   6   4  627.54   17.30
   1   6   4  636.04   16.60
   1   6   4  621.14   18.10
  -2  -6  -4  649.64   17.40
  -2  -6  -4  657.43   17.50
  -2  -6  -4  653.73   17.60
  -2  -6  -4  623.14   17.80
  -2  -6  -4  645.74   18.50
   2   6   4  639.54   17.30
   2   6   4  626.84   18.30
   2   6   4  621.64   17.30
   2   6   4  641.14   17.30
   2   6   4  627.34   16.80
   2   6   4  625.24   17.80
   2   6   4  643.54   15.50
  -3  -6  -4 1185.48   29.10
  -3  -6  -4 1133.19   28.50
  -3  -6  -4 1125.19   30.30
  -3  -6  -4 1121.49   28.90
  -3  -6  -4 1126.39   29.50
   3   6   4 1118.79   29.40
   3   6   4 1157.78   28.80
   3   6   4 1140.29   28.60
   3   6   4 1119.49   28.60
   3   6   4 1125.99   28.60
  -4  -6  -4  200.98    8.40
  -4  -6  -4  208.38    8.20
  -4  -6  -4  216.38    8.70
  -4  -6  -4  206.48    8.80
  -4  -6  -4  216.18    8.30
   4   6   4  227.38    8.40
   4   6   4  213.18    8.10
   4   6   4  208.98    7.90
   4   6   4  206.58    7.90
  -5  -6  -4   66.69    6.00
  -5  -6  -4   69.19    5.80
  -5  -6  -4   69.39    6.00
   5   6   4   77.19    5.40
   5   6   4   67.49    5.10
   5   6   4   74.19    5.50
   5   6   4   70.39    6.00
   5   6   4   76.99    6.00
  -6  -6  -4    3.40    4.20
  -6  -6  -4    2.10    3.40
  -6  -6  -4   -5.90    3.00
   6   6   4    1.10    3.70
   6   6   4    2.60    3.10
   6   6   4    4.30    3.50
   6   6   4   -4.10    2.60
  -7  -6  -4    5.40    7.20
  -7  -6  -4   -0.40    4.70
  -7  -6  -4    1.30    4.30
   7   6   4    2.80    4.80
   7   6   4    6.70    5.00
   7   6   4    1.30    2.70
  -8  -6  -4   -8.00    5.20
  -8  -6  -4   -0.30    5.40
   8   6   4   -5.90    5.60
   8   6   4   -3.10    5.60
   6  -7  -4   -6.10    6.30
   6  -7  -4   12.10    6.00
  -6   7   4   -6.40    6.60
  -6   7   4   -3.80    4.80
  -6   7   4   -3.80    7.00
   5  -7  -4    8.30    5.70
   5  -7  -4   12.90    5.10
  -5   7   4    8.80    4.10
  -5   7   4   24.30    6.30
  -5   7   4   14.40    5.40
   4  -7  -4    0.10    3.50
   4  -7  -4    3.50    2.60
   4  -7  -4   -2.40    4.10
   4  -7  -4    2.30    2.10
  -4   7   4    1.70    4.00
  -4   7   4    0.20    4.80
  -4   7   4   -6.10    3.20
  -4   7   4   -0.30    3.00
   3  -7  -4    0.80    3.40
   3  -7  -4    6.40    2.90
   3  -7  -4    4.70    2.50
   3  -7  -4    6.80    3.50
  -3   7   4    8.70    4.10
  -3   7   4    9.80    3.00
  -3   7   4    2.30    3.70
  -3   7   4   14.70    3.00
   2  -7  -4   60.69    2.50
   2  -7  -4   56.09    5.50
   2  -7  -4   65.09    5.60
   2  -7  -4   53.29    4.70
   2  -7  -4   61.49    5.70
   2  -7  -4   65.59    5.00
  -2   7   4   68.29    5.00
  -2   7   4   55.09    6.10
  -2   7   4   55.59    5.60
  -2   7   4   67.59    5.90
  -2   7   4   70.19    5.20
   1  -7  -4   -0.80    3.00
   1  -7  -4   -0.90    2.40
   1  -7  -4    6.90    3.50
   1  -7  -4   -1.70    2.10
   1  -7  -4    1.80    4.30
   1  -7  -4    3.60    2.20
   1  -7  -4    3.70    2.30
  -1   7   4    1.10    2.80
  -1   7   4    4.00    2.30
  -1   7   4    2.30    2.70
  -1   7   4    3.80    2.70
  -1   7   4   -1.60    2.70
  -1   7   4    2.40    2.30
   0  -7  -4   -0.10    2.90
   0  -7  -4   -0.30    3.30
   0  -7  -4   -1.50    3.20
   0  -7  -4    0.70    2.20
   0  -7  -4    1.20    2.10
   0  -7  -4    0.50    2.00
   0   7   4    2.50    2.10
   0   7   4   -0.10    2.30
   0   7   4    5.80    2.30
   0   7   4    3.70    2.60
   0   7   4    4.90    2.70
   0   7   4    0.80    2.60
  -1  -7  -4   15.00    3.10
  -1  -7  -4   16.60    3.30
  -1  -7  -4   14.40    3.50
  -1  -7  -4    9.00    3.40
  -1  -7  -4   18.20    2.90
   1   7   4   17.30    2.40
   1   7   4   16.20    2.90
   1   7   4   13.40    2.80
   1   7   4   14.40    2.80
   1   7   4   17.40    2.20
   1   7   4   15.80    3.30
   1   7   4   14.20    2.80
  -2  -7  -4   45.30    4.90
  -2  -7  -4   38.90    4.30
  -2  -7  -4   32.30    4.10
  -2  -7  -4   36.90    4.80
  -2  -7  -4   29.60    3.30
   2   7   4   41.20    2.80
   2   7   4   34.70    4.00
   2   7   4   37.80    3.90
   2   7   4   36.70    4.10
   2   7   4   33.30    3.80
   2   7   4   42.10    4.70
   2   7   4   45.00    3.50
  -3  -7  -4    9.90    3.10
  -3  -7  -4    7.20    3.20
  -3  -7  -4   11.00    2.80
   3   7   4    7.20    3.00
   3   7   4    7.00    2.40
   3   7   4    8.50    2.60
   3   7   4    8.80    1.30
   3   7   4    6.70    2.20
  -4  -7  -4  136.59    7.40
  -4  -7  -4  131.79    7.40
  -4  -7  -4  134.49    7.40
  -4  -7  -4  134.29    7.00
   4   7   4  138.19    7.20
   4   7   4  133.59    6.80
   4   7   4  121.19    7.00
   4   7   4  141.19    6.90
  -5  -7  -4   10.20    3.50
  -5  -7  -4    3.40    3.30
  -5  -7  -4    9.10    4.00
   5   7   4   -0.50    3.30
   5   7   4    8.20    3.20
   5   7   4   12.40    3.40
   5   7   4    6.70    3.70
   5   7   4    3.90    3.00
  -6  -7  -4    1.60    3.90
  -6  -7  -4    5.10    4.40
   6   7   4    1.20    3.20
   6   7   4   -4.60    3.50
   6   7   4    4.00    3.50
   6   7   4    1.40    4.20
   6   7   4    9.30    4.10
  -7  -7  -4   32.80    5.90
  -7  -7  -4   44.70    6.00
   7   7   4   34.40    6.10
   7   7   4   37.10    6.80
   7   7   4   33.30    4.50
  -8  -7  -4    0.30    6.30
  -8  -7  -4   11.10    6.40
   8   7   4    2.20    6.20
   8   7   4   -7.70    5.50
   5  -8  -4    4.50    5.30
   5  -8  -4    1.50    6.10
  -5   8   4   -2.20    6.30
  -5   8   4   -0.10    4.50
  -5   8   4    1.90    6.30
   4  -8  -4  174.08   10.50
   4  -8  -4  156.98   10.50
  -4   8   4  154.38    8.50
  -4   8   4  149.99   11.50
  -4   8   4  159.18   11.00
   3  -8  -4    1.50    2.60
   3  -8  -4    3.20    3.80
   3  -8  -4   -2.40    4.00
   3  -8  -4   -5.40    3.80
  -3   8   4    3.90    4.30
  -3   8   4   -2.10    4.10
  -3   8   4    0.20    3.00
  -3   8   4    5.50    3.80
   2  -8  -4  189.98    9.50
   2  -8  -4  198.18    8.90
   2  -8  -4  191.68    5.90
   2  -8  -4  193.28    8.60
   2  -8  -4  186.18   10.50
   2  -8  -4  194.18    7.90
  -2   8   4  190.98    8.80
  -2   8   4  208.48    9.90
  -2   8   4  196.28   13.50
  -2   8   4  193.48    8.40
   1  -8  -4    5.90    3.30
   1  -8  -4    9.60    3.10
   1  -8  -4   11.00    3.80
   1  -8  -4   12.00    3.20
   1  -8  -4    7.00    3.00
   1  -8  -4   11.30    2.00
  -1   8   4   10.90    3.60
  -1   8   4   12.40    3.50
  -1   8   4    7.90    2.80
  -1   8   4   12.60    3.60
  -1   8   4    9.00    3.40
   0  -8  -4    6.60    2.70
   0  -8  -4    2.90    3.00
   0  -8  -4    1.70    3.90
   0  -8  -4    4.70    3.00
   0  -8  -4    2.80    2.70
   0   8   4    1.20    2.60
   0   8   4    0.80    2.60
   0   8   4    0.50    2.70
   0   8   4   -0.10    2.90
   0   8   4    1.70    1.90
  -1  -8  -4   84.49    5.70
  -1  -8  -4   79.79    6.00
   1   8   4   96.19    6.20
   1   8   4   86.29    4.50
   1   8   4   85.99    6.50
   1   8   4   88.99    5.40
   1   8   4   93.49    5.70
  -2  -8  -4   11.00    3.50
  -2  -8  -4    7.40    4.30
  -2  -8  -4    0.60    2.60
   2   8   4    2.20    2.90
   2   8   4    6.20    2.50
   2   8   4    8.70    2.40
   2   8   4    5.50    2.10
  -3  -8  -4    3.40    2.90
  -3  -8  -4    3.70    2.90
  -3  -8  -4    1.80    4.00
   3   8   4   -1.90    2.70
   3   8   4    3.10    1.90
   3   8   4    0.90    2.30
   3   8   4    3.50    2.80
  -4  -8  -4   16.30    4.50
  -4  -8  -4   23.10    3.90
   4   8   4   16.70    3.80
   4   8   4   15.80    3.40
   4   8   4   18.90    1.90
   4   8   4   14.10    3.40
  -5  -8  -4   13.70    4.00
  -5  -8  -4   12.20    4.50
   5   8   4   22.80    4.00
   5   8   4   15.90    4.30
   5   8   4   17.50    4.10
   5   8   4   15.80    3.80
  -6  -8  -4    0.30    4.60
  -6  -8  -4    6.20    4.60
   6   8   4    8.90    4.70
   6   8   4    6.10    3.90
   6   8   4    0.80    4.30
   6   8   4    6.10    4.70
  -7  -8  -4  -10.00    5.10
  -7  -8  -4    9.00    5.60
   7   8   4   10.70    6.00
   7   8   4   -0.30    5.00
   7   8   4   11.80    4.80
   4  -9  -4    7.30    6.40
   4  -9  -4   10.10    5.30
  -4   9   4    1.50    4.80
  -4   9   4   -4.80    6.10
  -4   9   4    1.60    5.60
   3  -9  -4   15.00    4.60
   3  -9  -4   17.20    3.30
   3  -9  -4   12.50    5.30
  -3   9   4   21.40    6.00
  -3   9   4   13.10    4.10
  -3   9   4   23.50    5.60
   2  -9  -4   29.60    5.20
   2  -9  -4   27.00    4.10
   2  -9  -4   29.60    2.80
   2  -9  -4   25.50    5.00
   2  -9  -4   35.20    9.10
  -2   9   4   27.10    5.40
  -2   9   4   32.80    5.50
  -2   9   4   24.30    5.10
   1  -9  -4    6.20    3.80
   1  -9  -4   -2.10    2.20
   1  -9  -4    3.50    3.70
   1  -9  -4    0.70    3.40
   1  -9  -4    6.90    3.30
  -1   9   4    7.30    3.80
  -1   9   4    1.30    3.90
  -1   9   4   -0.50    3.30
   0  -9  -4   79.89    7.00
   0  -9  -4   85.79    6.60
   0  -9  -4   74.89    8.40
   0   9   4   93.69    4.80
   0   9   4   88.89    7.30
   0   9   4   86.59    7.60
   0   9   4   86.49    7.10
   0   9   4   86.49    6.20
  -1  -9  -4    1.10    2.90
  -1  -9  -4    0.00    3.50
  -1  -9  -4   -1.90    3.20
   1   9   4   -2.70    2.00
   1   9   4    3.00    3.00
   1   9   4    4.80    3.50
   1   9   4    3.80    3.40
   1   9   4    1.60    3.40
  -2  -9  -4  130.69    7.90
  -2  -9  -4  117.69    7.30
   2   9   4  134.59    5.90
   2   9   4  113.59    7.60
   2   9   4  111.39    7.70
   2   9   4  121.99    6.40
  -3  -9  -4   10.70    3.90
  -3  -9  -4   14.20    3.90
   3   9   4   19.00    3.00
   3   9   4   24.30    4.50
   3   9   4   22.20    3.20
  -4  -9  -4   27.90    4.70
  -4  -9  -4   32.60    4.80
   4   9   4   27.70    3.90
   4   9   4   29.40    4.50
   4   9   4   31.50    3.50
   4   9   4   20.50    4.70
  -5  -9  -4   12.60    4.90
  -5  -9  -4   11.70    4.70
   5   9   4    5.20    3.70
   5   9   4    5.60    3.90
   5   9   4    0.00    4.20
  -6  -9  -4   -6.70    5.10
  -6  -9  -4    8.70    5.20
   6   9   4    7.70    4.40
   6   9   4   -1.80    4.80
   6   9   4   -1.30    4.90
  -7  -9  -4    4.40    5.80
  -7  -9  -4    1.10    6.40
   7   9   4    6.10    5.90
   7   9   4    3.70    6.10
   7   9   4   -2.00    5.30
   7   9   4    1.10    5.50
   3 -10  -4    5.90    4.90
   3 -10  -4    3.10    6.00
  -3  10   4    9.40    4.90
  -3  10   4   13.50    5.90
  -3  10   4    3.40    6.00
   2 -10  -4    2.60    4.50
   2 -10  -4   14.60    5.50
   2 -10  -4    2.10    3.90
  -2  10   4    2.90    4.20
  -2  10   4    3.80    5.30
  -2  10   4   -3.20    4.90
   1 -10  -4   61.69    5.30
   1 -10  -4   60.39    6.80
   1 -10  -4   59.79    5.60
   1 -10  -4   59.59    6.70
  -1  10   4   53.79    5.80
  -1  10   4   56.39    7.00
  -1  10   4   60.99   11.30
   0 -10  -4    0.10    4.20
   0 -10  -4    2.70    3.70
   0 -10  -4   -5.60    3.70
   0  10   4    5.00    4.20
   0  10   4    1.20    3.60
   0  10   4   -1.30    2.20
   0  10   4    1.50    4.30
  -1 -10  -4   30.30    5.50
  -1 -10  -4   13.40    4.20
  -1 -10  -4   27.90    4.80
   1  10   4   37.60    5.50
   1  10   4   25.60    4.80
   1  10   4   27.30    2.90
   1  10   4   21.20    4.90
   1  10   4   31.30    5.10
  -2 -10  -4   20.90    4.20
  -2 -10  -4   12.50    4.40
  -2 -10  -4   15.90    4.40
   2  10   4   11.80    4.30
   2  10   4   10.90    4.20
   2  10   4   16.10    4.00
   2  10   4   16.80    3.00
  -3 -10  -4   18.80    4.80
  -3 -10  -4   20.00    4.90
   3  10   4   13.80    3.40
   3  10   4   15.10    4.80
   3  10   4   11.50    4.50
  -4 -10  -4   15.10    5.40
  -4 -10  -4   10.00    5.10
  -4 -10  -4    8.90    4.10
   4  10   4    8.40    4.70
   4  10   4   10.90    3.80
   4  10   4   11.50    4.40
  -5 -10  -4   -5.40    4.70
  -5 -10  -4    2.50    5.30
   5  10   4    5.40    4.00
   5  10   4   -8.60    5.00
   5  10   4    2.10    4.70
  -6 -10  -4   21.40    6.00
  -6 -10  -4   14.60    6.30
   6  10   4   17.90    6.50
   6  10   4   12.40    5.60
   6  10   4   14.70    9.10
   6  10   4   18.10    5.90
   2 -11  -4   12.80    5.50
  -2  11   4    8.20    6.60
  -2  11   4    8.40    5.70
  -2  11   4   10.50    6.10
   1 -11  -4   19.80    5.40
   1 -11  -4   29.10    6.50
   1 -11  -4   20.50    5.30
  -1  11   4   32.20    5.60
  -1  11   4   28.10    7.10
  -1  11   4   34.40    7.00
   0 -11  -4    2.60    3.70
   0 -11  -4    0.10    5.30
   0 -11  -4    6.40    5.00
   0 -11  -4   -4.00    4.70
   0  11   4   -0.30    4.40
   0  11   4    1.20    5.10
   0  11   4    6.00    5.00
  -1 -11  -4    2.70    5.00
  -1 -11  -4   -2.50    4.00
  -1 -11  -4    2.40    5.20
   1  11   4   -5.40    4.60
   1  11   4   -0.20    3.00
   1  11   4   -3.00    4.20
   1  11   4    6.50    4.90
  -2 -11  -4    0.70    4.30
  -2 -11  -4    2.00    5.10
  -2 -11  -4    5.40    5.00
   2  11   4   -0.90    4.10
   2  11   4    3.70    4.60
   2  11   4   -0.50    2.90
  -3 -11  -4    0.30    5.00
  -3 -11  -4   -2.20    4.20
  -3 -11  -4    9.20    5.40
   3  11   4    0.80    3.40
   3  11   4    3.20    4.80
   3  11   4    1.60    4.60
  -4 -11  -4   -1.70    4.60
  -4 -11  -4   -5.30    5.20
  -4 -11  -4    5.50    5.60
   4  11   4    9.40    5.70
   4  11   4    7.10    3.70
   4  11   4    0.90    5.10
  -5 -11  -4   -4.80    4.60
  -5 -11  -4  -11.60    5.70
  -5 -11  -4    4.00    5.90
   5  11   4    3.40    5.60
   5  11   4    5.80    6.10
   5  11   4    1.30    4.30
   0 -12  -4    9.90    5.70
   0 -12  -4    7.90    7.80
   0 -12  -4   -1.90    5.90
   0  12   4    1.40    5.20
   0  12   4    5.10    6.00
   0  12   4    2.00    6.20
  -1 -12  -4   17.10    7.00
  -1 -12  -4   11.90    5.90
  -1 -12  -4   15.60    6.10
   1  12   4    4.90    5.80
   1  12   4    6.30    5.50
  -2 -12  -4    4.50    5.30
  -2 -12  -4   27.10    6.70
  -2 -12  -4    7.30    6.10
   2  12   4    6.20    5.80
   2  12   4   11.40    5.40
  -3 -12  -4    3.40    5.70
  -3 -12  -4   -3.20    5.20
  -3 -12  -4    8.20    5.90
   3  12   4   -0.20    6.40
   3  12   4    2.00    5.60
  -4 -12  -4   11.50    5.70
  -4 -12  -4   24.50    6.70
  -4 -12  -4   26.30    7.40
   4  12   4   19.70    6.90
   4  12   4   19.00    6.50
   4   9  -5   -0.80    5.30
   4   9  -5   -0.70    5.60
   4   9  -5    5.90    6.20
  -4  -9   5    2.20    4.80
  -4  -9   5    7.40    6.30
   3   9  -5    5.00    5.90
   3   9  -5    4.50    5.20
  -3  -9   5    1.00    4.30
  -3  -9   5   -1.00    5.70
  -3  -9   5    7.30    5.10
   2   9  -5    7.40    6.10
   2   9  -5    6.10    5.90
  -2  -9   5   16.20    5.40
  -2  -9   5   14.80    5.40
  -2  -9   5   10.60    5.70
   1   9  -5    1.70    5.40
   1   9  -5   -0.90    5.60
  -1  -9   5   -6.00    5.60
  -1  -9   5    7.10    5.20
  -1  -9   5   -1.20    4.60
   0   9  -5    5.70    5.80
   0   9  -5    1.40    5.20
   0  -9   5   12.10    5.10
   0  -9   5    1.30    6.10
  -1   9  -5    2.60    6.30
  -1   9  -5    5.50    5.80
   1  -9   5    3.70    6.50
   1  -9   5    5.90    5.10
   6   8  -5   -3.10    6.00
   6   8  -5    3.90    5.60
  -6  -8   5   -1.00    7.50
   5   8  -5    6.70    5.90
   5   8  -5    5.30    5.60
   5   8  -5   10.20    5.10
  -5  -8   5    9.90    5.90
  -5  -8   5    0.90    5.70
   4   8  -5  -11.90    4.60
   4   8  -5   -1.70    4.40
   4   8  -5    0.90    5.60
  -4  -8   5    5.20    4.70
  -4  -8   5    0.90    5.30
   3   8  -5   13.40    5.70
   3   8  -5   15.10    5.00
   3   8  -5   12.00    4.20
  -3  -8   5   15.10    4.10
  -3  -8   5    8.80    4.50
  -3  -8   5   12.40    5.40
   2   8  -5   19.10    5.60
   2   8  -5    4.40    4.70
  -2  -8   5   15.20    4.40
  -2  -8   5   13.70    4.90
   1   8  -5    1.60    4.40
   1   8  -5    1.20    4.90
  -1  -8   5    3.10    4.60
  -1  -8   5   10.10    4.20
  -1  -8   5    1.40    4.10
   0   8  -5   30.00    5.60
   0   8  -5   27.50    5.30
   0  -8   5   28.70    5.70
   0  -8   5   35.60    4.30
   0  -8   5   27.80    5.00
  -1   8  -5    0.70    4.50
  -1   8  -5    4.90    5.30
   1  -8   5   -4.30    5.00
   1  -8   5    5.00    4.50
  -2   8  -5   12.50    5.60
  -2   8  -5    6.10    5.70
   2  -8   5    1.70    6.50
   2  -8   5    7.80    4.90
  -3   8  -5   -9.10    5.50
   3  -8   5    2.80    5.90
   3  -8   5   16.20    7.20
   6   7  -5    8.70    5.80
   6   7  -5    5.30    5.40
  -6  -7   5    2.10    6.50
  -6  -7   5    6.60    5.90
   5   7  -5    6.90    5.30
   5   7  -5   -6.40    4.30
   5   7  -5   -3.00    4.50
  -5  -7   5   -4.50    5.10
  -5  -7   5    1.80    5.40
   4   7  -5   67.79    7.10
   4   7  -5   56.49    6.50
  -4  -7   5   56.99    6.40
  -4  -7   5   66.49    6.20
   3   7  -5  199.38   11.10
   3   7  -5  208.08    9.00
   3   7  -5  205.38   10.60
   3   7  -5  192.18    9.30
  -3  -7   5  200.58    8.70
  -3  -7   5  195.38   10.30
  -3  -7   5  201.78    8.20
  -3  -7   5  197.48    9.20
   2   7  -5   24.00    7.20
   2   7  -5   44.80    5.60
  -2  -7   5   40.70    5.10
  -2  -7   5   43.90    5.20
  -2  -7   5   42.30    4.20
  -2  -7   5   40.20    5.00
  -2  -7   5   51.39    4.70
   1   7  -5  130.59    8.60
  -1  -7   5  122.19    8.00
  -1  -7   5  118.69    7.20
  -1  -7   5  112.39    4.40
  -1  -7   5  135.79    8.60
   0   7  -5   -4.80    3.50
   0   7  -5   -7.10    3.20
   0  -7   5    2.90    1.60
   0  -7   5    1.70    3.50
   0  -7   5    2.40    3.20
   0  -7   5   -0.20    3.00
   0  -7   5   -0.20    4.90
  -1   7  -5    1.50    3.80
  -1   7  -5    3.30    4.10
  -1   7  -5    2.70    4.30
   1  -7   5    5.10    4.80
   1  -7   5    0.80    3.90
  -2   7  -5    5.50    3.90
  -2   7  -5   11.50    4.10
   2  -7   5    4.20    4.90
   2  -7   5    9.30    4.50
  -3   7  -5    7.70    4.30
  -3   7  -5    4.80    5.10
   3  -7   5   11.60    5.80
   3  -7   5    2.00    4.90
  -4   7  -5    6.30    4.80
  -4   7  -5    1.40    5.70
   4  -7   5    2.30    6.80
   4  -7   5    1.60    5.70
   7   6  -5    0.80    6.30
   7   6  -5   13.50    5.70
  -7  -6   5   10.50    6.60
  -7  -6   5    3.40    7.20
   6   6  -5   -4.30    4.80
   6   6  -5   -1.80    4.60
  -6  -6   5   -0.80    5.30
  -6  -6   5   -5.80    5.90
   5   6  -5    8.10    5.10
   5   6  -5    5.70    4.40
   5   6  -5   12.00    4.20
  -5  -6   5   11.20    4.80
  -5  -6   5    9.90    5.00
   4   6  -5    8.90    3.40
   4   6  -5   -0.50    2.40
   4   6  -5    0.00    4.10
   4   6  -5    2.10    4.20
  -4  -6   5   -3.10    3.60
  -4  -6   5    4.80    4.10
  -4  -6   5    3.70    3.60
   3   6  -5   -5.80    5.70
   3   6  -5    1.50    2.80
   3   6  -5    4.20    3.40
   3   6  -5    0.70    2.60
  -3  -6   5   -3.40    3.30
  -3  -6   5    2.60    3.00
   2   6  -5   12.70    4.00
   2   6  -5    9.50    3.30
   2   6  -5   10.00    3.60
  -2  -6   5   13.80    2.50
  -2  -6   5    9.70    3.50
  -2  -6   5   10.70    2.90
  -2  -6   5   12.60    3.20
   1   6  -5    3.50    3.20
   1   6  -5    3.90    5.70
   1   6  -5   -1.10    3.20
  -1  -6   5    7.20    3.50
  -1  -6   5    2.70    1.60
  -1  -6   5    3.60    2.80
  -1  -6   5    3.00    3.30
  -1  -6   5    3.40    3.10
   0   6  -5   10.20    3.50
   0   6  -5   10.90    3.60
   0  -6   5    9.60    3.70
   0  -6   5    2.60    2.80
   0  -6   5    7.60    1.80
   0  -6   5    6.80    2.70
   0  -6   5    5.10    2.90
  -1   6  -5   38.50    4.80
  -1   6  -5   38.70    4.50
  -1   6  -5   39.40    4.20
  -1   6  -5   38.10    5.40
   1  -6   5   37.30    3.00
   1  -6   5   43.60    4.20
   1  -6   5   35.30    5.20
   1  -6   5   34.00    5.20
  -2   6  -5   11.80    3.40
  -2   6  -5   13.90    4.60
  -2   6  -5   11.00    3.70
  -2   6  -5   12.90    4.60
   2  -6   5   10.00    2.60
   2  -6   5   15.70    5.00
   2  -6   5   10.00    3.70
  -3   6  -5  194.18    8.40
  -3   6  -5  177.28    9.60
  -3   6  -5  157.48    9.60
   3  -6   5  170.08   10.70
   3  -6   5  180.88   10.00
   3  -6   5  180.18    7.80
  -4   6  -5   -2.30    4.60
  -4   6  -5   11.30    3.90
  -4   6  -5    5.30    5.30
   4  -6   5    2.10    4.50
   4  -6   5   -8.70    5.20
  -5   6  -5   25.30    6.80
  -5   6  -5   34.90    6.90
   5  -6   5   21.10    7.40
   5  -6   5   22.00    6.20
   7   5  -5   -0.30    5.40
   7   5  -5   -1.00    4.90
  -7  -5   5   -0.10    7.00
  -7  -5   5    1.00    5.90
   6   5  -5   66.39    6.90
   6   5  -5   73.69    8.10
  -6  -5   5   73.79    7.80
  -6  -5   5   68.29    7.90
   5   5  -5   37.00    4.90
   5   5  -5   41.60    5.10
  -5  -5   5   29.40    5.30
  -5  -5   5   46.00    5.90
   4   5  -5   -0.90    2.90
   4   5  -5    5.70    3.50
   4   5  -5    0.00    3.00
   4   5  -5    1.60    1.90
  -4  -5   5    0.40    3.30
  -4  -5   5   -1.70    3.40
   3   5  -5    3.60    2.20
   3   5  -5   -0.60    2.60
   3   5  -5    2.90    2.40
   3   5  -5    1.30    3.10
  -3  -5   5    1.80    2.70
  -3  -5   5    1.80    3.10
   2   5  -5   10.20    2.80
   2   5  -5    9.50    3.20
   2   5  -5    9.40    3.00
   2   5  -5    8.00    2.30
  -2  -5   5    8.80    2.40
  -2  -5   5    7.50    3.00
  -2  -5   5    8.20    2.70
  -2  -5   5    8.50    2.80
  -2  -5   5    8.30    3.90
   1   5  -5  137.29    7.20
   1   5  -5  140.69   11.20
   1   5  -5  138.19    7.40
   1   5  -5  130.39    6.90
  -1  -5   5  129.19    4.10
  -1  -5   5  131.99    7.10
  -1  -5   5  137.39    6.80
  -1  -5   5  131.79    6.70
  -1  -5   5  132.59    6.50
  -1  -5   5  121.19    7.40
  -1  -5   5  124.99    4.10
   0   5  -5    3.90    2.40
   0   5  -5    2.00    3.20
   0   5  -5   -0.30    2.70
   0   5  -5    2.40    3.40
   0  -5   5    5.00    2.70
   0  -5   5    0.70    2.10
   0  -5   5    4.90    2.60
   0  -5   5    6.30    3.30
   0  -5   5    4.70    1.70
   0  -5   5    5.00    2.90
  -1   5  -5   33.80    4.20
  -1   5  -5   30.30    3.50
  -1   5  -5   30.10    3.30
  -1   5  -5   28.30    4.20
   1  -5   5   26.40    4.40
   1  -5   5   29.40    2.70
   1  -5   5   28.70    2.50
   1  -5   5   28.50    2.70
   1  -5   5   29.30    4.40
   1  -5   5   19.80    3.40
  -2   5  -5   58.09    4.90
  -2   5  -5   50.89    5.20
  -2   5  -5   53.49    4.90
  -2   5  -5   55.49    5.70
   2  -5   5   49.70    5.10
   2  -5   5   47.90    4.30
   2  -5   5   62.69    6.00
   2  -5   5   58.89    6.80
  -3   5  -5    4.60    3.10
  -3   5  -5   -0.80    4.10
  -3   5  -5    1.60    3.50
  -3   5  -5    5.70    2.90
   3  -5   5    5.70    4.30
   3  -5   5    1.80    3.80
   3  -5   5    3.90    2.60
   3  -5   5   -0.10    3.90
  -4   5  -5    5.70    3.00
  -4   5  -5    9.30    5.20
  -4   5  -5    7.10    3.90
  -4   5  -5    5.90    4.80
   4  -5   5    7.00    4.80
   4  -5   5    4.60    4.20
   4  -5   5    4.50    3.30
  -5   5  -5   -6.10    5.00
  -5   5  -5    0.60    4.50
   5  -5   5   -0.20    4.40
   5  -5   5   -9.90    4.50
   5  -5   5  -10.00    5.90
   6  -5   5   13.60    6.50
   8   4  -5    7.60    5.50
   8   4  -5    7.90    7.00
   8   4  -5    0.10    6.60
  -8  -4   5   -2.70    6.60
  -8  -4   5  -10.70    7.60
   7   4  -5    8.00    4.70
   7   4  -5    4.10    5.20
   7   4  -5    2.20    5.40
  -7  -4   5   -1.40    6.00
  -7  -4   5  -10.60    6.00
   6   4  -5   65.39    7.60
   6   4  -5   74.39    7.20
  -6  -4   5   70.99    7.30
  -6  -4   5   74.09    8.00
   5   4  -5   -2.10    3.00
   5   4  -5    0.70    3.70
   5   4  -5    7.00    3.60
  -5  -4   5    0.50    4.00
  -5  -4   5    3.10    3.90
   4   4  -5  124.99    6.60
   4   4  -5  121.29    4.70
   4   4  -5  122.19    7.00
   4   4  -5  119.89    7.20
  -4  -4   5  130.09    7.60
  -4  -4   5  120.49    7.40
   3   4  -5   62.29    5.00
   3   4  -5   65.19    4.30
   3   4  -5   72.69    5.70
   3   4  -5   58.99    5.60
   3   4  -5   68.49    4.40
  -3  -4   5   77.49    7.50
  -3  -4   5   57.19    5.30
  -3  -4   5   61.79    5.00
   2   4  -5  103.69    6.40
   2   4  -5  108.89    5.60
   2   4  -5  102.29    5.90
   2   4  -5  102.79    4.60
  -2  -4   5   88.69    6.40
  -2  -4   5  106.29    6.10
  -2  -4   5   91.49    6.00
  -2  -4   5   95.19    4.90
   1   4  -5   41.00    4.20
   1   4  -5   40.60    4.20
   1   4  -5   41.90    4.20
   1   4  -5   41.90    4.80
  -1  -4   5   38.80    4.20
  -1  -4   5   46.70    4.30
  -1  -4   5   47.00    4.50
  -1  -4   5   43.30    4.70
  -1  -4   5   40.10    2.70
  -1  -4   5   46.40    4.40
   0   4  -5    1.90    2.70
   0   4  -5    0.20    2.10
   0   4  -5    0.70    2.30
   0   4  -5    5.70    2.70
   0  -4   5    2.80    1.50
   0  -4   5    1.20    2.10
   0  -4   5    4.10    1.90
   0  -4   5    3.20    2.50
   0  -4   5    1.70    2.30
   0  -4   5   -0.90    2.20
  -1   4  -5   71.69    4.00
  -1   4  -5   70.49    6.20
  -1   4  -5   75.19    5.30
  -1   4  -5   64.99    4.70
  -1   4  -5   71.09    5.00
   1  -4   5   60.59    3.80
   1  -4   5   68.59    5.00
   1  -4   5   66.49    3.40
   1  -4   5   77.29    5.20
   1  -4   5   72.99    4.00
   1  -4   5   73.59    5.90
  -2   4  -5    2.90    2.30
  -2   4  -5   -1.20    2.60
  -2   4  -5    2.90    2.20
  -2   4  -5   -2.80    2.20
   2  -4   5    2.90    2.70
   2  -4   5    1.30    2.80
   2  -4   5    1.30    1.90
   2  -4   5   -1.90    2.60
  -3   4  -5    3.10    2.80
  -3   4  -5    6.30    3.20
  -3   4  -5   -0.20    2.10
  -3   4  -5    2.70    2.70
   3  -4   5    3.60    3.10
   3  -4   5    3.40    3.10
   3  -4   5    3.60    3.70
   3  -4   5    2.80    2.40
  -4   4  -5   32.20    3.30
  -4   4  -5   38.40    3.70
  -4   4  -5   28.30    5.20
  -4   4  -5   33.60    4.10
  -4   4  -5   33.30    3.20
  -4   4  -5   35.90    5.50
  -4   4  -5   34.30    4.80
   4  -4   5   37.40    4.90
   4  -4   5   26.20    5.00
   4  -4   5   29.90    4.10
  -5   4  -5    6.70    4.00
  -5   4  -5   -3.30    5.10
  -5   4  -5   -1.60    3.20
  -5   4  -5   -2.50    2.50
   5  -4   5    2.60    3.80
   5  -4   5    2.30    5.00
   5  -4   5   -0.60    4.40
  -6   4  -5   -6.20    4.80
  -6   4  -5   -7.50    5.00
   6  -4   5   -2.90    5.60
   6  -4   5   -3.60    5.20
   8   3  -5   11.90    5.20
   8   3  -5    8.00    6.40
   8   3  -5   -4.00    6.20
  -8  -3   5   -3.00    6.00
  -8  -3   5   -2.20    7.90
   7   3  -5    3.40    4.20
   7   3  -5    8.40    5.00
   7   3  -5    5.60    5.30
  -7  -3   5    3.30    6.40
  -7  -3   5    3.10    5.20
   6   3  -5   14.60    3.50
   6   3  -5   15.20    4.00
   6   3  -5   17.00    4.80
  -6  -3   5   12.70    4.80
  -6  -3   5   18.50    5.30
   5   3  -5    9.30    3.10
   5   3  -5   12.30    3.30
   5   3  -5   19.10    3.60
  -5  -3   5   11.60    3.80
  -5  -3   5    8.80    3.80
   4   3  -5   39.40    3.90
   4   3  -5   36.90    4.00
   4   3  -5   33.80    2.50
   4   3  -5   38.20    4.20
  -4  -3   5   35.60    4.30
  -4  -3   5   41.10    4.50
   3   3  -5   41.00    4.10
   3   3  -5   36.80    3.50
   3   3  -5   33.80    4.10
   3   3  -5   45.70    4.20
  -3  -3   5   41.90    4.30
  -3  -3   5   24.90    3.70
  -3  -3   5   44.90    4.40
  -3  -3   5   41.50    4.80
   2   3  -5    2.60    1.90
   2   3  -5   -0.20    1.40
   2   3  -5    3.20    2.60
   2   3  -5    3.90    2.10
   2   3  -5    2.30    2.00
  -2  -3   5    2.90    1.80
  -2  -3   5    2.70    2.60
  -2  -3   5    2.80    2.00
  -2  -3   5    4.40    2.40
   1   3  -5   54.19    4.10
   1   3  -5   50.89    4.20
   1   3  -5   54.89    4.60
   1   3  -5   53.29    2.70
   1   3  -5   57.59    4.40
  -1  -3   5   53.59    3.10
  -1  -3   5   50.09    4.10
  -1  -3   5   52.89    3.90
  -1  -3   5   54.39    4.30
  -1  -3   5   50.09    4.20
   0   3  -5   19.40    2.90
   0   3  -5   16.80    2.70
   0   3  -5   21.60    3.10
   0   3  -5   17.80    2.50
   0  -3   5   18.60    2.10
   0  -3   5   19.60    2.60
   0  -3   5   23.50    2.60
   0  -3   5   18.50    2.60
   0  -3   5   22.50    2.50
  -1   3  -5   36.40    4.10
  -1   3  -5   34.20    2.80
  -1   3  -5   38.60    3.50
  -1   3  -5   39.80    4.00
  -1   3  -5   42.90    4.10
  -1   3  -5   38.10    3.50
   1  -3   5   37.20    3.10
   1  -3   5   44.30    4.40
   1  -3   5   31.80    3.40
   1  -3   5   37.00    2.70
   1  -3   5   32.40    3.50
   1  -3   5   29.20    3.40
  -2   3  -5   12.60    2.30
  -2   3  -5   14.40    2.40
  -2   3  -5   12.90    3.80
  -2   3  -5   15.00    3.50
  -2   3  -5   13.50    3.40
  -2   3  -5    9.90    2.50
  -2   3  -5   13.80    2.30
   2  -3   5   11.60    2.10
   2  -3   5   13.40    2.80
   2  -3   5   13.70    2.90
   2  -3   5   13.90    2.60
  -3   3  -5  221.58    7.80
  -3   3  -5  224.38    8.40
  -3   3  -5  210.28    8.20
  -3   3  -5  209.28    6.60
  -3   3  -5  224.68    7.40
  -3   3  -5  234.38    7.30
  -3   3  -5  230.28    9.50
  -3   3  -5  225.48    6.60
   3  -3   5  227.78    9.30
   3  -3   5  228.98    9.80
   3  -3   5  228.18    8.30
   3  -3   5  218.58    7.90
  -4   3  -5    0.00    3.60
  -4   3  -5    2.20    3.20
  -4   3  -5    2.60    2.00
  -4   3  -5    5.20    3.60
  -4   3  -5    4.90    2.70
  -4   3  -5    4.50    2.60
  -4   3  -5    2.30    2.10
   4  -3   5   -0.40    3.40
   4  -3   5    7.00    3.00
  -5   3  -5    6.90    3.30
  -5   3  -5    3.40    3.30
  -5   3  -5   11.20    4.20
  -5   3  -5    9.30    2.70
   5  -3   5    9.30    4.20
   5  -3   5   13.00    3.60
  -6   3  -5    8.80    8.50
  -6   3  -5    4.90    4.10
  -6   3  -5    3.20    4.20
   6  -3   5    2.00    4.80
   6  -3   5    8.50    5.40
  -7   3  -5   -1.60    5.90
  -7   3  -5   13.00    6.70
  -7   3  -5   18.60    6.10
   8   2  -5    9.30    6.40
   8   2  -5   -4.40    6.20
  -8  -2   5   -7.60    7.40
  -8  -2   5    9.00    6.90
   7   2  -5    2.80    4.30
   7   2  -5    6.60    4.90
   7   2  -5    7.50    3.70
  -7  -2   5    9.90    6.00
  -7  -2   5    1.20    4.90
   6   2  -5    6.70    3.30
   6   2  -5   14.80    4.40
   6   2  -5   18.10    4.30
  -6  -2   5   14.10    5.20
  -6  -2   5   11.40    5.20
   5   2  -5    8.10    2.40
   5   2  -5    9.90    3.00
   5   2  -5    8.90    3.10
  -5  -2   5    7.90    3.90
  -5  -2   5   14.90    3.60
  -5  -2   5    8.60    3.60
   4   2  -5   -0.80    2.10
   4   2  -5    3.40    3.40
   4   2  -5    1.20    2.30
   4   2  -5    0.60    2.30
   4   2  -5    0.20    1.20
  -4  -2   5   -2.10    2.60
  -4  -2   5    1.80    2.50
  -4  -2   5   -4.60    3.80
   3   2  -5   19.90    2.90
   3   2  -5   22.10    2.30
   3   2  -5   24.40    2.50
   3   2  -5   21.20    3.20
  -3  -2   5   25.90    3.10
  -3  -2   5   27.70    3.90
  -3  -2   5   25.70    3.70
  -3  -2   5   24.10    3.20
   2   2  -5  154.48    6.80
   2   2  -5  149.88    6.40
   2   2  -5  162.58    6.40
   2   2  -5  144.59    5.60
   2   2  -5  161.28    6.00
  -2  -2   5  161.28    6.50
  -2  -2   5  156.08    6.80
  -2  -2   5  165.68    6.90
  -2  -2   5  166.28    6.30
   1   2  -5    2.70    2.10
   1   2  -5    3.40    1.50
   1   2  -5    2.20    1.60
   1   2  -5    1.50    1.80
   1   2  -5    3.40    0.90
   1   2  -5    4.20    1.70
  -1  -2   5    5.20    1.80
  -1  -2   5    4.70    2.10
  -1  -2   5    3.40    1.70
  -1  -2   5   -1.10    1.50
  -1  -2   5    1.60    1.80
   0   2  -5   59.39    4.40
   0   2  -5   56.99    2.60
   0   2  -5   55.89    3.40
   0   2  -5   58.99    1.90
   0   2  -5   55.09    3.90
   0   2  -5   55.19    3.60
   0  -2   5   55.69    3.40
   0  -2   5   54.09    3.90
   0  -2   5   56.29    2.60
   0  -2   5   58.59    3.40
   0  -2   5   61.49    3.70
  -1   2  -5  134.99    3.80
  -1   2  -5  135.99    5.60
  -1   2  -5  120.69    6.20
  -1   2  -5  130.29    4.10
  -1   2  -5  134.59    5.00
  -1   2  -5  132.99    5.30
  -1   2  -5  130.29    6.10
   1  -2   5  114.49    5.40
   1  -2   5  141.09    5.20
   1  -2   5  137.59    4.60
   1  -2   5  128.89    5.60
   1  -2   5  128.59    5.90
  -2   2  -5   56.79    4.60
  -2   2  -5   51.49    2.60
  -2   2  -5   62.49    3.30
  -2   2  -5   52.29    4.60
  -2   2  -5   62.29    4.90
  -2   2  -5   53.59    3.40
  -2   2  -5   53.19    3.80
  -2   2  -5   47.70    4.90
   2  -2   5   58.59    3.80
   2  -2   5   59.39    4.50
   2  -2   5   58.09    3.40
  -3   2  -5  173.18    6.00
  -3   2  -5  171.98    6.90
  -3   2  -5  183.88    8.00
  -3   2  -5  178.38    6.20
  -3   2  -5  174.88    8.40
  -3   2  -5  167.58    7.90
  -3   2  -5  178.38    7.50
   3  -2   5  182.38    7.20
   3  -2   5  177.38    7.70
  -4   2  -5   72.99    3.60
  -4   2  -5   70.49    6.00
  -4   2  -5   74.89    6.00
  -4   2  -5   67.49    3.90
  -4   2  -5   71.49    5.90
  -4   2  -5   75.39    4.40
  -4   2  -5   72.09    4.80
   4  -2   5   75.89    6.10
   4  -2   5   73.79    5.50
  -5   2  -5    2.50    1.80
  -5   2  -5    9.10    2.80
  -5   2  -5   -1.30    3.00
  -5   2  -5    2.40    3.50
  -5   2  -5   -0.70    2.00
   5  -2   5    5.40    3.50
  -6   2  -5    3.40    3.80
  -6   2  -5   12.60    3.60
  -6   2  -5    4.20    2.00
  -6   2  -5    5.70    4.10
   6  -2   5    0.40    4.40
   6  -2   5    5.90    4.10
   6  -2   5    6.30    4.40
  -7   2  -5    2.60    4.40
  -7   2  -5    0.70    5.00
  -7   2  -5    4.90    5.60
   7  -2   5   -4.40    5.30
   8   1  -5    8.40    6.20
   8   1  -5   -6.40    6.20
  -8  -1   5    3.70    6.40
  -8  -1   5   -0.20    7.60
   7   1  -5    2.80    3.30
   7   1  -5    1.20    5.10
   7   1  -5    8.40    4.90
  -7  -1   5    4.60    5.40
  -7  -1   5    3.80    4.80
   6   1  -5   -0.80    4.30
   6   1  -5    0.90    2.80
   6   1  -5    1.40    3.80
   6   1  -5   -2.70    3.50
  -6  -1   5    4.60    4.50
  -6  -1   5    1.70    3.40
   5   1  -5   12.40    3.30
   5   1  -5   12.70    3.60
   5   1  -5   13.10    3.00
   5   1  -5   18.90    4.20
   5   1  -5   13.40    2.00
   5   1  -5   12.00    2.20
  -5  -1   5   19.20    4.50
  -5  -1   5   10.10    3.90
  -5  -1   5    9.10    3.30
   4   1  -5    1.80    1.40
   4   1  -5    0.20    3.40
   4   1  -5   -1.20    2.70
   4   1  -5    0.80    2.30
   4   1  -5    2.40    3.30
   4   1  -5    1.20    2.00
  -4  -1   5    0.90    3.40
  -4  -1   5   -1.60    2.40
  -4  -1   5    2.70    2.70
  -4  -1   5    2.00    2.50
  -4  -1   5    1.30    3.10
   3   1  -5   66.09    4.80
   3   1  -5   62.39    5.20
   3   1  -5   65.19    3.90
   3   1  -5   60.79    4.30
   3   1  -5   65.49    3.60
  -3  -1   5   67.49    4.60
  -3  -1   5   64.99    4.70
  -3  -1   5   67.29    4.00
  -3  -1   5   68.49    5.60
  -3  -1   5   70.99    5.00
   2   1  -5   59.59    4.30
   2   1  -5   60.59    3.70
   2   1  -5   62.39    3.90
   2   1  -5   61.39    3.10
   2   1  -5   56.89    4.20
  -2  -1   5   63.79    4.40
  -2  -1   5   65.49    4.40
  -2  -1   5   57.79    4.10
  -2  -1   5   64.79    4.10
  -2  -1   5   63.89    3.60
  -2  -1   5   57.79    2.90
   1   1  -5   41.00    4.30
   1   1  -5   51.09    3.80
   1   1  -5   52.49    3.40
   1   1  -5   47.30    1.90
   1   1  -5   51.59    3.60
  -1  -1   5   50.59    3.30
  -1  -1   5   52.29    3.30
  -1  -1   5   49.60    3.40
  -1  -1   5   50.99    3.50
  -1  -1   5   46.00    3.60
   0   1  -5   25.00    2.80
   0   1  -5   24.50    2.20
   0   1  -5   25.20    2.60
   0   1  -5   21.50    2.30
   0   1  -5   22.10    2.60
   0   1  -5   26.20    2.30
   0   1  -5   27.50    2.90
   0  -1   5   25.40    2.30
   0  -1   5   31.40    3.00
   0  -1   5   28.50    2.60
   0  -1   5   22.90    2.40
   0  -1   5   28.00    2.80
  -1   1  -5  194.08    5.80
  -1   1  -5  193.98    5.90
  -1   1  -5  182.68    7.30
  -1   1  -5  195.48    7.40
  -1   1  -5  199.38    6.60
  -1   1  -5  194.18    6.50
  -1   1  -5  190.58    5.00
  -1   1  -5  195.28    7.00
   1  -1   5  205.88    6.10
   1  -1   5  195.88    5.80
   1  -1   5  192.88    6.60
   1  -1   5  191.28    7.00
   1  -1   5  198.18    5.80
  -2   1  -5  329.97    9.10
  -2   1  -5  327.87    8.70
  -2   1  -5  328.57   11.20
  -2   1  -5  323.47   10.40
  -2   1  -5  336.07   10.90
  -2   1  -5  326.77    9.40
  -2   1  -5  327.67    9.00
  -2   1  -5  340.87    9.30
   2  -1   5  325.07    8.70
   2  -1   5  337.27   10.10
   2  -1   5  316.37   10.50
  -3   1  -5   58.09    3.10
  -3   1  -5   61.09    5.00
  -3   1  -5   55.59    4.70
  -3   1  -5   63.09    4.00
  -3   1  -5   64.99    5.10
  -3   1  -5   57.09    3.00
  -3   1  -5   55.69    4.50
  -3   1  -5   61.99    3.90
  -3   1  -5   51.09    5.10
  -3   1  -5   63.89    3.50
   3  -1   5   58.29    4.40
   3  -1   5   60.79    3.60
   3  -1   5   59.29    4.70
  -4   1  -5  107.99    6.10
  -4   1  -5  125.99    6.40
  -4   1  -5  104.69    6.70
  -4   1  -5  111.39    5.40
  -4   1  -5  111.29    6.50
  -4   1  -5  116.99    6.90
  -4   1  -5  108.99    4.30
  -4   1  -5  115.19    4.70
   4  -1   5  119.69    5.90
   4  -1   5  116.39    6.60
   4  -1   5  122.19    6.40
  -5   1  -5    9.90    3.20
  -5   1  -5    8.90    2.20
  -5   1  -5    4.20    1.90
  -5   1  -5   11.00    2.20
  -5   1  -5    6.10    3.10
  -5   1  -5    8.60    4.40
  -5   1  -5   -3.90    3.90
   5  -1   5    3.50    3.30
   5  -1   5    6.50    3.20
   5  -1   5   10.50    3.00
  -6   1  -5   20.10    3.20
  -6   1  -5    9.90    4.10
  -6   1  -5   16.00    2.60
  -6   1  -5   11.90    4.10
   6  -1   5   14.80    3.90
   6  -1   5    9.90    4.00
  -7   1  -5   18.70    5.20
  -7   1  -5   13.30    4.30
  -7   1  -5    7.80    5.40
   7  -1   5   12.70    5.90
   7  -1   5   22.10    5.40
   8   0  -5    9.20    6.40
   8   0  -5    8.20    6.60
  -8   0   5   14.60    8.10
  -8   0   5    0.50    6.20
   7   0  -5   -0.70    4.80
   7   0  -5    2.80    5.20
   7   0  -5   -0.90    3.00
  -7   0   5    2.60    4.60
  -7   0   5   12.00    6.20
   6   0  -5   73.19    5.00
   6   0  -5   55.69    6.10
   6   0  -5   61.99    3.00
   6   0  -5   59.29    5.50
   6   0  -5   65.09    7.20
  -6   0   5   56.69    6.70
  -6   0   5   59.09    6.00
   5   0  -5   57.99    5.90
   5   0  -5   54.09    3.10
   5   0  -5   66.59    5.90
   5   0  -5   54.19    4.70
   5   0  -5   54.99    5.60
  -5   0   5   60.19    6.50
  -5   0   5   65.49    5.60
  -5   0   5   61.09    6.70
   4   0  -5   92.89    3.70
   4   0  -5  102.29    5.00
   4   0  -5   99.39    3.80
   4   0  -5   92.59    5.80
   4   0  -5   90.49    6.80
   4   0  -5   88.79    5.90
   4   0  -5   95.79    5.30
  -4   0   5   86.09    6.00
  -4   0   5  101.99    5.90
  -4   0   5   84.59    6.50
  -4   0   5  106.89    6.60
  -4   0   5   92.59    5.60
   3   0  -5   21.80    2.70
   3   0  -5   29.90    2.50
   3   0  -5   27.50    3.10
   3   0  -5   34.00    3.50
   3   0  -5   31.00    3.70
  -3   0   5   35.50    3.50
  -3   0   5   28.30    3.30
  -3   0   5   24.00    2.90
  -3   0   5   26.30    2.80
  -3   0   5   32.70    3.80
   2   0  -5  212.68    7.80
   2   0  -5  210.58    7.40
   2   0  -5  224.78    8.00
   2   0  -5  221.58    7.00
  -2   0   5  220.98    6.80
  -2   0   5  215.28    7.60
  -2   0   5  216.78    7.80
  -2   0   5  219.88    6.70
  -2   0   5  219.28    7.50
  -2   0   5  222.08    7.90
   1   0  -5  342.67   10.20
   1   0  -5  347.67   10.10
   1   0  -5  335.07   10.10
   1   0  -5  343.37   10.30
  -1   0   5  330.77   10.10
  -1   0   5  343.47    9.90
  -1   0   5  355.66   10.20
  -1   0   5  353.16    8.60
  -1   0   5  341.37    9.70
   0   0  -5   52.39    3.20
   0   0  -5   58.99    3.60
   0   0  -5   62.79    3.40
   0   0  -5   59.99    3.60
   0   0  -5   55.09    3.20
   0   0   5   52.99    3.20
   0   0   5   55.09    3.10
   0   0   5   61.29    3.60
   0   0   5   59.09    2.80
   0   0   5   50.99    3.30
  -1   0  -5  733.63   18.10
  -1   0  -5  681.03   19.00
  -1   0  -5  712.73   18.50
  -1   0  -5  694.03   18.90
  -1   0  -5  693.93   17.80
  -1   0  -5  742.23   18.10
   1   0   5  720.93   17.90
   1   0   5  731.93   16.90
   1   0   5  741.03   17.60
   1   0   5  635.14   18.70
   1   0   5  708.63   18.40
   1   0   5  713.23   18.60
   1   0   5  739.23   16.60
  -2   0  -5  100.79    4.00
  -2   0  -5   99.19    4.90
  -2   0  -5  100.49    5.50
  -2   0  -5   83.19    5.10
  -2   0  -5   92.19    4.90
  -2   0  -5   98.19    4.20
   2   0   5   99.19    3.70
   2   0   5   94.29    3.10
   2   0   5   90.89    4.40
   2   0   5   97.09    3.00
   2   0   5   92.69    4.70
  -3   0  -5   -0.10    2.00
  -3   0  -5    2.20    2.10
  -3   0  -5    2.10    1.80
  -3   0  -5    2.10    1.70
  -3   0  -5    3.00    1.20
  -3   0  -5   -1.90    2.40
  -3   0  -5    0.70    0.80
  -3   0  -5   -1.00    2.40
  -3   0  -5    3.40    2.20
  -3   0  -5   -0.70    1.60
   3   0   5   -0.50    1.50
   3   0   5    0.90    1.50
   3   0   5   -0.50    2.10
  -4   0  -5    4.60    2.40
  -4   0  -5    7.10    2.70
  -4   0  -5    7.40    2.90
  -4   0  -5    8.80    3.10
  -4   0  -5    7.60    1.50
  -4   0  -5    7.90    2.80
  -4   0  -5    6.20    3.00
  -4   0  -5    4.40    1.40
  -4   0  -5    6.40    1.70
   4   0   5    5.90    2.40
   4   0   5    1.60    2.40
   4   0   5    7.70    2.50
  -5   0  -5    1.50    3.60
  -5   0  -5    3.30    1.80
  -5   0  -5    3.30    1.90
  -5   0  -5    1.50    2.80
  -5   0  -5    4.50    1.60
  -5   0  -5    7.20    3.80
   5   0   5    4.60    2.90
   5   0   5    5.50    3.20
   5   0   5   -0.60    2.90
  -6   0  -5   -1.80    3.30
  -6   0  -5    3.20    3.90
  -6   0  -5   -1.50    2.20
  -6   0  -5   -5.40    3.30
  -6   0  -5    2.70    2.00
  -6   0  -5    0.00    4.50
  -6   0  -5   -1.20    3.90
   6   0   5    0.80    3.50
   6   0   5    2.00    3.40
  -7   0  -5   14.90    3.80
  -7   0  -5   13.50    3.00
  -7   0  -5   28.30    6.20
  -7   0  -5   14.90    4.80
   7   0   5   12.10    5.30
   7   0   5   13.20    5.40
  -8   0  -5   -8.20    6.70
  -8   0  -5   -2.10    5.00
   8   0   5    0.50    6.20
   8   0   5    5.30    6.40
   8  -1  -5   -0.30    6.10
   8  -1  -5    0.50    6.10
  -8   1   5    2.10    6.40
  -8   1   5   11.20    7.40
   7  -1  -5    8.50    3.20
   7  -1  -5   10.60    5.80
   7  -1  -5   12.70    5.10
  -7   1   5   12.70    5.00
  -7   1   5   -0.10    5.80
   6  -1  -5    6.30    3.60
   6  -1  -5    2.60    2.10
   6  -1  -5   -1.50    2.50
   6  -1  -5    6.80    4.10
   6  -1  -5    6.80    3.70
  -6   1   5    1.20    4.50
  -6   1   5    4.90    3.50
   5  -1  -5   21.50    4.30
   5  -1  -5   18.30    2.70
   5  -1  -5   17.90    2.20
   5  -1  -5   20.80    3.80
   5  -1  -5   18.60    3.40
  -5   1   5   19.60    3.70
  -5   1   5   19.60    4.00
   4  -1  -5  302.77   10.20
   4  -1  -5  300.17    7.70
   4  -1  -5  302.17   10.80
   4  -1  -5  297.57   10.10
   4  -1  -5  296.07    7.60
   4  -1  -5  307.87    9.70
  -4   1   5  311.27   10.40
  -4   1   5  303.77   10.60
  -4   1   5  305.47   11.60
  -4   1   5  298.07   10.50
   3  -1  -5   20.50    2.50
   3  -1  -5   23.40    2.60
   3  -1  -5   18.50    2.90
   3  -1  -5   22.00    3.50
   3  -1  -5   15.00    2.90
   3  -1  -5   24.10    2.10
  -3   1   5   20.20    3.20
  -3   1   5   21.30    2.80
  -3   1   5   14.90    2.50
  -3   1   5   21.20    2.80
   2  -1  -5  901.31   21.90
   2  -1  -5  870.41   22.50
   2  -1  -5  876.21   22.80
   2  -1  -5  899.81   23.40
  -2   1   5  886.11   22.70
  -2   1   5  899.21   23.30
  -2   1   5  924.01   22.90
  -2   1   5  838.72   22.00
   1  -1  -5 1723.53   42.40
   1  -1  -5 1818.32   43.00
   1  -1  -5 1743.83   42.60
   1  -1  -5 1770.32   42.70
  -1   1   5 1784.42   43.00
  -1   1   5 1830.22   42.70
  -1   1   5 1835.62   42.70
  -1   1   5 1807.52   41.90
  -1   1   5 1738.63   41.50
   0  -1  -5    6.80    1.70
   0  -1  -5    7.50    1.70
   0  -1  -5    8.80    1.70
   0  -1  -5    9.50    1.60
   0  -1  -5   10.50    1.70
   0   1   5   10.50    1.40
   0   1   5    7.20    1.70
   0   1   5    9.10    1.70
   0   1   5    9.30    1.80
   0   1   5    5.50    1.60
   0   1   5    9.80    1.70
  -1  -1  -5  238.98    7.60
  -1  -1  -5  233.78    7.30
  -1  -1  -5  242.58    7.50
  -1  -1  -5  230.58    7.50
  -1  -1  -5  242.18    8.00
   1   1   5  246.98    7.60
   1   1   5  220.28    7.90
   1   1   5  246.58    7.70
   1   1   5  240.28    7.20
   1   1   5  242.78    6.00
   1   1   5  246.18    7.10
   1   1   5  240.18    6.40
  -2  -1  -5  121.09    5.50
  -2  -1  -5  127.29    5.30
  -2  -1  -5  138.19    4.80
  -2  -1  -5  136.19    5.00
  -2  -1  -5  135.09    5.60
   2   1   5  139.29    4.50
   2   1   5  134.79    5.40
   2   1   5  133.59    5.50
   2   1   5  140.59    4.40
   2   1   5  124.89    5.80
  -3  -1  -5   20.30    2.10
  -3  -1  -5   17.20    2.50
  -3  -1  -5   20.60    2.00
  -3  -1  -5   19.50    3.10
  -3  -1  -5   14.30    2.50
  -3  -1  -5   17.40    2.30
  -3  -1  -5   23.20    2.90
  -3  -1  -5   23.30    3.10
   3   1   5   18.40    2.80
   3   1   5   16.90    2.40
   3   1   5   21.50    2.30
   3   1   5   23.50    3.40
  -4  -1  -5    2.80    1.10
  -4  -1  -5    0.30    1.90
  -4  -1  -5    2.10    2.40
  -4  -1  -5    0.80    2.90
  -4  -1  -5    0.20    2.90
  -4  -1  -5    2.70    1.20
  -4  -1  -5    2.30    1.40
  -4  -1  -5    1.50    2.50
  -4  -1  -5    5.70    2.70
  -4  -1  -5    3.70    1.80
  -4  -1  -5    3.00    2.70
   4   1   5   -1.00    2.10
   4   1   5    2.30    3.00
   4   1   5    0.10    1.90
   4   1   5   -0.20    2.00
  -5  -1  -5    1.00    2.50
  -5  -1  -5    1.20    4.90
  -5  -1  -5   -2.50    3.10
  -5  -1  -5   -5.00    1.90
  -5  -1  -5    0.60    1.90
  -5  -1  -5   -3.10    2.70
  -5  -1  -5   -0.20    2.00
  -5  -1  -5   -1.40    1.50
   5   1   5   -1.60    2.80
   5   1   5   -2.20    2.80
  -6  -1  -5    3.90    2.20
  -6  -1  -5    8.70    2.40
  -6  -1  -5    2.70    3.80
  -6  -1  -5    1.10    3.00
  -6  -1  -5    8.10    2.70
  -6  -1  -5    2.90    3.20
   6   1   5    2.30    3.40
   6   1   5    5.80    3.60
  -7  -1  -5    0.20    4.00
  -7  -1  -5    6.10    5.80
  -7  -1  -5   -0.70    2.80
  -7  -1  -5    2.00    3.10
   7   1   5   -5.30    4.50
   7   1   5    2.20    4.30
  -8  -1  -5   -3.60    5.00
  -8  -1  -5    1.30    6.60
   8   1   5   -2.50    5.90
   8   1   5   -2.50    6.10
   8  -2  -5    6.80    7.10
  -8   2   5   10.70    8.10
  -8   2   5   15.30    6.70
   7  -2  -5   -4.20    5.50
   7  -2  -5   -0.20    3.20
   7  -2  -5    1.90    4.80
  -7   2   5    4.00    4.70
  -7   2   5   -6.50    6.10
   6  -2  -5   -1.70    3.20
   6  -2  -5    9.50    4.60
   6  -2  -5    2.30    4.60
   6  -2  -5    3.20    2.30
   6  -2  -5   -1.80    2.60
  -6   2   5   -0.30    3.30
  -6   2   5   -6.30    4.70
  -6   2   5    2.70    3.10
   5  -2  -5   -2.00    2.00
   5  -2  -5    0.50    3.30
   5  -2  -5    6.10    3.20
   5  -2  -5    3.40    2.10
   5  -2  -5    2.10    2.80
  -5   2   5    2.50    2.80
  -5   2   5    2.80    3.60
   4  -2  -5   64.89    4.10
   4  -2  -5   64.79    5.20
   4  -2  -5   65.89    4.10
   4  -2  -5   62.09    5.50
  -4   2   5   60.19    5.60
  -4   2   5   70.49    6.30
  -4   2   5   55.59    5.30
  -4   2   5   56.69    4.70
   3  -2  -5  129.39    4.10
   3  -2  -5  119.99    6.10
   3  -2  -5  133.29    6.00
   3  -2  -5  123.59    5.40
   3  -2  -5  133.79    7.20
  -3   2   5  139.79    6.30
  -3   2   5  121.79    5.90
  -3   2   5  130.69    5.90
  -3   2   5  132.59    6.90
  -3   2   5  128.39    4.10
   2  -2  -5  200.98    8.00
   2  -2  -5  198.78    7.30
   2  -2  -5  208.68    7.40
   2  -2  -5  208.98    7.00
   2  -2  -5  210.58    6.20
  -2   2   5  204.08    6.50
  -2   2   5  191.78    7.20
  -2   2   5  206.98    7.00
  -2   2   5  215.08    8.10
  -2   2   5  206.58    7.20
  -2   2   5  201.08    5.70
   1  -2  -5  154.98    6.00
   1  -2  -5  168.78    6.50
   1  -2  -5  158.48    5.50
   1  -2  -5  150.58    5.70
  -1   2   5  160.48    5.30
  -1   2   5  156.68    4.90
  -1   2   5  150.38    6.20
  -1   2   5  156.18    5.90
  -1   2   5  152.38    5.80
  -1   2   5  161.08    5.60
   0  -2  -5  104.59    4.60
   0  -2  -5  105.19    4.70
   0  -2  -5  111.59    4.50
   0  -2  -5  107.49    5.00
   0  -2  -5  113.09    4.10
   0   2   5  110.89    5.00
   0   2   5  107.69    4.60
   0   2   5  106.39    4.00
   0   2   5  117.09    4.50
   0   2   5  112.09    4.70
  -1  -2  -5  279.57    8.40
  -1  -2  -5  287.77    8.30
  -1  -2  -5  282.67    8.80
  -1  -2  -5  271.27    8.70
  -1  -2  -5  277.97    8.30
   1   2   5  273.57    7.00
   1   2   5  280.57    8.30
   1   2   5  280.77    8.20
   1   2   5  260.47    8.40
   1   2   5  270.37    8.80
   1   2   5  279.17    8.10
   1   2   5  282.07    8.80
  -2  -2  -5 1567.24   38.10
  -2  -2  -5 1511.45   37.40
  -2  -2  -5 1601.24   37.60
  -2  -2  -5 1556.04   38.30
  -2  -2  -5 1555.74   38.50
   2   2   5 1557.24   37.50
   2   2   5 1586.64   38.60
   2   2   5 1550.24   37.30
   2   2   5 1567.44   38.20
   2   2   5 1641.64   37.20
   2   2   5 1612.24   38.20
  -3  -2  -5  230.48    8.20
  -3  -2  -5  233.78    7.30
  -3  -2  -5  231.58    8.40
  -3  -2  -5  224.48    7.10
  -3  -2  -5  230.58    6.70
  -3  -2  -5  233.28    8.40
  -3  -2  -5  236.78    8.40
   3   2   5  229.58    7.70
   3   2   5  226.98    6.40
   3   2   5  223.08    8.10
   3   2   5  233.28    8.60
   3   2   5  222.78    8.20
   3   2   5  231.88    6.40
  -4  -2  -5  272.47    7.20
  -4  -2  -5  278.57    9.80
  -4  -2  -5  280.17   10.20
  -4  -2  -5  269.87    9.80
  -4  -2  -5  272.67   10.20
  -4  -2  -5  281.17    8.40
  -4  -2  -5  267.47    8.70
  -4  -2  -5  290.57    8.40
  -4  -2  -5  273.57   10.30
   4   2   5  281.27    9.50
   4   2   5  290.37   10.00
   4   2   5  265.17   10.00
  -5  -2  -5  164.58    7.50
  -5  -2  -5  167.68    6.40
  -5  -2  -5  171.48    6.10
  -5  -2  -5  166.48    9.00
  -5  -2  -5  157.08    9.00
  -5  -2  -5  156.68    6.50
  -5  -2  -5  174.58    5.90
   5   2   5  181.68    8.00
   5   2   5  169.58    8.50
   5   2   5  165.58    8.10
  -6  -2  -5   48.90    4.90
  -6  -2  -5   46.20    4.10
  -6  -2  -5   49.90    5.40
  -6  -2  -5   41.80    4.20
  -6  -2  -5   43.10    4.40
   6   2   5   48.20    5.20
   6   2   5   41.90    4.90
  -7  -2  -5    2.20    2.80
  -7  -2  -5   -2.80    3.70
  -7  -2  -5    5.90    3.00
   7   2   5    4.00    4.30
   7   2   5    4.50    4.70
  -8  -2  -5   -3.40    4.70
  -8  -2  -5    9.30    6.60
  -8  -2  -5    0.00    5.10
   8   2   5    1.40    5.80
   8   2   5   -2.00    5.90
   7  -3  -5   19.90    6.80
   7  -3  -5   23.30    4.40
  -7   3   5   30.60    7.80
  -7   3   5   21.70    5.30
   6  -3  -5   84.49    4.10
   6  -3  -5   60.39    6.80
   6  -3  -5   84.69    6.60
  -6   3   5   84.19    5.40
  -6   3   5   79.19    7.10
  -6   3   5   85.29    9.80
   5  -3  -5   21.10    3.70
   5  -3  -5   25.40    2.80
   5  -3  -5   22.90    3.20
   5  -3  -5   24.00    4.30
  -5   3   5   21.70    4.90
  -5   3   5   23.10    3.90
  -5   3   5   23.20    2.20
   4  -3  -5   58.19    5.10
   4  -3  -5   64.39    4.20
   4  -3  -5   69.39    4.60
   4  -3  -5   61.09    5.70
  -4   3   5   64.09    4.90
  -4   3   5   67.89    5.90
  -4   3   5   78.89    6.60
  -4   3   5   60.09    6.10
   3  -3  -5  106.59    7.10
   3  -3  -5  119.39    6.20
   3  -3  -5  111.79    3.90
   3  -3  -5  112.19    5.80
   3  -3  -5  112.69    4.90
  -3   3   5  106.29    6.00
  -3   3   5  109.29    4.10
  -3   3   5  108.99    5.50
  -3   3   5  106.59    6.70
  -3   3   5  114.89    5.70
   2  -3  -5  167.58    6.60
   2  -3  -5  162.38    5.40
   2  -3  -5  179.68    6.30
   2  -3  -5  164.38    7.40
   2  -3  -5  171.88    6.70
  -2   3   5  170.28    6.50
  -2   3   5  160.88    7.20
  -2   3   5  166.58    6.40
  -2   3   5  157.18    6.00
  -2   3   5  174.18    6.50
   1  -3  -5    8.60    1.90
   1  -3  -5    3.40    2.00
   1  -3  -5    5.00    1.70
   1  -3  -5    5.30    2.30
   1  -3  -5    6.20    1.50
   1  -3  -5    6.30    1.00
  -1   3   5    6.20    2.00
  -1   3   5    6.90    1.10
  -1   3   5    3.50    1.40
  -1   3   5    7.50    1.80
  -1   3   5    4.90    1.70
  -1   3   5    4.60    1.50
   0  -3  -5    1.50    1.70
   0  -3  -5    2.20    1.40
   0  -3  -5    1.10    1.10
   0  -3  -5    0.40    1.20
   0  -3  -5    0.00    1.80
   0  -3  -5    0.70    1.40
   0   3   5    1.20    1.20
   0   3   5    1.90    1.60
   0   3   5   -0.10    1.00
   0   3   5    0.80    1.30
   0   3   5   -0.30    1.40
   0   3   5    0.80    1.30
  -1  -3  -5  534.15   14.70
  -1  -3  -5  560.44   15.10
  -1  -3  -5  550.54   14.80
  -1  -3  -5  558.94   15.50
  -1  -3  -5  568.24   14.50
   1   3   5  549.05   15.20
   1   3   5  549.45   13.80
   1   3   5  550.14   14.70
   1   3   5  556.04   15.50
   1   3   5  557.94   14.90
   1   3   5  563.04   14.60
  -2  -3  -5    7.00    1.00
  -2  -3  -5    6.70    1.90
  -2  -3  -5    5.40    1.60
  -2  -3  -5    3.40    1.90
  -2  -3  -5    5.30    1.80
  -2  -3  -5    3.00    2.20
   2   3   5    6.80    1.00
   2   3   5    7.60    1.60
   2   3   5    7.50    2.20
   2   3   5    3.70    1.80
   2   3   5    7.00    1.70
   2   3   5    3.90    1.70
  -3  -3  -5    0.40    1.80
  -3  -3  -5   -1.20    2.00
  -3  -3  -5   -2.70    1.50
  -3  -3  -5    0.00    0.80
  -3  -3  -5    1.10    1.50
  -3  -3  -5    0.10    2.30
  -3  -3  -5   -1.20    2.30
  -3  -3  -5   -0.80    0.90
   3   3   5    0.80    1.40
   3   3   5   -0.40    1.20
   3   3   5    0.00    1.50
   3   3   5   -1.40    2.00
   3   3   5    0.80    1.60
  -4  -3  -5   14.30    2.70
  -4  -3  -5   11.60    2.90
  -4  -3  -5   11.10    1.60
  -4  -3  -5   10.40    2.10
  -4  -3  -5    7.70    2.30
  -4  -3  -5    9.10    1.40
  -4  -3  -5    7.00    3.20
  -4  -3  -5   10.90    3.50
   4   3   5   10.10    1.60
   4   3   5   10.70    1.60
   4   3   5   14.60    2.80
   4   3   5   14.60    3.20
   4   3   5   12.20    2.50
  -5  -3  -5    7.10    2.30
  -5  -3  -5    2.20    2.50
  -5  -3  -5    5.70    1.90
  -5  -3  -5    5.00    2.00
  -5  -3  -5    5.60    2.50
  -5  -3  -5    6.40    3.70
   5   3   5    6.10    2.70
   5   3   5    3.50    2.80
   5   3   5    9.80    3.50
  -6  -3  -5   33.70    4.20
  -6  -3  -5   38.00    3.80
  -6  -3  -5   34.60    4.60
  -6  -3  -5   36.60    3.80
   6   3   5   27.40    4.30
   6   3   5   35.30    4.70
  -7  -3  -5   -6.00    3.80
  -7  -3  -5    1.60    4.50
  -7  -3  -5   -2.60    3.20
   7   3   5   -5.00    4.10
   7   3   5   -2.80    4.60
  -8  -3  -5   24.20    5.50
  -8  -3  -5   30.60    5.10
   8   3   5   22.70    6.30
   8   3   5   25.70    6.90
   7  -4  -5   -2.70    4.90
   7  -4  -5    9.30    6.60
  -7   4   5    0.10    5.10
  -7   4   5   -6.70    5.60
  -7   4   5   -1.40    6.60
   6  -4  -5   38.60    4.90
   6  -4  -5   42.00    6.30
  -6   4   5   46.20    5.60
  -6   4   5   52.69    6.70
  -6   4   5   40.80    7.40
   5  -4  -5  147.19    7.70
   5  -4  -5  146.79    5.80
   5  -4  -5  151.98    6.90
   5  -4  -5  147.39    8.60
  -5   4   5  149.49    8.70
  -5   4   5  141.49   11.00
  -5   4   5  147.49    7.80
   4  -4  -5  114.09    5.20
   4  -4  -5  113.39    7.40
   4  -4  -5  116.99    6.20
   4  -4  -5  106.49    6.00
  -4   4   5  102.39    6.90
  -4   4   5  113.09    6.30
  -4   4   5  111.79    8.00
  -4   4   5  111.19    7.00
   3  -4  -5   57.99    5.10
   3  -4  -5   74.59    3.30
   3  -4  -5   70.19    4.20
   3  -4  -5   55.89    6.50
   3  -4  -5   70.39    5.00
  -3   4   5   62.39    5.10
  -3   4   5   61.69    3.40
  -3   4   5   72.99    4.70
  -3   4   5   72.39    5.90
  -3   4   5   74.19    5.30
  -3   4   5   71.19    6.10
   2  -4  -5    1.60    1.90
   2  -4  -5    1.30    1.60
   2  -4  -5   -0.80    2.60
   2  -4  -5   -0.10    1.40
   2  -4  -5    8.80    3.20
  -2   4   5    0.60    1.80
  -2   4   5    0.90    2.20
  -2   4   5    0.30    1.70
  -2   4   5   -1.80    1.40
  -2   4   5    4.40    2.50
  -2   4   5   -1.00    2.10
   1  -4  -5   19.80    2.50
   1  -4  -5   14.60    1.20
   1  -4  -5   18.20    2.20
   1  -4  -5   15.30    2.30
   1  -4  -5    9.00    2.40
   1  -4  -5   11.30    2.90
  -1   4   5   15.80    2.70
  -1   4   5   14.10    2.30
  -1   4   5   17.20    2.50
  -1   4   5   17.60    2.40
  -1   4   5   19.50    2.60
   0  -4  -5  378.66   11.00
   0  -4  -5  377.56   10.90
   0  -4  -5  367.86    9.70
   0  -4  -5  368.86   11.70
   0  -4  -5  367.06   10.80
   0  -4  -5  364.96   10.20
   0   4   5  354.76   11.60
   0   4   5  369.46   10.90
   0   4   5  376.36   10.60
   0   4   5  361.56   10.80
   0   4   5  359.26   10.90
  -1  -4  -5   66.19    4.10
  -1  -4  -5   70.99    2.90
  -1  -4  -5   72.39    4.80
  -1  -4  -5   70.19    3.90
  -1  -4  -5   71.49    4.00
  -1  -4  -5   74.09    3.60
  -1  -4  -5   69.49    3.50
   1   4   5   66.09    4.10
   1   4   5   70.39    3.80
   1   4   5   80.49    3.40
   1   4   5   66.69    4.60
   1   4   5   74.39    4.10
   1   4   5   64.79    3.80
  -2  -4  -5   82.29    4.10
  -2  -4  -5   73.59    4.70
  -2  -4  -5   77.99    4.30
  -2  -4  -5   74.89    4.30
  -2  -4  -5   77.19    4.30
  -2  -4  -5   73.69    3.30
   2   4   5   70.39    4.20
   2   4   5   77.69    3.90
   2   4   5   77.49    3.90
   2   4   5   75.19    4.30
   2   4   5   77.49    4.50
   2   4   5   77.09    4.80
  -3  -4  -5    9.30    2.10
  -3  -4  -5    4.30    1.50
  -3  -4  -5    7.70    2.80
  -3  -4  -5    3.50    2.00
  -3  -4  -5    3.30    2.10
  -3  -4  -5    4.60    2.30
  -3  -4  -5    3.90    2.50
   3   4   5    6.50    2.10
   3   4   5    8.80    1.90
   3   4   5    5.20    1.50
   3   4   5    2.80    2.40
   3   4   5    6.20    1.80
   3   4   5    7.10    2.20
  -4  -4  -5   80.49    5.80
  -4  -4  -5   82.69    4.50
  -4  -4  -5   87.29    5.10
  -4  -4  -5   93.79    5.60
  -4  -4  -5   83.59    3.90
  -4  -4  -5   77.09    5.80
   4   4   5   79.49    4.00
   4   4   5   85.79    4.20
   4   4   5   86.29    5.80
   4   4   5   86.29    5.40
   4   4   5   78.79    5.20
  -5  -4  -5   -1.60    2.70
  -5  -4  -5   -0.20    2.80
  -5  -4  -5   -0.40    2.10
  -5  -4  -5    0.10    2.10
   5   4   5    0.20    1.60
   5   4   5    1.40    1.70
   5   4   5   -2.20    2.90
   5   4   5    1.70    2.80
  -6  -4  -5   16.00    6.30
  -6  -4  -5   25.20    3.50
  -6  -4  -5   16.10    4.20
  -6  -4  -5   15.90    4.20
  -6  -4  -5   18.10    3.40
   6   4   5   26.50    4.60
   6   4   5   27.50    4.50
  -7  -4  -5   -4.60    3.80
  -7  -4  -5    7.30    3.50
   7   4   5   -0.50    4.30
   7   4   5    0.70    4.50
  -8  -4  -5    1.70    4.80
  -8  -4  -5    1.10    5.40
   8   4   5    3.50    5.50
   8   4   5    4.20    6.20
   7  -5  -5    0.60    5.80
   7  -5  -5    1.20    7.20
  -7   5   5  -10.90    6.30
  -7   5   5   -9.60    7.30
  -7   5   5    2.90    5.50
   6  -5  -5   -0.90    5.10
   6  -5  -5    0.70    4.50
  -6   5   5  -10.00    5.00
  -6   5   5    0.30    6.10
  -6   5   5    3.50    6.20
   5  -5  -5   14.10    3.70
   5  -5  -5   15.90    2.40
   5  -5  -5   20.80    3.80
   5  -5  -5   11.50    4.80
  -5   5   5    7.70    4.60
  -5   5   5   16.80    3.90
  -5   5   5   15.90    5.60
   4  -5  -5   64.69    4.30
   4  -5  -5   65.59    5.70
   4  -5  -5   64.89    6.40
   4  -5  -5   57.79    5.50
  -4   5   5   71.39    7.50
  -4   5   5   59.29    6.30
  -4   5   5   58.99    5.30
  -4   5   5   66.49    3.50
   3  -5  -5    5.10    2.30
   3  -5  -5    9.00    2.70
   3  -5  -5    4.80    2.80
   3  -5  -5    6.30    3.30
   3  -5  -5    6.80    1.90
  -3   5   5   10.90    2.90
  -3   5   5   10.00    4.30
  -3   5   5   11.80    2.60
  -3   5   5    8.60    2.10
  -3   5   5   10.60    3.30
  -3   5   5   10.70    3.20
   2  -5  -5   23.60    4.10
   2  -5  -5   23.00    3.50
   2  -5  -5   22.40    3.40
   2  -5  -5   24.80    2.80
   2  -5  -5   23.90    2.60
  -2   5   5   25.70    3.70
  -2   5   5   19.40    3.30
  -2   5   5   27.30    3.30
  -2   5   5   23.00    3.10
  -2   5   5   27.40    3.50
  -2   5   5   27.70    3.70
  -2   5   5   23.00    2.60
   1  -5  -5   53.69    3.70
   1  -5  -5   47.80    3.70
   1  -5  -5   51.69    1.80
   1  -5  -5   45.40    4.70
   1  -5  -5   63.09    5.40
   1  -5  -5   45.70    3.50
  -1   5   5   47.60    4.00
  -1   5   5   43.80    3.60
  -1   5   5   48.90    3.60
  -1   5   5   46.20    4.10
  -1   5   5   42.90    4.40
  -1   5   5   52.99    4.00
   0  -5  -5    8.10    2.70
   0  -5  -5   10.30    2.10
   0  -5  -5   11.30    1.60
   0  -5  -5   10.30    2.10
   0  -5  -5    8.80    1.90
   0  -5  -5   12.90    2.80
   0   5   5   11.20    2.70
   0   5   5   15.60    2.30
   0   5   5   12.80    2.20
   0   5   5    9.90    2.70
   0   5   5    9.20    2.10
  -1  -5  -5   69.09    4.10
  -1  -5  -5   61.69    3.60
  -1  -5  -5   57.19    5.20
  -1  -5  -5   65.99    3.10
  -1  -5  -5   63.69    4.50
  -1  -5  -5   66.19    4.20
  -1  -5  -5   68.89    4.00
   1   5   5   69.79    3.90
   1   5   5   68.19    3.90
   1   5   5   62.59    3.80
   1   5   5   59.79    4.40
   1   5   5   65.49    4.20
   1   5   5   57.49    4.10
  -2  -5  -5  345.77   10.20
  -2  -5  -5  326.07   10.60
  -2  -5  -5  330.37   11.40
  -2  -5  -5  307.47   10.20
  -2  -5  -5  320.47   10.20
  -2  -5  -5  337.17    9.70
   2   5   5  319.17   11.10
   2   5   5  330.17   10.10
   2   5   5  334.77   10.20
   2   5   5  336.47   10.20
   2   5   5  334.27    9.60
   2   5   5  327.87   10.80
  -3  -5  -5   22.00    4.30
  -3  -5  -5   15.40    2.60
  -3  -5  -5   24.60    3.20
  -3  -5  -5   19.10    3.00
  -3  -5  -5   21.30    3.30
  -3  -5  -5   22.30    2.40
   3   5   5   21.60    2.90
   3   5   5   22.60    2.80
   3   5   5   19.80    2.20
   3   5   5   22.30    3.60
   3   5   5   14.30    2.60
  -4  -5  -5  364.06   12.10
  -4  -5  -5  356.76   11.40
  -4  -5  -5  346.27   12.30
  -4  -5  -5  353.66   11.50
  -4  -5  -5  349.37   10.50
  -4  -5  -5  343.37   12.00
   4   5   5  373.56   10.90
   4   5   5  366.76   10.80
   4   5   5  362.76   11.90
   4   5   5  385.76   14.20
   4   5   5  370.06   12.20
   4   5   5  365.46   10.60
  -5  -5  -5   74.19    5.40
  -5  -5  -5   63.79    5.00
  -5  -5  -5   71.49    6.00
  -5  -5  -5   66.59    5.70
   5   5   5   80.59    6.20
   5   5   5   69.09    4.50
   5   5   5   76.19    4.70
   5   5   5   74.69    6.20
  -6  -5  -5   16.10    3.60
  -6  -5  -5   12.30    3.90
  -6  -5  -5   10.30    3.50
   6   5   5   14.50    4.00
   6   5   5   12.50    5.00
   6   5   5   11.70    2.20
  -7  -5  -5    3.70    4.70
  -7  -5  -5    1.20    4.20
   7   5   5   -5.50    4.40
   7   5   5    3.20    4.80
  -8  -5  -5   -4.70    5.00
  -8  -5  -5    6.20    5.60
   8   5   5   -0.10    5.30
   8   5   5   -1.30    5.70
   6  -6  -5    0.40    5.10
   6  -6  -5    6.20    6.90
  -6   6   5   -0.10    5.60
  -6   6   5   -0.50    6.80
  -6   6   5    1.10    4.60
   5  -6  -5   18.30    4.70
   5  -6  -5   10.30    5.40
  -5   6   5   12.20    5.40
  -5   6   5   15.80    3.90
  -5   6   5   12.50    5.30
   4  -6  -5    2.00    3.20
   4  -6  -5   -0.10    3.40
   4  -6  -5   -2.90    2.30
  -4   6   5    6.60    3.90
  -4   6   5    0.00    2.30
  -4   6   5   -1.60    3.00
   3  -6  -5    9.30    3.20
   3  -6  -5   16.80    2.60
   3  -6  -5   11.00    3.80
   3  -6  -5    8.40    3.40
   3  -6  -5   15.50    2.70
  -3   6   5   18.60    4.40
  -3   6   5   16.80    3.00
  -3   6   5   14.70    3.80
  -3   6   5   17.20    2.80
   2  -6  -5   -2.20    2.00
   2  -6  -5   -1.20    2.40
   2  -6  -5   -0.90    3.00
   2  -6  -5    1.50    2.00
  -2   6   5    1.40    2.80
  -2   6   5    0.40    2.10
  -2   6   5   -0.10    3.00
  -2   6   5   -0.20    2.20
  -2   6   5   -1.70    2.90
  -2   6   5    2.80    2.70
   1  -6  -5    5.30    2.10
   1  -6  -5    5.10    3.20
   1  -6  -5    5.50    3.10
   1  -6  -5    1.10    0.90
   1  -6  -5    5.70    2.10
   1  -6  -5    1.30    2.00
  -1   6   5    4.60    2.70
  -1   6   5    1.20    2.00
  -1   6   5    1.80    2.30
  -1   6   5    4.80    2.90
  -1   6   5    1.70    2.20
  -1   6   5    4.50    2.40
   0  -6  -5   15.70    3.20
   0  -6  -5   12.40    2.60
   0  -6  -5   11.60    1.80
   0  -6  -5   17.10    3.40
   0  -6  -5   12.20    2.20
   0  -6  -5   12.90    3.10
   0  -6  -5   14.40    2.50
   0   6   5   14.50    2.80
   0   6   5   11.40    3.10
   0   6   5   10.80    2.70
   0   6   5   10.50    2.40
   0   6   5   12.10    2.30
   0   6   5   15.20    2.50
  -1  -6  -5   16.40    2.50
  -1  -6  -5   19.90    2.60
  -1  -6  -5   19.80    2.10
  -1  -6  -5   16.40    2.90
  -1  -6  -5   17.00    3.40
  -1  -6  -5   20.20    3.20
  -1  -6  -5    9.50    2.50
   1   6   5   18.40    2.70
   1   6   5   18.80    3.00
   1   6   5   20.10    2.50
   1   6   5   13.40    2.90
   1   6   5   17.60    2.10
   1   6   5   18.70    2.70
   1   6   5   18.10    3.00
  -2  -6  -5   -1.30    2.10
  -2  -6  -5    4.30    2.30
  -2  -6  -5    3.10    2.50
  -2  -6  -5    1.30    2.00
  -2  -6  -5    1.90    2.30
  -2  -6  -5    1.50    2.80
   2   6   5    0.40    2.60
   2   6   5    0.20    1.60
   2   6   5    0.80    1.80
   2   6   5    2.70    2.40
   2   6   5    2.10    1.90
   2   6   5    3.10    2.30
  -3  -6  -5   47.50    5.80
  -3  -6  -5   54.59    4.70
  -3  -6  -5   45.90    4.80
  -3  -6  -5   64.89    5.80
  -3  -6  -5   54.19    4.60
  -3  -6  -5   54.59    4.90
   3   6   5   50.89    4.20
   3   6   5   59.29    6.20
   3   6   5   52.69    4.70
   3   6   5   56.29    4.40
   3   6   5   52.69    4.20
  -4  -6  -5   42.20    4.00
  -4  -6  -5   40.00    4.50
  -4  -6  -5   34.40    4.30
  -4  -6  -5   45.30    4.60
   4   6   5   41.90    4.10
   4   6   5   42.00    4.30
   4   6   5   43.50    4.30
   4   6   5   47.70    4.60
  -5  -6  -5   19.70    4.30
  -5  -6  -5   10.70    3.30
  -5  -6  -5   15.50    3.70
   5   6   5   21.70    3.10
   5   6   5   20.10    3.30
   5   6   5   18.00    3.60
   5   6   5   14.90    3.60
   5   6   5   17.10    3.90
  -6  -6  -5    5.30    4.20
  -6  -6  -5   12.50    3.70
   6   6   5   10.80    4.40
   6   6   5    2.90    2.80
   6   6   5    9.00    3.30
   6   6   5    7.30    4.20
  -7  -6  -5  -11.30    4.60
  -7  -6  -5   -6.00    4.10
   7   6   5   -1.10    4.70
   7   6   5   -1.80    4.40
  -8  -6  -5    6.70    5.60
  -8  -6  -5    8.90    5.80
   8   6   5   -3.00    5.50
   8   6   5   -3.40    5.90
   6  -7  -5  -19.70    6.30
   6  -7  -5   -0.60    6.40
  -6   7   5   -1.60    6.80
  -6   7   5   12.50    6.70
  -6   7   5   10.50    5.20
   5  -7  -5    0.90    4.90
   5  -7  -5   -4.70    5.20
  -5   7   5    1.20    3.90
  -5   7   5   -2.70    5.70
  -5   7   5    4.80    5.10
   4  -7  -5    4.90    2.80
   4  -7  -5    5.70    4.80
   4  -7  -5    0.50    3.80
  -4   7   5   -2.50    4.40
  -4   7   5   -3.30    4.40
  -4   7   5   -6.00    3.10
  -4   7   5    2.00    3.20
   3  -7  -5    8.40    4.20
   3  -7  -5    6.40    3.20
   3  -7  -5   10.30    2.90
   3  -7  -5   11.40    3.20
   3  -7  -5    1.60    4.10
  -3   7   5    7.90    3.30
  -3   7   5   10.20    3.20
  -3   7   5   13.20    4.30
  -3   7   5    5.00    4.00
   2  -7  -5   61.19    4.90
   2  -7  -5   61.59    5.70
   2  -7  -5   53.09    5.20
   2  -7  -5   51.69    4.70
   2  -7  -5   49.80    5.50
  -2   7   5   57.69    5.20
  -2   7   5   43.40    5.00
  -2   7   5   66.69    6.30
  -2   7   5   55.19    5.90
   1  -7  -5    1.80    2.60
   1  -7  -5    2.10    2.30
   1  -7  -5    8.40    2.60
   1  -7  -5    5.20    3.50
   1  -7  -5    4.70    1.40
  -1   7   5    6.00    3.40
  -1   7   5   -0.40    2.50
  -1   7   5    4.90    2.60
  -1   7   5    3.20    2.70
  -1   7   5    4.90    3.10
   0  -7  -5   52.79    5.80
   0  -7  -5   49.80    4.10
   0  -7  -5   39.80    5.30
   0  -7  -5   53.19    4.80
   0  -7  -5   59.49    4.70
   0  -7  -5   51.39    5.50
   0   7   5   49.80    4.40
   0   7   5   52.39    4.30
   0   7   5   58.89    5.40
   0   7   5   46.20    5.10
   0   7   5   59.19    4.90
  -1  -7  -5   97.49    5.60
  -1  -7  -5   89.79    5.70
  -1  -7  -5   82.89    6.60
  -1  -7  -5   96.59    4.50
  -1  -7  -5   95.39    7.20
  -1  -7  -5   89.79    6.20
   1   7   5   89.29    4.90
   1   7   5  105.99    6.70
   1   7   5   91.89    4.40
   1   7   5  102.89    5.70
   1   7   5   80.69    6.00
   1   7   5   92.49    5.70
  -2  -7  -5   43.30    4.30
  -2  -7  -5   46.70    4.50
  -2  -7  -5   44.80    4.80
   2   7   5   45.20    4.10
   2   7   5   41.60    4.80
   2   7   5   39.90    2.60
   2   7   5   34.60    3.70
   2   7   5   39.60    4.20
  -3  -7  -5   44.30    4.40
  -3  -7  -5   38.00    4.40
  -3  -7  -5   48.50    4.80
   3   7   5   45.50    4.50
   3   7   5   47.20    4.60
   3   7   5   39.70    4.40
  -4  -7  -5    6.10    2.90
  -4  -7  -5   -0.80    3.20
  -4  -7  -5    3.90    3.40
   4   7   5   -0.60    2.80
   4   7   5    3.30    2.60
   4   7   5    0.60    2.50
  -5  -7  -5  101.69   11.10
  -5  -7  -5   82.99    6.40
  -5  -7  -5   86.19    7.20
   5   7   5   88.69    6.90
   5   7   5   85.79    5.90
   5   7   5   74.09    6.10
   5   7   5   76.79    9.40
   5   7   5   74.49    6.80
  -6  -7  -5   10.20    5.00
  -6  -7  -5    2.80    3.80
  -6  -7  -5   -1.40    4.00
   6   7   5   -2.10    4.10
   6   7   5   -0.80    4.00
   6   7   5   -2.70    4.10
   6   7   5    5.60    3.40
  -7  -7  -5   16.80    5.30
  -7  -7  -5   23.80    5.70
   7   7   5   21.50    5.30
   7   7   5   22.20    6.60
  -8  -7  -5    6.40    6.40
  -8  -7  -5    9.70    6.20
   8   7   5   -2.90    5.90
   8   7   5   -8.40    6.30
   5  -8  -5    7.20    6.30
   5  -8  -5    0.20    5.40
  -5   8   5   11.60    5.00
  -5   8   5    3.10    6.30
  -5   8   5    6.40    6.80
   4  -8  -5   15.90    5.40
   4  -8  -5    6.10    4.80
  -4   8   5   14.30    4.20
  -4   8   5   21.40    6.10
  -4   8   5   15.40    5.60
   3  -8  -5    7.60    3.30
   3  -8  -5    3.20    4.20
   3  -8  -5    0.40    4.70
   3  -8  -5    2.70    3.40
  -3   8   5   10.20    4.90
  -3   8   5   -4.30    3.70
  -3   8   5    2.40    4.00
   2  -8  -5   31.70    4.30
   2  -8  -5   30.10    4.10
   2  -8  -5   33.50    5.20
   2  -8  -5   26.90    4.60
   2  -8  -5   26.60    4.90
  -2   8   5   32.50    5.20
  -2   8   5   32.40    4.40
  -2   8   5   23.40    5.20
  -2   8   5   29.60    4.20
   1  -8  -5   10.60    3.30
   1  -8  -5    6.80    3.00
   1  -8  -5    6.20    3.00
   1  -8  -5    8.90    3.30
  -1   8   5    7.50    3.00
  -1   8   5   10.10    3.90
  -1   8   5    5.90    3.60
  -1   8   5    9.10    3.80
  -1   8   5   15.90    3.60
   0  -8  -5   44.40    4.50
   0  -8  -5   39.80    4.70
   0  -8  -5   40.40    4.30
   0   8   5   41.70    4.40
   0   8   5   40.00    4.70
   0   8   5   40.30    5.20
   0   8   5   45.80    4.80
  -1  -8  -5   37.70    5.90
  -1  -8  -5   35.50    4.00
  -1  -8  -5   50.69    5.40
   1   8   5   39.10    4.20
   1   8   5   30.70    3.60
   1   8   5   47.90    5.50
   1   8   5   41.10    4.00
   1   8   5   50.19    5.30
  -2  -8  -5   21.80    4.10
  -2  -8  -5   17.60    3.40
  -2  -8  -5   21.10    4.50
   2   8   5   19.00    2.60
   2   8   5   13.40    2.70
   2   8   5   19.00    3.50
   2   8   5    7.90    3.80
   2   8   5   18.00    3.30
  -3  -8  -5   13.60    4.00
  -3  -8  -5   11.30    3.40
  -3  -8  -5    6.30    4.30
   3   8   5    8.10    3.00
   3   8   5   16.20    3.20
   3   8   5   13.80    2.90
  -4  -8  -5   20.50    5.00
  -4  -8  -5   12.00    4.60
   4   8   5   16.80    3.60
   4   8   5   13.10    3.60
   4   8   5   15.10    3.60
  -5  -8  -5   23.60    4.90
  -5  -8  -5   23.90    4.90
   5   8   5   21.10    4.20
   5   8   5   24.60    4.90
   5   8   5   22.30    3.90
   5   8   5   24.10    4.60
  -6  -8  -5   12.70    5.10
  -6  -8  -5    9.70    4.90
   6   8   5    9.70    4.50
   6   8   5   10.00    4.60
   6   8   5   12.30    4.30
   6   8   5    8.40    5.10
  -7  -8  -5    5.90    5.60
  -7  -8  -5    0.20    6.00
   7   8   5   -5.50    4.50
   7   8   5    5.00    5.00
   7   8   5    8.20    5.90
   4  -9  -5   12.40    6.70
   4  -9  -5   10.10    5.50
  -4   9   5   13.70    5.90
  -4   9   5   11.70    6.60
  -4   9   5    7.00    5.00
   3  -9  -5    2.70    5.20
   3  -9  -5   -0.90    4.80
   3  -9  -5   -4.40    3.60
  -3   9   5    8.30    5.20
  -3   9   5    0.90    4.40
  -3   9   5    6.90    5.70
   2  -9  -5  105.99    8.00
   2  -9  -5  108.89    9.70
   2  -9  -5   93.99    8.30
   2  -9  -5   97.59    6.80
  -2   9   5  116.29    8.90
  -2   9   5   97.99    6.90
  -2   9   5   90.29    9.70
   1  -9  -5   19.90    4.20
   1  -9  -5   34.80    4.40
   1  -9  -5   27.10    4.70
   1  -9  -5   31.10    2.70
   1  -9  -5   31.80    4.70
  -1   9   5   29.60    4.30
  -1   9   5   33.80    5.40
  -1   9   5   35.00    5.40
   0  -9  -5  146.29    8.50
   0  -9  -5  150.18    7.60
   0  -9  -5  133.59    8.00
   0  -9  -5  138.49    8.20
   0   9   5  119.89    7.60
   0   9   5  131.89    8.90
   0   9   5  130.89    7.70
   0   9   5  142.09    8.50
   0   9   5  136.99    6.30
  -1  -9  -5  150.18    8.00
  -1  -9  -5  150.08    8.40
   1   9   5  136.29    7.10
   1   9   5  132.19    8.60
   1   9   5  140.99    6.50
   1   9   5  142.79    8.90
   1   9   5  149.09    8.40
  -2  -9  -5   52.69    9.20
   2   9   5   35.30    5.30
   2   9   5   38.70    5.30
   2   9   5   44.80    4.00
   2   9   5   40.70    4.30
   2   9   5   40.80    4.90
  -3  -9  -5   22.40    4.40
  -3  -9  -5   11.20    4.20
   3   9   5   11.20    3.60
   3   9   5   11.30    2.10
   3   9   5   16.60    4.10
   3   9   5   14.30    3.40
  -4  -9  -5   -2.80    4.10
  -4  -9  -5   -0.30    4.20
   4   9   5    5.20    3.50
   4   9   5   -1.10    3.70
   4   9   5   -0.40    3.70
  -5  -9  -5    4.90    4.70
  -5  -9  -5    1.00    5.00
   5   9   5    4.50    3.90
   5   9   5    7.70    4.40
   5   9   5   -2.10    3.90
  -6  -9  -5   -8.40    5.30
  -6  -9  -5    1.90    5.10
   6   9   5    6.80    4.90
   6   9   5   -0.60    4.60
   6   9   5   -1.40    4.70
   6   9   5    1.30    4.90
  -7  -9  -5    0.40    6.10
  -7  -9  -5    8.10    6.60
   7   9   5   -6.50    5.70
   7   9   5    5.20    6.60
   7   9   5    3.30    6.50
   3 -10  -5    2.00    4.90
   3 -10  -5    1.30    6.30
  -3  10   5    4.20    6.20
  -3  10   5   -4.30    6.50
  -3  10   5   -1.60    4.80
   2 -10  -5   -2.40    4.30
   2 -10  -5    5.90    4.50
   2 -10  -5    4.70    5.40
  -2  10   5   10.30    6.00
  -2  10   5    2.70    4.60
  -2  10   5    8.60    5.40
   1 -10  -5    6.30    4.30
   1 -10  -5   13.90    4.80
   1 -10  -5    4.60    2.70
   1 -10  -5    1.90    4.50
   1 -10  -5    1.90    4.10
  -1  10   5   -2.50    4.30
  -1  10   5    3.80    4.20
  -1  10   5    2.30    5.40
   0 -10  -5   21.30    4.50
   0 -10  -5   34.00    5.60
   0  10   5   29.00    3.70
   0  10   5   38.20    5.90
   0  10   5   26.70    5.60
   0  10   5   28.10    4.80
  -1 -10  -5    4.80    4.20
  -1 -10  -5   -1.40    4.30
  -1 -10  -5    1.10    3.30
   1  10   5    2.40    4.00
   1  10   5    0.90    2.50
   1  10   5   -3.30    3.90
   1  10   5    3.50    3.60
   1  10   5    0.50    4.40
  -2 -10  -5  116.99    9.00
  -2 -10  -5  113.09    8.70
  -2 -10  -5  101.29    8.20
   2  10   5   95.49    7.50
   2  10   5  108.89    6.50
   2  10   5  125.09    8.60
  -3 -10  -5   11.10    4.90
  -3 -10  -5    7.80    4.60
   3  10   5   14.20    3.80
   3  10   5   14.40    4.40
   3  10   5   14.60    5.40
  -4 -10  -5  101.29    9.00
  -4 -10  -5  107.59    9.00
   4  10   5  100.29    7.90
   4  10   5  109.39    8.80
   4  10   5  121.09    9.30
  -5 -10  -5    0.10    5.00
  -5 -10  -5    2.80    5.30
   5  10   5    6.50    4.60
   5  10   5    3.70    4.80
   5  10   5   -7.20    5.30
  -6 -10  -5   19.80    6.30
  -6 -10  -5   15.80    6.40
   6  10   5   11.80    5.90
   6  10   5    7.80    5.90
   6  10   5    4.60    5.90
   6  10   5   11.10    5.30
   2 -11  -5    3.00    5.10
   2 -11  -5   -5.60    5.30
  -2  11   5   -0.60    5.40
  -2  11   5   -2.10    6.10
  -2  11   5    3.60    6.70
   1 -11  -5    7.00    5.00
   1 -11  -5   18.20    6.10
   1 -11  -5   17.10    6.40
  -1  11   5    9.50    6.00
  -1  11   5   14.60    6.40
  -1  11   5    5.60    5.00
   0 -11  -5   -6.40    5.40
   0 -11  -5    3.00    5.10
   0 -11  -5    2.90    4.60
   0  11   5   -2.20    5.70
   0  11   5    4.90    4.90
   0  11   5   -0.50    4.10
   0  11   5   -7.60    3.00
  -1 -11  -5   25.30    5.50
  -1 -11  -5   15.90    5.20
  -1 -11  -5   17.50    5.40
   1  11   5   13.60    3.60
   1  11   5   15.80    5.20
   1  11   5   19.70    5.50
   1  11   5   15.90    4.90
  -2 -11  -5   -3.70    4.40
  -2 -11  -5   16.70    5.40
  -2 -11  -5    6.00    5.70
   2  11   5    7.80    3.50
   2  11   5    3.50    4.70
   2  11   5    2.60    5.10
  -3 -11  -5   10.70    5.40
  -3 -11  -5   17.40    5.60
  -3 -11  -5   11.50    4.80
   3  11   5   16.60    5.50
   3  11   5   11.00    3.90
   3  11   5    3.80    4.70
  -4 -11  -5    7.30    5.30
  -4 -11  -5    8.70    6.10
  -4 -11  -5    4.30    4.70
   4  11   5   11.50    4.40
   4  11   5    5.20    5.40
   4  11   5   -0.30    4.80
  -5 -11  -5   10.60    6.80
  -5 -11  -5   -6.40    5.90
   5  11   5   -6.90    4.80
   5  11   5    3.30    5.50
   5  11   5    6.30    5.90
   0 -12  -5   -1.80    6.90
   0 -12  -5   -1.10    5.30
   0 -12  -5    0.70    6.30
   0  12   5   -6.30    5.10
   0  12   5    3.80    6.60
   0  12   5   -5.00    6.30
  -1 -12  -5   -1.60    5.50
  -1 -12  -5   -1.60    6.20
  -1 -12  -5   15.40    6.90
   1  12   5   -4.80    5.30
   1  12   5    1.70    5.30
   1  12   5   -3.40    6.10
  -2 -12  -5   15.20    6.40
  -2 -12  -5    0.70    6.00
  -2 -12  -5    7.10    5.60
   2  12   5    9.00    5.20
   2  12   5   -1.50    5.50
  -3 -12  -5   -2.00    6.20
  -3 -12  -5   15.20    6.60
  -3 -12  -5    6.80    5.60
   3  12   5    9.80    6.40
   3  12   5    4.40    5.80
  -4 -12  -5    5.30    6.40
  -4 -12  -5    4.80    5.70
  -4 -12  -5    5.90    7.40
   4  12   5    3.10    6.70
   3   9  -6   -3.50    5.10
   3   9  -6   -4.00    6.30
   3   9  -6    7.40    6.80
  -3  -9   6    1.40    5.50
  -3  -9   6    4.90    6.20
   2   9  -6    1.60    6.50
   2   9  -6   12.80    6.40
  -2  -9   6   11.40    6.00
  -2  -9   6   11.20    6.40
  -2  -9   6   14.10    5.40
   1   9  -6    0.60    5.70
   1   9  -6    0.20    6.90
  -1  -9   6    3.20    5.60
  -1  -9   6   -5.90    5.20
  -1  -9   6   -0.70    6.20
   0   9  -6   -0.50    6.90
   0   9  -6   -1.30    6.50
   0  -9   6   13.30    6.10
   0  -9   6    6.00    6.80
   5   8  -6   22.50    6.30
   5   8  -6    9.20    6.60
   5   8  -6   -5.40    5.50
  -5  -8   6    5.00    6.50
  -5  -8   6    8.40    6.60
   4   8  -6    3.80    5.60
   4   8  -6    6.40    5.80
   4   8  -6    9.90    5.10
  -4  -8   6    5.50    5.90
   3   8  -6    4.10    5.70
   3   8  -6   -3.30    5.80
   3   8  -6    3.20    4.30
  -3  -8   6    5.80    5.00
  -3  -8   6    2.80    5.20
   2   8  -6    4.10    5.20
   2   8  -6    8.80    5.20
  -2  -8   6    0.80    5.80
  -2  -8   6    1.00    4.30
  -2  -8   6   -3.70    4.90
   1   8  -6    5.60    5.40
   1   8  -6   -1.60    5.30
  -1  -8   6   -5.80    4.90
  -1  -8   6    3.30    5.10
  -1  -8   6   -0.40    4.40
   0   8  -6   13.30    5.90
   0   8  -6   22.60    6.40
   0  -8   6   25.20    4.60
   0  -8   6   22.40    6.60
   0  -8   6   14.40    5.00
  -1   8  -6   11.70    5.80
  -1   8  -6   16.80    6.00
   1  -8   6   12.60    6.70
   1  -8   6    6.00    5.60
  -2   8  -6  -11.90    5.70
  -2   8  -6   -3.00    6.00
   2  -8   6    9.90    5.90
   2  -8   6    3.40    7.10
   6   7  -6    5.40    6.00
   6   7  -6   -2.70    5.60
  -6  -7   6    1.10    7.10
  -6  -7   6  -12.60    6.50
   5   7  -6   -4.70    5.40
   5   7  -6    2.50    6.40
   5   7  -6    2.50    4.70
  -5  -7   6    4.00    6.00
  -5  -7   6    3.80    5.80
   4   7  -6   -3.40    5.00
   4   7  -6    7.30    5.00
   4   7  -6   -1.30    3.90
  -4  -7   6   -2.00    5.00
  -4  -7   6    5.10    4.50
   3   7  -6   -0.50    4.70
   3   7  -6   -1.20    3.40
  -3  -7   6    2.90    4.70
  -3  -7   6    6.70    3.60
  -3  -7   6   -0.80    3.60
   2   7  -6   -4.60    4.20
   2   7  -6    1.60    4.00
  -2  -7   6    2.10    2.10
  -2  -7   6   -2.30    4.00
  -2  -7   6   -0.40    3.70
  -2  -7   6    1.30    2.40
  -2  -7   6    4.90    3.90
   1   7  -6    3.90    4.50
   1   7  -6    4.80    4.60
  -1  -7   6    4.20    3.80
  -1  -7   6   -3.70    4.20
  -1  -7   6   -2.90    2.10
  -1  -7   6   -3.30    3.60
   0   7  -6    8.90    4.50
   0   7  -6    0.50    7.60
   0  -7   6    6.20    3.40
   0  -7   6    4.80    4.80
   0  -7   6    7.20    4.30
   0  -7   6    7.50    2.30
  -1   7  -6    2.10    6.40
  -1   7  -6    2.30    5.00
   1  -7   6    7.20    4.50
   1  -7   6   -0.80    5.20
  -2   7  -6   -3.60    4.60
   2  -7   6   14.40    5.20
   2  -7   6    4.80    5.70
  -3   7  -6    3.90    5.50
  -3   7  -6   -5.10    4.90
   3  -7   6    3.00    5.10
   3  -7   6   -6.90    6.50
   6   6  -6   15.40    6.10
   6   6  -6   -0.90    5.10
  -6  -6   6    4.40    6.90
  -6  -6   6    3.70    5.70
   5   6  -6    8.10    4.50
   5   6  -6   14.80    5.10
  -5  -6   6    5.00    5.30
  -5  -6   6    2.30    5.30
   4   6  -6    4.10    4.60
   4   6  -6    0.10    3.40
   4   6  -6    3.60    4.10
  -4  -6   6    0.60    4.00
  -4  -6   6   -3.40    4.20
   3   6  -6    5.00    4.00
   3   6  -6   10.40    4.10
   3   6  -6    9.50    4.00
   3   6  -6   15.60    3.30
  -3  -6   6   14.90    3.30
  -3  -6   6    7.20    4.10
  -3  -6   6    9.10    3.50
   2   6  -6   62.99    5.00
   2   6  -6   60.59    6.30
   2   6  -6   53.39    5.70
   2   6  -6   56.89    5.80
  -2  -6   6   63.89    4.60
  -2  -6   6   60.79    6.60
  -2  -6   6   64.69    6.70
  -2  -6   6   56.49    4.30
   1   6  -6  175.38    9.60
   1   6  -6  158.88    9.60
  -1  -6   6  169.88    9.10
  -1  -6   6  153.18    8.70
  -1  -6   6  152.78    6.10
  -1  -6   6  158.98    7.80
   0   6  -6   12.90    3.90
   0   6  -6    6.10    4.10
   0  -6   6    6.90    3.60
   0  -6   6   10.10    2.30
   0  -6   6    7.80    4.10
   0  -6   6   10.80    3.70
   0  -6   6    9.60    3.20
  -1   6  -6  157.38    8.90
  -1   6  -6  165.18    8.90
  -1   6  -6  148.59    7.90
   1  -6   6  165.58    6.60
   1  -6   6  157.28   10.20
   1  -6   6  161.58    9.20
  -2   6  -6    7.60    4.20
  -2   6  -6    4.30    4.40
  -2   6  -6    2.50    4.10
   2  -6   6   10.70    4.80
   2  -6   6    1.10    4.40
   2  -6   6    7.00    3.00
  -3   6  -6   19.60    4.60
  -3   6  -6   30.60    5.20
   3  -6   6   22.30    5.40
   3  -6   6   20.60    5.80
   3  -6   6   27.00    3.90
  -4   6  -6    3.40    4.60
  -4   6  -6   11.20    5.40
  -4   6  -6    8.30    6.00
   4  -6   6   -0.70    4.30
   4  -6   6    7.70    6.30
   4  -6   6   11.60    5.90
   7   5  -6   -6.70    6.10
   7   5  -6  -10.10    5.60
  -7  -5   6   -2.90    7.40
  -7  -5   6   10.40    6.20
   6   5  -6   -2.60    4.60
   6   5  -6    0.40    5.30
  -6  -5   6   -0.10    6.30
  -6  -5   6    3.70    5.10
   5   5  -6    2.80    4.30
   5   5  -6    3.70    4.00
  -5  -5   6    3.40    4.60
  -5  -5   6    7.40    4.80
   4   5  -6    5.20    2.70
   4   5  -6    9.20    3.70
   4   5  -6    3.10    3.70
   4   5  -6   11.10    3.20
  -4  -5   6   10.10    4.00
  -4  -5   6    4.00    4.00
   3   5  -6    2.70    3.50
   3   5  -6    0.30    2.60
   3   5  -6    3.50    5.40
   3   5  -6    0.10    2.90
  -3  -5   6    7.00    3.00
  -3  -5   6    2.00    3.50
   2   5  -6   27.70    3.00
   2   5  -6   25.40    4.10
   2   5  -6   24.80    4.20
   2   5  -6   34.10    4.70
  -2  -5   6   29.00    3.10
  -2  -5   6   19.50    3.60
  -2  -5   6   25.20    4.00
   1   5  -6   -1.50    3.20
   1   5  -6    1.10    3.50
   1   5  -6    3.50    3.10
  -1  -5   6   -0.50    3.60
  -1  -5   6    1.00    1.80
  -1  -5   6    3.70    2.80
  -1  -5   6    0.60    2.60
  -1  -5   6   -3.00    5.90
   0   5  -6    8.60    3.40
   0   5  -6    1.90    3.20
   0  -5   6    9.40    2.60
   0  -5   6    7.40    3.90
   0  -5   6    8.40    3.40
   0  -5   6    4.90    3.20
   0  -5   6    2.30    3.00
   0  -5   6   -0.10    1.90
  -1   5  -6    8.60    4.30
  -1   5  -6   14.80    3.10
  -1   5  -6   15.30    3.50
  -1   5  -6   11.50    3.30
   1  -5   6   14.50    2.20
   1  -5   6   13.50    4.20
   1  -5   6   12.00    4.10
   1  -5   6   13.50    2.60
   1  -5   6    0.30    4.70
  -2   5  -6   21.70    4.60
  -2   5  -6   25.20    4.00
  -2   5  -6   28.00    4.10
  -2   5  -6   24.10    3.90
   2  -5   6   16.50    4.10
   2  -5   6   25.80    3.40
   2  -5   6   16.90    4.60
   2  -5   6   19.70    5.00
  -3   5  -6    9.50    4.60
  -3   5  -6    9.90    4.30
  -3   5  -6   10.20    3.80
  -3   5  -6    6.70    4.50
  -3   5  -6   12.20    3.60
   3  -5   6   13.10    4.60
   3  -5   6   12.40    4.80
   3  -5   6    1.90    4.90
   3  -5   6   14.50    3.50
  -4   5  -6   18.20    5.50
  -4   5  -6   21.00    4.80
  -4   5  -6   29.80    4.30
   4  -5   6   21.70    4.30
   4  -5   6   15.90    6.00
   4  -5   6   26.40    5.60
  -5   5  -6   22.60    6.60
  -5   5  -6   13.00    5.30
   5  -5   6   26.40    6.80
   5  -5   6   14.30    5.10
   7   4  -6   30.60    6.30
   7   4  -6   28.10    7.30
   7   4  -6   31.40    6.40
  -7  -4   6   45.40    8.00
  -7  -4   6   26.10    6.60
   6   4  -6  286.77   12.90
   6   4  -6  269.97   12.50
  -6  -4   6  319.67   14.90
  -6  -4   6  286.47   13.60
   5   4  -6   78.19    6.60
   5   4  -6   74.09    7.90
   5   4  -6   83.39    7.20
  -5  -4   6   92.39    8.50
  -5  -4   6   73.29    7.10
   4   4  -6  429.16   13.30
   4   4  -6  422.56   11.90
   4   4  -6  409.46   15.60
   4   4  -6  422.66   14.30
  -4  -4   6  439.16   14.60
   3   4  -6   81.49    6.40
   3   4  -6   63.99    5.70
   3   4  -6   71.19    4.80
   3   4  -6   64.39    7.10
   3   4  -6   77.49    5.30
  -3  -4   6   77.79    5.60
  -3  -4   6   65.99    6.10
   2   4  -6    5.30    1.70
   2   4  -6    8.60    3.30
   2   4  -6    4.90    2.60
   2   4  -6    4.70    3.00
  -2  -4   6    8.50    3.60
  -2  -4   6    5.30    2.70
  -2  -4   6    8.00    2.40
  -2  -4   6    9.10    3.10
   1   4  -6  246.28    9.80
   1   4  -6  192.28    7.90
   1   4  -6  224.18    9.30
   1   4  -6  238.28    9.20
  -1  -4   6  241.68    8.90
  -1  -4   6  239.38    9.10
  -1  -4   6  252.87    9.60
  -1  -4   6  241.28    9.30
  -1  -4   6  236.38    6.80
   0   4  -6   18.40    4.30
   0   4  -6   25.70    2.80
   0   4  -6   23.30    3.40
   0   4  -6   22.00    4.20
   0  -4   6   16.90    3.40
   0  -4   6   21.30    2.60
   0  -4   6   20.70    2.90
   0  -4   6   25.50    3.80
   0  -4   6   25.30    3.30
  -1   4  -6    5.20    2.70
  -1   4  -6   -0.20    2.60
  -1   4  -6    6.80    3.50
   1  -4   6   -1.10    2.70
   1  -4   6    1.70    2.00
   1  -4   6    0.10    2.90
   1  -4   6   -0.30    1.90
   1  -4   6    2.70    1.70
  -2   4  -6    9.60    2.70
  -2   4  -6   10.20    3.70
  -2   4  -6    7.10    2.80
  -2   4  -6    8.50    2.90
   2  -4   6    3.60    2.50
   2  -4   6    5.80    3.10
   2  -4   6    5.70    3.20
  -3   4  -6   34.90    3.80
  -3   4  -6   32.90    4.30
  -3   4  -6   35.00    4.00
  -3   4  -6   30.50    4.20
   3  -4   6   37.20    5.40
   3  -4   6   39.30    4.60
   3  -4   6   26.80    3.80
  -4   4  -6   -0.80    5.90
  -4   4  -6    2.00    4.70
  -4   4  -6   -7.00    3.10
  -4   4  -6    3.90    4.40
   4  -4   6   -3.30    3.20
   4  -4   6   -1.60    3.90
  -5   4  -6   -2.30    3.60
  -5   4  -6   -4.40    5.30
  -5   4  -6   -0.60    3.90
   5  -4   6   -5.40    5.00
   5  -4   6    4.20    4.30
  -6   4  -6    3.00    6.20
   6  -4   6  -16.10    6.10
   6  -4   6   -0.40    5.40
   7   3  -6    2.70    5.00
   7   3  -6    5.80    5.50
   7   3  -6    5.30    6.10
  -7  -3   6   11.90    5.70
  -7  -3   6    1.30    6.70
   6   3  -6    8.20    4.20
   6   3  -6    6.20    4.30
  -6  -3   6    3.90    5.70
  -6  -3   6    6.00    5.00
   5   3  -6   27.40    4.40
   5   3  -6   32.00    4.60
   5   3  -6   24.00    4.20
  -5  -3   6   35.30    5.30
  -5  -3   6   24.60    5.30
   4   3  -6   85.89    6.20
   4   3  -6  112.69    6.90
   4   3  -6  112.19    4.80
   4   3  -6  122.99    6.30
  -4  -3   6  117.69    7.20
  -4  -3   6  114.89    7.20
   3   3  -6   31.80    3.60
   3   3  -6   30.50    3.10
   3   3  -6   25.50    3.90
  -3  -3   6   26.50    4.70
  -3  -3   6   27.90    3.90
  -3  -3   6   36.00    4.40
   2   3  -6  384.16   12.80
   2   3  -6  407.26   12.40
   2   3  -6  380.56   12.60
  -2  -3   6  408.86   13.10
  -2  -3   6  401.26   12.50
  -2  -3   6  398.56   11.60
  -2  -3   6  358.06   12.50
  -2  -3   6  397.66   12.70
   1   3  -6   48.10    4.90
   1   3  -6   47.00    4.40
   1   3  -6   53.99    4.50
   1   3  -6   48.70    5.30
   1   3  -6   52.89    2.60
  -1  -3   6   49.20    4.70
  -1  -3   6   48.40    4.50
  -1  -3   6   56.79    4.50
  -1  -3   6   53.79    4.70
   0   3  -6 1272.27   29.70
   0   3  -6 1263.07   33.10
   0   3  -6 1212.08   32.20
   0   3  -6 1299.87   32.00
   0   3  -6 1307.57   32.40
   0  -3   6 1281.77   31.40
   0  -3   6 1281.37   31.80
   0  -3   6 1288.87   31.50
   0  -3   6 1271.57   32.70
   0  -3   6 1299.77   31.50
  -1   3  -6   15.40    2.90
  -1   3  -6    9.50    3.50
  -1   3  -6   19.30    2.80
  -1   3  -6   20.20    1.90
  -1   3  -6   15.20    3.30
   1  -3   6   14.40    2.70
   1  -3   6   16.50    2.50
   1  -3   6   19.30    2.20
   1  -3   6   21.50    3.50
  -2   3  -6   85.39    6.60
  -2   3  -6   94.59    4.60
  -2   3  -6   90.59    5.10
  -2   3  -6   92.19    6.00
   2  -3   6   89.69    5.10
   2  -3   6   93.99    6.30
   2  -3   6   86.59    5.10
  -3   3  -6    3.30    3.60
  -3   3  -6    5.50    2.30
  -3   3  -6    0.50    2.20
  -3   3  -6    5.00    3.00
  -3   3  -6    2.80    2.80
   3  -3   6    5.50    2.70
   3  -3   6    5.70    2.80
   3  -3   6   -1.80    2.90
  -4   3  -6   43.00    4.10
  -4   3  -6   44.20    4.30
  -4   3  -6   41.70    4.00
  -4   3  -6   45.90    5.30
  -4   3  -6   38.20    3.80
  -4   3  -6   38.70    5.30
   4  -3   6   35.80    4.90
   4  -3   6   43.10    4.90
  -5   3  -6   10.50    3.60
  -5   3  -6   13.30    2.90
  -5   3  -6   10.90    3.40
  -5   3  -6   12.60    4.80
   5  -3   6   17.30    4.90
  -6   3  -6   -1.10    4.40
  -6   3  -6    7.30    5.40
   6  -3   6   -7.50    4.90
   6  -3   6   -0.90    5.40
   8   2  -6   -2.60    6.90
  -8  -2   6   17.30    8.50
   7   2  -6    3.00    4.40
   7   2  -6   -5.40    4.80
   7   2  -6   -3.80    4.60
  -7  -2   6    3.30    5.80
  -7  -2   6    1.60    6.40
   6   2  -6    5.50    2.80
   6   2  -6   10.60    4.40
   6   2  -6    7.30    5.10
   6   2  -6   -0.10    3.70
  -6  -2   6    4.40    5.00
  -6  -2   6    2.20    4.80
   5   2  -6    0.20    3.00
   5   2  -6   -3.70    2.90
   5   2  -6    2.60    3.30
  -5  -2   6    1.90    6.30
  -5  -2   6    3.90    4.30
   4   2  -6    2.30    1.90
   4   2  -6    5.00    2.80
   4   2  -6    6.30    2.30
   4   2  -6   -1.10    2.60
  -4  -2   6    7.40    3.30
  -4  -2   6   -1.20    2.90
   3   2  -6  193.38    6.80
   3   2  -6  183.08    7.90
   3   2  -6  193.38    7.10
  -3  -2   6  196.98    8.30
  -3  -2   6  197.28    8.30
  -3  -2   6  175.18    8.90
   2   2  -6   84.69    5.10
   2   2  -6   93.09    5.30
   2   2  -6   85.09    3.70
   2   2  -6   84.79    5.70
   2   2  -6   80.99    5.10
  -2  -2   6   88.19    5.90
  -2  -2   6   79.49    5.10
  -2  -2   6   87.99    5.10
  -2  -2   6   92.59    5.10
  -2  -2   6   83.49    5.90
   1   2  -6  146.89    7.10
   1   2  -6  152.98    6.90
   1   2  -6  160.78    6.70
   1   2  -6  151.68    6.40
  -1  -2   6  163.48    6.60
  -1  -2   6  151.68    6.80
  -1  -2   6  158.98    6.60
  -1  -2   6  168.48    6.80
  -1  -2   6  161.18    5.80
   0   2  -6   55.99    3.90
   0   2  -6   55.19    4.00
   0   2  -6   57.99    5.00
   0   2  -6   57.69    3.10
   0   2  -6   52.99    4.90
   0  -2   6   49.80    3.70
   0  -2   6   57.79    4.30
   0  -2   6   62.89    3.90
   0  -2   6   58.39    4.20
   0  -2   6   59.59    3.00
  -1   2  -6   15.90    2.20
  -1   2  -6   15.20    1.50
  -1   2  -6   17.10    3.30
  -1   2  -6   14.20    2.90
  -1   2  -6   13.30    1.50
  -1   2  -6   15.40    2.30
  -1   2  -6   18.40    3.40
  -1   2  -6   15.40    3.00
   1  -2   6   15.80    1.90
   1  -2   6   15.30    2.80
   1  -2   6   15.10    2.10
   1  -2   6   18.20    2.50
   1  -2   6   16.60    2.30
  -2   2  -6    1.80    1.60
  -2   2  -6    4.00    2.70
  -2   2  -6    2.60    2.60
  -2   2  -6    0.90    1.60
  -2   2  -6   -0.30    1.80
  -2   2  -6    1.70    1.30
   2  -2   6    3.10    2.60
   2  -2   6    0.30    1.70
  -3   2  -6   11.60    2.10
  -3   2  -6   15.20    3.40
  -3   2  -6   14.60    2.30
  -3   2  -6   13.10    4.40
  -3   2  -6   19.50    2.90
  -3   2  -6   17.60    2.90
  -3   2  -6   15.20    2.20
   3  -2   6   11.00    2.70
   3  -2   6   17.80    3.80
  -4   2  -6   -0.80    2.10
  -4   2  -6    5.20    2.70
  -4   2  -6    1.20    3.20
  -4   2  -6    3.80    2.50
  -4   2  -6   -1.20    2.70
  -4   2  -6    2.00    2.10
  -4   2  -6   -3.30    3.20
   4  -2   6    2.40    2.90
   4  -2   6    1.90    3.20
  -5   2  -6    0.00    3.80
  -5   2  -6    0.30    2.60
  -5   2  -6   -2.50    2.90
  -5   2  -6   -4.60    3.00
  -5   2  -6    0.80    3.80
  -5   2  -6    3.00    2.50
   5  -2   6    1.80    4.10
   5  -2   6   -0.90    3.60
  -6   2  -6   33.40    5.40
  -6   2  -6   35.70    4.30
  -6   2  -6   24.80    5.20
   6  -2   6   36.60    6.30
   6  -2   6   28.50    5.20
  -7   2  -6   -0.20    6.00
  -7   2  -6  -12.90    5.50
   7  -2   6    3.50    6.00
   8   1  -6    6.70    6.70
   8   1  -6   12.20    7.20
  -8  -1   6    1.80    6.40
  -8  -1   6   21.10    8.60
   7   1  -6    8.10    5.60
   7   1  -6    4.60    4.10
   7   1  -6   -3.00    5.00
  -7  -1   6   17.20    6.00
  -7  -1   6    8.80    6.80
   6   1  -6    4.10    4.90
   6   1  -6    3.10    4.20
   6   1  -6    4.20    3.50
   6   1  -6    0.60    1.80
  -6  -1   6    9.20    5.10
  -6  -1   6    9.60    4.40
   5   1  -6    0.20    1.20
   5   1  -6    3.20    1.90
   5   1  -6   -2.80    2.90
   5   1  -6   -0.90    2.80
   5   1  -6    1.20    2.30
   5   1  -6    0.60    1.60
  -5  -1   6   -0.90    4.00
  -5  -1   6    0.90    4.00
  -5  -1   6   -2.40    3.40
   4   1  -6    6.90    2.00
   4   1  -6    5.50    2.60
   4   1  -6    8.00    4.00
   4   1  -6    8.20    2.30
   4   1  -6   11.60    2.90
  -4  -1   6    5.00    3.40
  -4  -1   6    7.60    3.00
  -4  -1   6    9.20    2.90
   3   1  -6   68.69    4.20
   3   1  -6   64.39    4.30
   3   1  -6   59.59    5.50
   3   1  -6   56.79    5.90
   3   1  -6   69.69    4.00
   3   1  -6   71.79    4.90
  -3  -1   6   61.29    4.00
  -3  -1   6   61.99    5.40
  -3  -1   6   64.99    5.60
  -3  -1   6   62.49    4.60
  -3  -1   6   69.29    6.20
   2   1  -6   94.99    5.90
   2   1  -6  106.29    5.70
   2   1  -6  111.69    5.60
   2   1  -6  108.19    5.20
   2   1  -6  108.09    5.30
   2   1  -6  101.69    4.00
  -2  -1   6  113.39    5.90
  -2  -1   6   89.69    5.70
  -2  -1   6  104.79    5.50
  -2  -1   6  110.69    5.60
  -2  -1   6  102.69    5.10
   1   1  -6    2.70    2.00
   1   1  -6    0.90    2.40
   1   1  -6    1.40    1.70
   1   1  -6   -0.10    2.00
   1   1  -6   -0.10    1.80
  -1  -1   6   -0.90    1.60
  -1  -1   6    3.70    2.00
  -1  -1   6   -1.60    1.60
  -1  -1   6   -0.10    1.70
  -1  -1   6    0.00    2.20
   0   1  -6    2.40    2.10
   0   1  -6    6.70    1.70
   0   1  -6    3.30    2.00
   0   1  -6    7.50    2.50
   0   1  -6    6.60    2.30
   0   1  -6    7.80    2.10
   0  -1   6    7.20    2.20
   0  -1   6    3.00    1.80
   0  -1   6    0.00    1.80
   0  -1   6    5.80    1.70
   0  -1   6    2.70    1.60
  -1   1  -6   70.69    4.70
  -1   1  -6   62.19    3.30
  -1   1  -6   66.79    3.90
  -1   1  -6   65.99    4.80
  -1   1  -6   68.09    3.60
  -1   1  -6   70.19    4.70
  -1   1  -6   69.79    5.30
   1  -1   6   66.49    3.40
   1  -1   6   65.79    3.20
   1  -1   6   61.49    3.60
   1  -1   6   56.99    4.00
   1  -1   6   68.29    4.10
   1  -1   6   70.99    4.60
  -2   1  -6   15.80    2.70
  -2   1  -6   17.00    3.60
  -2   1  -6   17.00    2.30
  -2   1  -6   17.10    3.10
  -2   1  -6   10.00    2.00
  -2   1  -6   14.30    1.70
  -2   1  -6   12.20    2.80
  -2   1  -6   13.90    1.70
   2  -1   6   15.20    1.50
   2  -1   6   12.80    1.40
   2  -1   6   15.80    1.70
   2  -1   6   16.40    2.60
   2  -1   6   16.60    3.10
  -3   1  -6   86.69    4.30
  -3   1  -6   80.49    4.80
  -3   1  -6   83.39    3.40
  -3   1  -6   76.19    6.20
  -3   1  -6   81.79    4.50
  -3   1  -6   78.29    4.50
  -3   1  -6   66.49    5.60
   3  -1   6   86.79    4.30
   3  -1   6   73.99    5.10
   3  -1   6   77.19    5.60
  -4   1  -6    0.90    2.90
  -4   1  -6    0.30    2.80
  -4   1  -6   -3.80    2.80
  -4   1  -6    1.20    3.80
  -4   1  -6   -1.20    1.90
  -4   1  -6    1.20    1.60
  -4   1  -6    0.20    2.30
   4  -1   6   -0.50    2.70
   4  -1   6    3.00    2.60
   4  -1   6   -2.80    2.10
  -5   1  -6   10.30    3.50
  -5   1  -6   17.70    2.50
  -5   1  -6    9.30    4.20
  -5   1  -6   11.40    2.90
  -5   1  -6   11.20    2.20
  -5   1  -6    8.60    4.50
  -5   1  -6    7.60    3.80
   5  -1   6   10.60    4.00
   5  -1   6   13.10    4.00
   5  -1   6   13.10    3.50
  -6   1  -6    4.80    4.30
  -6   1  -6   -3.20    4.40
  -6   1  -6    3.00    2.30
  -6   1  -6    2.00    3.00
   6  -1   6    0.50    3.90
   6  -1   6    2.60    4.80
   6  -1   6   -3.30    4.30
  -7   1  -6   23.10    5.90
  -7   1  -6   -3.70    5.50
   7  -1   6   14.10    5.80
   7  -1   6    6.10    6.10
   8   0  -6   -5.00    6.40
   8   0  -6    5.10    6.00
  -8   0   6    4.70    8.20
  -8   0   6    6.90    6.70
   7   0  -6    6.70    4.80
   7   0  -6   -3.70    3.70
   7   0  -6   -2.40    5.00
  -7   0   6    2.40    5.30
  -7   0   6    0.80    6.10
   6   0  -6    2.50    1.60
   6   0  -6    4.50    3.90
   6   0  -6   -0.70    4.90
   6   0  -6    4.20    3.10
  -6   0   6   -1.00    3.70
  -6   0   6   -2.70    5.00
   5   0  -6    4.00    1.80
   5   0  -6    3.30    2.80
   5   0  -6    6.00    3.70
   5   0  -6    8.10    3.00
   5   0  -6    4.20    1.60
   5   0  -6    2.70    1.70
  -5   0   6    6.00    4.10
  -5   0   6    5.40    3.40
  -5   0   6    0.80    3.90
   4   0  -6    3.30    2.40
   4   0  -6    0.20    2.00
   4   0  -6    4.50    3.60
   4   0  -6    1.00    1.60
  -4   0   6   10.40    3.40
  -4   0   6    2.60    2.80
  -4   0   6   -1.40    2.60
   3   0  -6   32.10    3.10
   3   0  -6   26.20    3.10
   3   0  -6   34.00    3.00
   3   0  -6   27.30    3.60
   3   0  -6   28.90    4.00
  -3   0   6   38.70    4.50
  -3   0   6   32.70    4.20
  -3   0   6   28.00    2.70
  -3   0   6   32.50    3.70
  -3   0   6   40.90    4.20
  -3   0   6   27.20    3.70
   2   0  -6  349.67   11.70
   2   0  -6  367.86   11.40
   2   0  -6  357.76   11.80
   2   0  -6  365.46   10.90
  -2   0   6  382.16   10.00
  -2   0   6  361.96   11.40
  -2   0   6  360.26   11.60
  -2   0   6  364.96   11.60
  -2   0   6  372.36   11.70
  -2   0   6  371.76   10.50
   1   0  -6  182.68    7.30
   1   0  -6  181.18    7.00
   1   0  -6  186.38    6.90
   1   0  -6  175.58    6.80
  -1   0   6  190.38    6.80
  -1   0   6  181.88    7.10
  -1   0   6  178.18    4.80
  -1   0   6  182.48    6.90
  -1   0   6  188.58    6.80
  -1   0   6  191.58    6.60
   0   0  -6  428.76   12.50
   0   0  -6  425.56   12.20
   0   0  -6  412.86   11.90
   0   0  -6  429.06   12.80
   0   0  -6  417.36   12.30
   0   0   6  424.66   11.90
   0   0   6  437.46   11.40
   0   0   6  439.06   12.30
   0   0   6  421.06   12.00
  -1   0  -6   90.79    5.10
  -1   0  -6   98.69    4.50
  -1   0  -6  102.19    4.80
  -1   0  -6   94.29    4.90
  -1   0  -6  104.59    6.00
  -1   0  -6   93.59    5.20
   1   0   6  106.69    5.10
   1   0   6  101.69    4.60
   1   0   6   98.99    4.80
   1   0   6  100.99    4.20
   1   0   6   99.69    4.50
   1   0   6  105.19    3.50
  -2   0  -6   63.89    3.60
  -2   0  -6   53.89    4.70
  -2   0  -6   56.59    3.80
  -2   0  -6   60.79    4.60
  -2   0  -6   56.19    5.30
  -2   0  -6   53.09    4.10
   2   0   6   62.59    4.10
   2   0   6   59.39    2.70
   2   0   6   60.59    2.90
   2   0   6   53.89    4.40
   2   0   6   53.69    2.90
  -3   0  -6   41.20    4.50
  -3   0  -6   40.20    4.10
  -3   0  -6   34.80    3.90
  -3   0  -6   44.40    4.50
  -3   0  -6   39.60    3.10
  -3   0  -6   37.30    3.70
  -3   0  -6   33.70    4.30
   3   0   6   35.70    4.10
   3   0   6   38.10    3.80
   3   0   6   37.00    3.20
  -4   0  -6    2.30    2.50
  -4   0  -6    6.50    1.90
  -4   0  -6    6.10    3.20
  -4   0  -6    8.40    2.40
  -4   0  -6    4.20    2.90
  -4   0  -6    4.40    2.80
  -4   0  -6    6.40    1.20
   4   0   6    4.50    2.50
   4   0   6    5.70    2.90
   4   0   6    8.00    2.50
  -5   0  -6   11.70    4.00
  -5   0  -6   11.60    3.90
  -5   0  -6   13.80    3.00
  -5   0  -6   15.60    4.40
  -5   0  -6   16.80    2.40
  -5   0  -6   15.00    4.50
  -5   0  -6   18.50    2.10
  -5   0  -6   21.00    2.40
   5   0   6   16.60    3.60
   5   0   6   14.70    5.20
   5   0   6   11.30    3.70
  -6   0  -6   18.90    2.90
  -6   0  -6   15.20    2.90
  -6   0  -6   15.00    4.30
   6   0   6   11.10    4.70
   6   0   6    9.90    4.20
  -7   0  -6    4.70    5.30
  -7   0  -6    6.50    6.30
   7   0   6    9.10    5.40
   7   0   6    3.20    5.00
   7  -1  -6   10.10    3.60
   7  -1  -6   -1.00    5.40
   7  -1  -6    0.50    5.70
  -7   1   6    7.30    5.20
  -7   1   6   -2.80    6.70
   6  -1  -6    6.60    3.90
   6  -1  -6   10.80    4.80
   6  -1  -6    6.70    3.30
   6  -1  -6   10.50    5.10
   6  -1  -6    4.70    2.20
  -6   1   6    3.40    5.10
  -6   1   6    2.30    3.70
   5  -1  -6   12.10    4.40
   5  -1  -6   16.20    4.50
   5  -1  -6   10.10    3.40
   5  -1  -6   14.50    2.90
   5  -1  -6   12.10    2.30
  -5   1   6   18.60    3.90
  -5   1   6   13.10    4.20
   4  -1  -6   17.30    3.00
   4  -1  -6   24.80    4.10
   4  -1  -6   28.70    4.10
   4  -1  -6   20.00    3.10
  -4   1   6   25.40    3.90
  -4   1   6   26.30    4.50
  -4   1   6   21.70    3.70
   3  -1  -6  139.89    7.00
   3  -1  -6  138.99    5.10
   3  -1  -6  147.49    6.30
   3  -1  -6  145.49    7.90
  -3   1   6  142.99    6.30
  -3   1   6  147.59    6.70
  -3   1   6  134.49    6.70
  -3   1   6  142.49    5.20
  -3   1   6  147.49    7.60
   2  -1  -6    2.70    1.60
   2  -1  -6    3.00    2.80
   2  -1  -6    1.30    2.50
   2  -1  -6    2.10    1.80
  -2   1   6    3.90    2.30
  -2   1   6    3.70    2.30
  -2   1   6    0.30    1.90
  -2   1   6    3.00    1.50
   1  -1  -6  200.48    7.60
   1  -1  -6  206.78    7.30
   1  -1  -6  197.58    7.60
   1  -1  -6  190.88    7.00
  -1   1   6  211.18    6.70
  -1   1   6  205.88    7.00
  -1   1   6  197.68    7.50
  -1   1   6  196.78    7.30
  -1   1   6  209.48    5.90
  -1   1   6  202.88    7.40
   0  -1  -6   15.20    2.20
   0  -1  -6   11.70    2.60
   0  -1  -6   12.70    2.10
   0  -1  -6   14.10    2.10
   0  -1  -6   16.90    2.60
   0   1   6   16.10    1.90
   0   1   6   16.20    2.40
   0   1   6    9.90    2.00
   0   1   6   11.00    2.00
   0   1   6   16.80    1.30
   0   1   6   15.50    2.20
  -1  -1  -6  172.38    7.00
  -1  -1  -6  180.08    6.80
  -1  -1  -6  181.48    6.70
  -1  -1  -6  183.78    6.80
  -1  -1  -6  175.68    6.40
   1   1   6  187.98    5.00
   1   1   6  184.98    6.40
   1   1   6  178.18    6.70
   1   1   6  183.38    5.00
   1   1   6  186.98    6.60
   1   1   6  187.28    6.80
   1   1   6  190.58    6.20
  -2  -1  -6   61.69    4.20
  -2  -1  -6   64.39    4.30
  -2  -1  -6   78.99    4.90
  -2  -1  -6   70.79    4.30
  -2  -1  -6   72.99    3.80
   2   1   6   70.69    3.20
   2   1   6   69.39    4.50
   2   1   6   64.29    3.20
   2   1   6   67.39    4.40
  -3  -1  -6  138.49    7.50
  -3  -1  -6  137.59    5.50
  -3  -1  -6  133.39    6.90
  -3  -1  -6  134.19    6.40
  -3  -1  -6  141.09    5.90
  -3  -1  -6  132.19    5.30
  -3  -1  -6  147.79    6.70
   3   1   6  127.39    6.30
   3   1   6  142.29    5.50
   3   1   6  133.89    6.40
  -4  -1  -6    1.40    3.20
  -4  -1  -6    3.20    1.80
  -4  -1  -6    3.30    2.60
  -4  -1  -6    2.70    2.20
  -4  -1  -6    0.50    2.70
   4   1   6    1.20    2.20
   4   1   6    3.50    2.90
   4   1   6   -2.60    2.40
  -5  -1  -6   12.50    2.70
  -5  -1  -6   10.80    2.40
  -5  -1  -6   10.70    1.50
  -5  -1  -6   10.80    3.50
  -5  -1  -6    9.30    3.60
  -5  -1  -6   14.70    1.70
  -5  -1  -6   11.50    4.20
   5   1   6   13.40    3.80
   5   1   6   14.00    3.20
  -6  -1  -6   11.70    4.50
  -6  -1  -6   -2.00    3.50
  -6  -1  -6    6.20    2.50
  -6  -1  -6    2.00    3.60
  -6  -1  -6    6.30    3.10
  -6  -1  -6    0.10    2.50
   6   1   6    4.40    3.70
   6   1   6    5.10    4.30
  -7  -1  -6    1.30    4.40
  -7  -1  -6   -1.70    3.30
   7   1   6    1.00    5.10
   7   1   6   -3.90    4.90
   7  -2  -6   10.30    6.00
  -7   2   6   -3.80    6.70
  -7   2   6   10.00    5.50
   6  -2  -6    7.80    4.70
   6  -2  -6    1.10    5.00
   6  -2  -6    5.50    3.00
   6  -2  -6    4.20    2.90
  -6   2   6    5.00    3.80
  -6   2   6   -2.10    5.40
  -6   2   6    5.80    4.10
   5  -2  -6    2.80    6.00
   5  -2  -6    0.10    2.10
   5  -2  -6    0.50    3.90
   5  -2  -6    0.10    2.80
  -5   2   6    4.90    3.40
   4  -2  -6    1.70    1.20
   4  -2  -6    0.20    2.30
   4  -2  -6    2.10    3.40
   4  -2  -6    1.30    2.80
  -4   2   6   -2.40    2.20
  -4   2   6   -0.30    3.40
  -4   2   6    2.60    2.90
   3  -2  -6    3.80    2.00
   3  -2  -6    3.60    3.10
   3  -2  -6    2.90    2.40
   3  -2  -6    5.30    3.40
   3  -2  -6   -0.30    1.30
  -3   2   6    0.70    2.20
  -3   2   6    0.80    2.40
  -3   2   6   -1.10    2.80
  -3   2   6   -1.30    1.30
  -3   2   6   -4.80    2.60
   2  -2  -6  595.04   17.40
   2  -2  -6  610.24   16.40
   2  -2  -6  607.74   16.70
   2  -2  -6  604.74   16.80
   2  -2  -6  603.04   15.50
  -2   2   6  501.45   16.10
  -2   2   6  583.24   17.30
  -2   2   6  605.14   15.80
  -2   2   6  595.44   16.60
  -2   2   6  599.64   16.60
   1  -2  -6    6.80    2.60
   1  -2  -6    7.40    1.80
   1  -2  -6   11.60    2.70
   1  -2  -6    7.90    2.10
  -1   2   6    8.80    2.20
  -1   2   6    8.10    2.10
  -1   2   6    9.40    2.10
  -1   2   6   10.00    1.70
  -1   2   6    7.00    1.50
  -1   2   6    8.50    2.20
   0  -2  -6 1631.44   39.60
   0  -2  -6 1571.24   39.60
   0  -2  -6 1629.94   38.80
   0  -2  -6 1647.24   40.00
   0  -2  -6 1690.53   39.60
   0   2   6 1611.74   39.90
   0   2   6 1605.74   39.40
   0   2   6 1623.04   39.30
   0   2   6 1640.34   39.80
   0   2   6 1650.23   38.90
  -1  -2  -6  810.52   21.50
  -1  -2  -6  823.02   21.10
  -1  -2  -6  819.82   21.40
  -1  -2  -6  836.22   21.00
  -1  -2  -6  847.02   21.00
   1   2   6  781.32   21.50
   1   2   6  797.42   19.30
   1   2   6  794.92   21.40
   1   2   6  818.82   21.30
   1   2   6  833.42   19.40
   1   2   6  811.32   20.80
   1   2   6  807.52   20.80
   1   2   6  831.12   20.70
  -2  -2  -6  429.16   12.60
  -2  -2  -6  419.76   12.10
  -2  -2  -6  429.96   13.10
  -2  -2  -6  409.46   12.10
  -2  -2  -6  412.06   12.70
   2   2   6  422.56   12.70
   2   2   6  430.46   12.70
   2   2   6  440.26   11.50
   2   2   6  438.96   12.80
   2   2   6  431.86   11.70
   2   2   6  425.46   13.20
   2   2   6  436.76   11.50
  -3  -2  -6    2.80    2.00
  -3  -2  -6    0.50    2.50
  -3  -2  -6    3.50    2.10
  -3  -2  -6    1.10    1.90
  -3  -2  -6    4.40    2.70
  -3  -2  -6    4.50    1.80
   3   2   6    4.40    1.50
   3   2   6    4.30    2.40
   3   2   6    5.00    2.90
   3   2   6    4.30    1.80
   3   2   6    4.20    1.80
   3   2   6    2.40    1.80
  -4  -2  -6   15.30    3.70
  -4  -2  -6   18.30    2.80
  -4  -2  -6    7.90    3.50
  -4  -2  -6   16.60    2.60
  -4  -2  -6   17.60    3.40
  -4  -2  -6   16.40    2.40
   4   2   6   16.50    2.90
   4   2   6   17.00    4.80
   4   2   6   20.30    3.30
  -5  -2  -6   18.20    3.20
  -5  -2  -6   18.00    5.60
  -5  -2  -6   20.60    3.20
  -5  -2  -6   19.00    2.80
  -5  -2  -6   23.20    4.10
   5   2   6   19.00    3.50
   5   2   6   17.60    3.40
  -6  -2  -6    3.20    3.30
  -6  -2  -6    6.60    3.70
  -6  -2  -6    1.10    3.50
  -6  -2  -6   12.80    2.60
  -6  -2  -6    5.80    3.00
   6   2   6    3.50    3.70
   6   2   6    9.20    4.30
  -7  -2  -6   -4.70    4.30
  -7  -2  -6   -3.40    3.40
  -7  -2  -6    0.30    5.00
   7   2   6    8.30    4.80
   7   2   6    0.70    4.90
  -8  -2  -6    1.70    5.50
  -8  -2  -6    8.40    7.10
   8   2   6  -10.30    6.00
   8   2   6    3.00    6.40
   7  -3  -6   10.10    6.40
  -7   3   6   16.30    5.70
  -7   3   6   17.50    7.60
   6  -3  -6    1.40    2.90
   6  -3  -6    0.00    4.60
   6  -3  -6    1.00    3.30
  -6   3   6    0.90    4.30
  -6   3   6   -0.70    5.40
   5  -3  -6   -0.20    2.70
   5  -3  -6    6.10    4.10
   5  -3  -6   -1.50    2.40
   5  -3  -6   -4.60    4.00
  -5   3   6    1.00    3.50
  -5   3   6    1.40    1.50
  -5   3   6    4.80    4.30
  -5   3   6    0.90    1.60
   4  -3  -6   22.40    2.00
   4  -3  -6   33.40    4.40
   4  -3  -6   27.40    3.20
   4  -3  -6   26.10    4.30
  -4   3   6   29.60    4.90
  -4   3   6   25.10    4.60
  -4   3   6   31.00    3.90
   3  -3  -6   14.60    3.50
   3  -3  -6   14.80    1.90
   3  -3  -6    8.30    4.00
   3  -3  -6   14.50    2.80
   3  -3  -6   12.40    3.50
  -3   3   6   15.80    3.80
  -3   3   6    9.30    3.10
  -3   3   6   15.50    3.40
  -3   3   6   13.80    1.40
  -3   3   6    8.90    2.60
   2  -3  -6    4.80    1.90
   2  -3  -6    7.30    2.40
   2  -3  -6    8.50    1.70
   2  -3  -6    5.50    3.10
   2  -3  -6    5.50    3.00
  -2   3   6    9.30    2.70
  -2   3   6   10.00    2.40
  -2   3   6    9.80    2.50
  -2   3   6    6.60    1.10
  -2   3   6    3.40    2.60
  -2   3   6    6.70    2.10
   1  -3  -6  257.17    9.60
   1  -3  -6  259.27    9.00
   1  -3  -6  256.17    8.20
   1  -3  -6  258.97    8.60
   1  -3  -6  267.57    8.70
   1  -3  -6  276.07    7.30
  -1   3   6  264.87    8.50
  -1   3   6  256.07    8.40
  -1   3   6  260.57    7.30
  -1   3   6  264.97    8.90
  -1   3   6  254.87    8.50
  -1   3   6  259.77    9.40
   0  -3  -6   38.40    3.30
   0  -3  -6   21.90    2.90
   0  -3  -6   29.50    2.80
   0   3   6   34.60    3.90
   0   3   6   35.80    3.50
   0   3   6   35.50    2.60
   0   3   6   43.20    2.80
   0   3   6   27.30    2.90
  -1  -3  -6   53.29    3.70
  -1  -3  -6   49.30    3.80
  -1  -3  -6   55.19    4.50
  -1  -3  -6   48.30    4.10
  -1  -3  -6   53.99    3.50
   1   3   6   53.59    4.10
   1   3   6   53.29    3.60
   1   3   6   47.80    4.10
   1   3   6   57.59    3.50
   1   3   6   52.99    3.40
   1   3   6   49.60    2.50
   1   3   6   55.29    3.80
  -2  -3  -6    3.80    1.60
  -2  -3  -6    1.60    2.40
  -2  -3  -6    2.80    1.80
  -2  -3  -6   -0.30    2.10
  -2  -3  -6    1.90    2.20
   2   3   6    3.90    2.40
   2   3   6    3.90    2.20
   2   3   6    4.50    1.90
   2   3   6    2.00    1.50
   2   3   6    1.90    1.90
   2   3   6    1.40    1.90
  -3  -3  -6    3.40    2.30
  -3  -3  -6    6.70    2.50
  -3  -3  -6    5.60    1.30
  -3  -3  -6   -0.10    2.70
  -3  -3  -6    2.30    1.90
  -3  -3  -6    7.10    2.80
   3   3   6   -1.80    2.30
   3   3   6    1.20    1.70
   3   3   6    5.80    2.00
   3   3   6    1.20    1.40
   3   3   6    2.70    1.70
  -4  -3  -6  203.68    7.30
  -4  -3  -6  183.28    5.90
  -4  -3  -6  200.08    8.30
  -4  -3  -6  201.18    9.00
  -4  -3  -6  193.78    7.60
   4   3   6  206.88    5.90
   4   3   6  188.68    5.80
   4   3   6  196.68    7.90
   4   3   6  199.18    8.30
  -5  -3  -6    7.10    2.50
  -5  -3  -6    5.40    2.00
  -5  -3  -6    2.40    3.00
  -5  -3  -6    3.90    3.00
  -5  -3  -6    7.10    1.50
   5   3   6    7.50    3.10
   5   3   6    1.10    2.80
  -6  -3  -6   23.30    3.40
  -6  -3  -6   23.10    4.20
  -6  -3  -6   23.70    2.90
  -6  -3  -6   21.30    4.10
  -6  -3  -6   25.50    3.40
   6   3   6   27.00    4.30
   6   3   6   15.20    4.40
  -7  -3  -6   28.90    4.20
  -7  -3  -6   18.50    3.30
  -7  -3  -6   17.90    5.20
   7   3   6   17.90    5.50
   7   3   6   19.90    5.20
  -8  -3  -6    7.70    5.70
  -8  -3  -6   21.30    5.10
   8   3   6    9.30    6.60
   8   3   6   16.80    6.60
   7  -4  -6  120.59   10.00
   7  -4  -6  119.69   12.30
  -7   4   6  122.09   11.70
  -7   4   6  133.89   14.10
  -7   4   6   92.99    8.90
   6  -4  -6   32.00    6.90
   6  -4  -6   33.10    5.00
   6  -4  -6   27.80    3.80
  -6   4   6   29.90    5.50
  -6   4   6   31.00    7.60
  -6   4   6   38.00    5.90
   5  -4  -6  201.88    8.90
   5  -4  -6  206.88    7.80
   5  -4  -6  199.38    9.10
   5  -4  -6  199.28   10.70
  -5   4   6  205.98   10.50
  -5   4   6  196.38    9.60
  -5   4   6  196.28   12.00
   4  -4  -6  269.37   10.30
   4  -4  -6  240.08    7.00
   4  -4  -6  264.97   10.90
   4  -4  -6  259.87    9.70
   4  -4  -6  259.37    8.90
  -4   4   6  265.67   12.10
  -4   4   6  255.97   10.70
  -4   4   6  258.77   10.10
   3  -4  -6   14.00    2.90
   3  -4  -6    9.50    1.90
   3  -4  -6    5.10    3.00
   3  -4  -6    6.80    3.60
  -3   4   6   10.90    2.90
  -3   4   6   11.00    3.70
  -3   4   6    7.80    2.20
  -3   4   6   12.30    3.80
  -3   4   6    9.60    3.40
  -3   4   6    7.00    2.60
   2  -4  -6  571.94   16.40
   2  -4  -6  567.44   15.80
   2  -4  -6  560.24   14.90
   2  -4  -6  541.25   17.30
   2  -4  -6  573.04   16.40
  -2   4   6  565.44   16.10
  -2   4   6  586.34   17.40
  -2   4   6  559.54   16.10
  -2   4   6  576.24   15.20
  -2   4   6  577.84   16.40
  -2   4   6  523.75   16.00
   1  -4  -6  171.88    6.50
   1  -4  -6  166.28    6.30
   1  -4  -6  165.38    6.40
   1  -4  -6  161.08    4.80
   1  -4  -6  162.78    7.00
   1  -4  -6  158.18    7.50
  -1   4   6  171.38    7.50
  -1   4   6  155.38    6.70
  -1   4   6  163.88    6.50
  -1   4   6  161.18    6.40
  -1   4   6  159.48    6.60
   0  -4  -6   71.69    3.90
   0  -4  -6   70.19    4.30
   0  -4  -6   77.99    5.50
   0  -4  -6   70.69    3.60
   0  -4  -6   78.19    5.10
   0  -4  -6   68.79    4.10
   0   4   6   80.89    4.50
   0   4   6   67.79    4.80
   0   4   6   68.49    4.60
   0   4   6   79.79    4.40
   0   4   6   74.49    4.00
  -1  -4  -6   51.39    3.90
  -1  -4  -6   50.09    4.80
  -1  -4  -6   50.39    3.60
  -1  -4  -6   38.80    3.10
  -1  -4  -6   51.59    4.30
  -1  -4  -6   49.10    3.80
   1   4   6   57.79    4.20
   1   4   6   41.80    4.40
   1   4   6   51.29    3.60
   1   4   6   50.89    2.90
   1   4   6   51.19    3.60
   1   4   6   48.60    4.10
  -2  -4  -6   13.00    2.90
  -2  -4  -6   15.20    2.40
  -2  -4  -6   10.20    3.00
  -2  -4  -6   17.20    2.80
  -2  -4  -6   17.80    2.90
  -2  -4  -6   13.90    1.30
   2   4   6   12.10    2.40
   2   4   6   17.50    3.00
   2   4   6   14.60    1.60
   2   4   6   14.20    2.50
   2   4   6   13.10    2.90
   2   4   6   11.80    2.20
  -3  -4  -6   13.20    2.50
  -3  -4  -6    7.30    2.80
  -3  -4  -6   15.50    3.40
  -3  -4  -6   15.40    2.80
  -3  -4  -6   14.70    2.90
  -3  -4  -6   12.80    1.50
   3   4   6   14.90    2.30
   3   4   6   14.50    2.60
   3   4   6   14.30    1.60
   3   4   6   17.40    3.40
   3   4   6   15.20    2.50
   3   4   6   14.50    2.60
  -4  -4  -6   -1.40    2.10
  -4  -4  -6   -2.30    1.30
  -4  -4  -6    1.40    2.10
  -4  -4  -6    5.10    4.20
  -4  -4  -6    1.10    2.70
   4   4   6    1.10    2.20
   4   4   6   -1.00    2.10
   4   4   6    1.20    1.70
   4   4   6   -0.90    2.00
  -5  -4  -6    2.10    2.60
  -5  -4  -6    1.40    1.80
  -5  -4  -6    3.30    3.30
  -5  -4  -6   -1.20    3.10
   5   4   6    3.40    1.50
   5   4   6    2.00    2.80
   5   4   6    0.80    1.50
   5   4   6    1.30    3.00
  -6  -4  -6    0.70    4.20
  -6  -4  -6   -4.90    3.00
  -6  -4  -6    2.50    3.40
  -6  -4  -6   -1.90    2.60
   6   4   6   -1.60    4.10
   6   4   6    0.90    3.90
  -7  -4  -6    3.90    3.90
  -7  -4  -6   -2.80    4.50
   7   4   6    1.80    4.80
   7   4   6   12.50    4.90
  -8  -4  -6    1.20    5.70
  -8  -4  -6    0.90    5.20
   8   4   6   15.00    6.20
   8   4   6    7.80    6.20
   6  -5  -6    2.40    4.40
   6  -5  -6  -17.60    6.00
  -6   5   6    4.30    5.00
  -6   5   6   -7.40    6.10
  -6   5   6    0.20    5.00
   5  -5  -6    5.10    2.80
   5  -5  -6   -2.70    3.40
   5  -5  -6    2.40    4.50
  -5   5   6    8.50    7.30
  -5   5   6   12.30    4.80
  -5   5   6   -0.80    5.00
   4  -5  -6   40.40    4.40
   4  -5  -6   51.19    4.70
   4  -5  -6   49.50    5.80
   4  -5  -6   40.30    4.90
  -4   5   6   42.90    4.70
  -4   5   6   35.70    3.60
   3  -5  -6  218.68    8.30
   3  -5  -6  220.48    7.20
   3  -5  -6  211.08    9.40
   3  -5  -6  223.68    9.50
  -3   5   6  223.48    9.70
  -3   5   6  219.58   10.40
  -3   5   6  216.08    7.50
  -3   5   6  224.88    8.90
   2  -5  -6  784.02   20.00
   2  -5  -6  742.23   20.40
   2  -5  -6  720.13   20.60
   2  -5  -6  754.22   19.30
  -2   5   6  763.32   20.90
  -2   5   6  762.52   21.80
  -2   5   6  727.93   19.40
  -2   5   6  736.43   20.70
  -2   5   6  715.83   20.20
  -2   5   6  692.73   20.30
   1  -5  -6  963.30   25.30
   1  -5  -6  933.21   26.40
   1  -5  -6  952.70   24.50
   1  -5  -6  974.50   24.90
   1  -5  -6  976.90   22.40
   1  -5  -6  979.40   25.00
  -1   5   6  982.90   25.30
  -1   5   6  974.10   26.40
  -1   5   6  951.40   24.70
  -1   5   6  948.51   25.10
  -1   5   6  951.00   25.10
   0  -5  -6  154.58    7.80
   0  -5  -6  152.58    5.30
   0  -5  -6  158.68    6.50
   0  -5  -6  166.38    7.10
   0  -5  -6  145.39    5.80
   0  -5  -6  150.08    6.40
   0   5   6  154.88    6.70
   0   5   6  159.48    6.30
   0   5   6  139.39    6.60
   0   5   6  165.88    7.60
   0   5   6  150.88    6.50
  -1  -5  -6  105.69    5.80
  -1  -5  -6  101.69    6.40
  -1  -5  -6   98.49    5.20
  -1  -5  -6  104.59    4.80
  -1  -5  -6  101.79    5.50
   1   5   6   99.69    5.00
   1   5   6  102.29    5.80
   1   5   6   98.29    6.10
   1   5   6   99.59    5.50
   1   5   6  104.99    4.70
   1   5   6   95.49    5.10
  -2  -5  -6  169.88    7.00
  -2  -5  -6  163.08    6.70
  -2  -5  -6  170.98    7.30
  -2  -5  -6  168.58    4.50
  -2  -5  -6  167.48    8.10
  -2  -5  -6  161.28    5.90
  -2  -5  -6  168.38    7.30
   2   5   6  164.08    6.90
   2   5   6  171.28    5.90
   2   5   6  169.48    6.90
   2   5   6  167.58    7.50
   2   5   6  165.58    7.60
   2   5   6  164.38    6.60
  -3  -5  -6  112.59    5.90
  -3  -5  -6  118.49    6.30
  -3  -5  -6  108.39    6.20
  -3  -5  -6  107.39    7.50
  -3  -5  -6  104.49    5.10
  -3  -5  -6  111.59    6.40
   3   5   6  113.49    5.90
   3   5   6  121.89    5.80
   3   5   6  116.39    5.50
   3   5   6  113.89    4.60
  -4  -5  -6   43.30    4.60
  -4  -5  -6   54.79    5.50
  -4  -5  -6   58.89    4.70
   4   5   6   54.09    4.70
   4   5   6   51.79    4.10
   4   5   6   56.89    5.10
   4   5   6   53.79    5.10
   4   5   6   57.99    3.60
  -5  -5  -6    0.00    2.50
  -5  -5  -6   -8.30    3.20
  -5  -5  -6   -0.20    2.70
   5   5   6   -1.50    2.50
   5   5   6    0.10    3.10
   5   5   6    5.20    3.40
   5   5   6    5.00    2.30
  -6  -5  -6    5.50    3.80
  -6  -5  -6    6.20    3.30
  -6  -5  -6    7.90    3.60
   6   5   6    7.60    6.00
   6   5   6    6.60    4.20
  -7  -5  -6   -0.20    4.60
  -7  -5  -6    2.30    4.40
   7   5   6    1.30    5.00
   7   5   6    0.90    4.60
  -8  -5  -6    0.80    6.00
  -8  -5  -6    6.90    5.90
   8   5   6   12.90    6.60
   8   5   6    2.00    6.20
   6  -6  -6   -0.60    6.60
   6  -6  -6    1.10    5.10
  -6   6   6    2.10    6.00
  -6   6   6    3.50    6.70
  -6   6   6   -9.50    4.80
   5  -6  -6    9.60    5.70
   5  -6  -6    6.80    3.00
   5  -6  -6    4.60    4.90
  -5   6   6   10.80    5.70
  -5   6   6    0.40    3.80
  -5   6   6    4.40    6.10
   4  -6  -6   13.20    3.60
   4  -6  -6   14.20    5.10
   4  -6  -6   21.00    4.90
   4  -6  -6   16.00    3.30
  -4   6   6   12.30    3.80
  -4   6   6   19.50    5.40
  -4   6   6   16.40    3.20
  -4   6   6   21.00    5.00
   3  -6  -6    2.70    2.80
   3  -6  -6   -2.00    2.30
   3  -6  -6    2.80    2.70
   3  -6  -6   -0.20    4.40
   3  -6  -6   -1.80    3.20
  -3   6   6    0.80    3.50
  -3   6   6   -0.50    3.70
  -3   6   6    5.50    3.00
  -3   6   6    3.00    2.70
   2  -6  -6  346.27   12.00
   2  -6  -6  345.67   11.20
   2  -6  -6  323.57   10.70
   2  -6  -6  331.27   12.10
  -2   6   6  333.17   11.60
  -2   6   6  323.57   10.80
  -2   6   6  365.06   13.30
  -2   6   6  364.26   12.30
   1  -6  -6   -0.30    3.30
   1  -6  -6    1.30    2.40
   1  -6  -6    2.30    2.10
   1  -6  -6   -0.20    2.20
  -1   6   6   -2.00    2.20
  -1   6   6    1.10    2.50
  -1   6   6    2.70    3.10
  -1   6   6    5.90    2.50
   0  -6  -6   78.39    4.70
   0  -6  -6   71.69    3.60
   0  -6  -6   68.39    6.50
   0  -6  -6   66.19    4.20
   0  -6  -6   68.49    4.80
   0  -6  -6   63.19    5.90
   0   6   6   59.89    5.30
   0   6   6   73.79    4.80
   0   6   6   69.19    5.80
   0   6   6   69.79    4.70
   0   6   6   66.39    5.30
  -1  -6  -6    1.30    2.00
  -1  -6  -6    0.60    1.50
  -1  -6  -6    0.90    3.20
  -1  -6  -6    2.80    2.40
  -1  -6  -6    2.40    2.90
  -1  -6  -6    3.10    2.00
  -1  -6  -6    2.10    2.50
   1   6   6   -2.20    2.80
   1   6   6    0.00    2.70
   1   6   6   -0.70    1.90
   1   6   6    1.40    1.80
   1   6   6   -1.50    2.00
   1   6   6    0.40    2.50
  -2  -6  -6   51.19    4.50
  -2  -6  -6   50.99    4.80
  -2  -6  -6   36.20    4.70
  -2  -6  -6   57.29    4.50
  -2  -6  -6   58.99    4.80
   2   6   6   53.69    5.90
   2   6   6   47.90    5.30
   2   6   6   57.99    4.30
   2   6   6   50.29    4.40
   2   6   6   54.79    4.00
   2   6   6   47.20    5.00
  -3  -6  -6    8.50    2.80
  -3  -6  -6    5.20    2.90
  -3  -6  -6    1.30    3.20
  -3  -6  -6    8.70    2.60
   3   6   6   10.90    2.40
   3   6   6    9.80    2.50
   3   6   6    5.00    2.80
   3   6   6    6.40    2.10
  -4  -6  -6  139.69    7.30
  -4  -6  -6  145.79    6.40
  -4  -6  -6  139.89    7.80
   4   6   6  142.89    7.40
   4   6   6  145.89    7.50
   4   6   6  149.39    7.30
   4   6   6  140.49    6.70
   4   6   6  146.09    6.10
  -5  -6  -6  142.89    7.40
  -5  -6  -6  129.69    9.50
  -5  -6  -6  125.79    6.80
   5   6   6  145.49    8.30
   5   6   6  148.69    7.20
   5   6   6  130.49    8.00
   5   6   6  136.69    6.70
  -6  -6  -6   -3.00    4.00
  -6  -6  -6   -1.10    3.90
  -6  -6  -6   -5.50    3.70
   6   6   6    0.80    2.80
   6   6   6   -2.60    4.00
   6   6   6    9.90    4.60
  -7  -6  -6    3.20    5.30
  -7  -6  -6    4.10    4.70
   7   6   6   -1.80    5.00
   7   6   6   -0.20    4.70
   5  -7  -6   -1.20    6.10
   5  -7  -6   -5.90    4.60
  -5   7   6    6.50    6.10
  -5   7   6    5.20    5.80
  -5   7   6    4.40    4.60
   4  -7  -6    2.80    3.70
   4  -7  -6    4.00    4.60
   4  -7  -6   -0.30    3.20
  -4   7   6    1.40    5.20
  -4   7   6   -4.70    3.60
  -4   7   6    7.00    5.00
   3  -7  -6   66.69    6.50
   3  -7  -6   83.19    5.50
   3  -7  -6   76.59    7.10
   3  -7  -6   73.19    8.70
   3  -7  -6   73.29    5.60
  -3   7   6   68.89    7.20
  -3   7   6   64.69    6.00
  -3   7   6   68.09    6.10
  -3   7   6   82.99    8.40
   2  -7  -6   34.00    3.90
   2  -7  -6   31.50    4.70
   2  -7  -6   25.50    3.90
  -2   7   6   21.90    4.30
  -2   7   6   31.10    5.40
  -2   7   6   33.90    4.10
  -2   7   6   36.80    4.30
   1  -7  -6   18.20    3.40
   1  -7  -6   17.60    3.50
   1  -7  -6   17.00    3.30
  -1   7   6   18.60    3.90
  -1   7   6   16.70    3.20
  -1   7   6   21.60    3.80
  -1   7   6   21.20    4.40
  -1   7   6   15.20    3.50
   0  -7  -6   23.20    3.60
   0  -7  -6   18.40    3.00
   0  -7  -6   28.80    3.80
   0  -7  -6   28.30    4.20
   0   7   6   25.70    3.40
   0   7   6   22.80    4.00
   0   7   6   34.30    4.50
   0   7   6   31.70    3.80
  -1  -7  -6   44.00    3.50
  -1  -7  -6   43.90    4.50
  -1  -7  -6   33.40    4.10
  -1  -7  -6   37.70    4.20
  -1  -7  -6   41.10    4.30
   1   7   6   46.60    5.00
   1   7   6   43.90    4.10
   1   7   6   44.10    4.60
   1   7   6   42.80    4.40
  -2  -7  -6   17.10    3.70
  -2  -7  -6   26.50    3.90
  -2  -7  -6   25.20    3.50
  -2  -7  -6   23.90    3.70
   2   7   6   25.70    3.40
   2   7   6   22.90    3.30
   2   7   6   23.40    3.30
   2   7   6   27.50    4.50
  -3  -7  -6   -0.60    3.50
  -3  -7  -6    3.40    3.10
  -3  -7  -6   -3.20    2.70
  -3  -7  -6    2.00    3.30
   3   7   6    0.90    2.50
   3   7   6    3.30    2.40
   3   7   6    1.20    2.40
  -4  -7  -6   25.10    4.40
  -4  -7  -6   13.00    3.60
  -4  -7  -6   15.30    3.50
   4   7   6   14.50    3.20
   4   7   6   19.40    3.70
   4   7   6   12.70    3.10
  -5  -7  -6    2.50    4.00
  -5  -7  -6   14.80    4.30
   5   7   6    7.90    3.70
   5   7   6    9.70    3.40
   5   7   6   11.10    4.70
   5   7   6    9.70    3.80
   5   7   6    5.10    3.30
  -6  -7  -6    9.00    4.90
  -6  -7  -6   13.00    4.70
   6   7   6    9.40    4.90
   6   7   6   18.80    3.80
   6   7   6   13.60    4.80
  -7  -7  -6   -2.40    5.20
  -7  -7  -6   -1.40    5.70
   7   7   6    4.20    5.60
   7   7   6   -0.90    5.70
   5  -8  -6  -14.60    6.20
   5  -8  -6    6.90    6.00
  -5   8   6   -8.50    5.30
  -5   8   6    0.10    6.60
  -5   8   6   -1.60    6.60
   4  -8  -6   -8.50    4.80
   4  -8  -6    1.90    3.70
   4  -8  -6   -8.10    5.10
  -4   8   6    7.80    4.30
  -4   8   6    6.10    5.80
  -4   8   6   -1.90    5.30
   3  -8  -6   49.80    5.20
   3  -8  -6   33.90    6.10
   3  -8  -6   39.80    5.40
   3  -8  -6   50.79    7.60
   3  -8  -6   55.99    6.10
  -3   8   6   45.40    5.30
  -3   8   6   38.10    5.40
  -3   8   6   44.10    6.50
  -3   8   6   46.90    7.10
   2  -8  -6   -3.30    3.20
   2  -8  -6    3.90    3.20
   2  -8  -6   -8.40    3.40
   2  -8  -6   -1.00    3.30
  -2   8   6    4.30    3.70
  -2   8   6    1.30    3.30
  -2   8   6   -2.90    3.80
  -2   8   6    2.10    4.70
   1  -8  -6   66.19    6.00
   1  -8  -6   55.49    2.70
   1  -8  -6   40.30    4.60
   1  -8  -6   55.99    5.80
  -1   8   6   51.89    6.00
  -1   8   6   44.40    5.00
  -1   8   6   47.30    5.50
  -1   8   6   56.29    6.40
   0  -8  -6    0.90    2.80
   0  -8  -6    5.10    2.50
   0  -8  -6   -2.20    2.90
   0  -8  -6    1.10    2.60
   0   8   6    2.80    2.90
   0   8   6    3.40    3.10
   0   8   6   -5.80    3.50
   0   8   6    0.00    2.70
  -1  -8  -6   79.09    5.90
  -1  -8  -6   87.39    4.70
  -1  -8  -6   81.19    5.90
  -1  -8  -6   82.39    7.20
  -1  -8  -6   87.49    6.50
   1   8   6   73.19    5.80
   1   8   6   82.29    5.10
   1   8   6   88.19    7.30
   1   8   6   81.79    6.20
   1   8   6   72.39    5.30
  -2  -8  -6    4.30    3.90
  -2  -8  -6    0.90    4.10
  -2  -8  -6    0.10    3.00
  -2  -8  -6    1.90    2.90
   2   8   6   -3.00    3.30
   2   8   6    2.80    2.80
   2   8   6    4.00    2.60
   2   8   6    6.80    2.90
  -3  -8  -6    4.00    3.90
   3   8   6   -2.60    2.70
   3   8   6   -1.00    2.70
   3   8   6   -3.70    2.70
  -4  -8  -6    4.40    3.30
  -4  -8  -6    1.50    4.00
  -4  -8  -6   -4.90    4.10
   4   8   6    1.40    3.20
   4   8   6    3.60    3.30
   4   8   6    1.90    3.20
  -5  -8  -6   20.30    5.40
  -5  -8  -6   20.10    5.20
  -5  -8  -6   34.10    5.60
   5   8   6   22.20    4.90
   5   8   6   22.80    4.40
   5   8   6   22.20    7.20
   5   8   6   20.60    4.30
  -6  -8  -6    0.80    4.90
  -6  -8  -6    3.60    5.00
   6   8   6    5.50    4.70
   6   8   6   -1.60    4.10
   6   8   6   -1.20    4.00
   6   8   6    0.60    5.10
  -7  -8  -6    0.30    5.80
  -7  -8  -6    5.20    6.10
   7   8   6    2.20    5.90
   7   8   6    0.80    6.00
   4  -9  -6   33.60    7.40
   4  -9  -6   29.80    6.80
  -4   9   6   46.30    8.00
  -4   9   6   19.90    8.00
  -4   9   6   24.90    5.90
   3  -9  -6   12.70    4.40
   3  -9  -6   19.80    5.90
   3  -9  -6    9.50    5.10
  -3   9   6   14.70    6.40
  -3   9   6   11.30    5.80
  -3   9   6    6.30    4.60
   2  -9  -6   55.29    5.50
   2  -9  -6   69.09    6.80
   2  -9  -6   41.40    5.60
  -2   9   6   47.90    6.10
  -2   9   6   54.69    5.80
  -2   9   6   52.29    7.40
   1  -9  -6   -1.20    1.80
   1  -9  -6   -3.30    3.70
   1  -9  -6    0.80    3.50
   1  -9  -6    3.00    3.70
   1  -9  -6    5.80    3.90
  -1   9   6   -5.00    3.20
  -1   9   6    6.30    3.80
  -1   9   6    5.20    4.70
   0  -9  -6   49.10    5.20
   0  -9  -6   37.90    4.80
   0  -9  -6   44.80    4.80
   0  -9  -6   40.50    5.30
   0   9   6   38.60    4.00
   0   9   6   41.10    4.80
   0   9   6   33.00    4.70
   0   9   6   33.20    6.00
   0   9   6   44.20    5.20
  -1  -9  -6    6.30    3.60
   1   9   6    7.50    3.20
   1   9   6    9.00    3.50
   1   9   6   14.10    3.80
   1   9   6    5.70    4.50
   1   9   6   13.00    3.00
  -2  -9  -6    6.50    4.20
  -2  -9  -6   11.70    4.20
   2   9   6    6.40    4.40
   2   9   6   12.80    2.70
   2   9   6    7.00    3.50
   2   9   6   12.30    3.70
   2   9   6    8.40    3.10
  -3  -9  -6    0.60    3.90
  -3  -9  -6   -5.40    3.80
   3   9   6   -3.50    3.30
   3   9   6    6.80    3.20
   3   9   6   -2.60    3.30
  -4  -9  -6   15.30    4.50
  -4  -9  -6   15.30    4.70
   4   9   6   15.10    4.30
   4   9   6    7.60    3.80
   4   9   6    1.70    3.80
  -5  -9  -6   15.80    5.40
  -5  -9  -6   18.60    5.70
   5   9   6   17.90    4.70
   5   9   6   18.70    4.70
   5   9   6   19.80    6.10
  -6  -9  -6    9.50    6.30
  -6  -9  -6    1.00    5.60
   6   9   6   11.80    5.10
   6   9   6   13.60    5.80
   6   9   6   18.40    5.40
   6   9   6   -3.00    5.10
   3 -10  -6   -0.80    6.10
   3 -10  -6   -2.30    6.20
  -3  10   6   -8.70    5.20
  -3  10   6    3.70    6.00
  -3  10   6    1.60    7.10
   2 -10  -6    9.70    9.20
   2 -10  -6    0.60    4.50
   2 -10  -6    1.40    4.60
   2 -10  -6    2.30    5.70
  -2  10   6   11.10    6.40
  -2  10   6    2.70    4.30
  -2  10   6   10.30    5.50
   1 -10  -6   17.30    4.50
   1 -10  -6   17.50    5.10
   1 -10  -6   15.90    4.90
   1 -10  -6   14.10    5.10
  -1  10   6   11.20    5.90
  -1  10   6   14.50    4.70
  -1  10   6   12.00    5.70
   0 -10  -6  103.39    8.70
   0 -10  -6  109.79    9.10
   0 -10  -6  104.89    8.20
   0  10   6   98.59    9.20
   0  10   6  101.39    7.80
   0  10   6   96.99    6.60
   0  10   6  102.39    9.80
  -1 -10  -6   -0.70    4.20
  -1 -10  -6   -3.20    4.60
   1  10   6   -1.30    3.10
   1  10   6    7.40    4.50
   1  10   6    3.70    3.60
   1  10   6    1.60    4.80
  -2 -10  -6   16.40    5.10
  -2 -10  -6   27.70    5.60
   2  10   6   26.60    5.80
   2  10   6   23.10    4.80
   2  10   6   21.60    5.50
   2  10   6   26.20    3.90
  -3 -10  -6   30.50    5.90
  -3 -10  -6   38.50    5.90
   3  10   6   21.90    4.80
   3  10   6   26.40    6.20
   3  10   6   24.70    4.40
  -4 -10  -6    1.80    4.90
  -4 -10  -6   -9.30    4.90
   4  10   6    4.10    3.90
   4  10   6    7.20    4.60
   4  10   6    7.20    5.50
  -5 -10  -6    6.60    5.60
  -5 -10  -6   -0.70    5.80
   5  10   6   -1.60    5.10
   5  10   6    6.10    5.20
   5  10   6   -1.60    5.20
  -6 -10  -6   -0.50    6.10
  -6 -10  -6   -5.80    6.00
   6  10   6    4.80    5.90
   6  10   6   -1.80    5.90
   6  10   6    2.70    5.90
   6  10   6   -5.30    5.80
   2 -11  -6    5.80    5.60
   2 -11  -6    7.10    6.70
  -2  11   6    4.90    6.90
  -2  11   6    6.00    5.90
  -2  11   6   -2.60    7.10
   1 -11  -6    2.60    5.80
   1 -11  -6    5.80    5.80
   1 -11  -6    3.60    5.10
  -1  11   6   -8.30    6.20
  -1  11   6    4.50    4.00
  -1  11   6    3.80    6.10
  -1  11   6    3.90    5.30
   0 -11  -6   -0.60    5.40
   0 -11  -6    0.70    5.50
   0 -11  -6   -7.40    4.80
   0  11   6    4.00    4.50
   0  11   6   -4.70    5.80
   0  11   6    1.80    5.30
   0  11   6    6.40    3.50
  -1 -11  -6   -2.30    5.20
  -1 -11  -6   -3.40    4.30
  -1 -11  -6   -2.00    5.50
   1  11   6    1.10    4.80
   1  11   6   -3.80    3.30
   1  11   6    1.60    4.30
   1  11   6   -6.60    5.80
  -2 -11  -6    1.40    4.10
  -2 -11  -6    3.70    5.30
  -2 -11  -6    1.20    5.80
   2  11   6    3.50    5.10
   2  11   6   -5.20    4.80
   2  11   6    2.30    3.90
  -3 -11  -6    1.20    5.60
  -3 -11  -6    9.40    5.80
   3  11   6    5.50    4.70
   3  11   6    3.70    5.00
   3  11   6   -2.10    4.00
  -4 -11  -6    2.90    6.30
  -4 -11  -6   13.30    6.00
   4  11   6   -0.10    4.70
   4  11   6    6.50    5.50
   4  11   6   17.30    6.00
  -5 -11  -6    8.70    6.20
  -5 -11  -6   -2.00    6.30
   5  11   6    6.00    5.40
   5  11   6   -0.90    5.70
   5  11   6    1.70    6.10
   0 -12  -6   -4.60    6.60
   0 -12  -6    9.10    6.70
   0 -12  -6    1.00    5.60
   0  12   6    5.60    5.40
   0  12   6    1.60    6.70
   0  12   6    0.90    6.70
  -1 -12  -6   32.90    7.00
  -1 -12  -6   26.10    7.40
  -1 -12  -6   10.10    6.00
   1  12   6   10.60    5.50
   1  12   6    5.90    7.10
   1  12   6    7.50    5.90
  -2 -12  -6    4.00    6.60
  -2 -12  -6    5.10    5.50
  -2 -12  -6    8.90    6.70
   2  12   6    2.40    6.10
   2  12   6    8.60    6.10
  -3 -12  -6    8.40    6.40
  -3 -12  -6    7.50    6.90
  -3 -12  -6   21.20    7.00
   3  12   6    0.60    5.70
   3  12   6   13.30    6.40
   3   8  -7    1.80    6.20
   3   8  -7   -7.70    5.70
  -3  -8   7    0.40    4.90
  -3  -8   7    9.90    6.60
   2   8  -7    1.50    5.90
  -2  -8   7    1.40    5.50
  -2  -8   7    2.30    5.00
   1   8  -7  -13.20    5.80
   1   8  -7  -14.50    5.80
  -1  -8   7    9.50    5.20
  -1  -8   7    5.10    5.20
   0   8  -7    1.80    6.70
   0   8  -7    6.40    6.20
   0  -8   7    8.70    5.30
   0  -8   7    5.40    6.60
   5   7  -7   -3.90    5.30
   5   7  -7    3.10    6.10
  -5  -7   7    6.20    6.50
  -5  -7   7    2.10    6.50
   4   7  -7    0.60    4.50
   4   7  -7   -6.50    5.10
   4   7  -7    9.90    6.10
  -4  -7   7    3.20    5.00
  -4  -7   7   -0.50    5.90
   3   7  -7    5.10    5.50
   3   7  -7    9.90    5.60
   3   7  -7   13.10    4.20
  -3  -7   7    6.10    4.60
  -3  -7   7   11.00    5.60
   2   7  -7    8.10    4.90
   2   7  -7   -3.20    5.20
   2   7  -7   -2.60    3.30
  -2  -7   7    8.00    4.30
  -2  -7   7   -1.80    4.60
  -2  -7   7   -2.20    3.10
   1   7  -7   10.40    5.40
   1   7  -7   -5.30    4.80
  -1  -7   7    3.20    4.40
  -1  -7   7   -1.20    4.30
   0   7  -7    2.80    5.10
   0   7  -7   -6.50    4.60
   0  -7   7    5.00    4.80
   0  -7   7    9.70    3.80
  -1   7  -7    6.50    5.30
  -1   7  -7  -11.60    5.20
   1  -7   7    0.10    6.00
   1  -7   7   -4.10    5.00
  -2   7  -7    6.90    5.70
  -2   7  -7   -0.10    5.80
   2  -7   7    9.30    6.80
   2  -7   7    2.80    5.30
   6   6  -7   -2.60    6.40
   6   6  -7    3.50    5.80
  -6  -6   7   -7.20    6.10
  -6  -6   7   -0.10    7.20
   5   6  -7   -3.20    5.60
   5   6  -7   -5.60    4.60
  -5  -6   7    7.20    5.70
  -5  -6   7    6.70    5.70
   4   6  -7   -1.40    3.70
   4   6  -7    6.10    5.10
   4   6  -7    4.50    5.00
  -4  -6   7   -2.40    4.60
  -4  -6   7   -1.30    4.30
  -4  -6   7    0.30    4.90
   3   6  -7   -1.20    3.10
   3   6  -7   11.60    4.60
   3   6  -7    0.90    4.80
  -3  -6   7   -0.80    4.00
  -3  -6   7    1.40    4.80
  -3  -6   7   -0.30    3.60
   2   6  -7   -3.60    3.90
   2   6  -7   -5.60    4.00
   2   6  -7    3.40    2.70
  -2  -6   7   -2.40    4.50
  -2  -6   7   -1.00    4.00
   1   6  -7    0.70    2.50
   1   6  -7   -2.40    3.70
  -1  -6   7    4.10    3.90
  -1  -6   7    1.10    3.60
  -1  -6   7    1.50    2.60
   0   6  -7   -5.20    3.90
   0   6  -7   -3.90    4.30
   0  -6   7    5.60    2.60
   0  -6   7    7.80    3.80
   0  -6   7    5.70    3.20
  -1   6  -7   -1.20    4.30
   1  -6   7    2.50    2.90
   1  -6   7   -3.90    4.40
  -2   6  -7    7.20    4.60
  -2   6  -7   -2.80    4.30
   2  -6   7   -0.20    4.40
   2  -6   7   -3.50    3.40
  -3   6  -7    6.80    5.30
  -3   6  -7   18.30    6.20
  -3   6  -7   12.40    5.00
   3  -6   7   12.30    5.40
   3  -6   7   13.40    4.40
   6   5  -7   17.40    6.20
   6   5  -7   -3.30    5.30
  -6  -5   7    8.70    6.90
  -6  -5   7    9.60    6.00
   5   5  -7    5.90    4.00
   5   5  -7    1.00    5.10
  -5  -5   7   12.80    5.50
  -5  -5   7   10.60    5.40
   4   5  -7   -6.10    3.20
   4   5  -7    2.60    4.50
  -4  -5   7    1.00    4.10
  -4  -5   7    2.00    4.30
  -4  -5   7   -2.90    4.30
   3   5  -7   34.40    4.80
   3   5  -7   41.80    3.90
   3   5  -7   27.10    6.70
   3   5  -7   46.40    5.80
  -3  -5   7   43.10    5.60
  -3  -5   7   40.20    4.60
  -3  -5   7   31.50    4.60
   2   5  -7   14.00    3.90
   2   5  -7   -1.20    3.30
   2   5  -7    3.00    2.40
   2   5  -7    4.40    4.30
  -2  -5   7    7.30    2.80
  -2  -5   7    3.20    3.60
  -2  -5   7    7.80    3.60
   1   5  -7   65.89    3.90
   1   5  -7   67.49    6.60
  -1  -5   7   65.19    6.50
  -1  -5   7   73.29    5.00
  -1  -5   7   64.49    6.20
   0   5  -7    4.20    3.00
   0   5  -7    3.60    3.40
   0   5  -7   -3.60    3.40
   0  -5   7    0.10    2.60
   0  -5   7    6.80    3.70
   0  -5   7    5.40    3.50
   0  -5   7    8.90    2.80
  -1   5  -7   29.00    3.40
  -1   5  -7   31.60    4.70
   1  -5   7   27.30    5.00
   1  -5   7   34.20    5.50
   1  -5   7   30.30    2.80
   1  -5   7   35.80    3.80
   1  -5   7   34.90    4.40
  -2   5  -7    5.30    3.60
   2  -5   7  -10.20    4.40
   2  -5   7    7.40    4.30
   2  -5   7    1.70    3.00
  -3   5  -7   19.40    4.70
  -3   5  -7   25.90    6.20
   3  -5   7   21.70    4.40
   3  -5   7   26.20    5.90
  -4   5  -7   -3.70    4.60
  -4   5  -7   -8.30    4.30
  -4   5  -7    1.10    5.60
   4  -5   7   -5.50    5.10
   4  -5   7    2.40    4.50
   7   4  -7   20.30    6.80
   7   4  -7   12.00    6.70
  -7  -4   7    0.80    7.30
  -7  -4   7   28.80    8.80
   6   4  -7   44.90    5.90
   6   4  -7   30.70    6.20
  -6  -4   7   29.50    6.80
  -6  -4   7   47.10    7.50
   5   4  -7    7.50    4.50
   5   4  -7   -6.40    3.60
  -5  -4   7    8.70    5.00
  -5  -4   7   -8.00    4.60
   4   4  -7    5.90    4.40
   4   4  -7    5.00    3.10
   4   4  -7    0.80    2.80
  -4  -4   7    3.50    4.10
  -4  -4   7   -4.50    4.00
   3   4  -7    3.50    3.30
   3   4  -7    8.40    2.40
   3   4  -7    6.70    3.30
  -3  -4   7    6.00    3.50
  -3  -4   7    6.20    3.30
  -3  -4   7    6.30    4.10
   2   4  -7    1.70    1.80
   2   4  -7    3.30    3.20
   2   4  -7    1.20    3.20
   2   4  -7    3.80    3.80
  -2  -4   7   -3.00    2.70
  -2  -4   7    1.30    3.30
  -2  -4   7   -0.20    2.50
   1   4  -7   24.50    2.50
   1   4  -7   15.60    3.50
   1   4  -7   20.20    5.00
   1   4  -7   17.90    3.60
  -1  -4   7   14.90    4.10
  -1  -4   7   17.90    2.00
  -1  -4   7   16.70    3.40
  -1  -4   7   25.90    4.20
  -1  -4   7   22.60    4.40
   0   4  -7    6.40    1.50
   0   4  -7    5.80    2.90
   0   4  -7    3.40    2.90
   0  -4   7   -2.90    3.40
   0  -4   7    1.10    3.10
   0  -4   7    5.40    2.40
   0  -4   7    8.70    3.60
   0  -4   7    6.20    2.50
  -1   4  -7   52.59    5.30
  -1   4  -7   54.19    3.60
  -1   4  -7   53.89    5.00
   1  -4   7   45.30    3.60
   1  -4   7   47.60    4.80
   1  -4   7   39.90    6.40
   1  -4   7   48.00    4.10
   1  -4   7   39.70    4.50
  -2   4  -7   -2.20    2.90
  -2   4  -7   -1.30    4.10
  -2   4  -7    2.20    2.60
  -2   4  -7    3.30    4.30
  -2   4  -7   -3.70    3.10
   2  -4   7   -4.90    3.50
   2  -4   7    4.80    3.40
   2  -4   7   -1.60    2.60
  -3   4  -7   -3.30    4.50
  -3   4  -7    2.30    3.40
  -3   4  -7   -0.80    3.30
  -3   4  -7   -6.70    4.20
  -3   4  -7    2.60    3.80
   3  -4   7    2.80    3.20
   3  -4   7    1.40    4.20
  -4   4  -7   -0.50    3.70
  -4   4  -7   -6.80    3.40
  -4   4  -7    2.90    5.00
   4  -4   7   -1.50    3.80
   4  -4   7    4.40    4.90
  -5   4  -7    0.60    5.60
   5  -4   7   -0.40    5.20
   5  -4   7    7.30    5.30
   7   3  -7   38.90    6.60
   7   3  -7   23.60    6.70
   7   3  -7   42.70    8.60
  -7  -3   7   33.20    7.60
  -7  -3   7   58.39    9.00
   6   3  -7   44.30    6.30
   6   3  -7   42.70    5.90
  -6  -3   7   57.99    7.70
  -6  -3   7   36.50    6.60
   5   3  -7  163.68    9.50
   5   3  -7  172.18    9.70
   5   3  -7  156.08    8.50
  -5  -3   7  165.08    9.90
  -5  -3   7  178.28   10.90
   4   3  -7  740.13   19.30
   4   3  -7  744.43   21.60
   4   3  -7  722.63   21.10
   4   3  -7  712.03   19.80
  -4  -3   7  705.33   21.80
  -4  -3   7  747.53   21.80
   3   3  -7  160.08    6.40
   3   3  -7  162.48    8.30
   3   3  -7  153.88    7.60
  -3  -3   7  160.38    8.20
  -3  -3   7  167.38    8.10
  -3  -3   7  165.78    8.20
   2   3  -7 2150.88   51.09
   2   3  -7 1963.40   47.70
   2   3  -7 2087.39   50.29
  -2  -3   7 1939.51   50.39
  -2  -3   7 2106.49   49.40
  -2  -3   7 2122.09   50.69
  -2  -3   7 2009.00   50.39
   1   3  -7   -0.20    2.30
   1   3  -7    2.00    3.30
   1   3  -7    0.80    2.70
  -1  -3   7    0.80    3.40
  -1  -3   7    0.40    2.60
  -1  -3   7    2.30    3.00
  -1  -3   7    1.90    1.80
  -1  -3   7    2.20    2.60
   0   3  -7   48.90    6.00
   0   3  -7   61.69    5.00
   0   3  -7   54.89    4.90
   0  -3   7   51.49    5.00
   0  -3   7   55.09    4.40
   0  -3   7   53.79    2.40
   0  -3   7   41.20    4.50
   0  -3   7   49.80    5.10
   0  -3   7   52.79    4.50
  -1   3  -7   25.70    3.60
  -1   3  -7   30.40    3.40
  -1   3  -7   28.70    4.50
  -1   3  -7   25.70    4.50
   1  -3   7   28.30    2.70
   1  -3   7   22.70    3.30
   1  -3   7   27.20    2.90
   1  -3   7   34.60    4.50
   1  -3   7   23.80    3.30
  -2   3  -7  155.78    5.70
  -2   3  -7  143.89    6.90
  -2   3  -7  145.59    8.30
  -2   3  -7  142.89    8.00
  -2   3  -7  147.39    6.60
   2  -3   7  152.68    8.40
   2  -3   7  146.19    6.80
   2  -3   7  143.69    6.90
  -3   3  -7   30.20    3.70
  -3   3  -7   28.60    3.60
  -3   3  -7   28.10    3.40
  -3   3  -7   33.80    5.40
  -3   3  -7   31.90    5.00
   3  -3   7   18.70    3.30
   3  -3   7   22.50    3.60
   3  -3   7   19.90    4.20
  -4   3  -7   27.70    3.70
  -4   3  -7   24.10    5.70
  -4   3  -7   28.50    3.60
  -4   3  -7   25.20    4.90
  -4   3  -7   27.70    2.80
   4  -3   7   20.80    4.70
   4  -3   7   26.60    5.40
  -5   3  -7    2.30    3.80
  -5   3  -7   17.00    3.60
  -5   3  -7    4.60    5.30
   5  -3   7    1.20    4.80
   5  -3   7    5.20    5.00
  -6   3  -7   -4.70    6.00
   6  -3   7    5.70    5.80
   6  -3   7    2.10    6.60
   7   2  -7   -1.40    5.30
   7   2  -7   -3.20    5.70
   7   2  -7    1.10    5.60
  -7  -2   7    3.60    6.00
  -7  -2   7   -9.30    7.10
   6   2  -7   -0.80    4.20
   6   2  -7   -2.50    5.00
   6   2  -7    6.10    3.20
   6   2  -7    5.70    4.10
  -6  -2   7    6.50    5.70
  -6  -2   7    4.90    4.90
   5   2  -7   17.10    2.50
   5   2  -7   25.90    4.50
   5   2  -7   14.00    3.50
   5   2  -7   12.30    3.80
   5   2  -7    8.80    3.60
  -5  -2   7   17.10    5.40
  -5  -2   7   13.70    4.70
   4   2  -7   -0.40    2.60
   4   2  -7    0.90    2.60
   4   2  -7    0.50    3.40
  -4  -2   7    6.00    3.70
  -4  -2   7    6.60    5.30
   3   2  -7   53.09    3.90
   3   2  -7   58.39    5.20
   3   2  -7   51.79    5.30
  -3  -2   7   49.50    5.10
  -3  -2   7   65.69    5.90
  -3  -2   7   48.70    5.00
   2   2  -7  289.27   10.40
   2   2  -7  283.77    8.00
   2   2  -7  305.07   10.70
   2   2  -7  289.97   10.20
  -2  -2   7  292.37   10.10
  -2  -2   7  312.27   10.30
  -2  -2   7  292.47   10.50
  -2  -2   7  284.77   10.80
   1   2  -7  452.05   14.30
   1   2  -7  434.66   12.60
   1   2  -7  446.86   13.80
   1   2  -7  461.95   14.30
  -1  -2   7  431.66   13.30
  -1  -2   7  437.86   13.50
  -1  -2   7  436.26   13.70
  -1  -2   7  442.76   13.70
  -1  -2   7  448.26   12.60
   0   2  -7  433.86   14.50
   0   2  -7  439.06   12.90
   0   2  -7  440.06   14.50
   0   2  -7  436.86   14.30
   0   2  -7  460.65   13.70
   0   2  -7  444.56   12.00
   0  -2   7  444.06   14.00
   0  -2   7  456.25   13.20
   0  -2   7  446.06   12.80
   0  -2   7  436.46   12.90
   0  -2   7  449.76   13.10
  -1   2  -7  261.67    9.80
  -1   2  -7  259.47    9.30
  -1   2  -7  257.77    8.40
  -1   2  -7  266.97   10.40
  -1   2  -7  251.17    7.30
   1  -2   7  262.97    9.00
   1  -2   7  255.17    8.40
   1  -2   7  258.57    8.00
   1  -2   7  257.77   10.10
   1  -2   7  265.07    8.30
  -2   2  -7  875.61   22.60
  -2   2  -7  826.72   20.70
  -2   2  -7  884.91   24.60
  -2   2  -7  867.21   21.60
  -2   2  -7  831.12   22.80
  -2   2  -7  840.82   20.70
   2  -2   7  894.51   23.20
   2  -2   7  873.91   24.10
  -3   2  -7   20.90    2.60
  -3   2  -7   26.00    3.00
  -3   2  -7   26.10    4.80
  -3   2  -7   25.10    2.70
  -3   2  -7   27.50    3.20
  -3   2  -7   24.20    4.00
   3  -2   7   21.40    3.50
   3  -2   7   24.90    5.00
  -4   2  -7  266.37    9.20
  -4   2  -7  279.57    9.20
  -4   2  -7  276.07    9.20
  -4   2  -7  264.97   10.40
  -4   2  -7  264.67   11.70
  -4   2  -7  262.07    8.40
  -4   2  -7  264.77   10.00
   4  -2   7  281.97   11.10
   4  -2   7  278.07   11.80
  -5   2  -7   -0.20    2.80
  -5   2  -7   -1.60    3.30
  -5   2  -7    1.00    2.60
  -5   2  -7    0.40    4.50
   5  -2   7    9.40    4.70
   5  -2   7    3.00    4.40
  -6   2  -7   -1.20    7.70
  -6   2  -7    0.40    4.90
   6  -2   7   -6.60    5.10
   6  -2   7    8.30    5.50
   7   1  -7  -11.00    6.10
   7   1  -7    9.30    5.20
   7   1  -7   -0.90    5.20
  -7  -1   7   -0.80    7.00
  -7  -1   7    1.60    5.60
   6   1  -7    1.90    2.30
   6   1  -7    0.50    4.90
   6   1  -7   -2.90    4.40
  -6  -1   7   -3.90    5.20
  -6  -1   7   -7.60    4.70
   5   1  -7    2.20    2.20
   5   1  -7    3.80    3.30
   5   1  -7    2.20    2.40
   5   1  -7   -2.10    3.20
   5   1  -7    1.50    2.90
  -5  -1   7   -1.30    4.30
  -5  -1   7    7.30    4.20
  -5  -1   7    4.40    4.20
   4   1  -7    5.70    2.60
   4   1  -7    8.40    3.10
   4   1  -7    7.40    2.60
   4   1  -7    9.00    2.60
  -4  -1   7   10.30    3.10
  -4  -1   7    7.30    3.80
  -4  -1   7    6.10    2.60
  -4  -1   7    3.90    3.20
   3   1  -7   70.19    5.30
   3   1  -7   73.39    6.50
   3   1  -7   65.49    3.80
   3   1  -7   59.69    4.80
   3   1  -7   65.29    5.20
  -3  -1   7   62.99    4.90
  -3  -1   7   62.79    5.40
  -3  -1   7   54.59    6.30
  -3  -1   7   55.69    5.70
   2   1  -7   24.30    3.50
   2   1  -7   15.20    3.00
   2   1  -7   19.40    3.00
   2   1  -7   22.80    3.40
  -2  -1   7   24.00    3.40
  -2  -1   7   19.20    2.80
  -2  -1   7   17.30    3.30
  -2  -1   7   16.90    3.50
  -2  -1   7   17.30    3.90
   1   1  -7   14.70    3.00
   1   1  -7   12.90    3.00
   1   1  -7   10.70    2.70
   1   1  -7   11.40    2.90
   1   1  -7   16.10    3.70
  -1  -1   7   11.50    3.30
  -1  -1   7   17.20    2.60
  -1  -1   7   13.10    2.80
  -1  -1   7   15.20    3.00
  -1  -1   7   14.90    2.80
   0   1  -7   39.30    4.20
   0   1  -7   25.50    3.80
   0   1  -7   32.50    3.60
   0   1  -7   37.00    4.40
   0   1  -7   40.40    4.10
   0  -1   7   26.90    3.40
   0  -1   7   36.50    3.50
   0  -1   7   41.50    3.60
   0  -1   7   28.90    3.30
   0  -1   7   41.00    3.90
  -1   1  -7   31.90    3.70
  -1   1  -7   41.30    4.60
  -1   1  -7   25.50    3.70
  -1   1  -7   43.60    4.70
  -1   1  -7   43.20    4.40
  -1   1  -7   43.60    3.90
   1  -1   7   41.10    3.30
   1  -1   7   36.80    3.80
   1  -1   7   38.20    3.20
   1  -1   7   27.30    3.10
   1  -1   7   41.70    4.20
   1  -1   7   38.10    3.00
  -2   1  -7   59.29    4.30
  -2   1  -7   56.19    5.40
  -2   1  -7   60.49    5.50
  -2   1  -7   55.69    3.10
   2  -1   7   59.89    4.60
   2  -1   7   59.99    2.70
   2  -1   7   51.19    5.00
   2  -1   7   53.49    2.80
   2  -1   7   56.69    3.00
  -3   1  -7    0.90    2.30
  -3   1  -7    2.20    3.00
  -3   1  -7    2.20    2.20
  -3   1  -7    7.30    3.30
  -3   1  -7    1.90    3.90
  -3   1  -7    4.10    2.10
  -3   1  -7    4.90    1.40
   3  -1   7    2.40    2.80
   3  -1   7    3.00    2.50
  -4   1  -7   73.19    5.90
  -4   1  -7   82.99    3.50
  -4   1  -7   86.19    5.10
  -4   1  -7   88.49    6.30
  -4   1  -7   80.39    6.90
  -4   1  -7   82.09    6.10
   4  -1   7   79.79    7.00
   4  -1   7   76.79    6.50
  -5   1  -7   57.89    6.10
  -5   1  -7   44.00    6.00
  -5   1  -7   53.29    5.90
  -5   1  -7   51.19    4.60
  -5   1  -7   44.40    7.10
  -5   1  -7   46.50    5.30
  -5   1  -7   43.70    3.40
   5  -1   7   42.20    4.80
   5  -1   7   40.90    6.10
   5  -1   7   31.10    5.40
  -6   1  -7   35.60    5.60
  -6   1  -7   31.50    4.90
  -6   1  -7   22.40    5.40
   6  -1   7   25.10    6.40
   6  -1   7   33.50    6.10
   6  -1   7   32.60    5.40
   7   0  -7   -1.00    6.10
   7   0  -7   -1.10    4.40
   7   0  -7   -5.50    5.20
  -7   0   7    3.60    6.60
  -7   0   7   10.60    5.90
   6   0  -7    8.50    4.20
   6   0  -7    4.00    3.80
   6   0  -7    3.10    4.90
  -6   0   7    7.70    4.90
  -6   0   7   -0.10    5.50
   5   0  -7   12.70    3.50
   5   0  -7   18.10    3.80
   5   0  -7   19.30    2.30
   5   0  -7   14.70    4.50
  -5   0   7    1.20    4.70
  -5   0   7   16.90    4.00
   4   0  -7    3.00    2.70
   4   0  -7    0.70    2.00
   4   0  -7   -2.10    2.30
  -4   0   7   -0.90    2.30
  -4   0   7   -1.30    2.90
  -4   0   7   -3.80    2.90
  -4   0   7    5.00    3.60
   3   0  -7   50.19    4.10
   3   0  -7   53.49    4.80
   3   0  -7   63.29    6.70
  -3   0   7   47.60    4.20
  -3   0   7   48.90    5.60
  -3   0   7   54.19    5.10
  -3   0   7   51.89    4.30
  -3   0   7   51.79    5.30
   2   0  -7   -2.80    2.70
   2   0  -7    0.90    2.10
   2   0  -7   -1.10    1.90
   2   0  -7    1.40    3.10
  -2   0   7   -0.20    2.10
  -2   0   7    1.10    2.80
  -2   0   7    0.30    1.90
  -2   0   7    1.00    2.50
  -2   0   7    1.30    1.40
  -2   0   7    3.80    2.80
   1   0  -7   -3.70    2.90
   1   0  -7    3.00    2.00
   1   0  -7    1.50    2.20
   1   0  -7    1.40    2.40
  -1   0   7   -2.50    1.90
  -1   0   7   -0.20    2.00
  -1   0   7   -0.80    1.80
  -1   0   7    1.40    2.00
   0   0  -7    8.80    2.60
   0   0  -7    5.20    3.20
   0   0  -7    6.70    2.60
   0   0  -7    4.80    2.20
   0   0  -7    7.50    2.30
   0   0   7    8.00    2.20
   0   0   7   10.80    2.40
   0   0   7    9.80    2.70
   0   0   7    5.80    2.10
   0   0   7    6.60    2.00
  -1   0  -7   27.40    3.80
  -1   0  -7   29.70    3.10
  -1   0  -7   23.80    3.70
  -1   0  -7   35.00    4.10
  -1   0  -7   31.50    3.80
  -1   0  -7   28.50    3.30
   1   0   7   23.50    2.30
   1   0   7   31.70    3.30
   1   0   7   32.40    3.60
   1   0   7   31.70    3.00
   1   0   7   26.90    2.90
   1   0   7   21.90    2.80
  -2   0  -7    4.50    2.00
  -2   0  -7   -2.30    2.20
  -2   0  -7   -0.80    2.80
  -2   0  -7   -0.20    2.00
  -2   0  -7   -3.10    2.50
   2   0   7   -0.30    1.30
   2   0   7   -1.90    2.80
   2   0   7    0.50    2.50
   2   0   7   -3.10    1.80
  -3   0  -7   18.00    3.10
  -3   0  -7   16.70    3.30
  -3   0  -7   18.20    3.80
  -3   0  -7   17.10    2.80
  -3   0  -7   20.70    3.90
   3   0   7   14.70    3.00
   3   0   7   20.00    2.30
   3   0   7   19.90    3.90
  -4   0  -7    4.00    3.20
  -4   0  -7   -1.00    3.20
  -4   0  -7    5.30    3.80
  -4   0  -7    0.50    3.00
  -4   0  -7   -1.60    2.00
   4   0   7    1.00    2.90
   4   0   7   -0.30    3.00
   4   0   7    3.20    2.40
  -5   0  -7   34.20    5.20
  -5   0  -7   39.50    5.90
  -5   0  -7   37.20    5.90
  -5   0  -7   39.10    3.60
  -5   0  -7   36.30    4.20
   5   0   7   38.10    5.40
   5   0   7   44.60    5.50
   5   0   7   40.00    4.50
  -6   0  -7    2.40    2.80
  -6   0  -7    3.20    4.70
   6   0   7    1.70    4.50
   6   0   7    0.80    4.20
  -7   0  -7    2.50    5.40
   7   0   7    3.40    5.10
   7   0   7   -3.00    5.50
   7  -1  -7    3.60    4.30
   7  -1  -7    6.10    6.80
   7  -1  -7   -3.20    5.30
  -7   1   7   -2.50    7.40
  -7   1   7   11.00    5.90
   6  -1  -7    5.90    7.20
   6  -1  -7   -2.90    3.50
   6  -1  -7    0.50    2.40
   6  -1  -7   -1.70    4.90
  -6   1   7   -3.90    5.10
  -6   1   7    5.40    4.80
   5  -1  -7   14.00    1.70
   5  -1  -7   15.60    4.20
   5  -1  -7   19.30    2.10
   5  -1  -7   12.70    3.40
  -5   1   7   12.70    5.00
  -5   1   7    9.40    4.30
   4  -1  -7   10.60    3.00
   4  -1  -7    6.70    3.40
   4  -1  -7    9.60    2.10
  -4   1   7   10.40    3.50
  -4   1   7    8.90    3.30
  -4   1   7    9.10    2.30
  -4   1   7    8.10    4.00
   3  -1  -7   -0.10    1.60
   3  -1  -7    3.40    2.50
   3  -1  -7    4.90    4.00
  -3   1   7    1.50    1.90
  -3   1   7   -1.00    3.20
  -3   1   7    0.10    2.50
  -3   1   7   -0.40    2.40
  -3   1   7    1.70    3.50
   2  -1  -7   50.99    4.20
   2  -1  -7   51.99    5.30
   2  -1  -7   46.40    3.70
   2  -1  -7   37.30    4.20
  -2   1   7   52.39    5.20
  -2   1   7   52.69    3.80
  -2   1   7   53.09    4.50
  -2   1   7   44.90    4.90
  -2   1   7   52.29    5.10
  -2   1   7   50.59    4.40
   1  -1  -7   18.40    3.40
   1  -1  -7   26.00    3.10
   1  -1  -7   26.10    3.00
   1  -1  -7   27.30    3.50
  -1   1   7   24.20    3.00
  -1   1   7   31.70    3.10
  -1   1   7   33.20    3.70
  -1   1   7   19.70    3.30
  -1   1   7   29.30    3.30
  -1   1   7   24.00    2.10
   0  -1  -7   -1.60    2.80
   0  -1  -7    3.70    2.30
   0  -1  -7    4.00    2.00
   0  -1  -7    3.80    2.10
   0  -1  -7    4.10    2.30
   0   1   7    3.30    2.20
   0   1   7    1.00    1.90
   0   1   7    1.30    1.50
   0   1   7    7.60    2.50
   0   1   7    0.70    1.80
  -1  -1  -7    2.30    1.90
  -1  -1  -7    3.70    2.00
  -1  -1  -7    4.70    2.70
  -1  -1  -7    1.20    2.50
  -1  -1  -7    3.00    2.30
   1   1   7    5.10    2.00
   1   1   7    7.60    2.40
   1   1   7    3.90    2.10
   1   1   7    2.90    0.80
   1   1   7    5.10    2.00
   1   1   7    2.80    2.00
   1   1   7    2.60    1.10
  -2  -1  -7  166.78    7.50
  -2  -1  -7  171.48    6.50
  -2  -1  -7  147.39    6.80
  -2  -1  -7  157.98    7.60
  -2  -1  -7  164.58    7.20
   2   1   7  171.28    7.20
   2   1   7  167.88    5.70
   2   1   7  179.98    5.40
   2   1   7  166.68    6.10
   2   1   7  174.78    7.50
  -3  -1  -7    2.00    2.80
  -3  -1  -7    0.50    2.50
  -3  -1  -7    2.80    2.20
  -3  -1  -7    0.80    2.00
  -3  -1  -7    3.80    2.60
   3   1   7    3.80    2.70
   3   1   7    2.40    2.30
   3   1   7    0.40    1.70
  -4  -1  -7   46.70    5.20
  -4  -1  -7   35.20    3.80
  -4  -1  -7   36.60    4.70
  -4  -1  -7   30.40    4.20
  -4  -1  -7   34.60    3.40
   4   1   7   28.40    4.40
   4   1   7   25.10    3.90
   4   1   7   34.80    3.70
  -5  -1  -7   22.40    3.80
  -5  -1  -7   25.10    4.50
  -5  -1  -7   22.20    4.50
  -5  -1  -7   24.70    3.20
  -5  -1  -7   18.10    4.90
   5   1   7   13.90    4.10
   5   1   7   18.50    3.90
   5   1   7   22.10    4.00
  -6  -1  -7    7.10    4.20
  -6  -1  -7    4.10    2.90
   6   1   7    1.00    4.40
   6   1   7   -1.70    4.10
  -7  -1  -7   -1.00    5.20
   7   1   7    0.00    5.30
   7   1   7   -3.70    5.10
   7  -2  -7   -1.90    5.90
  -7   2   7   13.90    7.50
  -7   2   7   -3.10    6.00
   6  -2  -7    2.10    3.70
   6  -2  -7   10.10    5.60
   6  -2  -7    1.00    2.90
  -6   2   7   -4.70    4.40
  -6   2   7    5.40    6.10
   5  -2  -7   19.60    5.00
   5  -2  -7   27.40    4.00
   5  -2  -7   18.30    3.10
  -5   2   7   25.90    5.50
  -5   2   7   25.00    2.80
  -5   2   7   19.00    4.40
   4  -2  -7    0.20    2.60
   4  -2  -7    1.00    3.30
   4  -2  -7   -2.20    1.50
  -4   2   7   -4.10    3.50
  -4   2   7    2.30    3.00
  -4   2   7    4.90    3.80
  -4   2   7    4.10    2.00
   3  -2  -7   -1.90    2.70
   3  -2  -7   -0.30    1.70
   3  -2  -7   -3.30    2.30
   3  -2  -7    2.40    4.40
  -3   2   7    4.60    2.70
  -3   2   7   -1.80    3.00
  -3   2   7   -0.50    1.60
  -3   2   7   -4.50    2.30
   2  -2  -7    0.90    2.20
   2  -2  -7    3.40    3.30
   2  -2  -7    4.20    2.00
   2  -2  -7   -5.00    3.00
  -2   2   7    1.90    2.20
  -2   2   7    5.50    1.70
  -2   2   7    1.90    2.60
  -2   2   7    5.40    2.10
  -2   2   7    3.40    2.80
   1  -2  -7    1.00    1.80
   1  -2  -7    1.60    2.80
   1  -2  -7    3.10    2.00
   1  -2  -7    1.80    2.60
  -1   2   7    3.30    2.20
  -1   2   7    0.60    2.60
  -1   2   7    1.20    1.50
  -1   2   7    2.10    2.20
  -1   2   7    2.40    1.60
   0  -2  -7    5.40    2.20
   0  -2  -7    6.20    2.20
   0  -2  -7    4.60    2.10
   0  -2  -7    4.10    2.80
   0  -2  -7    5.50    2.70
   0   2   7    8.90    1.90
   0   2   7    5.90    2.10
   0   2   7    7.00    2.60
   0   2   7    5.00    2.50
   0   2   7    4.10    2.50
   0   2   7    2.50    2.80
  -1  -2  -7    6.50    2.20
  -1  -2  -7    5.60    2.70
  -1  -2  -7   10.20    2.30
  -1  -2  -7    9.60    2.60
  -1  -2  -7    8.50    3.00
   1   2   7    7.00    2.30
   1   2   7    7.60    2.60
   1   2   7    8.30    2.20
   1   2   7    8.00    1.30
   1   2   7    6.60    1.30
   1   2   7    7.50    2.40
   1   2   7   10.40    2.10
   1   2   7    9.30    1.30
   1   2   7   10.80    2.30
  -2  -2  -7   91.89    6.00
  -2  -2  -7   92.99    5.90
  -2  -2  -7   96.39    5.70
  -2  -2  -7   89.39    5.00
  -2  -2  -7   93.49    5.80
   2   2   7   97.69    4.10
   2   2   7   94.29    4.30
   2   2   7   80.79    5.90
   2   2   7   88.09    5.20
   2   2   7  106.19    5.50
   2   2   7   90.99    4.70
   2   2   7   89.99    5.50
  -3  -2  -7   26.80    3.80
  -3  -2  -7   41.50    8.00
  -3  -2  -7   22.60    3.90
  -3  -2  -7   34.70    3.80
  -3  -2  -7   28.40    3.00
  -3  -2  -7   30.60    3.20
   3   2   7   30.10    2.60
   3   2   7   26.00    3.40
   3   2   7   32.20    4.20
   3   2   7   26.60    2.80
  -4  -2  -7   61.89    4.80
  -4  -2  -7   63.89    6.90
  -4  -2  -7   67.79    6.00
  -4  -2  -7   62.89    4.60
  -4  -2  -7   62.29    5.50
   4   2   7   58.39    5.60
   4   2   7   65.89    4.80
   4   2   7   55.59    5.30
  -5  -2  -7   -0.90    3.40
  -5  -2  -7    6.50    3.30
  -5  -2  -7   -1.80    3.10
  -5  -2  -7    0.10    2.40
   5   2   7    5.40    3.70
   5   2   7   -0.50    2.90
  -6  -2  -7    1.00    4.50
  -6  -2  -7   -1.80    3.00
  -6  -2  -7   -5.00    4.10
   6   2   7    6.00    4.10
   6   2   7   -6.90    4.20
  -7  -2  -7    4.60    5.00
  -7  -2  -7    5.00    3.60
   7   2   7    4.80    5.90
   7   2   7   -0.20    5.20
   7  -3  -7   -3.00    6.60
  -7   3   7    0.70    6.20
  -7   3   7    6.90    8.00
   6  -3  -7    6.30    3.70
   6  -3  -7   10.30    5.90
   6  -3  -7    9.30    3.70
  -6   3   7    9.90    5.80
  -6   3   7    9.80    5.20
   5  -3  -7   13.90    3.50
   5  -3  -7   17.00    3.40
   5  -3  -7   16.60    5.00
  -5   3   7   15.80    4.10
  -5   3   7    4.70    5.10
  -5   3   7   12.10    1.80
   4  -3  -7    7.60    2.60
   4  -3  -7    7.80    3.20
   4  -3  -7    8.60    4.10
  -4   3   7    0.90    1.40
  -4   3   7    2.60    4.10
  -4   3   7    0.00    3.20
  -4   3   7    2.90    4.70
   3  -3  -7    7.10    2.50
   3  -3  -7    3.70    2.90
   3  -3  -7    5.90    1.90
   3  -3  -7    9.70    4.30
  -3   3   7    1.80    3.40
  -3   3   7    1.20    2.90
  -3   3   7    1.10    3.00
  -3   3   7    5.70    1.50
   2  -3  -7  209.78    9.80
   2  -3  -7  204.78    9.20
   2  -3  -7  229.38    7.70
   2  -3  -7  231.08    8.40
   2  -3  -7  233.48    8.80
  -2   3   7  231.68    6.60
  -2   3   7  221.38    9.50
  -2   3   7  231.88    8.70
  -2   3   7  206.28    9.50
  -2   3   7  224.78    8.20
  -2   3   7  228.68    8.20
   1  -3  -7    5.00    2.10
   1  -3  -7    9.50    2.40
   1  -3  -7    7.40    2.30
   1  -3  -7    8.10    3.20
   1  -3  -7    7.30    3.30
  -1   3   7    3.10    2.70
  -1   3   7    8.00    2.40
  -1   3   7   10.00    1.80
  -1   3   7    8.60    2.00
  -1   3   7    6.90    2.60
  -1   3   7   11.70    2.80
   0  -3  -7   32.30    4.20
   0  -3  -7   35.40    3.10
   0  -3  -7   31.20    4.00
   0  -3  -7   35.00    3.70
   0  -3  -7   27.30    3.00
   0   3   7   29.90    3.60
   0   3   7   35.20    3.20
   0   3   7   33.40    2.90
   0   3   7   33.50    3.60
   0   3   7   37.20    3.70
   0   3   7   32.40    3.70
  -1  -3  -7   59.49    4.60
  -1  -3  -7   69.19    5.30
  -1  -3  -7   50.29    4.00
  -1  -3  -7   59.09    4.50
  -1  -3  -7   56.59    5.10
   1   3   7   62.09    4.30
   1   3   7   56.79    5.00
   1   3   7   60.69    4.70
   1   3   7   57.99    4.00
   1   3   7   54.99    2.80
   1   3   7   60.29    4.30
   1   3   7   52.19    5.00
  -2  -3  -7  128.79    6.50
  -2  -3  -7  116.59    6.00
  -2  -3  -7  129.79    5.70
  -2  -3  -7  120.69    7.00
  -2  -3  -7  122.89    6.60
   2   3   7  120.29    6.50
   2   3   7  112.79    6.70
   2   3   7  123.59    5.80
   2   3   7  121.59    4.90
   2   3   7  122.99    6.00
   2   3   7  117.19    6.10
   2   3   7  128.69    5.30
  -3  -3  -7  266.57    9.50
  -3  -3  -7  260.97    9.00
  -3  -3  -7  245.08   10.10
  -3  -3  -7  266.97   10.10
  -3  -3  -7  255.27   10.50
  -3  -3  -7  261.27    7.70
   3   3   7  268.27    8.10
   3   3   7  271.17    8.80
   3   3   7  264.67    9.90
   3   3   7  257.47    8.30
  -4  -3  -7    6.20    3.30
  -4  -3  -7    7.30    2.00
  -4  -3  -7    8.70    4.30
  -4  -3  -7    7.60    2.90
  -4  -3  -7    7.40    2.50
   4   3   7   12.40    2.90
   4   3   7    6.90    2.50
   4   3   7    8.50    1.70
  -5  -3  -7   84.99    5.80
  -5  -3  -7   89.09    6.80
  -5  -3  -7   89.29    6.80
   5   3   7   81.19    7.10
   5   3   7   82.29    6.40
  -6  -3  -7   33.10    5.40
  -6  -3  -7   37.60    4.30
  -6  -3  -7   36.40    5.60
   6   3   7   27.90    5.10
   6   3   7   33.20    5.80
  -7  -3  -7   -4.70    3.90
  -7  -3  -7   -7.80    4.50
   7   3   7   -5.50    5.10
   7   3   7   -7.60    5.30
   6  -4  -7   35.90    5.10
   6  -4  -7   33.80    7.10
   6  -4  -7   42.40    4.50
  -6   4   7   33.80    6.30
  -6   4   7   39.90    6.90
  -6   4   7   39.90    7.70
   5  -4  -7    7.30    3.70
   5  -4  -7   10.40    6.10
   5  -4  -7    9.10    3.50
   5  -4  -7   11.60    4.60
  -5   4   7    3.30    4.10
  -5   4   7    7.50    5.20
   4  -4  -7   17.80    3.60
   4  -4  -7   22.50    2.40
   4  -4  -7   15.40    4.40
  -4   4   7   22.00    5.10
  -4   4   7   16.10    3.70
   3  -4  -7   16.20    3.20
   3  -4  -7   23.90    4.00
   3  -4  -7   27.20    2.80
  -3   4   7   16.40    3.80
  -3   4   7   22.70    3.80
  -3   4   7   21.50    3.20
  -3   4   7   24.30    4.50
  -3   4   7   24.00    4.50
   2  -4  -7   22.20    3.30
   2  -4  -7   19.60    4.40
   2  -4  -7   22.20    3.50
   2  -4  -7   15.30    2.60
  -2   4   7   21.00    3.30
  -2   4   7   18.70    3.40
  -2   4   7   21.50    4.00
  -2   4   7   22.10    3.40
  -2   4   7   19.00    3.30
   1  -4  -7   67.39    6.30
   1  -4  -7   64.29    4.40
   1  -4  -7   61.69    5.70
   1  -4  -7   70.09    3.30
   1  -4  -7   70.69    4.90
   1  -4  -7   69.89    4.80
  -1   4   7   70.09    4.70
  -1   4   7   74.29    5.20
  -1   4   7   64.99    5.80
  -1   4   7   67.29    4.70
  -1   4   7   67.79    4.90
   0  -4  -7  203.48    8.60
   0  -4  -7  206.68    7.20
   0  -4  -7  199.58    7.80
   0  -4  -7  220.68    7.10
   0  -4  -7  214.58    7.90
   0  -4  -7  208.68    9.20
   0   4   7  200.08    8.10
   0   4   7  203.88    8.90
   0   4   7  219.48    7.30
   0   4   7  209.88    7.90
   0   4   7  207.78    8.30
  -1  -4  -7    1.90    1.50
  -1  -4  -7    3.90    2.10
  -1  -4  -7    2.10    2.00
  -1  -4  -7    4.60    2.40
  -1  -4  -7    2.60    2.90
  -1  -4  -7    1.20    3.10
   1   4   7    2.60    2.10
   1   4   7    5.20    2.50
   1   4   7    4.00    2.00
   1   4   7    2.50    2.80
   1   4   7   -0.30    2.60
   1   4   7    2.40    1.40
  -2  -4  -7  109.09    6.20
  -2  -4  -7  117.39    5.60
  -2  -4  -7  108.79    7.20
  -2  -4  -7  116.59    6.20
  -2  -4  -7  106.69    4.00
  -2  -4  -7  117.89    6.40
   2   4   7  109.09    5.30
   2   4   7  107.09    5.70
   2   4   7  106.09    3.70
   2   4   7  107.69    6.40
   2   4   7  103.99    5.80
   2   4   7  106.99    6.60
  -3  -4  -7    6.10    2.60
  -3  -4  -7    2.30    3.50
  -3  -4  -7    6.00    1.20
  -3  -4  -7    5.60    2.30
  -3  -4  -7    0.10    2.90
  -3  -4  -7    3.50    3.50
   3   4   7    1.50    2.10
   3   4   7    1.40    2.30
   3   4   7    2.40    1.90
   3   4   7   -0.10    2.40
  -4  -4  -7    0.80    2.40
  -4  -4  -7    5.20    3.20
  -4  -4  -7    2.30    3.50
   4   4   7    8.10    3.10
   4   4   7    6.20    2.10
   4   4   7    5.40    2.50
   4   4   7   -0.90    2.30
  -5  -4  -7   15.80    3.50
  -5  -4  -7   24.20    5.40
  -5  -4  -7   13.20    4.70
   5   4   7   22.00    4.50
   5   4   7   15.50    3.70
  -6  -4  -7   43.20    5.80
  -6  -4  -7   38.80    4.80
   6   4   7   43.60    5.60
   6   4   7   39.50    6.10
  -7  -4  -7   -3.20    4.70
  -7  -4  -7   -1.90    4.40
   7   4   7    8.50    5.20
   7   4   7    3.20    5.60
   6  -5  -7    3.20    6.30
   6  -5  -7    6.60    5.00
  -6   5   7   -5.80    6.90
  -6   5   7    7.40    5.30
  -6   5   7    5.10    6.20
   5  -5  -7  252.77   11.20
   5  -5  -7  247.38    9.70
   5  -5  -7  262.97   12.50
  -5   5   7  267.37   14.30
  -5   5   7  254.27   12.00
  -5   5   7  271.77   12.80
   4  -5  -7   79.09    7.90
   4  -5  -7   81.39    4.50
   4  -5  -7   86.99    6.20
   4  -5  -7   88.19    6.60
  -4   5   7   98.19    7.60
  -4   5   7   76.09    8.60
  -4   5   7   79.29    7.80
   3  -5  -7 1300.07   33.80
   3  -5  -7 1257.27   31.10
   3  -5  -7 1260.57   32.40
  -3   5   7 1286.97   33.90
  -3   5   7 1273.37   34.90
  -3   5   7 1223.48   31.30
  -3   5   7 1304.57   33.20
   2  -5  -7  262.17    9.80
   2  -5  -7  252.77    8.70
   2  -5  -7  254.67    9.30
  -2   5   7  247.18    9.70
  -2   5   7  268.97   10.20
  -2   5   7  251.57   11.00
  -2   5   7  243.08    9.00
  -2   5   7  240.78   10.10
   1  -5  -7  257.57    7.00
   1  -5  -7  259.87    9.40
   1  -5  -7  252.67    9.50
   1  -5  -7  253.77    8.90
  -1   5   7  271.47    9.50
  -1   5   7  259.17    9.50
  -1   5   7  254.97    9.40
  -1   5   7  250.27   10.60
   0  -5  -7  180.28    7.60
   0  -5  -7  198.78    6.50
   0  -5  -7  177.98    6.90
   0  -5  -7  190.88    7.70
   0  -5  -7  167.78    9.20
   0   5   7  193.38    8.00
   0   5   7  173.28    7.40
   0   5   7  183.98    7.20
   0   5   7  203.88    8.90
   0   5   7  180.38    8.80
  -1  -5  -7  108.89    7.30
  -1  -5  -7  117.69    6.10
  -1  -5  -7  120.29    6.10
  -1  -5  -7  118.79    5.70
  -1  -5  -7  122.79    4.80
  -1  -5  -7  115.99    7.50
   1   5   7  112.99    6.60
   1   5   7  112.79    7.00
   1   5   7  122.69    5.80
   1   5   7  120.59    5.10
   1   5   7  122.99    6.10
   1   5   7  121.89    6.70
  -2  -5  -7   35.60    5.40
  -2  -5  -7   22.90    4.80
  -2  -5  -7   36.90    3.80
  -2  -5  -7   32.70    2.30
  -2  -5  -7   34.60    4.00
  -2  -5  -7   33.60    3.80
   2   5   7   40.10    4.10
   2   5   7   34.10    3.60
   2   5   7   43.30    4.90
   2   5   7   35.80    3.00
   2   5   7   45.50    4.30
  -3  -5  -7   64.49    5.10
  -3  -5  -7   69.09    6.60
  -3  -5  -7   69.89    5.50
   3   5   7   69.99    5.40
   3   5   7   61.09    5.30
   3   5   7   64.19    4.50
   3   5   7   64.89    3.50
  -4  -5  -7   20.30    2.10
  -4  -5  -7   18.20    3.50
  -4  -5  -7   24.80    3.90
   4   5   7   21.20    3.00
   4   5   7   20.30    3.70
   4   5   7   20.60    3.40
   4   5   7   20.00    3.50
  -5  -5  -7   -0.10    3.90
  -5  -5  -7    1.20    1.90
  -5  -5  -7    2.20    3.00
   5   5   7   -3.60    3.10
   5   5   7    1.80    2.40
   5   5   7    1.40    3.20
   5   5   7    2.30    2.70
  -6  -5  -7   13.60    4.10
  -6  -5  -7   16.50    4.50
   6   5   7   15.90    5.00
   6   5   7    8.80    4.30
  -7  -5  -7   -0.50    4.70
  -7  -5  -7    1.80    4.60
   7   5   7   -0.90    4.80
   7   5   7   -2.10    5.10
   6  -6  -7   11.10    5.90
   6  -6  -7    0.50    7.50
  -6   6   7   -0.30    7.40
  -6   6   7   -1.40    5.80
  -6   6   7   14.30    7.20
   5  -6  -7    1.80    4.50
   5  -6  -7  -10.20    5.60
   5  -6  -7    5.80    3.70
  -5   6   7    7.40    4.70
  -5   6   7   13.00    5.90
  -5   6   7    3.30    6.20
   4  -6  -7    7.00    5.00
   4  -6  -7    3.10    3.70
   4  -6  -7    1.60    2.60
   4  -6  -7    0.10    3.20
  -4   6   7    0.00    4.50
  -4   6   7    2.70    5.10
  -4   6   7    1.90    3.80
   3  -6  -7   75.79    4.90
   3  -6  -7   79.89    6.00
   3  -6  -7   82.89    7.30
  -3   6   7   72.59    8.20
  -3   6   7   77.99    5.80
  -3   6   7   88.99   10.10
  -3   6   7   61.99    7.20
   2  -6  -7   26.40    3.70
   2  -6  -7   32.10    4.40
   2  -6  -7   30.30    3.60
  -2   6   7   22.00    4.00
  -2   6   7   23.00    3.70
  -2   6   7   35.30    5.30
  -2   6   7   29.10    4.20
   1  -6  -7  260.07    6.80
   1  -6  -7  275.57    9.80
   1  -6  -7  271.77    9.60
   1  -6  -7  272.07    9.80
  -1   6   7  275.57   11.50
  -1   6   7  270.67   10.10
  -1   6   7  267.57    9.90
  -1   6   7  258.87    9.90
   0  -6  -7  237.18    9.00
   0  -6  -7  230.88    9.10
   0  -6  -7  201.58    9.50
   0  -6  -7  245.48    8.30
   0   6   7  237.48    9.00
   0   6   7  234.38    8.60
   0   6   7  243.88   10.40
   0   6   7  219.98    9.20
  -1  -6  -7  693.53   18.00
  -1  -6  -7  725.43   18.70
  -1  -6  -7  714.23   20.00
  -1  -6  -7  726.33   19.90
   1   6   7  673.03   19.50
   1   6   7  708.53   21.10
   1   6   7  727.43   19.70
   1   6   7  694.63   19.00
  -2  -6  -7  483.05   12.30
  -2  -6  -7  486.35   14.70
  -2  -6  -7  516.85   15.30
  -2  -6  -7  516.15   15.70
   2   6   7  506.55   16.50
   2   6   7  495.85   14.90
   2   6   7  510.15   15.20
   2   6   7  500.55   14.00
  -3  -6  -7  507.85   15.40
  -3  -6  -7  490.25   13.80
  -3  -6  -7  467.75   15.60
  -3  -6  -7  500.55   16.00
   3   6   7  514.55   13.80
   3   6   7  524.65   15.40
   3   6   7  534.45   15.10
   3   6   7  501.95   15.70
  -4  -6  -7   96.49    6.50
  -4  -6  -7   88.89    5.20
  -4  -6  -7   81.79    8.60
   4   6   7   99.09    6.70
   4   6   7   84.29    6.70
   4   6   7   89.49    6.80
   4   6   7   94.59    4.80
   4   6   7   99.39    5.90
  -5  -6  -7    1.70    3.90
  -5  -6  -7    1.70    3.00
  -5  -6  -7    2.70    3.40
   5   6   7   -2.40    3.60
   5   6   7    5.20    3.70
   5   6   7   -0.70    3.60
   5   6   7   -0.30    2.90
  -6  -6  -7    2.40    4.20
  -6  -6  -7    0.30    4.20
   6   6   7    1.60    3.40
   6   6   7    0.80    4.90
   6   6   7    1.60    4.50
  -7  -6  -7    8.20    5.30
  -7  -6  -7   13.50    5.80
   7   6   7   13.70    5.50
   7   6   7   14.00    5.70
   5  -7  -7   -3.70    5.00
   5  -7  -7    3.50    6.50
  -5   7   7    8.50    6.40
  -5   7   7   -4.30    6.30
  -5   7   7   10.60    5.20
   4  -7  -7   15.20    4.00
   4  -7  -7   11.10    4.30
   4  -7  -7    6.00    5.40
  -4   7   7    6.00    4.60
  -4   7   7    8.00    5.60
  -4   7   7   12.20    4.90
   3  -7  -7   -2.00    3.10
   3  -7  -7   -0.20    3.30
   3  -7  -7   -1.40    3.50
  -3   7   7   11.30    5.20
  -3   7   7   -1.20    3.60
  -3   7   7    7.10    4.70
  -3   7   7   -1.80    3.80
   2  -7  -7   14.30    3.90
   2  -7  -7   21.50    3.60
   2  -7  -7   15.80    3.70
  -2   7   7   19.30    5.30
  -2   7   7   15.30    3.80
  -2   7   7   12.10    4.10
  -2   7   7   23.40    4.20
   1  -7  -7    3.80    3.10
   1  -7  -7   -0.10    2.70
   1  -7  -7    3.90    3.00
  -1   7   7    0.20    4.00
  -1   7   7    1.70    3.60
  -1   7   7    4.80    3.20
  -1   7   7    7.60    3.10
   0  -7  -7   65.99    5.70
   0  -7  -7   68.19    5.90
   0  -7  -7   65.39    4.80
   0   7   7   75.69    7.00
   0   7   7   60.39    5.20
   0   7   7   64.69    5.60
  -1  -7  -7   19.40    3.90
  -1  -7  -7   17.60    3.00
  -1  -7  -7   15.40    2.50
  -1  -7  -7   20.80    3.70
   1   7   7   20.80    3.30
   1   7   7   19.80    3.40
   1   7   7   20.80    3.60
   1   7   7   16.00    4.40
  -2  -7  -7   74.59    5.90
  -2  -7  -7   80.79    6.00
  -2  -7  -7   81.19    6.20
  -2  -7  -7   79.09    6.10
   2   7   7   73.39    7.30
   2   7   7   83.19    5.70
   2   7   7   70.29    5.30
   2   7   7   89.99    5.70
  -3  -7  -7  109.69    6.70
  -3  -7  -7  101.29    6.40
  -3  -7  -7  106.19    7.60
   3   7   7  105.79    6.20
   3   7   7  107.99    6.60
   3   7   7  102.29    5.80
  -4  -7  -7   -2.20    3.20
  -4  -7  -7   -2.30    3.50
  -4  -7  -7   -4.00    5.50
   4   7   7    0.10    2.90
   4   7   7    5.60    3.10
   4   7   7   -3.10    2.50
  -5  -7  -7   20.00    4.40
  -5  -7  -7   22.10    5.00
  -5  -7  -7   18.80    4.40
   5   7   7   17.20    4.20
   5   7   7   12.90    4.20
   5   7   7   13.70    3.20
   5   7   7   14.50    3.60
  -6  -7  -7   17.80    5.00
  -6  -7  -7   21.80    5.60
   6   7   7   24.10    6.20
   6   7   7   19.90    4.00
   6   7   7   33.20    5.90
  -7  -7  -7   22.10    6.00
  -7  -7  -7   24.00    6.30
   7   7   7   19.30    6.00
   7   7   7   18.50    6.90
   4  -8  -7    7.00    4.20
   4  -8  -7    0.20    6.00
   4  -8  -7    2.60    4.70
  -4   8   7   14.10    6.20
  -4   8   7    3.60    5.00
  -4   8   7    8.00    6.70
   3  -8  -7    9.60    4.90
   3  -8  -7   -0.80    4.10
   3  -8  -7   -2.90    3.60
   3  -8  -7    1.30    3.70
  -3   8   7   -7.00    6.00
  -3   8   7    3.80    4.90
  -3   8   7   -1.00    4.00
   2  -8  -7    4.20    3.60
   2  -8  -7    5.30    3.70
   2  -8  -7   11.70    4.30
   2  -8  -7    9.30    3.60
  -2   8   7   14.40    4.20
  -2   8   7    6.60    5.20
  -2   8   7    4.70    3.80
   1  -8  -7    8.70    3.70
   1  -8  -7   11.20    3.70
   1  -8  -7   19.60    4.10
  -1   8   7   17.30    4.00
  -1   8   7   11.90    3.40
  -1   8   7    4.60    4.20
   0  -8  -7    1.10    3.10
   0  -8  -7    5.80    3.00
   0  -8  -7    2.40    2.40
   0  -8  -7   -0.30    3.30
   0   8   7    1.70    3.20
   0   8   7   -0.60    2.70
   0   8   7    2.10    4.10
  -1  -8  -7    5.70    3.10
  -1  -8  -7    1.90    4.30
  -1  -8  -7    2.20    2.50
  -1  -8  -7    2.00    3.10
   1   8   7    3.20    2.70
   1   8   7    3.60    3.30
  -2  -8  -7   24.10    4.20
  -2  -8  -7   24.50    4.70
  -2  -8  -7   21.90    3.90
   2   8   7   21.40    3.80
   2   8   7   25.00    5.00
   2   8   7   20.10    3.60
   2   8   7   26.20    4.20
  -3  -8  -7   -1.30    3.60
  -3  -8  -7    4.00    3.90
  -3  -8  -7    6.00    3.80
   3   8   7   -0.20    3.00
   3   8   7    6.70    2.90
   3   8   7    3.40    3.00
  -4  -8  -7   34.50    5.20
  -4  -8  -7   31.10    5.10
  -4  -8  -7   21.20    4.70
   4   8   7   29.10    4.20
   4   8   7   25.50    4.20
   4   8   7   30.80    4.70
  -5  -8  -7    9.70    5.60
  -5  -8  -7   -0.50    4.60
   5   8   7   10.20    4.60
   5   8   7    3.40    4.00
   5   8   7   13.20    3.90
   5   8   7    6.10    4.50
  -6  -8  -7    3.30    5.20
  -6  -8  -7   -2.10    5.50
   6   8   7    1.60    5.10
   6   8   7   13.10    4.90
   6   8   7   -4.60    5.30
  -7  -8  -7    0.20    6.90
  -7  -8  -7   -5.50    6.20
   7   8   7   -7.60    6.10
   7   8   7   -0.90    6.50
   4  -9  -7  -13.10    6.10
   4  -9  -7   -0.20    5.90
  -4   9   7    3.20    6.30
  -4   9   7   -5.10    5.20
  -4   9   7   -3.80    7.70
   3  -9  -7    8.20    5.10
   3  -9  -7   -4.80    5.60
   3  -9  -7    6.60    4.60
   3  -9  -7   10.60    4.90
  -3   9   7   10.20    5.40
  -3   9   7    8.40    4.90
  -3   9   7    8.90    6.60
   2  -9  -7    0.40    3.90
   2  -9  -7    1.50    4.30
   2  -9  -7    2.80    4.70
   2  -9  -7    6.10    5.40
  -2   9   7   -2.30    4.00
  -2   9   7   -3.30    5.40
  -2   9   7   -2.50    4.30
   1  -9  -7    4.20    4.30
   1  -9  -7   -2.40    3.80
   1  -9  -7    0.10    4.20
  -1   9   7   10.00    4.30
  -1   9   7    0.10    4.70
  -1   9   7    3.80    3.60
   0  -9  -7    9.90    3.70
   0  -9  -7    6.00    4.10
   0   9   7    9.20    4.00
   0   9   7    2.30    4.20
   0   9   7    4.90    3.10
   0   9   7   10.60    5.20
  -1  -9  -7    3.50    4.20
  -1  -9  -7    6.90    3.90
  -1  -9  -7    8.00    3.90
   1   9   7    7.30    5.10
   1   9   7    6.60    3.40
   1   9   7    7.50    4.00
   1   9   7    7.90    3.80
  -2  -9  -7   10.70    4.30
  -2  -9  -7   11.80    4.40
  -2  -9  -7   19.10    5.00
   2   9   7   16.20    3.90
   2   9   7    9.80    4.40
   2   9   7   16.10    4.00
   2   9   7   17.20    3.50
  -3  -9  -7   43.00    5.90
  -3  -9  -7   41.00    5.50
   3   9   7   50.19    5.20
   3   9   7   47.20    5.10
   3   9   7   52.69    5.70
  -4  -9  -7   30.40    5.90
  -4  -9  -7   18.20    4.90
   4   9   7   21.50    4.90
   4   9   7   21.20    6.20
   4   9   7   25.50    4.80
  -5  -9  -7   18.20    5.50
  -5  -9  -7   20.00    5.60
   5   9   7   13.60    5.00
   5   9   7   21.80    4.90
   5   9   7   22.20    5.80
   5   9   7   24.50    5.70
  -6  -9  -7   -0.90    6.00
  -6  -9  -7    3.00    5.30
   6   9   7   10.60    6.00
   6   9   7   -1.00    5.40
   6   9   7    4.70    5.20
   6   9   7   -2.80    5.10
   3 -10  -7   -2.00    5.60
   3 -10  -7    1.30    6.00
   3 -10  -7    3.40    7.20
  -3  10   7    8.60    6.90
  -3  10   7   -3.20    7.20
  -3  10   7   10.80    5.70
   2 -10  -7   11.10    5.40
   2 -10  -7   18.00    5.60
   2 -10  -7   14.10    6.40
   2 -10  -7    4.10    4.80
  -2  10   7   13.00    5.10
  -2  10   7   20.00    6.30
  -2  10   7   16.50    7.10
   1 -10  -7    3.50    5.20
   1 -10  -7    5.50    5.10
   1 -10  -7    3.50    4.40
   1 -10  -7   -1.70    5.00
  -1  10   7   15.40    4.80
  -1  10   7    1.80    6.00
  -1  10   7    5.50    5.30
   0 -10  -7   11.70    4.80
   0 -10  -7   14.10    4.30
   0 -10  -7   12.40    4.80
   0  10   7   12.70    3.90
   0  10   7    3.70    5.20
   0  10   7    5.20    4.50
   0  10   7   11.50    5.20
  -1 -10  -7   25.70    5.10
  -1 -10  -7   14.50    5.00
   1  10   7   12.30    4.50
   1  10   7   14.40    3.70
   1  10   7   23.60    5.10
   1  10   7   17.10    6.00
  -2 -10  -7   29.30    6.10
  -2 -10  -7   20.00    5.20
   2  10   7   22.40    4.30
   2  10   7   16.20    6.00
   2  10   7   23.10    4.90
   2  10   7    3.20    8.20
  -3 -10  -7   25.60    5.60
  -3 -10  -7   15.50    6.00
   3  10   7   13.30    4.80
   3  10   7   18.20    4.90
   3  10   7   22.60    4.70
  -4 -10  -7   -0.40    5.00
  -4 -10  -7    2.60    5.80
   4  10   7    4.40    5.00
   4  10   7    0.00    5.30
   4  10   7    4.70    4.70
  -5 -10  -7    1.30    5.60
  -5 -10  -7    9.70    6.50
   5  10   7    6.50    5.40
   5  10   7    8.00    5.40
   5  10   7   19.60    6.10
   1 -11  -7   -3.00    6.10
   1 -11  -7    6.70    6.00
   1 -11  -7    1.30    5.60
   1 -11  -7   -4.70    5.30
  -1  11   7    0.90    5.50
  -1  11   7   -6.40    6.90
  -1  11   7   -3.60    4.10
  -1  11   7    3.40    5.70
   0 -11  -7    0.10    5.20
   0 -11  -7  -10.60    5.50
   0 -11  -7  -11.10    5.20
   0  11   7    5.30    4.80
   0  11   7    4.00    4.20
   0  11   7    9.50    6.70
   0  11   7    4.50    5.50
  -1 -11  -7    1.90    5.80
  -1 -11  -7   -0.40    5.60
  -1 -11  -7   -3.50    4.20
   1  11   7    4.80    3.90
   1  11   7    1.00    4.40
   1  11   7   -3.10    5.70
   1  11   7   -1.40    4.90
  -2 -11  -7   61.29    7.50
  -2 -11  -7   65.39    8.00
   2  11   7   56.69    5.70
   2  11   7   64.59    7.10
   2  11   7   63.99    7.40
  -3 -11  -7    9.10    5.80
  -3 -11  -7   13.10    5.80
   3  11   7    1.80    4.50
   3  11   7   -2.90    5.50
   3  11   7   -1.60    5.00
  -4 -11  -7   63.39    7.80
  -4 -11  -7   49.70    7.60
   4  11   7   46.50    7.20
   4  11   7   62.49    6.90
   4  11   7   69.79    7.50
   3   7  -8    9.10    6.70
   3   7  -8    6.60    5.80
  -3  -7   8    7.00    6.30
  -3  -7   8    1.30    5.50
   2   7  -8    7.50    5.40
   2   7  -8   -3.50    5.30
  -2  -7   8    6.90    5.60
  -2  -7   8    1.00    5.20
   1   7  -8   12.20    5.70
   1   7  -8   -3.70    6.20
  -1  -7   8    5.80    5.30
  -1  -7   8    1.60    4.90
   0   7  -8    3.20    6.20
   0   7  -8   13.20    5.90
   0  -7   8    5.00    4.90
  -1   7  -8   -1.60    6.20
  -1   7  -8  -10.80    6.10
   1  -7   8    4.80    5.60
   5   6  -8   -1.00    6.40
  -5  -6   8    0.70    5.80
   4   6  -8   -6.10    5.20
  -4  -6   8   -1.30    6.00
  -4  -6   8    2.50    5.50
   3   6  -8    7.80    5.20
   3   6  -8    7.30    5.30
  -3  -6   8   -3.60    5.20
  -3  -6   8  -11.90    4.10
   2   6  -8    0.90    4.80
   2   6  -8   -2.50    4.90
  -2  -6   8   -4.20    4.50
  -2  -6   8    5.60    4.50
   1   6  -8   17.40    5.10
   1   6  -8    1.10    4.60
  -1  -6   8    0.10    4.50
  -1  -6   8    6.10    3.20
  -1  -6   8    0.90    4.10
   0   6  -8    7.50    4.50
   0   6  -8   14.60    5.60
   0  -6   8   16.60    3.50
   0  -6   8    1.50    3.70
   0  -6   8    7.10    4.60
  -1   6  -8   -2.90    5.00
  -1   6  -8    4.20    5.30
   1  -6   8    0.50    3.70
   1  -6   8   -3.10    5.10
  -2   6  -8  -15.30    5.00
  -2   6  -8   -2.30    5.90
  -2   6  -8    0.40    6.30
   2  -6   8   13.00    6.10
   5   5  -8   15.70    5.50
   5   5  -8    2.90    4.60
  -5  -5   8    3.20   10.00
  -5  -5   8    3.70    6.00
  -5  -5   8    0.20    5.30
   4   5  -8    8.70    3.80
   4   5  -8   12.90    5.30
  -4  -5   8    3.70    5.10
  -4  -5   8    2.10    4.90
  -4  -5   8   -0.50    4.80
   3   5  -8    0.20    2.80
   3   5  -8   -0.40    4.50
  -3  -5   8  -11.40    4.10
  -3  -5   8   -2.90    3.80
  -3  -5   8   -9.20    4.30
   2   5  -8   21.90    6.10
   2   5  -8   25.20    5.00
  -2  -5   8   24.60    3.00
  -2  -5   8   21.00    4.80
  -2  -5   8   28.80    5.00
   1   5  -8    7.20    4.60
   1   5  -8   10.00    4.10
  -1  -5   8   10.30    3.20
  -1  -5   8    5.40    3.80
  -1  -5   8    7.70    4.30
   0   5  -8    1.90    3.80
   0   5  -8    3.70    4.20
   0  -5   8   -0.40    3.90
   0  -5   8   -3.00    3.10
   0  -5   8   -6.40    2.70
  -1   5  -8   10.00    4.20
  -1   5  -8    6.10    4.20
   1  -5   8   -0.80    4.60
   1  -5   8    0.00    3.20
  -2   5  -8    5.60    5.00
  -2   5  -8    1.50    5.20
  -2   5  -8   -0.50    4.10
   2  -5   8   -3.10    3.50
   2  -5   8    0.60    5.10
  -3   5  -8   -4.60    4.50
  -3   5  -8    1.10    5.90
  -3   5  -8   -4.00    4.60
   3  -5   8   -8.10    5.30
   3  -5   8   -8.50    4.50
   6   4  -8   17.40    6.10
   6   4  -8    4.00    5.60
  -6  -4   8    7.10    6.50
  -6  -4   8  -13.30    7.40
   5   4  -8   -7.30    5.60
   5   4  -8    7.50    4.50
  -5  -4   8   -3.50    5.40
  -5  -4   8    3.60    6.50
  -5  -4   8   -1.50    4.60
   4   4  -8   18.70    5.20
   4   4  -8   10.30    3.30
  -4  -4   8    6.60    4.50
  -4  -4   8   16.40    5.20
  -4  -4   8    6.80    4.30
   3   4  -8   59.29    4.60
   3   4  -8   49.60    6.00
   3   4  -8   49.30    5.80
  -3  -4   8   49.80    6.00
  -3  -4   8   56.49    5.40
  -3  -4   8   58.19    6.20
   2   4  -8    9.90    4.00
   2   4  -8    3.40    1.80
   2   4  -8   -1.80    3.50
  -2  -4   8    2.40    2.70
  -2  -4   8    6.20    3.80
  -2  -4   8    4.30    3.80
   1   4  -8    1.30    3.60
   1   4  -8    5.40    3.30
  -1  -4   8    4.60    3.40
  -1  -4   8   -2.00    1.70
  -1  -4   8   -5.20    3.20
   0   4  -8    5.70    3.40
   0   4  -8    7.30    3.90
   0  -4   8    3.50    3.40
   0  -4   8    4.30    3.30
   0  -4   8    6.30    3.00
   0  -4   8    3.60    3.90
   0  -4   8    5.90    4.20
  -1   4  -8   28.30    5.40
  -1   4  -8   27.20    4.50
  -1   4  -8   22.70    4.00
   1  -4   8   16.30    4.30
   1  -4   8   22.60    4.80
   1  -4   8   20.20    3.70
   1  -4   8   24.00    3.00
  -2   4  -8    7.60    3.50
  -2   4  -8   18.10    5.20
  -2   4  -8    9.70    3.80
   2  -4   8    7.20    3.50
   2  -4   8    4.90    4.60
  -3   4  -8    2.80    5.30
  -3   4  -8    1.60    3.80
  -3   4  -8    0.90    3.80
   3  -4   8   -3.00    4.50
   3  -4   8   -1.70    4.00
  -4   4  -8    8.30    4.40
  -4   4  -8   -5.00    6.00
   4  -4   8    7.80    5.10
   4  -4   8   -1.70    4.60
   6   3  -8   62.39    6.90
   6   3  -8   65.39    7.30
   6   3  -8   77.89    7.70
  -6  -3   8   59.99    7.80
  -6  -3   8   62.79    9.10
   5   3  -8    2.00    3.70
   5   3  -8   16.80    5.40
   5   3  -8   14.90    4.20
  -5  -3   8   10.30    4.50
  -5  -3   8    5.60    5.70
  -5  -3   8   10.50    5.30
   4   3  -8   72.89    7.70
   4   3  -8   80.19    6.00
  -4  -3   8   86.69    8.00
  -4  -3   8   78.59    8.30
  -4  -3   8   91.39    8.60
   3   3  -8   24.40    4.50
   3   3  -8   26.60    2.80
   3   3  -8   33.40    4.80
  -3  -3   8   20.40    4.30
  -3  -3   8   24.60    4.60
  -3  -3   8   24.90    4.70
   2   3  -8   17.70    4.50
   2   3  -8   21.30    4.20
  -2  -3   8   21.70    4.00
  -2  -3   8   21.00    3.20
  -2  -3   8   21.80    4.10
   1   3  -8    4.00    3.20
  -1  -3   8    3.70    3.70
  -1  -3   8    0.70    2.20
  -1  -3   8   -1.60    3.00
  -1  -3   8    3.60    3.50
   0   3  -8  180.18    7.80
   0   3  -8  169.68    8.70
   0   3  -8  191.38   13.80
   0  -3   8  173.18    7.50
   0  -3   8  179.28    8.10
   0  -3   8  171.48    9.00
   0  -3   8  170.98    7.60
   0  -3   8  176.78    8.40
  -1   3  -8    2.70    2.80
  -1   3  -8    9.40    4.10
  -1   3  -8    3.50    3.20
   1  -3   8    2.50    2.30
   1  -3   8    5.30    2.90
   1  -3   8    1.00    3.20
   1  -3   8    2.10    3.50
   1  -3   8   -4.10    2.50
  -2   3  -8   27.40    4.50
  -2   3  -8   27.40    3.50
  -2   3  -8   37.50    5.70
   2  -3   8   25.80    3.90
   2  -3   8   22.50    4.50
   2  -3   8   26.10    4.10
  -3   3  -8    8.70    3.10
  -3   3  -8   10.90    4.70
  -3   3  -8    3.10    5.60
  -3   3  -8   11.80    3.60
   3  -3   8    6.00    3.60
   3  -3   8    8.40    4.30
  -4   3  -8    6.60    3.80
  -4   3  -8   -1.50    5.20
   4  -3   8    2.10    4.30
   4  -3   8    5.20    5.30
  -5   3  -8   17.00    6.40
   5  -3   8    7.00    5.60
   5  -3   8    9.20    5.50
   6   2  -8   -0.10    4.70
   6   2  -8   -2.00    5.00
  -6  -2   8   13.00    6.70
  -6  -2   8   -5.00    5.60
   5   2  -8   25.60    5.00
   5   2  -8   30.80    4.40
   5   2  -8   31.90    4.30
  -5  -2   8   28.80    5.80
  -5  -2   8   29.90    6.50
  -5  -2   8   31.60    5.20
   4   2  -8   25.00    5.00
   4   2  -8   15.80    3.30
   4   2  -8   20.80    3.80
   4   2  -8   26.30    4.00
  -4  -2   8   26.70    5.10
  -4  -2   8   21.80    4.90
  -4  -2   8   16.90    4.20
   3   2  -8  506.55   13.20
   3   2  -8  474.25   16.10
   3   2  -8  501.75   15.70
   3   2  -8  491.35   16.30
   3   2  -8  488.45   15.40
  -3  -2   8  512.85   15.50
  -3  -2   8  487.45   16.00
   2   2  -8  484.35   15.50
   2   2  -8  487.95   15.50
   2   2  -8  476.85   15.40
   2   2  -8  464.05   14.70
  -2  -2   8  470.35   14.50
  -2  -2   8  459.25   15.20
  -2  -2   8  474.05   15.00
  -2  -2   8  474.55   15.10
   1   2  -8  195.78    9.80
   1   2  -8  215.18    9.30
   1   2  -8  221.38    9.10
   1   2  -8  195.38    7.90
  -1  -2   8  198.28    8.90
  -1  -2   8  199.18    8.40
  -1  -2   8  196.08    8.60
  -1  -2   8  194.98    7.60
   0   2  -8 1529.15   38.60
   0   2  -8 1541.65   39.80
   0  -2   8 1536.45   36.40
   0  -2   8 1532.15   37.50
   0  -2   8 1520.35   39.10
   0  -2   8 1458.55   37.70
   0  -2   8 1574.04   37.70
   0  -2   8 1505.45   38.00
  -1   2  -8   17.70    4.30
  -1   2  -8   18.00    2.50
  -1   2  -8   13.20    3.40
  -1   2  -8   15.20    2.60
   1  -2   8   15.90    2.60
   1  -2   8   14.30    3.00
   1  -2   8   17.30    3.60
   1  -2   8   14.30    3.10
   1  -2   8    9.90    2.80
  -2   2  -8  356.76    9.60
  -2   2  -8  362.86   10.40
  -2   2  -8  362.96   13.70
  -2   2  -8  342.87   12.90
  -2   2  -8  352.66   11.80
   2  -2   8  348.17   14.10
   2  -2   8  359.86   12.10
  -3   2  -8    2.30    3.00
  -3   2  -8    0.70    2.40
  -3   2  -8   -2.00    4.50
  -3   2  -8   -1.00    4.00
   3  -2   8   -2.40    3.90
   3  -2   8    1.30    3.00
  -4   2  -8    2.00    3.40
  -4   2  -8    4.10    4.80
  -4   2  -8    8.80    2.90
  -4   2  -8    5.90    2.50
   4  -2   8    9.10    4.20
   4  -2   8    4.00    4.50
  -5   2  -8   -2.90    3.70
  -5   2  -8    3.40    5.30
   5  -2   8   -2.40    5.00
   5  -2   8   -0.80    5.00
   7   1  -8    3.20    5.90
   7   1  -8    1.20    5.60
   7   1  -8    4.80    6.90
  -7  -1   8    8.00    6.80
  -7  -1   8    1.00    8.30
   6   1  -8   -1.50    5.20
   6   1  -8    9.80    4.50
   6   1  -8    6.80    4.80
  -6  -1   8    2.40    6.30
  -6  -1   8    3.80    5.10
   5   1  -8    7.30    3.40
   5   1  -8    1.10    2.90
   5   1  -8    4.60    4.10
  -5  -1   8    0.50    5.20
  -5  -1   8    5.20    4.60
  -5  -1   8    5.90    3.60
  -5  -1   8    8.70    4.30
   4   1  -8    1.70    2.90
   4   1  -8   -0.10    3.40
   4   1  -8   -4.50    2.50
   4   1  -8   -1.50    3.50
  -4  -1   8    3.70    3.10
  -4  -1   8    0.90    4.00
  -4  -1   8    4.30    4.40
   3   1  -8   -1.30    3.20
   3   1  -8   -3.80    4.20
   3   1  -8    2.70    3.00
   3   1  -8   -1.10    2.50
  -3  -1   8    1.10    2.70
  -3  -1   8   -7.90    3.20
  -3  -1   8    4.20    3.20
   2   1  -8    6.90    2.90
   2   1  -8    4.80    2.80
   2   1  -8    5.70    3.70
   2   1  -8   10.70    3.40
  -2  -1   8    8.50    3.00
  -2  -1   8    9.40    2.80
  -2  -1   8    7.40    3.70
  -2  -1   8    9.20    3.20
   1   1  -8   14.40    3.30
   1   1  -8   20.10    3.60
   1   1  -8   15.20    4.20
   1   1  -8   14.90    3.40
  -1  -1   8   16.50    3.40
  -1  -1   8   16.10    2.80
  -1  -1   8    7.00    3.00
  -1  -1   8   18.90    3.20
  -1  -1   8   12.80    4.80
   0   1  -8  151.58    7.70
   0   1  -8  135.39    6.50
   0   1  -8  130.89    6.90
   0  -1   8  150.38    6.20
   0  -1   8  140.09    6.50
   0  -1   8  140.29    7.50
   0  -1   8  140.19    6.10
   0  -1   8  140.39    7.30
  -1   1  -8  271.37   10.90
  -1   1  -8  266.67   10.70
  -1   1  -8  270.57    8.80
  -1   1  -8  268.87    9.80
   1  -1   8  273.77   10.50
   1  -1   8  271.77    9.90
   1  -1   8  271.77    9.90
   1  -1   8  274.27    8.70
   1  -1   8  267.77    9.20
  -2   1  -8  510.85   14.20
  -2   1  -8  500.45   15.20
  -2   1  -8  508.45   15.80
  -2   1  -8  513.45   16.90
   2  -1   8  501.75   12.90
   2  -1   8  523.65   16.50
   2  -1   8  523.45   15.70
   2  -1   8  525.55   13.10
  -3   1  -8  427.16   15.10
  -3   1  -8  430.96   12.80
  -3   1  -8  402.06   12.20
  -3   1  -8  388.36   13.50
   3  -1   8  415.96   14.70
   3  -1   8  403.76   13.70
  -4   1  -8  344.97   11.30
  -4   1  -8  339.87   11.60
  -4   1  -8  355.56   13.90
  -4   1  -8  325.47   12.30
   4  -1   8  347.07   13.00
   4  -1   8  367.76   13.90
  -5   1  -8   -1.40    4.50
  -5   1  -8    1.90    3.30
   5  -1   8    6.40    4.40
   5  -1   8   -2.60    5.30
  -6   1  -8   54.69    7.70
   6  -1   8   70.89    7.90
   6  -1   8   35.90    7.10
   7   0  -8   13.30    7.30
   7   0  -8   17.80    5.90
   7   0  -8   14.50    6.40
  -7   0   8   24.00    8.90
  -7   0   8   25.30    7.10
   6   0  -8    2.90    4.90
   6   0  -8    5.10    4.80
   6   0  -8    1.80    4.70
  -6   0   8    0.90    3.90
  -6   0   8    6.80    5.50
  -6   0   8    7.00    6.30
   5   0  -8   34.80    6.40
   5   0  -8   29.10    3.30
   5   0  -8   27.40    4.80
   5   0  -8   33.30    4.60
  -5   0   8   32.20    5.80
  -5   0   8   24.30    4.10
  -5   0   8   26.90    5.50
  -5   0   8   25.20    6.30
   4   0  -8    5.90    2.60
   4   0  -8    1.70    3.30
  -4   0   8    2.60    4.40
  -4   0   8    9.90    3.70
  -4   0   8   10.10    4.10
  -4   0   8   -0.10    2.90
   3   0  -8    3.00    2.40
   3   0  -8    0.30    3.00
  -3   0   8   -0.20    2.50
  -3   0   8    3.60    3.70
  -3   0   8    1.90    2.40
  -3   0   8   -0.30    2.80
   2   0  -8   53.99    5.50
   2   0  -8   53.99    4.70
   2   0  -8   49.60    4.90
  -2   0   8   54.69    4.70
  -2   0   8   42.70    4.50
  -2   0   8   53.29    5.00
  -2   0   8   52.89    5.30
   1   0  -8  130.39    6.70
   1   0  -8  122.59    7.10
   1   0  -8  120.49    6.50
  -1   0   8  120.29    6.40
  -1   0   8  131.89    6.50
  -1   0   8  128.79    7.50
  -1   0   8  140.09    6.70
  -1   0   8  126.59    6.60
   0   0  -8    3.30    2.50
   0   0  -8    2.20    3.00
   0   0  -8    2.50    2.60
   0   0  -8    4.10    3.70
   0   0  -8    6.80    2.50
   0   0   8    0.70    2.20
   0   0   8    9.90    2.90
   0   0   8    5.00    3.20
   0   0   8    3.10    2.50
   0   0   8    6.00    2.20
  -1   0  -8    2.80    2.90
  -1   0  -8    4.30    2.40
  -1   0  -8    4.90    3.70
  -1   0  -8    7.20    2.70
   1   0   8    7.80    3.10
   1   0   8    3.50    2.30
   1   0   8    6.60    2.30
   1   0   8    7.50    2.50
   1   0   8    3.00    1.60
   1   0   8    3.70    3.00
  -2   0  -8   18.70    3.60
  -2   0  -8   23.20    3.30
  -2   0  -8   19.10    4.10
  -2   0  -8   23.20    3.20
   2   0   8   20.60    2.40
   2   0   8   19.90    2.60
   2   0   8   16.10    3.20
   2   0   8   21.70    3.90
  -3   0  -8   -2.10    4.10
  -3   0  -8    3.40    2.50
  -3   0  -8   -0.40    3.20
  -3   0  -8    0.30    3.70
  -3   0  -8   -6.90    2.90
   3   0   8    4.50    3.50
   3   0   8   -0.30    2.60
  -4   0  -8   16.90    4.60
  -4   0  -8   26.40    3.40
  -4   0  -8   11.00    5.00
  -4   0  -8   21.50    4.50
  -4   0  -8   21.80    4.60
   4   0   8   17.60    4.40
   4   0   8   23.80    3.20
   4   0   8   16.80    3.90
  -5   0  -8    3.60    3.10
  -5   0  -8    1.10    4.40
   5   0   8    1.60    4.00
   5   0   8    8.90    3.40
   5   0   8   -4.40    4.50
  -6   0  -8   19.40    6.00
  -6   0  -8   19.00    4.00
   6   0   8   21.00    6.20
   6   0   8   22.30    6.40
   6   0   8   28.70    5.10
   7  -1  -8    6.50    6.30
  -7   1   8    7.50    7.90
  -7   1   8   10.60    6.60
   6  -1  -8    5.20    4.50
   6  -1  -8    7.00    5.70
  -6   1   8    6.90    6.00
  -6   1   8    8.20    5.40
  -6   1   8    4.70    3.60
   5  -1  -8   11.10    4.60
   5  -1  -8   12.70    2.40
   5  -1  -8   11.90    4.50
  -5   1   8   12.70    4.60
  -5   1   8   13.40    5.60
  -5   1   8   10.80    3.30
   4  -1  -8   19.60    2.90
   4  -1  -8   17.60    3.80
   4  -1  -8   24.20    5.00
  -4   1   8   19.50    4.30
  -4   1   8   19.30    4.30
  -4   1   8   16.00    4.80
  -4   1   8   17.40    3.10
   3  -1  -8   29.90    4.20
   3  -1  -8   34.40    3.90
  -3   1   8   29.70    3.20
  -3   1   8   28.80    3.40
  -3   1   8   32.60    4.80
  -3   1   8   29.60    4.30
   2  -1  -8    3.70    2.30
   2  -1  -8    0.30    2.50
   2  -1  -8    3.00    4.10
  -2   1   8   -0.30    2.60
  -2   1   8    6.60    3.10
  -2   1   8    1.80    3.30
  -2   1   8    5.50    1.90
  -2   1   8    2.20    2.30
   1  -1  -8    6.70    3.40
   1  -1  -8    9.00    2.60
   1  -1  -8   13.30    2.80
  -1   1   8   15.60    1.70
  -1   1   8   11.10    3.20
  -1   1   8   13.90    2.90
  -1   1   8   11.30    3.80
  -1   1   8   14.90    2.70
  -1   1   8   20.40    3.30
   0  -1  -8    2.30    3.60
   0  -1  -8   -1.10    2.20
   0  -1  -8   -0.80    2.10
   0  -1  -8   -1.80    2.60
   0  -1  -8   -0.20    2.90
   0   1   8    4.00    2.50
   0   1   8    1.40    2.10
   0   1   8    5.70    2.40
   0   1   8    1.00    2.00
   0   1   8    2.40    3.00
  -1  -1  -8    4.10    3.10
  -1  -1  -8    2.20    3.50
  -1  -1  -8    3.10    3.00
  -1  -1  -8   -1.60    2.40
  -1  -1  -8    4.10    2.30
   1   1   8    0.60    1.90
   1   1   8    3.00    1.30
   1   1   8    5.90    2.50
   1   1   8    4.80    2.30
   1   1   8    5.40    2.50
  -2  -1  -8    2.50    2.80
  -2  -1  -8    7.50    3.10
  -2  -1  -8   10.20    3.70
  -2  -1  -8    5.80    2.60
   2   1   8    6.40    2.80
   2   1   8    5.60    2.10
   2   1   8    6.50    1.30
   2   1   8   13.30    3.20
   2   1   8    7.10    2.70
  -3  -1  -8   57.89    5.70
  -3  -1  -8   54.79    5.20
  -3  -1  -8   46.80    4.90
  -3  -1  -8   50.79    5.60
  -3  -1  -8   46.50    4.80
   3   1   8   63.49    5.40
   3   1   8   47.30    2.80
   3   1   8   53.89    2.70
   3   1   8   50.39    3.70
   3   1   8   44.00    5.20
  -4  -1  -8    8.90    4.30
  -4  -1  -8   15.10    4.60
  -4  -1  -8   15.80    4.30
  -4  -1  -8    9.20    3.80
  -4  -1  -8   12.70    2.90
   4   1   8   13.10    4.10
   4   1   8   12.30    2.90
   4   1   8   13.10    4.60
  -5  -1  -8   13.30    4.50
  -5  -1  -8    1.00    4.70
  -5  -1  -8    3.30    3.10
  -5  -1  -8    8.30    5.20
   5   1   8    4.10    4.50
   5   1   8    7.40    4.10
   5   1   8    5.90    3.40
  -6  -1  -8    0.50    3.40
  -6  -1  -8    9.20    5.50
   6   1   8    1.20    4.50
   6   1   8  -10.20    4.70
  -7   2   8   15.70    9.20
   6  -2  -8   -1.90    3.50
   6  -2  -8   -6.70    4.30
   6  -2  -8   -2.80    5.50
  -6   2   8   -1.60    6.90
  -6   2   8    2.20    5.30
   5  -2  -8    2.60    4.30
   5  -2  -8    3.30    3.70
   5  -2  -8    0.80    1.80
  -5   2   8    2.60    4.40
  -5   2   8    0.80    2.60
  -5   2   8   -2.90    5.40
   4  -2  -8   17.00    3.90
   4  -2  -8    5.50    4.00
   4  -2  -8   14.60    2.40
  -4   2   8   16.10    4.20
  -4   2   8   14.90    4.50
  -4   2   8   17.80    2.60
  -4   2   8   10.30    8.70
   3  -2  -8    5.90    3.30
   3  -2  -8    5.10    2.40
   3  -2  -8    2.80    2.70
  -3   2   8   -1.10    3.00
  -3   2   8    4.30    3.80
  -3   2   8    7.70    3.30
  -3   2   8    0.70    2.10
   2  -2  -8   13.00    2.90
   2  -2  -8   15.10    2.80
   2  -2  -8   10.30    4.70
  -2   2   8   19.80    2.60
  -2   2   8   17.30    3.10
  -2   2   8   14.50    2.70
  -2   2   8   13.70    3.50
   1  -2  -8    0.00    2.20
   1  -2  -8   -0.20    2.30
   1  -2  -8    4.80    3.50
  -1   2   8    2.30    2.20
  -1   2   8    3.00    1.60
  -1   2   8    2.00    2.60
  -1   2   8   -1.80    2.40
  -1   2   8    5.30    3.10
   0  -2  -8   32.20    3.60
   0  -2  -8   39.10    4.70
   0  -2  -8   41.20    4.40
   0  -2  -8   39.40    3.80
   0   2   8   33.70    3.50
   0   2   8   33.30    3.60
   0   2   8   42.30    3.80
   0   2   8   43.90    4.40
   0   2   8   36.30    4.20
   0   2   8   37.70    2.50
  -1  -2  -8   14.50    3.00
  -1  -2  -8   20.00    3.90
  -1  -2  -8   14.00    3.30
  -1  -2  -8   17.90    3.60
  -1  -2  -8   16.10    3.20
   1   2   8   15.50    2.80
   1   2   8   12.10    3.20
   1   2   8   21.20    2.30
   1   2   8   17.20    3.20
   1   2   8   20.30    2.80
   1   2   8   16.10    1.60
   1   2   8   16.10    1.70
   1   2   8   14.90    2.90
  -2  -2  -8   26.40    3.70
  -2  -2  -8   27.80    4.20
  -2  -2  -8   30.80    3.50
  -2  -2  -8   30.60    4.50
  -2  -2  -8   29.30    4.20
   2   2   8   34.70    4.10
   2   2   8   29.40    3.60
   2   2   8   33.10    2.80
   2   2   8   36.00    3.20
   2   2   8   28.00    3.80
   2   2   8   32.50    3.60
  -3  -2  -8   20.70    4.20
  -3  -2  -8   25.80    4.40
  -3  -2  -8   21.60    3.90
  -3  -2  -8   24.30    3.60
  -3  -2  -8   25.50    3.40
   3   2   8   23.60    4.00
   3   2   8   23.10    3.70
   3   2   8   29.90    3.40
   3   2   8   20.50    2.70
   3   2   8   26.90    2.90
  -4  -2  -8    3.40    6.90
  -4  -2  -8   10.40    4.20
  -4  -2  -8    8.70    2.80
  -4  -2  -8    5.10    4.60
  -4  -2  -8   10.50    3.30
   4   2   8    9.00    2.80
   4   2   8    5.20    3.10
  -5  -2  -8    3.40    4.00
  -5  -2  -8   11.60    3.50
  -5  -2  -8    8.90    4.50
  -5  -2  -8   10.60    4.70
   5   2   8    6.50    3.40
   5   2   8    7.10    4.10
  -6  -2  -8   -1.70    4.40
  -6  -2  -8   -2.30    3.70
   6   2   8   -7.20    5.00
   6   2   8   -1.70    4.10
  -7  -2  -8    1.20    5.50
  -7  -2  -8    0.30    5.80
   7   2   8    9.80    6.50
   7   2   8    4.10    5.80
   6  -3  -8  -15.70    5.50
   6  -3  -8   -0.60    4.30
   6  -3  -8    1.50    3.80
  -6   3   8  -10.20    6.80
  -6   3   8    7.20    5.60
   5  -3  -8   15.80    3.60
   5  -3  -8   18.60    5.80
   5  -3  -8    7.00    3.90
  -5   3   8    4.20    4.50
  -5   3   8    7.10    6.20
   4  -3  -8    0.50    3.40
   4  -3  -8    1.00    2.20
   4  -3  -8   -3.10    4.00
  -4   3   8    1.70    1.70
  -4   3   8    9.90    4.50
  -4   3   8   -2.80    3.60
   3  -3  -8    3.10    3.40
   3  -3  -8   10.10    2.30
   3  -3  -8    8.00    3.00
  -3   3   8    5.60    2.90
  -3   3   8    6.80    3.70
  -3   3   8    8.40    3.80
   2  -3  -8   48.40    4.40
   2  -3  -8   48.80    5.10
   2  -3  -8   50.19    5.10
  -2   3   8   53.09    5.20
  -2   3   8   52.69    4.90
  -2   3   8   51.19    3.50
  -2   3   8   51.99    5.80
   1  -3  -8    1.30    2.20
   1  -3  -8    2.70    2.10
   1  -3  -8   -1.00    2.70
   1  -3  -8   -0.70    3.60
  -1   3   8    2.90    3.20
  -1   3   8   -1.20    2.20
  -1   3   8    0.70    1.80
  -1   3   8    3.90    3.30
  -1   3   8   -0.10    2.10
   0  -3  -8    5.10    2.50
   0  -3  -8    3.50    3.30
   0  -3  -8    1.50    2.50
   0  -3  -8    6.70    2.50
   0   3   8    3.50    3.40
   0   3   8    3.60    2.40
   0   3   8   -1.20    3.20
   0   3   8    6.00    2.90
   0   3   8    6.40    2.20
   0   3   8    4.30    1.70
  -1  -3  -8    0.00    2.20
  -1  -3  -8    2.70    2.90
  -1  -3  -8    6.80    2.90
  -1  -3  -8   -4.60    3.50
  -1  -3  -8    5.90    3.20
   1   3   8    0.90    2.20
   1   3   8   -0.20    2.00
   1   3   8    5.50    1.70
   1   3   8    2.90    2.30
   1   3   8   -2.30    2.60
   1   3   8   -3.50    2.50
   1   3   8    3.70    1.40
  -2  -3  -8   91.99    7.00
  -2  -3  -8  103.59    6.40
  -2  -3  -8   96.39    7.00
  -2  -3  -8   90.69    7.20
  -2  -3  -8   98.79    5.70
   2   3   8  104.59    6.20
   2   3   8  107.39    6.70
   2   3   8   94.29    5.00
   2   3   8   95.49    4.50
   2   3   8   95.89    5.80
   2   3   8  103.29    5.90
  -3  -3  -8    3.20    4.10
  -3  -3  -8   -0.30    3.70
  -3  -3  -8    0.00    2.90
  -3  -3  -8   -0.70    2.30
  -3  -3  -8    0.40    2.30
   3   3   8   -0.20    2.00
   3   3   8    0.60    1.90
   3   3   8   -1.00    2.40
   3   3   8   -1.70    3.00
   3   3   8   -2.20    2.60
  -4  -3  -8   16.80    4.60
  -4  -3  -8   23.20    3.80
  -4  -3  -8   24.50    3.10
   4   3   8   21.20    2.40
   4   3   8   20.90    2.50
   4   3   8   26.70    3.50
   4   3   8   24.10    4.20
  -5  -3  -8   -1.00    3.70
  -5  -3  -8    4.70    3.30
  -5  -3  -8    1.60    2.90
   5   3   8    5.00    3.80
   5   3   8    0.80    3.10
  -6  -3  -8    3.10    4.50
  -6  -3  -8   -0.90    3.70
   6   3   8   -1.00    4.50
   6   3   8    2.60    4.30
  -7  -3  -8    6.80    5.40
  -7  -3  -8    1.60    4.60
   7   3   8    7.70    5.90
   7   3   8   11.70    6.00
   6  -4  -8   -1.30    4.40
   6  -4  -8    9.50    4.50
   6  -4  -8    2.50    6.30
  -6   4   8    6.00    6.80
  -6   4   8   -4.90    5.30
  -6   4   8   10.20    6.30
   5  -4  -8    8.10    6.00
   5  -4  -8   -1.70    3.60
   5  -4  -8   -0.60    3.90
  -5   4   8    9.00    5.50
  -5   4   8    1.30    4.20
   4  -4  -8   77.79    7.90
   4  -4  -8   66.29    6.00
   4  -4  -8   63.29    4.20
  -4   4   8   61.49    7.70
  -4   4   8   81.69    7.40
   3  -4  -8    1.00    3.10
   3  -4  -8    1.30    3.60
   3  -4  -8    0.90    2.30
  -3   4   8    3.10    3.20
  -3   4   8   -2.00    7.20
  -3   4   8    1.70    4.30
  -3   4   8   -0.80    5.50
   2  -4  -8  207.48    7.70
   2  -4  -8  205.98    8.70
   2  -4  -8  208.88    9.20
  -2   4   8  199.98    8.50
  -2   4   8  207.98    8.80
  -2   4   8  213.18   10.20
  -2   4   8  212.18    8.90
  -2   4   8  193.18    8.60
   1  -4  -8  128.49    6.60
   1  -4  -8  121.59    6.20
   1  -4  -8  119.79    6.10
  -1   4   8  133.69    8.00
  -1   4   8  123.29    7.00
  -1   4   8  118.79    6.20
  -1   4   8  112.09    6.00
  -1   4   8  125.19    6.60
  -1   4   8  115.89    5.00
   0  -4  -8   15.60    3.10
   0  -4  -8   21.00    3.10
   0  -4  -8   13.90    4.80
   0  -4  -8   18.70    2.80
   0  -4  -8   20.00    2.90
   0   4   8   20.60    3.70
   0   4   8   14.80    3.20
   0   4   8   19.60    3.90
   0   4   8   22.00    2.70
   0   4   8   16.00    2.60
  -1  -4  -8  127.09    6.60
  -1  -4  -8  127.89    6.50
  -1  -4  -8  130.09    6.60
  -1  -4  -8  119.69    5.50
  -1  -4  -8  124.09    7.90
   1   4   8  126.69    4.70
   1   4   8  111.39    7.20
   1   4   8  123.79    6.50
   1   4   8  109.79    6.70
   1   4   8  127.59    6.20
  -2  -4  -8    6.40    2.40
  -2  -4  -8    3.70    3.50
  -2  -4  -8    5.50    2.70
  -2  -4  -8   -0.70    4.00
   2   4   8    6.20    2.50
   2   4   8    9.60    3.40
   2   4   8    6.00    2.40
   2   4   8    3.90    1.10
   2   4   8    2.00    3.00
  -3  -4  -8    5.30    2.70
  -3  -4  -8   -1.10    2.90
  -3  -4  -8    2.40    1.90
   3   4   8   -0.90    3.10
   3   4   8    3.80    2.80
   3   4   8    4.10    2.30
   3   4   8    1.90    2.20
  -4  -4  -8   34.20    4.30
  -4  -4  -8   32.30    2.50
  -4  -4  -8   30.80    5.00
   4   4   8   30.10    4.50
   4   4   8   31.90    4.20
   4   4   8   33.20    3.20
   4   4   8   35.60    3.50
  -5  -4  -8    3.50    3.80
  -5  -4  -8   -3.10    3.30
   5   4   8   -0.50    3.20
   5   4   8    0.60    3.50
  -6  -4  -8    2.80    4.10
  -6  -4  -8   -3.60    4.50
   6   4   8    4.00    5.20
   6   4   8   -3.00    5.00
  -7  -4  -8    7.40    5.80
   7   4   8   -2.10    5.80
   7   4   8    5.80    5.80
   6  -5  -8   13.70    5.50
   6  -5  -8    1.90    7.00
  -6   5   8    6.90    6.80
  -6   5   8    5.10    6.10
  -6   5   8    5.30    7.90
   5  -5  -8   73.09    8.00
   5  -5  -8   67.39    7.90
   5  -5  -8   86.69    7.80
  -5   5   8   82.39    9.20
  -5   5   8   93.59    9.10
  -5   5   8   89.89    9.60
   4  -5  -8   19.50    5.10
   4  -5  -8   35.00    4.80
   4  -5  -8   41.10    4.00
  -4   5   8   25.90    5.20
  -4   5   8   35.50    5.30
  -4   5   8   20.80    5.80
   3  -5  -8   -0.20    3.20
   3  -5  -8   -1.80    2.40
   3  -5  -8    3.00    4.20
  -3   5   8    0.60    3.20
  -3   5   8    4.90    3.40
  -3   5   8    0.20    3.60
  -3   5   8   -3.80    4.30
   2  -5  -8    1.60    2.90
   2  -5  -8    3.40    3.50
   2  -5  -8    3.40    2.80
  -2   5   8    2.90    3.00
  -2   5   8    1.20    3.50
  -2   5   8    1.70    3.00
  -2   5   8    3.00    3.70
  -2   5   8    4.80    4.00
   1  -5  -8   79.19    5.80
   1  -5  -8   81.49    5.90
   1  -5  -8   71.89    5.50
  -1   5   8   69.19    5.50
  -1   5   8   72.39    6.30
  -1   5   8   81.49    5.60
  -1   5   8   84.09    7.20
   0  -5  -8   -0.30    2.60
   0  -5  -8    1.20    2.60
   0  -5  -8    0.10    2.20
   0  -5  -8   -0.10    2.20
   0   5   8   -2.40    2.00
   0   5   8    4.00    3.60
   0   5   8   -0.40    2.60
   0   5   8    0.90    3.20
  -1  -5  -8   29.80    3.70
  -1  -5  -8   28.00    3.90
  -1  -5  -8   30.10    3.80
  -1  -5  -8   33.60    3.50
   1   5   8   34.40    4.00
   1   5   8   36.10    3.50
   1   5   8   27.90    4.50
   1   5   8   28.70    3.50
  -2  -5  -8    6.20    3.30
  -2  -5  -8    5.50    1.80
  -2  -5  -8    4.20    3.50
  -2  -5  -8    9.40    3.10
   2   5   8    6.30    1.80
   2   5   8    8.20    2.60
   2   5   8    2.50    3.50
   2   5   8    8.90    2.90
   2   5   8    9.00    3.50
  -3  -5  -8   26.90    4.50
  -3  -5  -8   36.60    4.30
   3   5   8   32.50    3.70
   3   5   8   33.10    3.50
   3   5   8   29.80    4.40
   3   5   8   34.70    4.50
  -4  -5  -8   68.89    6.80
  -4  -5  -8   84.49    6.40
   4   5   8   84.39    6.90
   4   5   8   78.49    6.40
   4   5   8   79.79    6.20
   4   5   8   87.99    5.20
  -5  -5  -8    1.90    3.90
  -5  -5  -8    7.90    3.60
   5   5   8    0.20    3.80
   5   5   8    0.90    2.60
   5   5   8   -0.90    3.90
  -6  -5  -8   -4.40    4.40
  -6  -5  -8    2.10    4.60
   6   5   8   -4.80    4.10
   6   5   8    3.60    5.10
  -7  -5  -8    6.10    6.10
  -7  -5  -8   -2.10    5.60
   7   5   8    1.60    5.60
   7   5   8    0.40    6.00
   5  -6  -8    5.20    4.50
   5  -6  -8    7.50    4.60
   5  -6  -8   14.10    6.80
  -5   6   8    8.00    6.50
  -5   6   8   12.40    5.30
  -5   6   8   20.60    5.90
   4  -6  -8    4.00    3.90
   4  -6  -8   -1.00    4.00
   4  -6  -8    1.40    4.60
   4  -6  -8   -1.10    3.10
  -4   6   8    3.50    5.70
  -4   6   8    2.60    4.50
  -4   6   8    6.20    4.90
   3  -6  -8  117.09    9.80
   3  -6  -8  123.09    7.90
   3  -6  -8  131.99    6.90
  -3   6   8  124.49    8.80
  -3   6   8  145.59    8.40
  -3   6   8  137.39   10.10
  -3   6   8  136.59    7.90
   2  -6  -8   70.19    5.70
   2  -6  -8   77.49    6.80
   2  -6  -8   77.79    6.00
  -2   6   8   70.69    6.20
  -2   6   8   79.99    7.00
  -2   6   8   63.49    6.50
  -2   6   8   78.79    8.40
   1  -6  -8 1035.10   27.00
   1  -6  -8  988.80   26.60
   1  -6  -8 1007.40   27.20
  -1   6   8 1068.19   29.30
  -1   6   8  951.20   27.00
  -1   6   8 1025.10   27.50
  -1   6   8 1013.10   27.20
   0  -6  -8  581.84   17.60
   0  -6  -8  605.24   15.70
   0  -6  -8  585.64   16.70
   0  -6  -8  591.04   17.50
   0   6   8  586.74   17.70
   0   6   8  606.84   17.10
   0   6   8  618.94   19.40
  -1  -6  -8  555.34   17.00
  -1  -6  -8  551.14   15.60
  -1  -6  -8  560.74   16.80
  -1  -6  -8  554.64   14.90
   1   6   8  552.34   18.00
   1   6   8  551.94   16.80
   1   6   8  554.24   15.60
   1   6   8  543.45   16.50
  -2  -6  -8  201.98    9.10
  -2  -6  -8  198.88    9.20
  -2  -6  -8  221.98    8.90
  -2  -6  -8  202.58    6.20
   2   6   8  198.38   10.10
   2   6   8  199.48    7.30
   2   6   8  206.68    8.60
   2   6   8  217.28    9.00
  -3  -6  -8    3.10    5.70
  -3  -6  -8   16.30    4.10
   3   6   8   20.60    2.60
   3   6   8   21.50    3.40
   3   6   8   17.20    3.60
  -4  -6  -8   15.60    4.50
  -4  -6  -8   31.00    7.40
   4   6   8   15.40    3.20
   4   6   8   21.60    4.00
   4   6   8   23.00    3.70
   4   6   8   25.90    4.60
   4   6   8   19.40    4.30
  -5  -6  -8   13.10    4.20
  -5  -6  -8    8.50    4.60
   5   6   8   18.40    4.70
   5   6   8   16.50    3.50
   5   6   8   26.90    4.80
  -6  -6  -8   14.90    5.40
  -6  -6  -8   17.80    5.60
   6   6   8   13.70    5.20
   6   6   8   20.80    6.10
  -7  -6  -8    3.40    5.90
  -7  -6  -8   -1.70    6.00
   7   6   8   -0.30    5.70
   7   6   8    2.00    5.90
   5  -7  -8    9.30    6.90
   5  -7  -8    3.00    5.40
  -5   7   8   12.30    7.80
  -5   7   8    4.90    6.60
  -5   7   8    5.50    5.60
   4  -7  -8  -10.20    4.00
   4  -7  -8   -1.80    4.50
   4  -7  -8   -0.10    5.60
  -4   7   8   -2.90    4.80
  -4   7   8    1.30    6.40
  -4   7   8   -6.60    5.20
   3  -7  -8   14.90    4.40
   3  -7  -8   17.40    5.20
   3  -7  -8   17.20    4.00
  -3   7   8   17.80    5.10
  -3   7   8   27.00    6.40
  -3   7   8   17.00    4.70
   2  -7  -8   -3.80    4.00
   2  -7  -8    1.80    3.40
   2  -7  -8    0.60    3.50
  -2   7   8   -3.00    4.40
  -2   7   8    4.30    3.80
  -2   7   8   -3.50    4.60
  -2   7   8    5.00    4.30
   1  -7  -8   53.99    5.80
   1  -7  -8   54.59    5.90
   1  -7  -8   46.40    4.90
  -1   7   8   47.90    5.10
  -1   7   8   49.60    5.20
  -1   7   8   46.20    6.50
   0  -7  -8    1.20    2.90
   0  -7  -8    8.80    3.30
   0  -7  -8   11.60    5.20
   0  -7  -8    3.40    2.60
   0   7   8    4.90    4.00
   0   7   8    4.30    2.90
   0   7   8    1.70    3.50
  -1  -7  -8  385.66   11.40
  -1  -7  -8  376.46   12.20
  -1  -7  -8  407.46   13.80
   1   7   8  395.46   13.20
   1   7   8  379.76   13.00
   1   7   8  389.26   12.60
  -2  -7  -8    1.90    3.10
  -2  -7  -8    2.90    1.80
  -2  -7  -8   -1.50    3.80
   2   7   8    1.50    2.70
   2   7   8   -2.40    3.80
   2   7   8    8.20    3.20
   2   7   8    3.40    3.20
  -3  -7  -8  365.36   12.90
  -3  -7  -8  367.06   13.50
   3   7   8  357.16   11.20
   3   7   8  351.36   12.30
   3   7   8  347.67   12.90
  -4  -7  -8  103.49    6.40
  -4  -7  -8  126.29    8.00
  -4  -7  -8  110.19    8.10
   4   7   8  111.49    8.00
   4   7   8  130.39    7.30
   4   7   8  117.99    5.90
   4   7   8  119.59    8.00
  -5  -7  -8  170.88   10.60
  -5  -7  -8  184.98   10.00
   5   7   8  170.58   10.20
   5   7   8  183.68    8.70
   5   7   8  188.78   10.60
  -6  -7  -8   65.69    8.00
  -6  -7  -8   58.19    6.90
   6   7   8   52.69    6.90
   6   7   8   59.49    7.70
   4  -8  -8   -2.20    4.70
   4  -8  -8   -6.30    5.10
   4  -8  -8    0.40    6.50
  -4   8   8   -5.10    5.80
  -4   8   8   22.70    7.70
  -4   8   8    3.80    5.70
   3  -8  -8    4.60    4.40
   3  -8  -8    6.10    5.50
   3  -8  -8    9.50    5.30
   3  -8  -8   -0.80    4.40
  -3   8   8   11.70    5.10
  -3   8   8    7.20    5.30
  -3   8   8    4.10    6.60
   2  -8  -8   22.00    4.40
   2  -8  -8   27.20    5.10
   2  -8  -8   17.00    4.50
  -2   8   8   10.50    4.40
  -2   8   8   21.50    4.90
  -2   8   8   23.70    6.70
   1  -8  -8    5.60    3.80
   1  -8  -8    3.20    4.10
   1  -8  -8    1.10    3.60
  -1   8   8    8.00    4.70
  -1   8   8    3.60    3.90
  -1   8   8    6.10    3.90
   0  -8  -8   18.50    4.50
   0  -8  -8    9.50    3.00
   0  -8  -8   11.40    3.40
   0  -8  -8    9.00    3.80
   0   8   8   13.50    4.10
   0   8   8   16.30    3.80
   0   8   8   11.40    5.20
  -1  -8  -8   17.90    3.10
  -1  -8  -8   16.20    3.80
  -1  -8  -8   10.40    4.80
  -1  -8  -8   18.30    3.80
   1   8   8   22.50    3.90
   1   8   8   22.50    4.00
   1   8   8   15.30    3.70
   1   8   8   24.60    5.60
  -2  -8  -8    1.30    4.40
  -2  -8  -8    5.20    3.70
  -2  -8  -8   -5.00    3.90
   2   8   8   -0.70    3.20
   2   8   8   -2.20    3.00
   2   8   8   -6.90    4.00
   2   8   8    5.20    3.60
  -3  -8  -8    3.90    4.00
  -3  -8  -8    4.20    4.20
  -3  -8  -8   -2.40    4.00
   3   8   8    5.50    3.60
   3   8   8    6.20    3.30
  -4  -8  -8   16.00    5.20
  -4  -8  -8   14.40    4.90
   4   8   8   15.90    4.70
   4   8   8   17.30    4.40
   4   8   8    6.90    3.70
  -5  -8  -8   43.20    6.50
  -5  -8  -8   50.39    6.40
   5   8   8   24.30    5.40
   5   8   8   33.60    5.00
   5   8   8   27.40    5.70
   5   8   8   33.70    5.20
  -6  -8  -8   17.70    6.10
  -6  -8  -8    3.90    6.00
   6   8   8    8.10    6.10
   6   8   8    6.90    7.00
   6   8   8    5.50    6.20
   3  -9  -8   -2.10    6.20
   3  -9  -8   11.60    5.00
   3  -9  -8   19.00    5.30
   3  -9  -8    3.20    5.20
  -3   9   8   21.20    6.20
  -3   9   8   15.30    5.50
  -3   9   8    6.30    6.50
   2  -9  -8   15.40    4.90
   2  -9  -8   -6.70    4.90
   2  -9  -8    3.30    5.00
   2  -9  -8    9.10    4.60
  -2   9   8   -3.10    4.70
  -2   9   8   -0.50    4.70
  -2   9   8  -11.70    5.70
   1  -9  -8   11.20    4.90
   1  -9  -8    8.50    4.50
   1  -9  -8   19.90    8.60
  -1   9   8    5.10    4.60
  -1   9   8   13.40    4.60
  -1   9   8    7.90    5.50
   0  -9  -8   -8.00    4.30
   0  -9  -8   -3.20    4.10
   0  -9  -8    0.60    3.80
   0   9   8    1.90    3.80
   0   9   8    1.00    3.20
   0   9   8    4.40    7.80
   0   9   8    0.40    5.40
  -1  -9  -8   15.00    4.80
  -1  -9  -8   11.80    4.60
  -1  -9  -8   20.70    3.50
   1   9   8   16.80    4.40
   1   9   8   12.70    4.00
   1   9   8   15.40    5.40
   1   9   8   11.20    4.00
  -2  -9  -8   20.10    5.40
  -2  -9  -8   16.60    4.60
  -2  -9  -8   26.50    5.00
   2   9   8   23.90    4.70
   2   9   8   24.40    6.10
   2   9   8   26.60    4.60
   2   9   8   25.30    4.50
  -3  -9  -8    8.30    4.30
  -3  -9  -8    9.20    4.70
   3   9   8    0.00    3.80
   3   9   8    9.40    4.50
   3   9   8   11.00    4.00
  -4  -9  -8   17.10    5.60
  -4  -9  -8   15.40    5.40
   4   9   8   18.90    4.90
   4   9   8   12.20    4.50
   4   9   8    7.50    4.70
  -5  -9  -8    3.50    5.60
  -5  -9  -8   -2.10    5.40
   5   9   8   -0.70    4.70
   5   9   8   -7.40    5.20
   5   9   8   -2.20    4.90
   5   9   8   -1.50    5.20
   2 -10  -8    6.80    5.60
   2 -10  -8   -6.90    5.50
   2 -10  -8   -2.20    6.00
   2 -10  -8    9.30    5.50
  -2  10   8   10.00    6.20
  -2  10   8    3.60    7.10
  -2  10   8   -8.30    4.90
   1 -10  -8   14.10    5.30
   1 -10  -8   11.70    5.70
   1 -10  -8   20.20    6.00
   1 -10  -8   30.50    6.00
  -1  10   8   16.70    6.90
  -1  10   8   29.50    6.10
  -1  10   8   24.80    5.10
   0 -10  -8   -5.50    4.20
   0 -10  -8   12.10    5.10
   0 -10  -8   -1.30    4.80
   0  10   8   -1.30    4.00
   0  10   8    2.00    4.80
   0  10   8    3.30    5.10
   0  10   8    0.50    5.90
  -1 -10  -8   -0.50    5.10
  -1 -10  -8   -1.70    5.00
   1  10   8    9.00    5.00
   1  10   8   -3.90    5.70
   1  10   8    3.80    4.60
   1  10   8    6.20    3.90
  -2 -10  -8   -5.60    5.00
  -2 -10  -8    3.40    5.60
   2  10   8    1.80    4.50
   2  10   8    6.30    6.10
   2  10   8   -4.80    4.30
  -3 -10  -8    0.40    5.10
  -3 -10  -8    2.70    5.00
   3  10   8   -2.70    4.40
   3  10   8   -2.60    4.30
   3  10   8    4.40    4.60
  -4 -10  -8    2.70    5.80
  -4 -10  -8   10.00    5.50
   4  10   8    9.20    5.40
   4  10   8    5.60    5.30
   4  10   8   11.90    5.70
  -5 -10  -8    2.90    6.60
  -5 -10  -8   14.80    6.20
   5  10   8    3.00    5.80
   5  10   8   -1.20    5.60
   5  10   8   -1.90    5.70
  -1  11   8    2.80    7.60
   0 -11  -8    0.70    4.90
   0 -11  -8    1.60    5.80
   0 -11  -8    1.50    5.90
   0  11   8    5.30    6.70
   0  11   8  -14.80    8.40
   0  11   8   -1.90    6.00
   0  11   8    1.10    5.20
  -1 -11  -8    0.20    5.80
  -1 -11  -8   16.40    5.90
   1  11   8   -5.10    5.10
   1  11   8    7.10    5.10
   1  11   8    0.90    5.70
   1  11   8    4.00    6.60
  -2 -11  -8   10.50    6.00
  -2 -11  -8   21.50    6.40
   2  11   8    7.60    5.20
   2  11   8    8.70    6.70
   2  11   8    8.60    5.60
   2  11   8    2.10    5.30
  -3 -11  -8   -7.30    6.30
  -3 -11  -8   11.20    6.20
   3  11   8    6.20    5.70
   3  11   8    8.30    5.60
   3  11   8    5.10    5.00
   3   6  -9   11.90    6.70
  -3  -6   9   13.80    6.60
  -3  -6   9   22.30    6.50
   2   6  -9   10.50    5.50
   2   6  -9   -4.70    5.60
  -2  -6   9    6.60    4.40
  -2  -6   9    7.40    5.60
  -2  -6   9    6.10    5.30
   1   6  -9   51.99    7.10
   1   6  -9   39.50    6.90
  -1  -6   9   44.80    8.90
  -1  -6   9   40.10    6.60
   0   6  -9    1.20    5.40
   0   6  -9    3.30    5.90
   0  -6   9    0.00    5.50
  -1   6  -9   21.70   10.30
  -1   6  -9   34.00    7.00
   1  -6   9   25.40    6.50
   4   5  -9    8.80    6.00
  -4  -5   9   -3.20    5.70
  -4  -5   9    9.90    6.00
   3   5  -9   -1.40    5.00
  -3  -5   9    4.00    5.10
  -3  -5   9    6.00    5.60
   2   5  -9    2.20    5.50
  -2  -5   9   12.50    5.40
  -2  -5   9    7.50    5.50
   1   5  -9    1.50    5.10
   1   5  -9    6.50    4.70
  -1  -5   9    7.60    4.20
  -1  -5   9   13.90    4.90
  -1  -5   9    9.00    3.80
   0   5  -9    2.40    5.00
   0   5  -9    2.70    4.40
   0   5  -9    2.90    4.90
   0  -5   9    0.90    4.70
   0  -5   9    3.40    3.60
   0  -5   9   10.20    4.00
  -1   5  -9   11.90    4.70
  -1   5  -9   15.50    5.50
  -1   5  -9    9.40    6.10
   1  -5   9   10.80    4.20
   1  -5   9    9.10    5.30
  -2   5  -9    4.30    6.70
  -2   5  -9   -0.50    5.00
  -2   5  -9    9.00    5.40
   2  -5   9    7.90    4.70
   2  -5   9    1.20    5.50
   5   4  -9  -13.70    6.00
   5   4  -9    0.10    5.20
  -5  -4   9    4.90    6.70
  -5  -4   9    7.40    6.30
  -5  -4   9    5.40    5.90
   4   4  -9    2.60    5.50
  -4  -4   9   -9.10    5.10
  -4  -4   9    5.40    5.40
  -4  -4   9   -9.30    5.30
   3   4  -9    5.20    4.80
  -3  -4   9    5.40    4.60
  -3  -4   9    0.50    4.20
  -3  -4   9   11.40    5.10
   2   4  -9    4.30    4.70
  -2  -4   9   14.10    3.20
  -2  -4   9   10.90    4.50
  -2  -4   9    0.00    4.30
   1   4  -9   15.30    4.90
   1   4  -9    6.40    4.60
  -1  -4   9    7.20    3.90
  -1  -4   9    2.60    4.00
  -1  -4   9    8.30    3.30
   0   4  -9   10.70    5.30
   0   4  -9   17.20    4.20
   0   4  -9   11.70    5.30
   0  -4   9   12.20    5.40
   0  -4   9   18.80    3.70
   0  -4   9   18.00    4.00
  -1   4  -9    8.40    5.50
  -1   4  -9    6.50    3.70
  -1   4  -9    2.00    4.30
   1  -4   9    3.60    3.80
   1  -4   9    5.30    4.70
  -2   4  -9    2.70    4.60
  -2   4  -9    6.40    5.30
  -2   4  -9    5.20    3.70
   2  -4   9    4.80    5.40
   2  -4   9    8.20    4.10
  -3   4  -9   10.60    5.60
   3  -4   9   19.40    5.10
   3  -4   9   -2.60    5.60
   5   3  -9   -4.20    3.80
   5   3  -9   -1.20    4.40
   5   3  -9   -1.50    5.60
  -5  -3   9    1.80    5.40
  -5  -3   9   -0.80    5.50
  -5  -3   9    2.70    6.20
   4   3  -9   11.10    5.30
   4   3  -9    2.40    5.20
   4   3  -9   16.20    3.00
  -4  -3   9    6.20    5.50
  -4  -3   9    2.70    5.10
  -4  -3   9   11.20    5.10
   3   3  -9    4.60    4.70
   3   3  -9    6.10    4.50
  -3  -3   9    7.00    4.60
  -3  -3   9   10.80    4.60
  -3  -3   9    2.30    4.20
   2   3  -9   34.20    5.50
   2   3  -9   20.90    4.70
  -2  -3   9   30.10    5.00
  -2  -3   9   27.00    4.70
  -2  -3   9   28.70    4.00
   1   3  -9    5.90    4.10
   1   3  -9   12.70    4.30
  -1  -3   9    1.40    3.50
  -1  -3   9    3.10    4.60
  -1  -3   9    6.50    3.90
  -1  -3   9    7.10    2.70
   0   3  -9   34.00    5.90
   0   3  -9   34.30    5.00
   0  -3   9   29.00    5.00
   0  -3   9   30.00    5.30
   0  -3   9   28.20    4.20
   0  -3   9   24.80    4.90
   0  -3   9   36.00    4.40
  -1   3  -9   -0.50    4.50
  -1   3  -9    3.30    3.00
   1  -3   9    5.00    4.50
   1  -3   9   -0.40    2.70
   1  -3   9   -1.70    3.10
  -2   3  -9    7.90    3.20
  -2   3  -9    5.60    4.10
  -2   3  -9    6.50    5.00
   2  -3   9    6.00    3.80
   2  -3   9   10.90    5.20
  -3   3  -9    8.90    4.30
  -3   3  -9   -3.50    5.10
   3  -3   9    7.30    5.30
   3  -3   9    6.80    4.50
  -4   3  -9   -7.20    5.70
  -4   3  -9    1.40    4.70
   4  -3   9    4.40    5.60
   4  -3   9    7.70    5.40
   6   2  -9    8.50    6.00
   6   2  -9   -7.50    5.00
  -6  -2   9    0.30    6.00
  -6  -2   9   -0.20    5.70
  -6  -2   9   14.90    7.90
   5   2  -9    9.70    4.10
   5   2  -9   16.40    4.70
   5   2  -9   13.80    5.70
  -5  -2   9   23.10    7.10
  -5  -2   9   23.40    5.40
  -5  -2   9   20.30    6.10
   4   2  -9   29.30    4.90
   4   2  -9   32.50    3.80
   4   2  -9   36.80    6.00
  -4  -2   9   28.30    6.00
  -4  -2   9   35.70    5.90
  -4  -2   9   38.40    5.20
   3   2  -9    0.90    3.70
   3   2  -9   -0.70    4.60
   3   2  -9    7.60    3.90
  -3  -2   9    5.10    4.50
  -3  -2   9    0.10    4.00
  -3  -2   9   -2.70    3.40
   2   2  -9   40.00    5.20
   2   2  -9   39.10    5.00
   2   2  -9   39.20    5.20
  -2  -2   9   35.30    4.60
  -2  -2   9   41.90    4.50
   1   2  -9   12.20    7.50
   1   2  -9   12.90    3.80
   1   2  -9    7.80    3.70
  -1  -2   9   14.70    3.30
  -1  -2   9   12.50    3.90
  -1  -2   9   12.30    3.90
  -1  -2   9   10.10    3.70
   0   2  -9   11.20    3.00
   0   2  -9   14.20    4.20
   0   2  -9   12.30    4.00
   0  -2   9    6.60    6.30
   0  -2   9   10.90    2.60
   0  -2   9    4.30    4.50
   0  -2   9   12.20    3.70
   0  -2   9    2.40    3.10
   0  -2   9    6.40    3.10
  -1   2  -9   42.10    5.80
  -1   2  -9   32.20    4.60
  -1   2  -9   43.00    4.30
   1  -2   9   42.40    4.40
   1  -2   9   38.10    5.50
   1  -2   9   38.90    4.40
   1  -2   9   28.60    3.70
   1  -2   9   34.20    3.70
  -2   2  -9   65.09    5.80
  -2   2  -9   60.29    6.50
   2  -2   9   62.49    6.60
   2  -2   9   58.59    5.50
  -3   2  -9   24.40    5.60
  -3   2  -9   25.70    4.50
   3  -2   9    9.80    4.60
   3  -2   9   29.40    4.70
  -4   2  -9   61.29    5.90
  -4   2  -9   72.89    7.90
   4  -2   9   47.50    6.90
   4  -2   9   60.79    6.60
  -5   2  -9   -4.20    6.30
   5  -2   9   -7.40    5.80
   5  -2   9   -1.30    6.00
   6   1  -9   -0.90    6.00
   6   1  -9    5.10    5.10
   6   1  -9    5.80    5.70
  -6  -1   9   -1.50    7.00
  -6  -1   9   -4.90    5.10
  -6  -1   9   11.20    6.00
   5   1  -9   -1.00    3.60
   5   1  -9    4.80    4.90
  -5  -1   9   -1.80    4.50
  -5  -1   9    3.80    6.40
  -5  -1   9    4.40    4.80
   4   1  -9    8.70    4.30
   4   1  -9   11.50    3.80
  -4  -1   9   20.90    5.20
  -4  -1   9   -5.70    4.70
  -4  -1   9    8.90    4.10
   3   1  -9    0.10    4.30
   3   1  -9    0.20    3.90
   3   1  -9    1.30    3.30
  -3  -1   9    8.70    3.70
  -3  -1   9   -0.70    4.10
  -3  -1   9   -2.10    3.80
   2   1  -9   14.40    4.40
   2   1  -9    4.80    3.50
   2   1  -9   10.00    3.60
   2   1  -9   -3.40    4.80
  -2  -1   9    6.30    3.40
  -2  -1   9    6.80    3.40
  -2  -1   9   10.40    4.70
  -2  -1   9    4.30    3.30
   1   1  -9  378.26   13.50
   1   1  -9  376.46   12.80
   1   1  -9  364.36   14.20
  -1  -1   9  362.56   12.40
  -1  -1   9  362.06   12.70
  -1  -1   9  371.06   12.20
  -1  -1   9  387.36   13.20
   0   1  -9  148.19    7.60
   0   1  -9  136.79    7.50
   0   1  -9  133.69    8.30
   0  -1   9  135.99    7.30
   0  -1   9  148.29    6.80
   0  -1   9  135.69    8.50
   0  -1   9  130.99    6.80
   0  -1   9  131.89    7.80
   0  -1   9  138.79    6.90
  -1   1  -9  284.17   10.80
  -1   1  -9  253.97    9.50
  -1   1  -9  276.87   11.80
   1  -1   9  274.57    8.80
   1  -1   9  288.47   10.80
   1  -1   9  290.97    9.50
   1  -1   9  282.37   10.20
   1  -1   9  281.57   11.50
  -2   1  -9  239.48    9.70
  -2   1  -9  242.48   11.00
  -2   1  -9  223.08    8.50
   2  -1   9  235.48    9.90
   2  -1   9  226.28   10.80
   2  -1   9  230.18    7.10
   2  -1   9  224.68    6.60
  -3   1  -9    5.20    4.20
  -3   1  -9    0.90    3.30
   3  -1   9    3.80    3.30
   3  -1   9    1.20    4.50
  -4   1  -9   48.70    5.10
  -4   1  -9   59.69    7.10
   4  -1   9   52.09    6.20
   4  -1   9   45.10    6.10
  -5   1  -9    6.90    4.20
  -5   1  -9   -1.00    5.60
   5  -1   9    0.60    5.80
   5  -1   9   -3.20    5.20
   6   0  -9    5.30    6.50
   6   0  -9    7.00    5.40
  -6   0   9    7.30    6.00
  -6   0   9   -8.60    4.40
  -6   0   9   -1.40    7.30
   5   0  -9    1.00    3.20
   5   0  -9   -6.20    4.40
   5   0  -9    7.70    5.70
  -5   0   9   -0.30    5.90
  -5   0   9   -1.50    4.80
  -5   0   9    8.10    3.80
   4   0  -9   -1.30    4.20
   4   0  -9   -2.70    4.90
   4   0  -9   -3.50    2.80
  -4   0   9   -0.60    3.40
  -4   0   9   -2.00    4.20
  -4   0   9   -4.40    7.00
   3   0  -9    6.40    3.20
   3   0  -9    3.40    3.50
  -3   0   9    4.30    3.10
  -3   0   9    7.80    3.70
  -3   0   9   -3.90    4.00
   2   0  -9    9.40    3.30
   2   0  -9   16.70    4.90
   2   0  -9   14.20    5.20
  -2   0   9   11.10    3.90
  -2   0   9   18.70    4.70
  -2   0   9   14.20    3.60
  -2   0   9   18.10    3.80
   1   0  -9   -0.10    2.90
   1   0  -9   -2.00    2.90
   1   0  -9   -0.30    3.90
  -1   0   9    6.10    3.30
  -1   0   9    1.40    3.00
  -1   0   9    3.50    3.00
  -1   0   9    3.00    3.00
   0   0  -9   13.30    3.50
   0   0  -9   10.00    3.50
   0   0  -9    6.90    3.50
   0   0   9   10.10    3.10
   0   0   9   11.60    3.10
   0   0   9   17.90    5.10
   0   0   9   14.70    2.90
   0   0   9   14.10    3.70
  -1   0  -9    5.50    3.40
  -1   0  -9    0.50    3.10
  -1   0  -9    2.00    3.10
   1   0   9    9.90    3.70
   1   0   9    3.10    2.70
   1   0   9    6.90    2.90
   1   0   9    1.40    2.00
   1   0   9    7.20    3.60
   1   0   9    4.60    2.70
  -2   0  -9    0.90    2.80
  -2   0  -9    7.90    3.50
  -2   0  -9    0.80    3.50
   2   0   9    0.40    2.10
   2   0   9   -4.10    2.70
   2   0   9    1.20    3.60
   2   0   9    0.50    2.80
  -3   0  -9   39.00    4.90
  -3   0  -9   44.90    4.70
  -3   0  -9   37.30    5.10
   3   0   9   35.30    5.00
   3   0   9   57.79    6.10
  -4   0  -9  103.09    6.90
  -4   0  -9  107.19    8.60
   4   0   9   90.39    8.20
   4   0   9   87.29    8.70
  -5   0  -9   55.89    7.30
  -5   0  -9   65.79    6.80
   5   0   9   89.79    9.20
   5   0   9   51.79    7.10
  -6   0  -9   97.39   11.10
   6   0   9   95.59    9.40
   6   0   9   98.19   10.20
   6  -1  -9   18.40    7.10
   6  -1  -9    7.80    5.30
  -6   1   9   13.40    6.10
  -6   1   9    8.10    7.20
   5  -1  -9   21.40    5.80
   5  -1  -9   25.80    4.30
   5  -1  -9   23.80    5.30
  -5   1   9   31.00    4.30
  -5   1   9   25.40    7.00
  -5   1   9   28.00    6.00
   4  -1  -9   11.30    4.40
   4  -1  -9    2.50    4.90
   4  -1  -9    6.40    3.10
  -4   1   9    3.20    4.40
  -4   1   9   14.10    4.60
  -4   1   9    5.90    3.50
  -4   1   9    5.90    5.20
   3  -1  -9  142.09    7.90
   3  -1  -9  148.69    7.10
  -3   1   9  128.79    6.60
  -3   1   9  157.98    8.70
  -3   1   9  130.49    6.80
  -3   1   9  150.38    9.20
   2  -1  -9   48.60    5.00
   2  -1  -9   62.19    6.50
  -2   1   9   48.50    3.60
  -2   1   9   56.29    5.80
  -2   1   9   57.09    5.70
  -2   1   9   48.50    5.50
  -2   1   9   62.89    5.30
   1  -1  -9   60.49    5.40
   1  -1  -9   39.60    5.20
   1  -1  -9   52.49    5.20
  -1   1   9   63.09    6.20
  -1   1   9   51.49    5.30
  -1   1   9   54.29    4.90
  -1   1   9   67.29    5.60
   0  -1  -9   51.89    5.30
   0  -1  -9   53.69    5.10
   0  -1  -9   51.79    5.30
   0  -1  -9   55.29    5.10
   0   1   9   49.90    5.60
   0   1   9   52.19    5.40
   0   1   9   56.79    5.10
   0   1   9   47.90    4.50
  -1  -1  -9   56.09    5.20
  -1  -1  -9   61.49    6.60
  -1  -1  -9   58.79    5.80
   1   1   9   51.99    4.90
   1   1   9   57.79    3.20
   1   1   9   66.39    6.30
   1   1   9   54.19    5.70
   1   1   9   66.19    5.90
   1   1   9   66.29    5.50
  -2  -1  -9    5.70    3.10
  -2  -1  -9    3.90    3.80
  -2  -1  -9   -0.40    6.10
   2   1   9   -1.60    2.10
   2   1   9    0.60    2.60
   2   1   9    4.50    3.60
   2   1   9    4.10    3.10
  -3  -1  -9   32.70    4.90
  -3  -1  -9   25.00    4.90
  -3  -1  -9   34.50    4.20
  -3  -1  -9   42.30    5.40
   3   1   9   32.60    3.20
   3   1   9   39.00    4.70
   3   1   9   37.60    5.10
   3   1   9   34.90    2.80
   3   1   9   36.10    3.50
  -4  -1  -9   -3.40    4.60
  -4  -1  -9   -1.40    4.70
  -4  -1  -9   -3.60    3.70
  -4  -1  -9    0.50    3.30
   4   1   9   -1.00    3.40
   4   1   9   -3.40    2.50
   4   1   9    1.10    4.60
  -5  -1  -9    4.30    4.70
  -5  -1  -9    0.10    3.80
   5   1   9    3.60    5.50
   5   1   9    2.00    4.70
   5   1   9    4.20    3.70
  -6  -1  -9    2.60    4.40
  -6  -1  -9   18.20    6.10
   6   1   9   11.60    5.30
   6   1   9    1.70    5.90
   6  -2  -9   -2.70    6.00
   6  -2  -9   -5.30    5.20
  -6   2   9  -11.00    7.10
  -6   2   9    4.60    5.80
   5  -2  -9    3.50    6.00
   5  -2  -9   -5.90    4.60
  -5   2   9   -0.60    3.00
  -5   2   9    3.50    5.20
  -5   2   9    8.20    6.50
   4  -2  -9    5.10    3.70
   4  -2  -9    3.70    4.70
   4  -2  -9    6.00    2.70
  -4   2   9    1.10    2.80
  -4   2   9    5.10    4.40
  -4   2   9   -2.50    4.80
  -4   2   9    3.00    5.30
   3  -2  -9   60.69    7.10
   3  -2  -9   80.59    5.60
   3  -2  -9   62.49    6.00
  -3   2   9   66.49    6.80
  -3   2   9   74.39    6.40
  -3   2   9   76.69    8.00
  -3   2   9   71.29    5.10
   2  -2  -9    3.70    2.70
   2  -2  -9    5.20    3.40
  -2   2   9    1.20    4.20
  -2   2   9    7.80    2.60
  -2   2   9    1.80    3.60
  -2   2   9    7.70    3.40
  -2   2   9    7.30    2.60
   1  -2  -9  176.68    8.50
   1  -2  -9  197.38   11.90
   1  -2  -9  192.88    8.50
  -1   2   9  197.78    7.90
  -1   2   9  201.08    8.50
  -1   2   9  203.88    9.60
  -1   2   9  191.08    6.20
  -1   2   9  190.88    8.50
   0  -2  -9   21.20    4.50
   0  -2  -9   32.30    4.30
   0  -2  -9   25.80    3.80
   0  -2  -9   21.10    3.60
   0   2   9   26.80    3.80
   0   2   9   24.60    4.20
   0   2   9   29.00    2.00
   0   2   9   29.10    3.20
   0   2   9   33.90    3.90
  -1  -2  -9   42.20    4.50
  -1  -2  -9   33.00    4.70
  -1  -2  -9   28.20    4.70
  -1  -2  -9   26.90    4.90
   1   2   9   30.50    4.50
   1   2   9   32.40    3.70
   1   2   9   37.50    4.20
   1   2   9   31.20    2.70
   1   2   9   34.10    4.40
   1   2   9   34.20    4.20
   1   2   9   28.70    2.40
  -2  -2  -9    6.10    4.10
  -2  -2  -9    5.30    3.30
  -2  -2  -9    1.40    2.80
   2   2   9    2.60    3.00
   2   2   9    0.00    2.60
   2   2   9    3.60    2.80
   2   2   9    1.90    1.60
   2   2   9    2.60    3.20
  -3  -2  -9    0.00    2.80
  -3  -2  -9   -7.20    4.10
  -3  -2  -9   -5.70    3.40
  -3  -2  -9   -3.90    3.30
   3   2   9   -4.80    3.20
   3   2   9   -3.20    2.80
   3   2   9   -3.90    2.10
   3   2   9    2.10    2.80
   3   2   9    1.60    2.00
  -4  -2  -9   55.59    5.20
  -4  -2  -9   75.29    7.50
  -4  -2  -9   50.69    5.30
   4   2   9   76.89    7.30
   4   2   9   60.09    5.30
   4   2   9   60.29    6.90
  -5  -2  -9    8.60    4.40
  -5  -2  -9   -1.30    3.70
   5   2   9   -1.60    3.60
   5   2   9    7.00    4.70
  -6  -2  -9   -2.00    5.40
  -6  -2  -9    9.40    4.40
   6   2   9    4.60    4.80
   6   2   9    2.10    5.50
   6  -3  -9    5.00    5.20
   6  -3  -9    9.90    6.80
  -6   3   9   -7.90    5.90
  -6   3   9    5.80    7.00
   5  -3  -9    1.80    4.40
   5  -3  -9   -3.70    5.80
  -5   3   9   -0.30    6.20
  -5   3   9   -6.10    4.70
   4  -3  -9   -0.30    4.90
   4  -3  -9   -2.20    3.80
   4  -3  -9   -2.20    2.70
  -4   3   9   -3.60    5.00
  -4   3   9    1.00    4.30
   3  -3  -9   19.40    4.90
   3  -3  -9   20.90    4.40
   3  -3  -9   22.60    3.30
  -3   3   9   17.30    4.80
  -3   3   9   19.60    4.50
  -3   3   9   10.60    4.20
  -3   3   9   17.70    2.60
   2  -3  -9   38.40    4.50
   2  -3  -9   32.40    3.90
   2  -3  -9   37.10    4.70
  -2   3   9   36.20    5.20
  -2   3   9   30.70    7.40
  -2   3   9   32.50    3.80
  -2   3   9   38.50    4.10
   1  -3  -9   90.69    6.30
   1  -3  -9  102.89    6.50
  -1   3   9   95.69    7.70
  -1   3   9   84.09    6.20
  -1   3   9   93.99    5.30
  -1   3   9   95.99    5.20
   0  -3  -9   16.80    3.30
   0  -3  -9   14.30    3.50
   0  -3  -9   21.90    3.70
   0   3   9   16.50    2.40
   0   3   9   11.40    2.90
   0   3   9   17.40    4.20
   0   3   9   10.20    3.10
   0   3   9   12.40    2.50
   0   3   9   15.10    2.90
  -1  -3  -9   28.90    4.50
  -1  -3  -9   27.60    3.90
  -1  -3  -9   17.70    5.00
  -1  -3  -9   28.70    4.50
   1   3   9   26.10    4.80
   1   3   9   27.70    3.80
   1   3   9   31.40    4.50
   1   3   9   26.80    2.40
   1   3   9   26.80    2.80
   1   3   9   28.10    3.90
   1   3   9   28.70    2.60
   1   3   9   24.60    3.50
  -2  -3  -9   -2.50    2.70
  -2  -3  -9    4.70    3.50
   2   3   9   -7.10    3.20
   2   3   9   -1.40    2.20
   2   3   9    0.10    3.20
   2   3   9    3.60    1.90
   2   3   9    6.60    2.80
   2   3   9    3.60    2.90
  -3  -3  -9   -0.10    3.10
  -3  -3  -9    5.60    3.20
  -3  -3  -9    3.70    3.30
   3   3   9    3.70    3.30
   3   3   9    6.70    2.30
   3   3   9    7.60    2.40
   3   3   9    2.00    3.60
   3   3   9    7.80    3.40
  -4  -3  -9   11.10    4.00
  -4  -3  -9    8.50    3.70
  -4  -3  -9   19.90    3.70
   4   3   9   11.90    3.10
   4   3   9    7.50    3.70
   4   3   9   12.60    2.90
  -5  -3  -9   10.60    3.80
  -5  -3  -9    4.50    4.60
   5   3   9   10.70    3.80
   5   3   9    3.30    4.40
  -6  -3  -9    5.00    4.30
  -6  -3  -9    5.40    5.70
   6   3   9    8.50    4.70
   6   3   9   15.20    5.50
  -6   4   9   -1.90    7.70
   5  -4  -9   -6.30    6.00
   5  -4  -9    3.10    4.70
   5  -4  -9    2.10    4.30
  -5   4   9    6.20    5.50
  -5   4   9   -4.00    6.40
   4  -4  -9    0.90    4.90
   4  -4  -9    2.80    3.80
   4  -4  -9    2.90    2.80
  -4   4   9  -10.30    4.90
  -4   4   9   -1.40    4.10
   3  -4  -9    9.10    7.60
   3  -4  -9   13.80    4.00
   3  -4  -9   10.90    3.30
  -3   4   9    7.10    4.50
  -3   4   9   17.20    4.10
  -3   4   9   19.10    5.10
  -3   4   9   10.20    4.50
   2  -4  -9   66.89    5.50
   2  -4  -9   66.59    6.70
  -2   4   9   79.79    6.40
  -2   4   9   64.29    6.00
  -2   4   9   69.79    7.90
  -2   4   9   65.29    6.60
  -2   4   9   71.89    4.10
   1  -4  -9   -0.50    2.90
   1  -4  -9    3.40    2.70
   1  -4  -9    6.50    3.00
  -1   4   9    0.40    3.70
  -1   4   9    4.60    2.90
  -1   4   9   -3.30    2.30
  -1   4   9    1.70    4.60
  -1   4   9    1.60    2.30
  -1   4   9    1.30    2.80
   0  -4  -9   33.70    4.30
   0  -4  -9   35.10    4.40
   0  -4  -9   45.40    4.90
   0  -4  -9   35.20    4.00
   0   4   9   39.40    3.80
   0   4   9   35.10    3.80
   0   4   9   39.00    5.30
   0   4   9   35.00    4.50
  -1  -4  -9   20.00    3.60
  -1  -4  -9   18.40    3.70
  -1  -4  -9   21.00    4.10
   1   4   9   18.50    2.20
   1   4   9   22.60    3.50
   1   4   9   19.00    4.30
   1   4   9    7.50    2.90
   1   4   9   16.70    3.40
  -2  -4  -9    3.40    3.00
  -2  -4  -9    0.40    3.30
   2   4   9    3.60    3.70
   2   4   9    3.30    2.60
   2   4   9    6.10    2.20
   2   4   9    7.30    2.90
   2   4   9    3.50    3.80
  -3  -4  -9    1.40    3.30
  -3  -4  -9    2.20    3.20
   3   4   9    7.40    2.80
   3   4   9    2.00    3.00
   3   4   9    0.60    3.60
   3   4   9   -0.50    2.50
  -4  -4  -9   17.90    2.70
  -4  -4  -9   12.40    4.60
  -4  -4  -9   10.70    3.90
   4   4   9   12.70    2.80
   4   4   9   16.40    3.50
   4   4   9    7.90    4.00
   4   4   9   11.70    5.50
  -5  -4  -9   -3.30    4.00
  -5  -4  -9    2.90    4.60
   5   4   9   -3.30    3.40
   5   4   9   -2.40    4.20
  -6  -4  -9   10.40    5.10
  -6  -4  -9    2.00    4.80
   6   4   9    0.10    5.00
   6   4   9   16.00   10.00
   5  -5  -9   -2.20    5.40
   5  -5  -9    1.00    4.70
   5  -5  -9   -2.70    4.60
  -5   5   9   -2.60    5.90
  -5   5   9    6.00    5.90
  -5   5   9   -1.10    5.30
   4  -5  -9    1.30    4.30
   4  -5  -9   -2.30    5.20
   4  -5  -9    6.00    3.30
  -4   5   9    2.10    4.40
  -4   5   9    4.10    5.70
  -4   5   9   -4.20    4.30
   3  -5  -9    2.80    3.10
   3  -5  -9    8.10    4.00
   3  -5  -9    4.80    4.50
  -3   5   9   -2.20    4.70
  -3   5   9    5.30    3.80
  -3   5   9   -2.20    3.90
   2  -5  -9   -2.50    3.40
   2  -5  -9    1.00    2.80
   2  -5  -9    4.10    4.10
  -2   5   9    0.20    3.20
  -2   5   9    4.30    4.20
  -2   5   9   -1.60    4.00
  -2   5   9    1.60    4.40
  -2   5   9    9.10    3.50
   1  -5  -9   45.90    4.90
   1  -5  -9   40.20    4.20
  -1   5   9   37.60    4.60
  -1   5   9   26.70    5.10
  -1   5   9   46.60    4.60
  -1   5   9   33.00    6.10
   0  -5  -9   41.40    5.00
   0  -5  -9   47.40    4.20
   0  -5  -9   47.50    5.30
   0  -5  -9   40.50    4.70
   0   5   9   41.10    5.40
   0   5   9   47.90    5.00
   0   5   9   41.00    4.00
  -1  -5  -9   30.20    4.50
  -1  -5  -9   38.50    4.50
  -1  -5  -9   27.20    4.10
  -1  -5  -9   36.30    4.30
   1   5   9   34.70    3.60
   1   5   9   30.30    4.10
   1   5   9   25.00    3.80
   1   5   9   38.40    5.30
  -2  -5  -9   55.49    8.80
  -2  -5  -9   46.80    4.90
  -2  -5  -9   48.40    5.70
  -2  -5  -9   53.69    3.80
   2   5   9   48.60    5.20
   2   5   9   49.90    5.80
   2   5   9   40.40    4.00
  -3  -5  -9   28.00    2.70
  -3  -5  -9   28.00    2.70
  -3  -5  -9   30.40    4.70
  -3  -5  -9   34.60    5.70
   3   5   9   33.10    5.10
   3   5   9   35.00    4.00
   3   5   9   29.30    4.50
   3   5   9   32.00    3.90
  -4  -5  -9    6.00    4.00
  -4  -5  -9    5.80    4.10
   4   5   9    1.00    3.90
   4   5   9    4.70    3.00
   4   5   9   10.90    3.50
   4   5   9    6.50    4.10
  -5  -5  -9   -4.50    4.40
  -5  -5  -9    1.00    4.30
   5   5   9   -0.60    4.50
   5   5   9    2.30    3.90
  -6  -5  -9   -1.10    5.20
  -6  -5  -9   -2.40    5.00
   6   5   9    2.00    4.70
   6   5   9   10.10    5.40
   5  -6  -9    4.40    7.20
   5  -6  -9    1.10    5.10
   5  -6  -9   -9.80    5.10
  -5   6   9   10.20    6.40
  -5   6   9    9.10    5.70
  -5   6   9    0.10    7.00
   4  -6  -9  -11.50    5.70
   4  -6  -9   -0.50    4.80
  -4   6   9   -0.70    6.20
  -4   6   9   15.60    5.90
  -4   6   9    6.60    5.00
   3  -6  -9   44.70    5.60
   3  -6  -9   50.09    5.70
   3  -6  -9   32.00    5.80
  -3   6   9   64.99    7.70
  -3   6   9   48.00    6.30
  -3   6   9   45.30    6.10
   2  -6  -9   39.50    4.60
   2  -6  -9   43.70    5.30
  -2   6   9   33.50    5.90
  -2   6   9   41.00    6.10
  -2   6   9   38.20    5.30
  -2   6   9   49.90    5.80
   1  -6  -9   46.10    5.20
   1  -6  -9   53.29    5.30
   1  -6  -9   54.99    5.30
  -1   6   9   50.99    5.30
  -1   6   9   45.60    6.30
  -1   6   9   62.79    6.10
   0  -6  -9   28.90    4.60
   0  -6  -9   30.00    4.40
   0  -6  -9   27.80    3.50
   0  -6  -9   30.00    3.90
   0   6   9   32.60    3.90
   0   6   9   31.10    5.20
   0   6   9   30.10    4.40
  -1  -6  -9   -1.20    2.40
  -1  -6  -9    5.20    3.70
  -1  -6  -9   -1.70    3.10
  -1  -6  -9    3.80    3.20
   1   6   9    3.00    3.60
   1   6   9    4.00    3.10
   1   6   9    0.20    2.40
   1   6   9    2.50    7.10
  -2  -6  -9  127.59    8.10
  -2  -6  -9  125.29    7.50
  -2  -6  -9   98.79    8.50
   2   6   9  131.29    9.00
   2   6   9  125.59    7.70
   2   6   9  127.09    7.50
   2   6   9  124.09    5.60
  -3  -6  -9  118.89    7.60
  -3  -6  -9  123.59    8.30
   3   6   9  117.39    7.00
   3   6   9  127.09    8.20
   3   6   9  115.29    4.90
  -4  -6  -9   19.20    5.00
  -4  -6  -9   25.10    5.20
   4   6   9   25.10    4.40
   4   6   9   32.50    4.40
   4   6   9   19.20    4.60
  -5  -6  -9    6.80    4.40
  -5  -6  -9   -0.90    4.90
   5   6   9    5.80    4.70
   5   6   9    4.10    3.50
   5   6   9    6.20    5.50
  -6  -6  -9    7.70    5.80
  -6  -6  -9   12.80    5.60
   6   6   9   12.40    5.40
   6   6   9   27.00    6.50
   4  -7  -9    0.60    5.40
   4  -7  -9   -0.40    6.90
   4  -7  -9   -3.10    5.10
  -4   7   9    0.80    6.40
  -4   7   9   -8.10    4.80
  -4   7   9    5.50    6.80
   3  -7  -9    1.20    3.70
   3  -7  -9   -4.20    5.10
   3  -7  -9    0.90    4.80
  -3   7   9    2.30    6.50
  -3   7   9  -10.50    4.50
  -3   7   9    5.10    4.90
   2  -7  -9   10.30    4.70
   2  -7  -9    8.60    3.60
   2  -7  -9    8.80    4.80
  -2   7   9    9.50    5.90
  -2   7   9   11.00    4.40
  -2   7   9    6.30    4.10
   1  -7  -9   13.90    4.70
   1  -7  -9   18.20    4.20
   1  -7  -9   22.70    4.40
  -1   7   9   12.40    4.20
  -1   7   9   20.70    4.40
  -1   7   9   18.70    5.50
   0  -7  -9   -3.50    3.10
   0  -7  -9   -2.70    3.90
   0  -7  -9   -1.70    3.00
   0  -7  -9   -0.60    3.80
   0   7   9    1.40    3.70
   0   7   9    3.00    4.50
   0   7   9    4.50    3.00
  -1  -7  -9  212.88    9.40
  -1  -7  -9  223.88    8.10
  -1  -7  -9  216.58   10.30
  -1  -7  -9  214.98   10.10
   1   7   9  198.38   10.80
   1   7   9  221.78    9.00
   1   7   9  220.78    9.70
   1   7   9  228.68   11.80
  -2  -7  -9   98.49    8.40
  -2  -7  -9   91.09    4.40
  -2  -7  -9  100.79    7.80
  -2  -7  -9   91.09    7.60
   2   7   9  101.19    7.40
   2   7   9   86.79    5.80
   2   7   9  106.39    7.40
   2   7   9   96.49    9.10
  -3  -7  -9   66.19    7.00
  -3  -7  -9   60.89    6.60
   3   7   9   57.69    4.90
   3   7   9   44.10    5.30
   3   7   9   63.29    6.30
  -4  -7  -9   77.89    7.70
  -4  -7  -9   83.99    8.40
   4   7   9   66.99    7.30
   4   7   9   85.89    8.30
   4   7   9   82.69    7.00
  -5  -7  -9    5.60    5.20
  -5  -7  -9    5.80    5.10
   5   7   9    2.80    4.10
   5   7   9    8.80    5.20
   5   7   9   -1.20    4.70
  -6  -7  -9    5.30    6.20
  -6  -7  -9   10.30    6.30
   6   7   9    3.40    5.80
   6   7   9    3.80    5.80
   3  -8  -9   -1.20    6.10
   3  -8  -9   -5.00    4.90
   3  -8  -9   -1.40    5.10
   3  -8  -9    1.00    4.70
  -3   8   9    5.30    4.90
  -3   8   9   -3.30    6.80
  -3   8   9   -2.30    5.20
   2  -8  -9   -7.30    4.10
   2  -8  -9    0.70    5.60
   2  -8  -9   -1.80    4.70
  -2   8   9   -3.20    4.70
  -2   8   9  -10.50    5.40
  -2   8   9   -7.90    4.30
   1  -8  -9   12.00    4.70
   1  -8  -9   13.20    4.90
   1  -8  -9   17.00    4.60
  -1   8   9   21.60    4.50
  -1   8   9   14.30    5.70
  -1   8   9   10.30    4.60
   0  -8  -9   -1.80    4.20
   0  -8  -9   -0.90    4.20
   0  -8  -9   -3.60    3.30
   0   8   9    4.80    3.70
   0   8   9   -3.00    4.90
   0   8   9   -1.30    3.70
  -1  -8  -9   -4.30    2.70
  -1  -8  -9   -0.80    4.10
  -1  -8  -9   -0.10    4.00
   1   8   9    2.90    3.60
   1   8   9    0.80    3.90
   1   8   9    3.70    3.50
   1   8   9    5.30    4.60
  -2  -8  -9    8.10    4.20
  -2  -8  -9    5.20    4.60
  -2  -8  -9    2.80    4.70
   2   8   9    2.60    5.20
   2   8   9    3.00    3.80
   2   8   9    5.80    4.10
   2   8   9    1.80    3.30
  -3  -8  -9   57.49    6.40
  -3  -8  -9   89.49    8.50
   3   8   9   60.09    6.70
   3   8   9   61.39    6.10
   3   8   9   60.89    6.10
  -4  -8  -9  -10.00    4.60
  -4  -8  -9   -0.40    5.20
   4   8   9    5.40    4.60
   4   8   9   -2.30    4.00
  -5  -8  -9   81.79    8.70
  -5  -8  -9   70.89    7.90
   5   8   9   73.29    7.70
   5   8   9   60.99    7.30
   5   8   9   88.19    8.10
   3  -9  -9    8.50    6.10
   3  -9  -9   23.70    7.30
  -3   9   9   16.60    7.90
  -3   9   9   22.60    6.60
   2  -9  -9   27.60    6.50
   2  -9  -9   24.60    6.90
   2  -9  -9   30.20    6.50
  -2   9   9   33.00    6.20
  -2   9   9   27.50    7.80
  -2   9   9   23.30    6.00
   1  -9  -9   13.10    5.30
   1  -9  -9    1.10    5.10
   1  -9  -9   18.70    5.50
  -1   9   9   11.40    5.20
  -1   9   9   12.30    5.10
  -1   9   9   14.10    6.50
   0  -9  -9   18.00    4.30
   0  -9  -9    8.90    5.20
   0  -9  -9    8.80    5.40
   0   9   9    8.80    4.70
   0   9   9   13.70    5.00
   0   9   9    4.60    5.80
   0   9   9    8.60    4.00
  -1  -9  -9    1.70    4.40
  -1  -9  -9    0.80    4.70
  -1  -9  -9    3.50    3.40
   1   9   9   -4.10    5.30
   1   9   9   -5.10    4.50
   1   9   9    8.90    4.40
   1   9   9   -4.00    3.80
  -2  -9  -9    4.50    5.00
  -2  -9  -9    8.00    4.90
   2   9   9   13.40    4.70
   2   9   9    6.00    4.30
   2   9   9    4.50    4.40
   2   9   9    4.50    5.40
  -3  -9  -9    9.40    5.60
  -3  -9  -9   13.80    5.40
   3   9   9   14.00    4.90
   3   9   9   15.20    4.60
   3   9   9   10.00    4.40
  -4  -9  -9    2.20    5.10
  -4  -9  -9    2.50    5.60
   4   9   9    9.70    5.20
   4   9   9    6.90    4.90
  -5  -9  -9   -9.80    6.00
  -5  -9  -9   -9.20    5.60
   5   9   9    4.60    5.90
   5   9   9   -8.70    5.40
   5   9   9   -1.00    5.50
   1 -10  -9    7.80    6.10
   1 -10  -9   -1.60    5.50
  -1  10   9   15.90    6.10
  -1  10   9    8.20    7.90
  -1  10   9    0.80    5.20
   0 -10  -9   25.50    5.50
   0 -10  -9   24.00    5.70
   0 -10  -9   16.60    5.80
   0  10   9   24.00    5.90
   0  10   9   20.80    5.70
   0  10   9   18.20    7.10
   0  10   9   16.10    5.90
  -1 -10  -9   29.80    6.60
  -1 -10  -9   16.10    5.90
   1  10   9   13.00    6.50
   1  10   9   20.00    5.10
   1  10   9   22.60    5.70
   1  10   9   17.50    5.40
  -2 -10  -9    0.40    5.00
  -2 -10  -9    2.10    5.60
   2  10   9   -7.80    8.40
   2  10   9   -3.90    5.90
   2  10   9   15.70    4.80
   2  10   9    6.00    4.90
  -3 -10  -9   17.70    6.60
  -3 -10  -9   17.00    6.00
   3  10   9   10.90    5.00
   3  10   9    9.50    5.40
   3  10   9   11.10    4.80
  -4 -10  -9   -8.10    5.80
  -4 -10  -9   -4.00    6.10
   4  10   9    6.90    5.50
   4  10   9   -2.80    5.30
  -1 -11  -9   -2.80    6.10
   1  11   9  -10.80    6.70
   2  11   9  -16.60    6.70
   2   5 -10    6.30    6.10
   2   5 -10    9.20    6.40
  -2  -5  10   10.60    5.90
  -2  -5  10   16.10    6.10
  -2  -5  10   -0.10    4.40
   1   5 -10   36.80    7.90
   1   5 -10   52.69    7.80
  -1  -5  10   31.40    6.50
  -1  -5  10   37.00    5.50
  -1  -5  10   44.20    6.30
   0   5 -10    2.90    5.10
   0   5 -10   -0.40    5.50
   0   5 -10   13.40    6.80
   0  -5  10    8.20    6.00
   4   4 -10   -9.70    6.10
  -4  -4  10    5.80    6.50
   3   4 -10    1.80    5.50
   3   4 -10    7.10    5.60
  -3  -4  10    9.30    5.80
  -3  -4  10   -6.90    5.50
   2   4 -10    9.80    5.80
   2   4 -10    7.80    5.50
  -2  -4  10   13.80    6.00
  -2  -4  10    6.20    5.10
   1   4 -10    3.80    5.30
   1   4 -10    6.40    5.50
  -1  -4  10    5.50    4.00
  -1  -4  10   -0.80    4.50
  -1  -4  10   -6.90    5.00
   0   4 -10    0.00    5.60
   0   4 -10    3.80    5.70
   0  -4  10    3.80    4.10
   0  -4  10   -6.60    3.90
   0  -4  10   11.40    5.60
  -1   4 -10   -1.10    4.40
  -1   4 -10   -1.60    5.80
  -1   4 -10    4.90    5.40
   1  -4  10    6.30    5.80
   1  -4  10   -4.60    4.20
  -2   4 -10   14.40    6.00
  -2   4 -10   -1.30    6.00
   2  -4  10   13.70    5.50
   2  -4  10    0.00    6.30
   4   3 -10    8.60    5.40
   4   3 -10    4.30    6.00
  -4  -3  10    0.20    6.00
  -4  -3  10   14.50    6.30
  -4  -3  10   11.30    6.00
   3   3 -10   13.70    5.10
   3   3 -10   15.30    5.60
  -3  -3  10    4.10    4.90
  -3  -3  10   10.20    5.20
  -3  -3  10   11.20    5.10
   2   3 -10   18.20    5.80
   2   3 -10   29.20    5.90
  -2  -3  10   20.70    4.50
  -2  -3  10   27.50    5.50
  -2  -3  10   25.60    5.90
   1   3 -10    6.00    4.60
   1   3 -10    6.50    5.00
  -1  -3  10    6.30    3.60
  -1  -3  10    2.80    5.20
   0   3 -10   -5.30    4.70
   0   3 -10    4.20    5.10
   0  -3  10   -3.70    3.70
   0  -3  10    8.20    4.70
   0  -3  10    0.90    3.50
  -1   3 -10    2.40    5.00
  -1   3 -10    6.10    4.70
   1  -3  10    5.10    3.90
   1  -3  10   -7.80    4.70
  -2   3 -10    3.20    5.80
  -2   3 -10   -3.30    5.20
   2  -3  10   -2.20    4.50
   2  -3  10   -6.50    5.50
  -3   3 -10   11.30    6.70
  -3   3 -10    6.20    5.80
   3  -3  10    5.10    6.10
   3  -3  10    7.10    5.40
   5   2 -10   16.40    6.00
   5   2 -10   10.50    5.10
  -5  -2  10    3.30    7.00
  -5  -2  10   17.20    6.40
  -5  -2  10   13.10    6.00
   4   2 -10   11.10    5.40
   4   2 -10    2.90    4.80
  -4  -2  10   12.90    5.20
  -4  -2  10    1.60    5.80
  -4  -2  10    6.20    5.70
   3   2 -10    6.80    5.20
   3   2 -10    4.30    4.40
  -3  -2  10   12.30    4.90
  -3  -2  10    1.60    4.70
  -3  -2  10    3.10    4.70
   2   2 -10    5.40    4.50
   2   2 -10    2.90    4.40
  -2  -2  10    2.70    4.40
  -2  -2  10    6.90    3.90
  -2  -2  10   -1.40    4.60
   1   2 -10    8.10    4.90
   1   2 -10   13.70    4.80
  -1  -2  10    3.90    4.60
  -1  -2  10    7.70    4.40
  -1  -2  10    8.50    3.50
   0   2 -10   -4.50    4.10
   0   2 -10   -1.90    4.00
   0  -2  10    3.90    3.50
   0  -2  10    2.80    4.30
   0  -2  10   -1.20    3.20
   0  -2  10   -4.20    2.60
  -1   2 -10   -2.20    4.40
  -1   2 -10   -0.60    4.80
   1  -2  10    2.00    4.40
   1  -2  10    2.60    3.80
   1  -2  10    3.60    3.20
  -2   2 -10   10.30    5.30
  -2   2 -10    1.40    4.20
   2  -2  10   -1.40    4.90
   2  -2  10   -0.40    3.90
  -3   2 -10   21.30    5.00
  -3   2 -10   25.70    6.40
   3  -2  10   27.50    6.20
   3  -2  10   37.90    6.10
  -4   2 -10    0.10    5.20
  -4   2 -10    2.50    6.00
   4  -2  10   -0.90    6.30
   4  -2  10   -6.40    5.50
   5   1 -10    6.50    5.60
   5   1 -10    7.70    5.30
  -5  -1  10   -0.40    7.00
  -5  -1  10    3.20    6.00
   4   1 -10    1.10    4.00
   4   1 -10    1.40    4.90
  -4  -1  10    5.20    5.20
  -4  -1  10    6.80    5.90
  -4  -1  10    5.00    4.70
   3   1 -10   -4.20    4.30
   3   1 -10    3.40    4.00
  -3  -1  10    7.60    4.80
  -3  -1  10    3.70    4.30
  -3  -1  10    4.70    4.40
   2   1 -10    1.80    5.30
   2   1 -10    6.70    4.40
   2   1 -10   -2.50    4.20
  -2  -1  10    0.10    4.00
  -2  -1  10   -2.10    4.10
  -2  -1  10   12.70    4.20
   1   1 -10    9.20    5.10
   1   1 -10    6.70    4.00
   1   1 -10   12.20    4.20
  -1  -1  10    7.50    5.10
  -1  -1  10    6.20    3.80
  -1  -1  10    6.50    3.90
  -1  -1  10   11.30    4.60
   0   1 -10   -2.60    4.10
   0   1 -10    5.00    3.90
   0   1 -10    2.40    3.90
   0  -1  10    2.30    3.10
   0  -1  10   -2.00    2.90
   0  -1  10    4.10    4.00
   0  -1  10   -0.30    3.30
  -1   1 -10    0.70    3.90
  -1   1 -10    0.60    4.30
   1  -1  10   -0.80    5.30
   1  -1  10    2.50    3.30
   1  -1  10   -2.20    2.90
   1  -1  10    3.80    4.70
  -2   1 -10    5.30    4.60
  -2   1 -10   11.70    4.60
   2  -1  10    3.90    3.90
   2  -1  10    7.80    3.90
   2  -1  10    0.80    4.70
  -3   1 -10    6.00    5.10
  -3   1 -10   -4.60    7.60
   3  -1  10    3.30    4.30
   3  -1  10   -0.80    4.80
  -4   1 -10   10.70    5.20
  -4   1 -10    1.10    5.60
   4  -1  10   -0.60    4.90
   4  -1  10   -3.40    5.60
   5   0 -10    0.20    5.50
   5   0 -10   -9.60    6.50
  -5   0  10    1.90    5.60
  -5   0  10    3.20    7.00
  -5   0  10    2.80    4.70
   4   0 -10    1.90    3.60
   4   0 -10    7.30    4.90
  -4   0  10    6.70    5.20
  -4   0  10    2.90    5.90
  -4   0  10    9.20    4.30
   3   0 -10    6.70    4.30
   3   0 -10   11.20    3.90
  -3   0  10   10.10    4.70
  -3   0  10    5.30    4.10
  -3   0  10    6.60    4.60
   2   0 -10    1.50    3.40
   2   0 -10    8.90    3.70
  -2   0  10   13.00    4.30
  -2   0  10    3.20    4.00
  -2   0  10    3.00    3.90
   1   0 -10   32.30    7.90
   1   0 -10   27.70    4.70
   1   0 -10   26.60    5.60
  -1   0  10   29.40    4.70
  -1   0  10   25.20    4.40
  -1   0  10   23.50    4.60
  -1   0  10   31.40    5.00
   0   0 -10    5.60    4.40
   0   0 -10    3.00    3.90
   0   0 -10    6.80    3.80
   0   0  10    0.10    3.50
   0   0  10    9.50    3.40
   0   0  10    8.10    3.10
   0   0  10    5.10    3.10
   0   0  10    5.60    3.90
  -1   0 -10   55.99    5.80
  -1   0 -10   52.99    6.10
  -1   0 -10   52.49    5.50
   1   0  10   49.00    4.60
   1   0  10   47.40    5.40
   1   0  10   51.59    4.70
   1   0  10   44.60    5.20
   1   0  10   38.00    5.40
  -2   0 -10   38.00    7.10
  -2   0 -10   19.60    4.80
  -2   0 -10   28.30    5.60
   2   0  10   26.40    3.30
   2   0  10   24.90    5.00
   2   0  10   27.40    4.90
  -3   0 -10   58.09    7.10
  -3   0 -10   70.79    7.20
   3   0  10   81.29    7.80
   3   0  10   74.09    7.60
  -4   0 -10   34.80    6.00
  -4   0 -10   24.00    5.10
   4   0  10   34.00    6.00
   4   0  10   25.20    6.00
  -5   0 -10    8.40    5.00
  -5   0 -10   16.40    6.00
   5   0  10   11.70    6.50
   5   0  10   24.40    6.20
   5  -1 -10   20.50    6.50
   5  -1 -10    8.40    5.50
  -5   1  10   25.70    6.20
  -5   1  10   18.30    4.60
  -5   1  10   19.90    7.50
   4  -1 -10  -14.70    5.40
   4  -1 -10    3.10    3.50
   4  -1 -10   -8.00    4.60
  -4   1  10   -0.40    4.90
  -4   1  10   -9.40    3.60
  -4   1  10   -5.50    5.50
   3  -1 -10   -2.40    3.90
   3  -1 -10   -2.20    3.20
  -3   1  10   -1.30    7.40
  -3   1  10   -5.00    4.10
  -3   1  10    4.90    3.40
   2  -1 -10   29.80    4.90
   2  -1 -10   29.10    4.30
  -2   1  10   36.30    5.00
  -2   1  10   34.00    4.40
  -2   1  10   18.10    5.80
  -2   1  10   46.90    5.50
   1  -1 -10   24.70    4.50
   1  -1 -10   21.20    4.20
  -1   1  10   20.50    4.50
  -1   1  10   21.40    4.10
  -1   1  10   16.10    3.90
  -1   1  10   27.30    4.70
   0  -1 -10   10.20    3.70
   0  -1 -10    6.40    4.60
   0   1  10   11.20    3.50
   0   1  10    3.90    3.70
   0   1  10    7.40    3.00
   0   1  10    0.30    3.80
  -1  -1 -10   29.90    5.20
  -1  -1 -10   36.60    5.10
   1   1  10   41.60    4.70
   1   1  10   43.00    7.70
   1   1  10   47.90    5.20
   1   1  10   38.70    4.80
   1   1  10   40.10    2.90
   1   1  10   36.80    5.00
   1   1  10   38.70    3.20
  -2  -1 -10   -2.80    3.30
  -2  -1 -10    0.60    3.60
  -2  -1 -10    2.50    4.80
   2   1  10   -1.40    3.70
   2   1  10   -4.00    2.60
   2   1  10   -2.10    3.30
   2   1  10    1.00    3.70
  -3  -1 -10    5.40    4.50
  -3  -1 -10    2.70    5.30
  -3  -1 -10    0.80    3.60
   3   1  10    2.60    3.70
   3   1  10    7.00    4.50
  -4  -1 -10   -1.40    5.00
  -4  -1 -10   -0.80    4.00
   4   1  10    7.00    4.60
   4   1  10    0.90    5.30
  -5  -1 -10   -3.90    5.00
  -5  -1 -10    5.90    5.80
   5   1  10   -5.80    5.10
   5   1  10    3.00    6.40
   5  -2 -10   21.70    6.00
   5  -2 -10   20.60    7.00
  -5   2  10   22.70    7.70
  -5   2  10   19.20    6.40
   4  -2 -10   39.50    4.50
   4  -2 -10   44.80    5.90
   4  -2 -10   44.50    6.50
  -4   2  10   39.50    4.10
  -4   2  10   50.39    7.40
  -4   2  10   39.80    6.10
   3  -2 -10   59.19    7.10
   3  -2 -10   67.89    7.20
   3  -2 -10   80.89    6.50
  -3   2  10   60.29    6.30
  -3   2  10   61.89    5.80
  -3   2  10   65.49    7.50
   2  -2 -10  164.08    8.30
   2  -2 -10  138.39    9.00
  -2   2  10  175.68   10.20
  -2   2  10  142.39    8.60
  -2   2  10  155.58    7.70
  -2   2  10  154.68   11.40
   1  -2 -10   85.99    6.90
   1  -2 -10   85.19    6.80
  -1   2  10  100.99    8.20
  -1   2  10   97.09    3.40
  -1   2  10   84.59    7.30
  -1   2  10   86.49    6.40
   0  -2 -10   19.90    4.00
   0  -2 -10   28.00    4.50
   0   2  10   29.30    4.20
   0   2  10   20.30    3.50
   0   2  10   24.10    4.00
   0   2  10   22.40    4.50
  -1  -2 -10   23.90    8.80
  -1  -2 -10   11.50    3.70
   1   2  10   12.10    3.40
   1   2  10   14.20    1.80
   1   2  10   15.30    1.90
   1   2  10   16.80    3.90
   1   2  10   19.90    4.00
   1   2  10   16.40    4.10
  -2  -2 -10   75.89    7.40
  -2  -2 -10   72.19    7.10
   2   2  10   91.89    7.70
   2   2  10   87.09    7.40
   2   2  10   87.09    5.90
   2   2  10  100.19    7.30
  -3  -2 -10   -5.70    4.90
  -3  -2 -10    4.40    4.20
  -3  -2 -10    5.20    3.70
   3   2  10    5.20    2.50
   3   2  10   -1.30    2.10
   3   2  10   -2.20    4.20
   3   2  10    3.40    3.50
  -4  -2 -10   -6.40    6.00
  -4  -2 -10    5.60    5.00
   4   2  10   -8.30    5.00
   4   2  10   -1.70    3.20
   4   2  10   -0.80    4.30
  -5  -2 -10   14.50    6.10
  -5  -2 -10   17.50    6.20
   5   2  10   12.70    5.10
   5  -3 -10    4.80    6.20
   5  -3 -10   -3.70    5.50
  -5   3  10   12.30    5.90
  -5   3  10    1.50    6.90
   4  -3 -10    0.90    4.70
   4  -3 -10    5.10    5.60
   4  -3 -10    1.70    3.40
  -4   3  10    3.40    6.10
  -4   3  10    2.60    5.10
   3  -3 -10   -0.30    3.80
   3  -3 -10   -0.90    3.50
   3  -3 -10    2.30    4.80
  -3   3  10    1.60    2.80
  -3   3  10   -3.30    4.20
  -3   3  10   -7.90    4.80
   2  -3 -10   50.39    5.30
   2  -3 -10   59.19    6.10
   2  -3 -10   71.99    7.00
  -2   3  10   53.79    5.90
  -2   3  10   66.49    6.30
  -2   3  10   70.39    8.10
  -2   3  10   64.19    5.30
   1  -3 -10    6.00    3.50
   1  -3 -10   11.50    4.00
  -1   3  10    4.00    2.90
  -1   3  10    9.70    2.80
  -1   3  10    4.70    3.60
  -1   3  10    6.70    2.70
  -1   3  10    9.20    4.30
  -1   3  10    8.90    4.50
   0  -3 -10   10.50    3.90
   0  -3 -10    6.30    4.30
   0  -3 -10    8.20    3.50
   0   3  10   10.00    2.60
   0   3  10    6.50    3.10
   0   3  10    7.50    2.20
   0   3  10    1.40    3.30
   0   3  10   10.50    4.20
   0   3  10    7.10    3.30
  -1  -3 -10  116.49    7.80
  -1  -3 -10  122.39    7.40
   1   3  10  109.89    4.70
   1   3  10  101.59    4.50
   1   3  10  110.19    7.40
   1   3  10  105.89    7.80
   1   3  10  120.39    7.50
   1   3  10   93.89    4.20
   1   3  10  105.69    6.80
  -2  -3 -10   10.30    4.10
  -2  -3 -10   -4.90    3.70
   2   3  10    2.90    3.70
   2   3  10    2.10    1.90
   2   3  10   -1.70    3.80
   2   3  10    2.50    4.00
   2   3  10    1.40    2.80
   2   3  10   -1.30    4.30
  -3  -3 -10  174.28    9.80
  -3  -3 -10  146.09   11.20
  -3  -3 -10  142.39    8.30
   3   3  10  155.58    9.20
   3   3  10  168.68   10.20
   3   3  10  157.68    6.50
   3   3  10  166.38    7.10
  -4  -3 -10    4.60    4.30
  -4  -3 -10    0.90    4.50
   4   3  10   -3.50    4.30
   4   3  10    5.20    3.30
  -5  -3 -10   -7.50    5.20
  -5  -3 -10    8.10    4.60
   5   3  10    2.70    4.80
   5   3  10   -2.50    4.00
   5  -4 -10   13.60    6.10
   5  -4 -10   16.50    7.30
  -5   4  10    8.80    6.30
  -5   4  10    9.10    7.90
  -5   4  10    7.30    6.20
   4  -4 -10    6.50    4.90
   4  -4 -10    6.30    4.60
   4  -4 -10    2.50    5.90
  -4   4  10   -0.20    5.90
  -4   4  10    0.20    4.70
  -4   4  10   -6.10    4.60
   3  -4 -10    9.80    3.60
   3  -4 -10   14.80    5.40
   3  -4 -10   10.50    4.80
  -3   4  10    9.10    4.60
  -3   4  10   17.00    4.40
  -3   4  10    4.30    5.40
   2  -4 -10    5.60    4.30
   2  -4 -10    4.90    3.30
   2  -4 -10    4.30    4.00
  -2   4  10   -0.60    3.30
  -2   4  10    0.90    2.60
  -2   4  10    5.60    3.80
  -2   4  10    1.20    4.20
  -2   4  10   -1.00    5.10
   1  -4 -10   10.70    4.10
   1  -4 -10    5.60    3.40
   1  -4 -10    2.60    3.80
  -1   4  10    4.70    3.70
  -1   4  10    5.20    3.40
  -1   4  10    2.90    3.00
  -1   4  10    0.10    2.80
  -1   4  10   -5.20    5.20
   0  -4 -10    2.10    3.30
   0  -4 -10   -2.90    3.10
   0  -4 -10    1.80    3.90
   0  -4 -10    0.20    3.40
   0   4  10   -0.40    3.90
   0   4  10    4.50    2.60
   0   4  10    1.50    2.80
   0   4  10    4.10    2.80
  -1  -4 -10   31.30    4.60
  -1  -4 -10   30.40    4.70
  -1  -4 -10   32.40    6.10
   1   4  10   36.50    5.80
   1   4  10   29.70    4.30
   1   4  10   42.90    5.30
   1   4  10   31.90    4.50
   1   4  10   35.80    3.30
   1   4  10   37.20    3.40
  -2  -4 -10   -2.20    3.50
  -2  -4 -10   -1.50    3.40
   2   4  10   -1.30    2.30
   2   4  10    3.70    3.30
   2   4  10   -2.80    3.00
   2   4  10   -1.80    3.80
  -3  -4 -10   77.29    7.60
  -3  -4 -10   73.99    6.90
   3   4  10   69.39    7.00
   3   4  10   56.59    5.40
   3   4  10   70.29    5.80
   3   4  10   69.09    7.20
  -4  -4 -10   11.50    4.80
  -4  -4 -10   16.00    4.30
   4   4  10   10.20    3.60
   4   4  10   -2.30    4.10
   4   4  10   16.40    3.20
  -5  -4 -10   11.60    5.30
  -5  -4 -10    9.80    5.40
   5   4  10    1.10    4.60
   5   4  10    7.90    4.20
   4  -5 -10   -3.90    6.90
   4  -5 -10    5.20    5.80
  -4   5  10    5.80    5.00
  -4   5  10    6.00    6.40
  -4   5  10   17.10    5.80
   3  -5 -10    4.20    4.70
   3  -5 -10   -3.10    3.60
   3  -5 -10   16.20    6.30
  -3   5  10   11.40    6.20
  -3   5  10   -7.40    4.30
  -3   5  10    4.10    4.60
   2  -5 -10    5.10    4.60
   2  -5 -10   -1.20    3.60
   2  -5 -10    6.00    4.00
  -2   5  10    6.30    3.80
  -2   5  10    1.30    4.50
  -2   5  10   10.00    4.20
  -2   5  10    8.60    5.20
   1  -5 -10   13.80    4.40
   1  -5 -10    9.30    4.20
   1  -5 -10    8.80    3.60
  -1   5  10   14.40    3.70
  -1   5  10    7.80    4.00
  -1   5  10   11.10    5.40
  -1   5  10   10.00    4.30
   0  -5 -10    1.40    3.30
   0  -5 -10    2.50    3.80
   0  -5 -10   -0.70    3.40
   0  -5 -10   -0.10    4.00
   0   5  10    9.40    4.40
   0   5  10   -5.40    3.50
   0   5  10   -7.50    2.60
  -1  -5 -10   35.50    4.10
  -1  -5 -10   37.40    5.00
  -1  -5 -10   39.70    5.40
  -1  -5 -10   31.20    5.30
   1   5  10   32.80    4.80
   1   5  10   34.40    5.60
   1   5  10   43.80    5.50
   1   5  10   43.90    4.00
  -2  -5 -10   10.20    4.10
  -2  -5 -10    7.20    4.20
  -2  -5 -10   10.60    2.90
   2   5  10    8.80    3.40
   2   5  10   12.70    3.70
   2   5  10    7.50    4.90
  -3  -5 -10    7.40    4.60
  -3  -5 -10    8.20    3.10
  -3  -5 -10    5.20    4.20
   3   5  10   15.00    4.20
   3   5  10   13.00    3.70
   3   5  10   15.80    3.40
  -4  -5 -10    7.90    4.60
  -4  -5 -10    4.50    4.50
   4   5  10    9.00    3.90
   4   5  10    5.40    3.50
   4   5  10    4.80    4.40
  -5  -5 -10    1.50    5.10
  -5  -5 -10    3.90    5.30
   5   5  10    2.20    4.30
   5   5  10    3.60    4.80
   4  -6 -10   -4.40    6.50
   4  -6 -10    9.50    5.60
  -4   6  10   12.30    6.90
  -4   6  10   19.90    6.60
  -4   6  10    9.70    6.00
   3  -6 -10    1.00    4.70
   3  -6 -10   -4.30    4.00
   3  -6 -10    4.20    5.40
  -3   6  10    1.40    6.30
  -3   6  10   -0.30    4.80
  -3   6  10    8.50    4.80
   2  -6 -10    1.20    4.10
   2  -6 -10   -1.70    4.60
   2  -6 -10    1.00    4.30
  -2   6  10   -2.50    4.30
  -2   6  10    3.60    5.70
   1  -6 -10   -1.20    4.10
   1  -6 -10    4.90    4.40
   1  -6 -10    1.50    3.90
  -1   6  10    3.10    3.80
  -1   6  10   11.10    4.00
  -1   6  10    2.70    5.70
   0  -6 -10    0.30    4.80
   0  -6 -10    7.70    4.00
   0  -6 -10    4.50    4.00
   0   6  10    7.60    4.20
   0   6  10   11.50    3.40
   0   6  10   10.00    5.30
  -1  -6 -10    5.30    3.40
  -1  -6 -10   12.60    4.30
  -1  -6 -10    6.00    4.70
  -1  -6 -10    4.00    4.00
   1   6  10    6.20    5.10
   1   6  10   13.50    3.20
   1   6  10    7.90    3.90
   1   6  10    9.00    4.30
  -2  -6 -10   44.30    5.50
  -2  -6 -10   39.20    4.40
  -2  -6 -10   39.10    5.60
   2   6  10   42.00    6.90
   2   6  10   36.30    3.30
   2   6  10   44.60    5.50
  -3  -6 -10    3.80    4.50
  -3  -6 -10   -3.10    4.10
   3   6  10    3.20    4.10
   3   6  10    3.80    3.60
   3   6  10   -1.00    3.20
  -4  -6 -10    2.30    4.50
  -4  -6 -10    7.30    4.90
   4   6  10    7.00    4.20
   4   6  10   -3.30    4.10
   4   6  10   -1.20    3.80
  -5  -6 -10    3.50    5.10
  -5  -6 -10    1.60    5.80
   5   6  10    0.50    4.50
   5   6  10   -9.40    5.50
   3  -7 -10    4.90    5.40
   3  -7 -10    4.40    4.90
   3  -7 -10    7.20    6.00
  -3   7  10    7.10    5.70
  -3   7  10    0.50    5.30
  -3   7  10   -4.50    6.90
   2  -7 -10   18.20    5.30
   2  -7 -10   19.00    5.80
   2  -7 -10   15.10    4.70
  -2   7  10   19.80    5.50
  -2   7  10   26.20    5.80
  -2   7  10   25.70    6.60
   1  -7 -10    3.70    4.70
   1  -7 -10    5.10    4.30
  -1   7  10   -1.90    4.00
  -1   7  10    6.40    5.60
  -1   7  10    0.10    4.30
   0  -7 -10   47.20    5.20
   0  -7 -10   46.60    5.90
   0  -7 -10   43.00    5.60
   0   7  10   45.40    5.00
   0   7  10   42.70    7.40
   0   7  10   40.50    5.50
  -1  -7 -10    8.80    3.50
  -1  -7 -10    6.60    4.00
  -1  -7 -10    5.80    4.40
   1   7  10   10.80    3.50
   1   7  10   10.80    4.20
   1   7  10    6.90    4.10
   1   7  10   11.40    5.30
  -2  -7 -10   32.40    5.50
  -2  -7 -10   19.10    4.80
   2   7  10   29.70    5.40
   2   7  10   26.90    3.80
   2   7  10   30.10    5.00
   2   7  10   19.50    6.30
  -3  -7 -10   47.60    6.60
  -3  -7 -10   47.90    6.40
   3   7  10   50.39    6.00
   3   7  10   48.50    5.40
  -4  -7 -10   -3.10    4.70
  -4  -7 -10    7.10    4.80
   4   7  10   -0.90    4.60
   4   7  10    1.10    4.10
  -5  -7 -10    1.10    5.70
  -5  -7 -10    7.80    6.00
   5   7  10    5.80    5.50
   5   7  10    3.90    5.40
   3  -8 -10    7.80    6.70
   3  -8 -10    5.60    6.20
  -3   8  10   14.10    6.30
  -3   8  10   16.40    7.60
  -3   8  10   14.10    5.90
   2  -8 -10   13.40    5.60
   2  -8 -10    9.30    5.90
  -2   8  10    6.30    5.30
  -2   8  10   10.30    5.40
  -2   8  10    6.00    6.70
   1  -8 -10    7.50    5.40
   1  -8 -10    5.40    5.00
   1  -8 -10   17.20    5.40
  -1   8  10   11.90    5.10
  -1   8  10    6.90    6.60
  -1   8  10    1.20    4.70
   0  -8 -10   -2.00    4.00
   0  -8 -10    4.30    4.90
   0  -8 -10    1.40    5.10
   0   8  10    5.50    4.30
   0   8  10   -7.40    4.30
   0   8  10    1.20    5.90
   0   8  10    4.40    3.90
  -1  -8 -10    2.10    3.50
  -1  -8 -10    4.90    4.80
  -1  -8 -10    6.60    4.80
   1   8  10   14.20    4.40
   1   8  10   20.30    6.10
   1   8  10    7.40    4.40
   1   8  10    4.00    4.30
  -2  -8 -10    2.20    4.90
  -2  -8 -10   -7.20    5.10
   2   8  10    8.30    4.80
   2   8  10   -4.60    5.60
   2   8  10    6.80    4.50
   2   8  10   -3.20    3.50
  -3  -8 -10   46.40    6.90
  -3  -8 -10   34.20    6.30
   3   8  10   37.00    5.80
   3   8  10   49.50    5.90
  -4  -8 -10   -4.50    5.20
  -4  -8 -10   -1.00    5.70
   4   8  10    4.20    5.10
   4   8  10   10.10    4.70
   4   8  10    8.60    5.50
  -5  -8 -10   15.10    7.10
  -5  -8 -10   26.00    7.00
   2  -9 -10    9.60    5.70
   2  -9 -10    8.10    6.50
   2  -9 -10   -6.60    6.30
  -2   9  10   -1.70    6.00
  -2   9  10   14.40    7.30
  -2   9  10    8.20    5.60
   1  -9 -10   47.20    6.80
   1  -9 -10   38.10    6.70
   1  -9 -10   43.60    6.40
  -1   9  10   36.50    6.60
  -1   9  10   39.60    6.60
  -1   9  10   42.20    7.80
   0  -9 -10    1.90    5.50
   0  -9 -10   -7.40    4.50
   0  -9 -10    7.60    5.50
   0   9  10    1.20    4.70
   0   9  10   -5.20    6.50
   0   9  10    2.10    4.90
   0   9  10    4.60    5.30
  -1  -9 -10   -4.40    5.40
  -1  -9 -10    0.10    5.20
   1   9  10   -4.40    4.40
   1   9  10    0.20    4.40
   1   9  10   -4.70    6.00
   1   9  10    0.60    4.80
  -2  -9 -10    9.20    5.70
  -2  -9 -10    0.20    4.80
   2   9  10   -3.90    6.30
   2   9  10    2.90    5.10
   2   9  10    3.70    4.90
   2   9  10   -0.10    4.40
  -3  -9 -10   -8.40    5.10
  -3  -9 -10    6.60    6.30
   3   9  10   -4.50    4.50
   3   9  10   -0.90    5.50
  -4  -9 -10    9.30    5.90
  -4  -9 -10    7.20    6.40
   4   9  10   14.80    5.70
   4   9  10    4.00    5.50
   0 -10 -10   17.40    6.70
   0 -10 -10   14.10    6.90
   0  10  10   21.20    6.10
   0  10  10   21.00    5.70
   0  10  10    5.90    7.50
   0  10  10   12.90    6.30
  -1 -10 -10   18.30    6.80
  -1 -10 -10   16.00    6.70
   1  10  10   31.50    6.60
   1  10  10   20.20    6.30
   1  10  10   18.40    7.50
   1  10  10   21.10    5.90
  -2 -10 -10   -5.10    6.00
  -2 -10 -10   -0.10    6.10
   2  10  10   -0.20    6.80
   2  10  10    4.70    5.30
   2  10  10   10.00    5.90
   2  10  10   -7.30    6.30
   3   3 -11    4.30    6.40
   2   3 -11   13.10    5.80
   2   3 -11    3.10    5.60
  -2  -3  11  -13.80    5.50
  -2  -3  11   -5.20    6.00
   1   3 -11    8.50    5.80
   1   3 -11   15.80    6.20
  -1  -3  11   10.70    6.10
  -1  -3  11   12.20    4.90
  -1  -3  11    6.80    5.70
   0   3 -11   -7.70    5.50
   0   3 -11    3.70    6.20
   0  -3  11   -6.90    4.50
   0  -3  11   12.20    5.90
   0  -3  11   -0.80    4.40
  -1   3 -11   -3.30    6.30
  -1   3 -11   -3.30    6.40
   1  -3  11   -6.10    5.90
   1  -3  11    0.70    4.50
   3   2 -11    4.50    5.60
   3   2 -11   -9.60    5.20
  -3  -2  11   -2.10    5.40
  -3  -2  11   -2.70    5.60
  -3  -2  11    6.50    5.80
   2   2 -11   71.79    7.80
   2   2 -11   63.99    7.20
  -2  -2  11   64.79    7.60
  -2  -2  11   88.19    8.90
  -2  -2  11   67.59    7.30
   1   2 -11   14.50    5.90
   1   2 -11    0.70    5.30
  -1  -2  11    8.70    5.10
  -1  -2  11   17.10    5.60
  -1  -2  11    6.80    4.20
   0   2 -11   16.30    6.00
   0   2 -11   19.90    5.80
   0  -2  11   27.50    4.90
   0  -2  11   18.10    4.60
   0  -2  11   26.20    6.10
  -1   2 -11   20.30    6.20
  -1   2 -11   19.50    6.10
   1  -2  11   20.70    6.10
   1  -2  11   16.30    5.00
  -2   2 -11   15.90    5.70
  -2   2 -11    8.30    5.70
   2  -2  11    5.20    4.70
   2  -2  11    7.30    5.90
   4   1 -11    1.10    4.90
   4   1 -11    3.40    5.60
  -4  -1  11   -3.20    5.80
  -4  -1  11   -7.60    6.40
  -4  -1  11    4.00    5.90
   3   1 -11    7.20    5.20
   3   1 -11    2.60    4.80
  -3  -1  11   -1.00    5.40
  -3  -1  11   -4.10    5.30
   2   1 -11    0.30    5.10
   2   1 -11   -2.90    4.40
  -2  -1  11    3.10    4.90
  -2  -1  11   -0.30    5.10
  -2  -1  11    4.00    4.60
   1   1 -11   -2.30    4.40
   1   1 -11   -4.10    4.70
  -1  -1  11    1.90    4.70
  -1  -1  11    6.10    4.30
  -1  -1  11    2.10    4.60
   0   1 -11    8.30    4.70
   0   1 -11    6.90    4.70
   0  -1  11   14.80    4.30
   0  -1  11   12.80    5.50
   0  -1  11    4.80    4.00
   0  -1  11    6.80    4.30
  -1   1 -11    7.90    5.20
  -1   1 -11   -1.50    4.90
   1  -1  11    6.40    5.70
   1  -1  11   10.50    3.80
   1  -1  11   11.20    4.40
  -2   1 -11   39.80    6.80
  -2   1 -11   31.30    5.90
   2  -1  11   33.90    6.40
   2  -1  11   25.30    5.20
  -3   1 -11   22.40    5.50
  -3   1 -11    1.50    5.90
   3  -1  11    7.70    5.80
   3  -1  11    3.20    5.30
   4   0 -11   12.50    4.60
   4   0 -11    4.80    5.90
  -4   0  11  -12.10    5.10
  -4   0  11    2.40    6.50
  -4   0  11   -3.70    5.60
   3   0 -11   -3.70    4.20
   3   0 -11   -0.90    5.40
  -3   0  11    2.30    5.60
  -3   0  11    2.40    5.40
  -3   0  11    1.20    4.80
   2   0 -11    5.20    4.80
   2   0 -11   -3.30    4.10
  -2   0  11    0.20    4.50
  -2   0  11    2.30    5.10
  -2   0  11    2.80    4.80
   1   0 -11    4.30    4.40
   1   0 -11    4.40    4.40
  -1   0  11    8.50    4.40
  -1   0  11   -3.30    4.10
  -1   0  11    2.00    4.70
   0   0 -11    8.60    4.60
   0   0 -11   16.40    5.00
   0   0  11   13.00    4.20
   0   0  11    9.70    5.20
   0   0  11    7.30    4.00
   0   0  11   14.90    4.20
  -1   0 -11   12.20    4.90
  -1   0 -11   -6.60    3.90
   1   0  11    0.20    4.00
   1   0  11   10.80    3.80
   1   0  11    5.80    4.90
  -2   0 -11    6.40    5.00
  -2   0 -11   15.40    4.90
   2   0  11   10.90    5.40
   2   0  11   20.10    4.60
  -3   0 -11    7.20    4.80
  -3   0 -11    1.50    5.50
   3   0  11    0.00    5.70
   3   0  11    3.40    4.80
  -4   0 -11    7.90    5.80
  -4   0 -11   -5.70    5.30
   4   0  11   12.90    6.80
   4   0  11    4.00    5.70
   4  -1 -11   14.00    4.90
   4  -1 -11    3.60    5.20
   4  -1 -11   -4.10    6.80
  -4   1  11   11.80    4.70
  -4   1  11   11.30    6.90
  -4   1  11    8.60    6.10
   3  -1 -11    4.20    4.20
   3  -1 -11    6.50    5.50
  -3   1  11    9.10    6.00
  -3   1  11   15.90    4.50
  -3   1  11   14.10    5.20
   2  -1 -11   25.00    4.90
   2  -1 -11   14.60    4.90
  -2   1  11   20.20    4.80
  -2   1  11   21.00    7.20
  -2   1  11   18.70    5.30
   1  -1 -11    4.80    4.40
   1  -1 -11    7.10    3.80
  -1   1  11    3.40    4.50
  -1   1  11    0.50    4.80
  -1   1  11    5.80    4.70
   0  -1 -11    1.50    4.30
   0  -1 -11    3.60    4.20
   0   1  11  -10.70    4.20
   0   1  11   -1.90    4.30
   0   1  11    2.40    3.80
  -1  -1 -11   49.60    5.80
  -1  -1 -11   73.99    7.60
   1   1  11   40.40    5.90
   1   1  11   53.39    5.40
   1   1  11   43.40    5.80
   1   1  11   48.10    5.70
  -2  -1 -11    9.10    4.50
  -2  -1 -11   19.00    5.00
   2   1  11    4.90    4.30
   2   1  11    3.10    5.00
   2   1  11   14.00    3.50
  -3  -1 -11    3.10    5.20
  -3  -1 -11    6.20    4.80
   3   1  11    8.80    5.40
   3   1  11    6.90    4.50
  -4  -1 -11    2.00    4.90
  -4  -1 -11    4.60    6.10
   4   1  11    0.30    6.20
   4   1  11    1.20    5.40
   4  -2 -11    7.30    4.40
   4  -2 -11    4.50    6.60
   4  -2 -11    6.00    5.60
  -4   2  11    1.00    5.00
  -4   2  11   -3.70    6.70
   3  -2 -11    9.10    4.20
   3  -2 -11    2.40    4.80
   3  -2 -11   -9.60    5.60
  -3   2  11    0.30    4.90
  -3   2  11    6.20    4.10
  -3   2  11    0.80    5.90
   2  -2 -11    0.60    4.40
   2  -2 -11    1.50    4.30
  -2   2  11   -2.50    4.00
  -2   2  11    1.70    5.50
  -2   2  11   -1.90    4.40
   1  -2 -11    2.00    4.30
   1  -2 -11    2.80    4.70
  -1   2  11   -3.50    3.80
  -1   2  11    6.60    4.50
  -1   2  11    0.00    4.80
   0  -2 -11    8.20    4.30
   0  -2 -11    1.50    4.00
   0   2  11    5.00    2.80
   0   2  11    6.20    5.00
   0   2  11    1.30    4.10
   0   2  11    5.10    3.90
  -1  -2 -11   -1.20    4.10
  -1  -2 -11   -1.80    4.10
   1   2  11   -1.30    3.70
   1   2  11    2.10    4.20
   1   2  11   -2.10    3.60
  -2  -2 -11   31.60    5.20
  -2  -2 -11   27.20    5.60
   2   2  11   29.20    5.50
   2   2  11   26.90    5.70
   2   2  11   31.90    4.30
  -3  -2 -11   11.60    5.10
  -3  -2 -11   11.30    4.70
   3   2  11    5.20    5.50
   3   2  11    1.30    4.60
  -4  -2 -11   18.60    5.30
  -4  -2 -11   26.30    6.30
   4   2  11   14.40    5.00
   4   2  11   10.40    6.30
   4  -3 -11    4.00    6.90
   4  -3 -11   12.70    5.70
  -4   3  11   12.10    6.90
  -4   3  11   11.90    5.70
   3  -3 -11  -10.60    5.00
   3  -3 -11   -0.20    5.50
   3  -3 -11    3.80    4.10
  -3   3  11    4.40    5.70
  -3   3  11   -0.50    3.30
  -3   3  11   -7.40    5.00
   2  -3 -11   24.80    4.90
   2  -3 -11   25.30    5.50
   2  -3 -11   25.70    5.90
  -2   3  11   19.70    6.30
  -2   3  11   24.80    4.10
  -2   3  11   28.00    5.10
   1  -3 -11   53.89    6.00
   1  -3 -11   59.59    6.60
  -1   3  11   53.69    5.30
  -1   3  11   46.00    6.50
  -1   3  11   48.30    4.70
  -1   3  11   50.99    5.80
   0  -3 -11  127.79    9.30
   0  -3 -11  143.99    9.10
   0   3  11  113.59   10.90
   0   3  11  129.09    6.30
   0   3  11  129.19    7.90
   0   3  11  113.99    8.30
  -1  -3 -11  140.39    8.60
  -1  -3 -11  140.59    9.20
   1   3  11  129.59    8.90
   1   3  11  134.49    8.00
   1   3  11  128.19    9.90
   1   3  11  137.59    9.00
  -2  -3 -11   27.80    5.10
  -2  -3 -11   39.20    6.00
   2   3  11   32.40    5.20
   2   3  11   28.30    4.60
   2   3  11   34.80    6.10
   2   3  11   23.60    5.50
  -3  -3 -11    3.10    4.50
  -3  -3 -11   -4.10    4.80
   3   3  11   -0.30    4.40
   3   3  11   -4.80    5.30
   3   3  11    0.40    3.40
  -4  -3 -11   -1.40    5.20
  -4  -3 -11    2.20    5.30
   4   3  11   -3.10    4.90
   4  -4 -11    5.00    7.40
   4  -4 -11    6.30    6.00
  -4   4  11  -10.70    5.60
  -4   4  11   -1.30    5.50
  -4   4  11   -8.20    6.80
   3  -4 -11   -2.70    5.40
   3  -4 -11    6.90    4.30
   3  -4 -11    2.20    5.80
  -3   4  11    8.50    6.30
  -3   4  11   -3.50    4.60
  -3   4  11    6.30    5.10
   2  -4 -11    2.40    5.10
   2  -4 -11    1.30    4.10
   2  -4 -11    3.20    4.60
  -2   4  11   -2.50    4.90
  -2   4  11    9.70    6.20
  -2   4  11    0.60    3.40
  -2   4  11   10.90    4.30
   1  -4 -11    4.90    4.90
   1  -4 -11    1.60    4.30
   1  -4 -11    5.60    4.30
  -1   4  11   -7.80    3.90
  -1   4  11    6.50    3.30
  -1   4  11   -5.20    5.40
  -1   4  11    0.60    3.70
   0  -4 -11   60.69    6.70
   0  -4 -11   60.69    6.10
   0  -4 -11   69.69    6.80
   0   4  11   67.59    7.00
   0   4  11   59.09    7.50
   0   4  11   53.79    6.00
   0   4  11   58.39    5.30
  -1  -4 -11   10.50    4.80
  -1  -4 -11    9.40    4.40
   1   4  11    9.40    4.60
   1   4  11   17.20    3.90
   1   4  11    8.20    2.50
   1   4  11   22.10    5.20
   1   4  11    6.20    4.20
   1   4  11    9.50    4.10
  -2  -4 -11   86.59    8.70
  -2  -4 -11   86.89    8.50
   2   4  11   87.99    8.00
   2   4  11   81.19    9.10
   2   4  11   80.69    7.20
   2   4  11   81.69    5.60
  -3  -4 -11   -0.90    4.50
  -3  -4 -11    5.50    4.50
   3   4  11    6.60    4.50
   3   4  11    3.70    3.70
  -4  -4 -11   11.80    5.20
  -4  -4 -11    7.30    5.50
   4   4  11    2.10    5.10
  -5  -4 -11   45.30    7.30
  -5  -4 -11   39.20    7.60
   5   4  11   27.90    6.80
   4  -5 -11   13.90    7.60
   4  -5 -11   15.90    6.60
  -4   5  11   21.80    8.40
  -4   5  11   21.40    6.30
   3  -5 -11    2.80    6.20
   3  -5 -11   -0.30    4.20
   3  -5 -11   -2.90    5.30
  -3   5  11    0.60    5.10
  -3   5  11   -7.60    4.80
  -3   5  11    0.60    6.50
   2  -5 -11    8.10    4.80
   2  -5 -11    5.30    5.60
   2  -5 -11    2.40    4.50
  -2   5  11   -5.10    6.00
  -2   5  11    1.20    5.20
  -2   5  11    4.40    4.60
   1  -5 -11   13.30    5.20
   1  -5 -11    2.60    4.10
   1  -5 -11   15.10    5.00
  -1   5  11    6.60    3.90
  -1   5  11    5.80    5.50
  -1   5  11    2.00    4.90
   0  -5 -11    9.70    4.50
   0  -5 -11    6.90    4.20
   0  -5 -11    7.90    4.30
   0   5  11    7.10    4.30
   0   5  11    8.20    5.90
   0   5  11    1.20    3.00
  -1  -5 -11    8.10    4.50
  -1  -5 -11   10.20    3.90
  -1  -5 -11    8.50    4.60
   1   5  11    6.60    3.90
   1   5  11    5.50    2.90
   1   5  11   13.40    5.50
   1   5  11    6.80    4.10
  -2  -5 -11   11.00    4.80
  -2  -5 -11   14.00    3.60
  -2  -5 -11   14.00    4.40
   2   5  11    4.00    5.60
   2   5  11   10.30    4.50
   2   5  11   12.10    3.30
  -3  -5 -11    3.00    4.90
  -3  -5 -11    3.20    5.10
   3   5  11    7.30    3.60
   3   5  11    3.90    4.70
   3   5  11    9.10    4.20
  -4  -5 -11    1.50    5.30
  -4  -5 -11    0.80    5.80
   4   5  11   -2.50    4.90
   4   5  11   -1.10    5.50
   3  -6 -11   12.40    5.20
   3  -6 -11    4.30    5.90
   3  -6 -11    4.30    6.60
  -3   6  11    9.20    7.50
  -3   6  11    4.80    6.10
  -3   6  11    5.30    5.70
   2  -6 -11   32.00    6.40
   2  -6 -11   31.30    6.00
   2  -6 -11   40.70    7.20
  -2   6  11   41.20    6.20
  -2   6  11   31.50    7.70
  -2   6  11   44.20    6.30
   1  -6 -11   18.70    5.50
   1  -6 -11   12.20    5.50
   1  -6 -11   11.30    5.30
  -1   6  11   12.00    4.90
  -1   6  11   16.60    4.60
  -1   6  11   14.10    6.60
   0  -6 -11   49.10    5.50
   0  -6 -11   47.10    6.50
   0  -6 -11   37.60    5.90
   0   6  11   38.10    4.60
   0   6  11   46.50    6.00
   0   6  11   41.10    7.70
  -1  -6 -11    5.50    4.50
  -1  -6 -11    3.80    5.00
  -1  -6 -11    2.60    4.00
   1   6  11    4.30    4.50
   1   6  11   -1.50    3.20
   1   6  11    4.00    4.10
   1   6  11   11.10    5.90
  -2  -6 -11   -3.00    4.80
  -2  -6 -11    4.10    4.50
   2   6  11    5.90    4.70
   2   6  11    0.40    4.00
   2   6  11   -8.50    5.30
  -3  -6 -11    3.70    5.20
  -3  -6 -11    5.70    5.00
   3   6  11    1.90    4.00
   3   6  11   -8.40    4.60
  -4  -6 -11    5.80    5.50
  -4  -6 -11   -2.00    5.50
   4   6  11   -4.10    4.40
   4   6  11    0.50    4.50
   4   6  11   -0.60    5.40
   2  -7 -11    5.90    5.40
   2  -7 -11  -15.00    6.20
   2  -7 -11    5.30    5.30
  -2   7  11    1.40    4.90
  -2   7  11   -3.80    6.60
  -2   7  11    2.80    5.00
   1  -7 -11    0.10    5.10
   1  -7 -11    5.70    5.40
   1  -7 -11  -11.00    5.10
  -1   7  11    0.40    5.00
  -1   7  11    7.40    5.50
  -1   7  11   11.80    6.80
   0  -7 -11   -1.10    5.30
   0  -7 -11   -6.60    4.90
   0  -7 -11   -0.20    4.70
   0   7  11    3.30    5.10
   0   7  11   -2.30    6.50
   0   7  11    6.40    4.40
   0   7  11    4.30    4.00
  -1  -7 -11   18.50    5.90
  -1  -7 -11   14.70    4.30
  -1  -7 -11   17.70    5.10
   1   7  11   19.30    5.20
   1   7  11   16.20    4.10
   1   7  11   16.20    4.60
   1   7  11   25.70    7.20
  -2  -7 -11   -1.40    5.00
  -2  -7 -11   -5.70    5.30
   2   7  11    2.80    5.30
   2   7  11   -5.10    6.00
   2   7  11    0.10    4.20
  -3  -7 -11  -13.90    5.30
  -3  -7 -11    4.50    5.20
   3   7  11   -0.10    4.10
   3   7  11   10.40    5.20
   3   7  11    6.50    5.40
  -4  -7 -11   22.90    6.10
  -4  -7 -11   -4.40    6.20
   4   7  11    7.60    5.40
   4   7  11    5.80    5.40
   4   7  11    1.70    6.30
   1  -8 -11   14.30    5.90
   1  -8 -11   14.60    5.80
   1  -8 -11   15.90    5.90
  -1   8  11   12.80    5.60
  -1   8  11   17.80    5.90
  -1   8  11   31.90    8.10
   0  -8 -11   -4.00    5.30
   0  -8 -11    9.90    5.60
   0  -8 -11    3.90    4.80
   0   8  11    3.80    4.70
   0   8  11    1.60    4.80
   0   8  11    0.70    6.70
   0   8  11    4.40    5.10
  -1  -8 -11   21.70    5.50
  -1  -8 -11   13.00    5.80
   1   8  11    7.90    5.20
   1   8  11   16.30    5.00
   1   8  11   17.50    7.30
   1   8  11   16.90    5.60
  -2  -8 -11   -8.70    5.50
  -2  -8 -11    4.60    5.20
   2   8  11    0.80    6.30
   2   8  11    2.00    5.40
   2   8  11   -0.90    5.10
  -3  -8 -11    3.20    5.30
  -3  -8 -11    4.70    6.00
   3   8  11    0.50    5.20
   3   8  11    1.70    4.90
   0  -9 -11   17.30    6.90
   0  -9 -11   22.30    6.70
   0   9  11   11.40    6.20
   0   9  11   11.00    6.10
   0   9  11   22.00    8.40
   0   9  11   16.60    5.50
  -1  -9 -11   -3.50    5.90
  -1  -9 -11    3.20    6.60
   1   9  11   -5.40    5.20
   1   9  11    5.00    7.70
   1   9  11    0.40    5.30
   1   9  11    7.60    6.00
  -2  -9 -11   39.50    7.20
  -2  -9 -11   17.90    6.60
   2   9  11    9.10    7.50
   2   9  11   11.80    5.90
   2   9  11   16.10    5.90
   2   1 -12   28.00    6.40
   2   1 -12   31.70    6.70
  -2  -1  12   23.50    9.00
  -2  -1  12   21.00    7.00
  -2  -1  12   36.40    7.30
   1   1 -12   -2.60    5.70
   1   1 -12   -1.10    5.40
  -1  -1  12   -1.20    6.10
  -1  -1  12    1.80    5.50
  -1  -1  12    1.00    4.70
   0   1 -12   87.89    8.60
   0   1 -12  110.89   10.60
   0  -1  12   98.79    9.90
   0  -1  12   90.09    9.00
   0  -1  12   72.79    7.30
  -1   1 -12   13.20    6.40
  -1   1 -12    9.80    5.70
   1  -1  12    8.20    6.60
   1  -1  12    7.10    5.40
   3   0 -12    1.40    5.90
   2   0 -12   -4.40    4.90
   2   0 -12    3.90    5.80
  -2   0  12    1.50    5.80
  -2   0  12    0.50    5.40
  -2   0  12    4.50    6.20
   1   0 -12   12.00    5.20
   1   0 -12    3.30    5.10
  -1   0  12    9.60    5.90
  -1   0  12   16.90    5.70
  -1   0  12    1.20    5.20
   0   0 -12    1.60    5.20
   0   0 -12   -1.70    5.10
   0   0  12   -3.70    5.20
   0   0  12    0.80    4.50
   0   0  12  -15.00    5.30
   0   0  12  -11.70    4.50
  -1   0 -12    1.00    5.60
  -1   0 -12   -4.60    5.60
   1   0  12   10.00    5.00
   1   0  12   -0.30    6.00
   1   0  12   -5.90    4.40
  -2   0 -12   22.80    6.50
  -2   0 -12   18.00    6.50
   2   0  12   15.50    5.70
   2   0  12   23.60    7.00
   3  -1 -12   -1.60    5.80
   3  -1 -12    0.60    5.30
  -3   1  12   16.30    7.20
  -3   1  12    1.50    5.30
  -3   1  12   -3.30    5.80
   2  -1 -12    2.90    5.50
   2  -1 -12    1.30    5.00
  -2   1  12    9.30    9.60
  -2   1  12    0.30    5.50
  -2   1  12    9.40    6.40
   1  -1 -12    3.40    4.60
   1  -1 -12   -2.60    4.90
  -1   1  12   10.70    5.40
  -1   1  12   -3.70    5.20
   0  -1 -12   -3.10    5.10
   0  -1 -12    3.00    5.10
   0   1  12    6.30    4.90
   0   1  12    6.80    5.40
   0   1  12    3.70    5.00
   0   1  12    8.20    5.40
  -1  -1 -12    2.00    4.90
  -1  -1 -12    1.40    5.20
   1   1  12   15.70    6.20
   1   1  12    2.00    4.70
   1   1  12    9.50    5.20
   1   1  12    0.30    4.30
  -2  -1 -12  -10.70    5.60
  -2  -1 -12   -5.50    5.30
   2   1  12   -4.40    4.60
   2   1  12   -6.40    5.80
   3  -2 -12   -0.60    5.60
   3  -2 -12    1.00    7.10
   3  -2 -12   -2.60    5.00
  -3   2  12  -10.20    5.50
  -3   2  12    6.40    7.30
   2  -2 -12   -7.00    5.00
   2  -2 -12    5.40    4.90
  -2   2  12   -0.40    4.80
  -2   2  12    4.40    6.10
  -2   2  12    0.00    5.20
   1  -2 -12   -0.20    4.70
   1  -2 -12   -1.60    4.80
  -1   2  12   -0.90    4.70
  -1   2  12    3.10    5.00
  -1   2  12    4.20    6.10
   0  -2 -12   47.30    6.80
   0  -2 -12   39.40    6.70
   0   2  12   27.40    9.90
   0   2  12   43.60    6.30
   0   2  12   37.00    5.80
   0   2  12   36.50    5.80
  -1  -2 -12    2.30    5.20
  -1  -2 -12   -2.90    5.20
   1   2  12   -1.70    4.50
   1   2  12    3.60    5.30
   1   2  12    6.00    5.00
  -2  -2 -12   12.60    5.40
  -2  -2 -12   12.90    5.80
   2   2  12    0.10    4.80
   2   2  12   12.40    5.60
   2   2  12    3.30    4.30
  -3  -2 -12    6.20    5.70
  -3  -2 -12    6.10    5.70
   3   2  12    7.80    6.50
   3   2  12   -8.50    5.10
   3  -3 -12    1.10    5.00
   3  -3 -12   -9.40    5.80
   3  -3 -12    8.90    6.60
  -3   3  12  -17.40    7.00
  -3   3  12    0.60    5.60
   2  -3 -12   -3.40    5.30
   2  -3 -12    4.20    6.00
   2  -3 -12   -8.10    4.70
  -2   3  12    9.90    5.30
  -2   3  12    5.70    4.30
  -2   3  12   -2.90    4.40
  -2   3  12    6.40    6.50
   1  -3 -12    5.30    4.90
   1  -3 -12    2.00    4.80
  -1   3  12   -7.30    4.90
  -1   3  12   -3.30    4.20
  -1   3  12    1.20    3.90
  -1   3  12   -2.60    5.80
   0  -3 -12    5.60    4.80
   0  -3 -12    6.90    5.00
   0   3  12    0.40    6.00
   0   3  12   10.10    5.00
   0   3  12    4.60    4.80
   0   3  12    6.50    4.60
  -1  -3 -12   22.70    5.50
  -1  -3 -12   14.20    5.70
   1   3  12   18.10    4.80
   1   3  12   19.80    6.10
   1   3  12    7.40    4.60
   1   3  12   11.30    5.90
  -2  -3 -12   -6.00    5.10
  -2  -3 -12   11.00    5.60
   2   3  12   -8.70    5.50
   2   3  12   -1.00    4.90
   2   3  12   -2.40    4.20
  -3  -3 -12    7.80    5.70
  -3  -3 -12   10.40    5.70
   3   3  12    4.60    6.90
   3   3  12    0.30    5.30
   3  -4 -12   -4.30    9.10
   3  -4 -12   -0.40    7.40
   3  -4 -12   -1.90    6.00
  -3   4  12    2.10    5.60
  -3   4  12   -3.50    5.70
  -3   4  12    3.10    7.60
   2  -4 -12    6.80    6.10
   2  -4 -12    3.90    5.00
   2  -4 -12    3.00    5.60
  -2   4  12   -8.30    6.60
  -2   4  12   11.70    5.50
   1  -4 -12    8.10    5.90
   1  -4 -12    1.50    5.00
   1  -4 -12    2.40    4.90
  -1   4  12   -7.70    4.80
  -1   4  12    0.40    4.30
  -1   4  12   -1.70    4.10
  -1   4  12   -1.50    6.00
   0  -4 -12    8.00    4.80
   0  -4 -12    8.80    5.30
   0  -4 -12    5.90    5.10
   0   4  12    2.70    4.90
   0   4  12    2.20    4.30
   0   4  12    5.20    6.50
   0   4  12    4.70    4.80
  -1  -4 -12    2.10    5.10
  -1  -4 -12    1.50    5.00
   1   4  12   -5.20    4.50
   1   4  12    4.40    5.90
   1   4  12    1.00    4.40
  -2  -4 -12    9.70    5.50
  -2  -4 -12   10.20    5.50
   2   4  12    5.20    6.40
   2   4  12    7.30    4.50
   2   4  12    4.00    5.70
  -3  -4 -12   27.30    6.40
  -3  -4 -12   43.70    7.30
   3   4  12   28.30    6.20
   2  -5 -12    6.80    6.40
   2  -5 -12    5.70    5.10
   2  -5 -12    9.30    5.70
  -2   5  12   13.70    5.10
  -2   5  12   13.60    6.20
  -2   5  12   13.40    7.30
   1  -5 -12   -5.20    4.80
   1  -5 -12    4.00    5.00
   1  -5 -12    2.80    5.50
  -1   5  12    6.50    5.60
  -1   5  12    6.90    6.80
  -1   5  12    4.50    4.30
   0  -5 -12    6.40    5.10
   0  -5 -12   14.80    5.60
   0  -5 -12    8.50    5.30
   0   5  12    2.50    5.10
   0   5  12   -1.60    6.40
   0   5  12    5.40    4.60
  -1  -5 -12   14.60    5.40
  -1  -5 -12    4.70    4.70
  -1  -5 -12    4.70    5.20
   1   5  12    3.00    4.90
   1   5  12    6.00    6.40
   1   5  12    9.40    4.80
  -2  -5 -12   16.00    5.40
  -2  -5 -12   -2.50    5.40
   2   5  12   -2.70    6.20
   2   5  12   -4.10    4.80
   2   5  12    8.90    5.20
  -3  -5 -12    1.60    5.50
  -3  -5 -12   10.50    6.40
   3   5  12    9.00    6.00
   3   5  12    8.30    4.90
   2  -6 -12    6.80    6.20
   2  -6 -12    7.10    7.30
   2  -6 -12    6.30    5.60
  -2   6  12    9.60    6.30
  -2   6  12    0.00    7.30
   1  -6 -12   20.90    6.40
   1  -6 -12    5.70    5.80
   1  -6 -12    5.80    5.70
  -1   6  12    8.00    5.40
  -1   6  12    6.80    4.90
  -1   6  12   -0.30    6.90
   0  -6 -12   14.30    5.50
   0  -6 -12    8.60    5.60
   0  -6 -12    0.00    5.30
   0   6  12  -12.30    6.80
   0   6  12    3.30    4.90
   0   6  12    7.70    5.40
  -1  -6 -12    4.80    5.60
  -1  -6 -12   13.90    5.70
   1   6  12   -4.80    6.60
   1   6  12    5.00    4.90
   1   6  12   -1.40    5.30
  -2  -6 -12   -6.60    5.40
  -2  -6 -12    4.60    6.00
   2   6  12    6.50    6.50
   2   6  12    4.20    5.30
   2   6  12   13.30    5.60
  -3  -6 -12  -12.10    5.60
  -3  -6 -12   -0.80    5.80
   3   6  12   -2.90    5.10
   3   6  12    1.50    5.90
   1  -7 -12    2.30    6.00
   1  -7 -12    5.10    6.00
  -1   7  12    4.80    7.30
   0  -7 -12   47.30    7.20
   0  -7 -12   57.59    7.60
   0  -7 -12   60.59    7.10
   0   7  12   51.89    8.50
   0   7  12   44.30    6.10
   0   7  12   49.10    6.90
  -1  -7 -12    9.20    5.70
  -1  -7 -12    8.20    6.60
   1   7  12    1.20    4.90
   1   7  12   10.40    7.90
   1   7  12    7.40    5.80
  -2  -7 -12   46.50    7.50
  -2  -7 -12   37.40    7.10
   2   7  12   46.60    7.30
   2   7  12   40.50    7.10
   2   7  12   44.20    8.50
   0  -3 -13   -7.00    5.70
   0   3  13    4.00    7.10
;
loop_
_symmetry_equiv_pos_as_xyz
'x, y, z'
'-x, -y, -z'
loop_
_atom_site_label
_atom_site_type_symbol
_atom_site_fract_x
_atom_site_fract_y
_atom_site_fract_z
_atom_site_U_iso_or_equiv
_atom_site_adp_type
_atom_site_occupancy
_atom_site_calc_flag
O1 O 0.8355(2) 0.35695(13) 0.40087(12) 0.0529(4) Uani 1 d
F1 F 0.8564(2) -0.13739(13) 0.90752(13) 0.0828(5) Uani 1 d
F4 F 0.7044(2) 0.33927(17) 0.05514(15) 0.0985(6) Uani 1 d
F2 F 0.6803(3) 0.21170(14) 0.24941(17) 0.1080(6) Uani 1 d
N1 N 0.7343(2) 0.48847(16) 0.55243(15) 0.0461(4) Uani 1 d
F3 F 0.4390(2) 0.32634(18) 0.13176(19) 0.1037(6) Uani 1 d
C1 C 0.7232(2) 0.61344(18) 0.45058(18) 0.0403(4) Uani 1 d
C11 C 0.7867(2) 0.37246(18) 0.52249(16) 0.0381(4) Uani 1 d
C12 C 0.8065(2) 0.23672(18) 0.62345(17) 0.0388(4) Uani 1 d
C7 C 0.7867(3) 0.47312(18) 0.28195(17) 0.0432(5) Uani 1 d
C17 C 0.8362(3) 0.11095(19) 0.58772(19) 0.0480(5) Uani 1 d
H17 H 0.8452 0.1117 0.4963 0.058 Uiso 1 calc
C6 C 0.7491(3) 0.61229(18) 0.31841(18) 0.0431(4) Uani 1 d
C8 C 0.6065(3) 0.4573(2) 0.2206(2) 0.0495(5) Uani 1 d
H8A H 0.5112 0.4563 0.2892 0.059 Uiso 1 calc
H8B H 0.5642 0.5425 0.1471 0.059 Uiso 1 calc
C13 C 0.7932(3) 0.2338(2) 0.75760(18) 0.0489(5) Uani 1 d
H13 H 0.7727 0.3192 0.7835 0.059 Uiso 1 calc
C2 C 0.6838(3) 0.7405(2) 0.4846(2) 0.0512(5) Uani 1 d
H2 H 0.6683 0.7411 0.5754 0.061 Uiso 1 calc
C3 C 0.6671(3) 0.8657(2) 0.3882(2) 0.0549(5) Uani 1 d
H3 H 0.6396 0.9521 0.4123 0.066 Uiso 1 calc
C14 C 0.8096(3) 0.1082(2) 0.8532(2) 0.0572(6) Uani 1 d
H14 H 0.8005 0.106 0.945 0.069 Uiso 1 calc
C4 C 0.6905(3) 0.8648(2) 0.2570(2) 0.0598(6) Uani 1 d
H4 H 0.6781 0.9509 0.19 0.072 Uiso 1 calc
C10 C 0.9547(3) 0.4585(2) 0.1963(2) 0.0583(6) Uani 1 d
H10A H 1.0627 0.4723 0.2417 0.087 Uiso 1 calc
H10B H 0.9299 0.5291 0.1106 0.087 Uiso 1 calc
H10C H 0.9803 0.3645 0.1812 0.087 Uiso 1 calc
C16 C 0.8531(3) -0.0152(2) 0.6828(2) 0.0542(5) Uani 1 d
H16 H 0.8738 -0.1013 0.6581 0.065 Uiso 1 calc
C5 C 0.7319(3) 0.7390(2) 0.2224(2) 0.0585(6) Uani 1 d
H5 H 0.7489 0.7393 0.1315 0.07 Uiso 1 calc
C15 C 0.8391(3) -0.0133(2) 0.8134(2) 0.0530(5) Uani 1 d
C9 C 0.6095(3) 0.3323(2) 0.1670(2) 0.0641(6) Uani 1 d
loop_
_atom_site_aniso_label
_atom_site_aniso_U_11
_atom_site_aniso_U_22
_atom_site_aniso_U_33
_atom_site_aniso_U_23
_atom_site_aniso_U_13
_atom_site_aniso_U_12
O1 0.0841(10) 0.0355(7) 0.0320(7) -0.0060(5) 0.0018(6) 0.0015(6)
F1 0.1347(13) 0.0474(8) 0.0538(8) 0.0075(6) 0.0063(8) -0.0161(8)
F4 0.1296(14) 0.1061(12) 0.0754(10) -0.0565(9) 0.0057(9) -0.0166(10)
F2 0.1787(17) 0.0441(8) 0.0989(12) -0.0170(8) -0.0478(12) -0.0139(9)
N1 0.0646(11) 0.0355(8) 0.0379(8) -0.0096(7) 0.0053(7) -0.0102(7)
F3 0.1065(13) 0.1005(12) 0.1234(14) -0.0504(11) -0.0220(10) -0.0357(9)
C1 0.0437(10) 0.0352(10) 0.0419(10) -0.0090(8) 0.0019(8) -0.0090(8)
C11 0.0427(10) 0.0390(10) 0.0321(9) -0.0087(8) -0.0007(7) -0.0075(8)
C12 0.0395(10) 0.0381(10) 0.0373(10) -0.0081(8) -0.0005(8) -0.0058(8)
C7 0.0588(12) 0.0354(10) 0.0311(9) -0.0045(8) 0.0021(8) -0.0049(8)
C17 0.0652(13) 0.0409(11) 0.0367(10) -0.0097(8) -0.0005(9) -0.0082(9)
C6 0.0510(11) 0.0356(10) 0.0403(10) -0.0062(8) 0.0015(8) -0.0080(8)
C8 0.0613(13) 0.0431(11) 0.0425(10) -0.0098(9) 0.0012(9) -0.0081(9)
C13 0.0651(13) 0.0419(11) 0.0388(10) -0.0112(8) 0.0005(9) -0.0074(9)
C2 0.0642(13) 0.0425(11) 0.0498(11) -0.0160(9) 0.0045(9) -0.0126(9)
C3 0.0614(13) 0.0364(11) 0.0678(14) -0.0153(10) 0.0021(11) -0.0097(9)
C14 0.0800(15) 0.0534(13) 0.0340(10) -0.0065(9) 0.0042(10) -0.0101(11)
C4 0.0744(15) 0.0359(11) 0.0629(14) -0.0009(10) 0.0009(11) -0.0124(10)
C10 0.0650(14) 0.0529(12) 0.0548(13) -0.0141(10) 0.0151(10) -0.0077(10)
C16 0.0746(14) 0.0364(10) 0.0500(12) -0.0099(9) 0.0016(10) -0.0092(10)
C5 0.0821(16) 0.0443(12) 0.0436(11) -0.0029(9) 0.0059(10) -0.0112(10)
C15 0.0677(14) 0.0396(11) 0.0432(11) 0.0031(9) 0.0006(9) -0.0095(9)
C9 0.0804(17) 0.0611(15) 0.0505(13) -0.0175(11) -0.0113(12) -0.0084(12)
loop_
_atom_type_symbol
_atom_type_description
_atom_type_scat_dispersion_real
_atom_type_scat_dispersion_imag
_atom_type_scat_source
C C 0.0033 0.0016 'International Tables Vol C Tables 4.2.6.8 and 6.1.1.4'
H H 0 0 'International Tables Vol C Tables 4.2.6.8 and 6.1.1.4'
N N 0.0061 0.0033 'International Tables Vol C Tables 4.2.6.8 and 6.1.1.4'
O O 0.0106 0.006 'International Tables Vol C Tables 4.2.6.8 and 6.1.1.4'
F F 0.0171 0.0103 'International Tables Vol C Tables 4.2.6.8 and 6.1.1.4'
loop_
_geom_angle_atom_site_label_1
_geom_angle_atom_site_label_2
_geom_angle_atom_site_label_3
_geom_angle
C11 O1 C7 121.02(13)
C11 N1 C1 118.15(15)
C6 C1 C2 119.74(17)
C6 C1 N1 121.71(16)
C2 C1 N1 118.55(16)
N1 C11 O1 125.89(16)
N1 C11 C12 121.77(16)
O1 C11 C12 112.30(14)
C17 C12 C13 118.78(17)
C17 C12 C11 121.48(16)
C13 C12 C11 119.73(16)
O1 C7 C10 104.03(14)
O1 C7 C6 110.55(14)
C10 C7 C6 112.08(16)
O1 C7 C8 107.60(15)
C10 C7 C8 114.80(16)
C6 C7 C8 107.66(15)
C16 C17 C12 121.01(18)
C16 C17 H17 119.5
C12 C17 H17 119.5
C5 C6 C1 118.94(17)
C5 C6 C7 121.75(17)
C1 C6 C7 119.26(16)
C9 C8 C7 118.47(17)
C9 C8 H8A 107.7
C7 C8 H8A 107.7
C9 C8 H8B 107.7
C7 C8 H8B 107.7
H8A C8 H8B 107.1
C14 C13 C12 120.59(18)
C14 C13 H13 119.7
C12 C13 H13 119.7
C3 C2 C1 120.71(19)
C3 C2 H2 119.6
C1 C2 H2 119.6
C4 C3 C2 119.64(18)
C4 C3 H3 120.2
C2 C3 H3 120.2
C15 C14 C13 118.62(18)
C15 C14 H14 120.7
C13 C14 H14 120.7
C3 C4 C5 120.07(19)
C3 C4 H4 120
C5 C4 H4 120
C7 C10 H10A 109.5
C7 C10 H10B 109.5
H10A C10 H10B 109.5
C7 C10 H10C 109.5
H10A C10 H10C 109.5
H10B C10 H10C 109.5
C15 C16 C17 118.26(18)
C15 C16 H16 120.9
C17 C16 H16 120.9
C4 C5 C6 120.9(2)
C4 C5 H5 119.6
C6 C5 H5 119.6
F1 C15 C16 118.47(18)
F1 C15 C14 118.80(18)
C16 C15 C14 122.73(18)
F2 C9 F3 107.5(2)
F2 C9 F4 106.5(2)
F3 C9 F4 104.46(19)
F2 C9 C8 114.70(18)
F3 C9 C8 110.58(19)
F4 C9 C8 112.4(2)
loop_
_geom_bond_atom_site_label_1
_geom_bond_atom_site_label_2
_geom_bond_distance
O1 C11 1.348(2)
O1 C7 1.459(2)
F1 C15 1.358(2)
F4 C9 1.338(3)
F2 C9 1.307(3)
N1 C11 1.271(2)
N1 C1 1.409(2)
F3 C9 1.327(3)
C1 C6 1.387(3)
C1 C2 1.390(3)
C11 C12 1.475(2)
C12 C17 1.386(2)
C12 C13 1.390(3)
C7 C10 1.515(3)
C7 C6 1.517(2)
C7 C8 1.532(3)
C17 C16 1.378(3)
C17 H17 0.95
C6 C5 1.387(3)
C8 C9 1.499(3)
C8 H8A 0.99
C8 H8B 0.99
C13 C14 1.376(3)
C13 H13 0.95
C2 C3 1.377(3)
C2 H2 0.95
C3 C4 1.375(3)
C3 H3 0.95
C14 C15 1.367(3)
C14 H14 0.95
C4 C5 1.380(3)
C4 H4 0.95
C10 H10A 0.98
C10 H10B 0.98
C10 H10C 0.98
C16 C15 1.365(3)
C16 H16 0.95
C5 H5 0.95
