#------------------------------------------------------------------------------
#$Date: 2018-10-05 15:19:55 +0300 (Fri, 05 Oct 2018) $
#$Revision: 211332 $
#$URL: file:///home/coder/svn-repositories/cod/cif/7/15/41/7154127.cif $
#------------------------------------------------------------------------------
#
# This file is available in the Crystallography Open Database (COD),
# http://www.crystallography.net/
#
# All data on this site have been placed in the public domain by the
# contributors.
#
data_7154127
loop_
_publ_author_name
'Yagishita, Fumitoshi'
'Baba, Nozomi'
'Ueda, Yuki'
'Katabira, Satoshi'
'Kasashima, Yoshio'
'Mino, Takashi'
'Sakamoto, Masami'
_publ_section_title
;
 Diastereoselective photodimerization reactions of chromone-2-carboxamides
 to construct a C2-chiral scaffold.
;
_journal_issue                   47
_journal_name_full               'Organic &amp; biomolecular chemistry'
_journal_page_first              9644
_journal_page_last               9649
_journal_paper_doi               10.1039/c4ob01827c
_journal_volume                  12
_journal_year                    2014
_chemical_absolute_configuration syn
_chemical_formula_sum            'C16 H19 N O3'
_chemical_formula_weight         273.32
_chemical_melting_point          359.5(5)
_chemical_name_systematic        (R)-N-(1-t-Butylethyl)-2-chromonecarboxamide
_space_group_crystal_system      triclinic
_space_group_IT_number           1
_space_group_name_Hall           'P 1'
_space_group_name_H-M_alt        'P 1'
_symmetry_space_group_name_Hall  'P 1'
_symmetry_space_group_name_H-M   'P 1'
_atom_sites_solution_hydrogens   geom
_atom_sites_solution_primary     'SHELXT(George Sheldrick, 2012)'
_atom_sites_solution_secondary   difmap
_cell_angle_alpha                64.4240(19)
_cell_angle_beta                 82.5940(19)
_cell_angle_gamma                89.9950(19)
_cell_formula_units_Z            2
_cell_length_a                   5.9167(9)
_cell_length_b                   10.9747(17)
_cell_length_c                   12.2265(18)
_cell_measurement_reflns_used    1299
_cell_measurement_temperature    173
_cell_measurement_theta_max      27.0350
_cell_measurement_theta_min      3.3295
_cell_volume                     708.78(19)
_computing_cell_refinement       'SAINT V8.32B (Bruker AXS Inc., 2013)'
_computing_data_reduction        'SAINT V8.32B (Bruker AXS Inc., 2013)'
_computing_structure_refinement  'SHELXL-2013 (Sheldrick, 2013)'
_diffrn_ambient_temperature      173
_diffrn_detector_area_resol_mean 8.3333
_diffrn_measured_fraction_theta_full 0.974
_diffrn_measured_fraction_theta_max 0.974
_diffrn_measurement_device_type  'Bruker APEX-II CCD'
_diffrn_measurement_method       '\f and \w scans'
_diffrn_radiation_monochromator  'graphite '
_diffrn_radiation_type           'MoK\a '
_diffrn_radiation_wavelength     0.71073
_diffrn_reflns_av_R_equivalents  0.0147
_diffrn_reflns_limit_h_max       7
_diffrn_reflns_limit_h_min       -7
_diffrn_reflns_limit_k_max       9
_diffrn_reflns_limit_k_min       -13
_diffrn_reflns_limit_l_max       15
_diffrn_reflns_limit_l_min       -13
_diffrn_reflns_number            3806
_diffrn_reflns_theta_full        26.37
_diffrn_reflns_theta_max         26.37
_diffrn_reflns_theta_min         2.06
_diffrn_source                   'fine-focus sealed tube'
_exptl_absorpt_coefficient_mu    0.088
_exptl_absorpt_correction_T_max  0.98
_exptl_absorpt_correction_T_min  0.92
_exptl_absorpt_correction_type   empirical
_exptl_absorpt_process_details   'SADABS V2012/1 (Bruker AXS Inc.)'
_exptl_crystal_colour            colourless
_exptl_crystal_density_diffrn    1.281
_exptl_crystal_density_method    'not measured'
_exptl_crystal_description       prismatic
_exptl_crystal_F_000             292
_exptl_crystal_recrystallization_method
'Re-crystallisation from solvent: CHCl3/hexane'
_exptl_crystal_size_max          0.300
_exptl_crystal_size_mid          0.300
_exptl_crystal_size_min          0.200
_refine_diff_density_max         0.166
_refine_diff_density_min         -0.234
_refine_ls_abs_structure_details
;
Flack x determined using 366 quotients [(I+)-(I-)]/[(I+)+(I-)]
(Parsons and Flack (2004), Acta Cryst. A60, s61).
;
_refine_ls_abs_structure_Flack   -0.7(10)
_refine_ls_extinction_method     none
_refine_ls_goodness_of_fit_ref   1.042
_refine_ls_hydrogen_treatment    constr
_refine_ls_matrix_type           full
_refine_ls_number_parameters     369
_refine_ls_number_reflns         3228
_refine_ls_number_restraints     107
_refine_ls_restrained_S_all      1.024
_refine_ls_R_factor_all          0.0441
_refine_ls_R_factor_gt           0.0398
_refine_ls_shift/su_max          0.000
_refine_ls_shift/su_mean         0.000
_refine_ls_structure_factor_coef Fsqd
_refine_ls_weighting_details
'w=1/[\s^2^(Fo^2^)+(0.0635P)^2^+0.0180P] where P=(Fo^2^+2Fc^2^)/3'
_refine_ls_weighting_scheme      calc
_refine_ls_wR_factor_gt          0.1003
_refine_ls_wR_factor_ref         0.1043
_reflns_number_gt                2931
_reflns_number_total             3228
_reflns_threshold_expression     'I > 2\s(I)'
_cod_data_source_file            c4ob01827c2.cif
_cod_data_source_block           I
_cod_depositor_comments
;
The following automatic conversions were performed:

'_chemical_melting_point' value '359-360' was changed to '359.5(5)' -
the average value was taken and precision was estimated.

Automatic conversion script
Id: cif_fix_values 2827 2014-09-09 07:05:25Z andrius 

 Adding full bibliography for 7154126--7154132.cif.
;
_cod_database_code               7154127
_shelx_res_file
;
TITL saka492_P1 in P1
CELL  0.71073   5.9167  10.9747  12.2265   64.424   82.594   89.995
ZERR    2.00   0.00090   0.00170   0.00180   0.0019   0.0019   0.0019
LATT -1
SFAC C  H  N  O
UNIT 32  38  2  6
OMIT 0
L.S. 50
SHEL 999 0.8
ACTA
BOND $h
FMAP 2
PLAN 5
CONF
SIZE 0.300 0.300 0.200
DELU
TEMP -100
WGHT    0.063500    0.018000
FVAR       1.01682
C1    1    0.267318    0.820606    0.171569    11.00000    0.02868    0.01935 =
         0.02327   -0.00757   -0.00301   -0.00265
C2    1    0.085574    0.765873    0.149450    11.00000    0.03158    0.01991 =
         0.03243   -0.00862   -0.00673   -0.00052
AFIX  43
H2    2    0.048648    0.671358    0.194349    11.00000   -1.20000
AFIX   0
C3    1   -0.055018    0.846478    0.059522    11.00000    0.02262    0.02498 =
         0.03045   -0.01526   -0.00185   -0.00322
C4    1    0.003971    0.992406    0.005314    11.00000    0.02626    0.02319 =
         0.02335   -0.01176   -0.00347    0.00252
C5    1   -0.128348    1.087428   -0.073492    11.00000    0.02364    0.03129 =
         0.02925   -0.01554   -0.00644    0.00194
AFIX  43
H5    2   -0.263168    1.057788   -0.091916    11.00000   -1.20000
AFIX   0
C6    1   -0.065220    1.223227   -0.124515    11.00000    0.03367    0.02718 =
         0.02608   -0.01061   -0.00638    0.00893
AFIX  43
H6    2   -0.156485    1.287267   -0.177527    11.00000   -1.20000
AFIX   0
C7    1    0.134459    1.266778   -0.097959    11.00000    0.03681    0.02022 =
         0.02374   -0.00815    0.00042   -0.00093
AFIX  43
H7    2    0.179131    1.360628   -0.134636    11.00000   -1.20000
AFIX   0
C8    1    0.266238    1.176558   -0.020155    11.00000    0.02768    0.02205 =
         0.02160   -0.00971   -0.00053    0.00031
AFIX  43
H8    2    0.401717    1.206864   -0.002846    11.00000   -1.20000
AFIX   0
C9    1    0.197875    1.039437    0.033165    11.00000    0.02174    0.02303 =
         0.02016   -0.01020   -0.00062    0.00149
C10   1    0.417186    0.745863    0.267880    11.00000    0.03051    0.01993 =
         0.02575   -0.00698   -0.00679   -0.00039
C11   1    0.549923    0.521980    0.394798    11.00000    0.02306    0.02442 =
         0.02627   -0.01137   -0.00808    0.00087
AFIX  13
H11   2    0.664808    0.579264    0.408053    11.00000   -1.20000
AFIX   0
C12   1    0.680107    0.432241    0.345990    11.00000    0.02909    0.03328 =
         0.03572   -0.01688   -0.00428    0.00388
AFIX 137
H12A  2    0.571793    0.377896    0.328298    11.00000   -1.50000
H12B  2    0.770339    0.372130    0.407462    11.00000   -1.50000
H12C  2    0.782163    0.488812    0.270726    11.00000   -1.50000
AFIX   0
C13   1    0.394103    0.442381    0.518473    11.00000    0.02696    0.03156 =
         0.02562   -0.01029   -0.00624    0.00789
C14   1    0.260318    0.540866    0.555623    11.00000    0.05283    0.04942 =
         0.03317   -0.01346    0.00158    0.02246
AFIX 137
H14A  2    0.157755    0.587637    0.495559    11.00000   -1.50000
H14B  2    0.366937    0.607394    0.558515    11.00000   -1.50000
H14C  2    0.170409    0.490766    0.636637    11.00000   -1.50000
AFIX   0
C15   1    0.546094    0.367235    0.616797    11.00000    0.04515    0.04210 =
         0.02852   -0.00739   -0.01162    0.01456
AFIX 137
H15A  2    0.450492    0.319078    0.696392    11.00000   -1.50000
H15B  2    0.653208    0.432509    0.621246    11.00000   -1.50000
H15C  2    0.631613    0.302146    0.595521    11.00000   -1.50000
AFIX   0
C16   1    0.228778    0.341736    0.510251    11.00000    0.03954    0.04287 =
         0.04427   -0.00562    0.00038   -0.00916
AFIX 137
H16A  2    0.125048    0.297820    0.587612    11.00000   -1.50000
H16B  2    0.314517    0.273123    0.494592    11.00000   -1.50000
H16C  2    0.140130    0.389349    0.443247    11.00000   -1.50000
AFIX   0
C17   1    0.799674    0.454676    1.020187    11.00000    0.02487    0.02002 =
         0.02599   -0.01057   -0.00467    0.00336
C18   1    0.989509    0.506688    1.037413    11.00000    0.03030    0.02082 =
         0.02792   -0.01070   -0.00551   -0.00149
AFIX  43
H18   2    1.037661    0.598848    0.986464    11.00000   -1.20000
AFIX   0
C19   1    1.122780    0.425631    1.131869    11.00000    0.02472    0.02730 =
         0.02808   -0.01688   -0.00535    0.00615
C20   1    1.046736    0.282169    1.195516    11.00000    0.02337    0.02707 =
         0.02409   -0.01623   -0.00510    0.00572
C21   1    1.170359    0.185883    1.278609    11.00000    0.03161    0.03067 =
         0.02544   -0.01560   -0.00963    0.00540
AFIX  43
H21   2    1.304989    0.214246    1.298210    11.00000   -1.20000
AFIX   0
C22   1    1.100836    0.050894    1.332525    11.00000    0.04034    0.03099 =
         0.02285   -0.00968   -0.01196    0.00814
AFIX  43
H22   2    1.189156   -0.013754    1.387076    11.00000   -1.20000
AFIX   0
C23   1    0.898432    0.009019    1.306532    11.00000    0.03535    0.02169 =
         0.02248   -0.00537   -0.00344    0.00089
AFIX  43
H23   2    0.848813   -0.084169    1.344892    11.00000   -1.20000
AFIX   0
C24   1    0.771127    0.101477    1.226099    11.00000    0.02464    0.02593 =
         0.02460   -0.01021   -0.00341    0.00012
AFIX  43
H24   2    0.633397    0.073208    1.209136    11.00000   -1.20000
AFIX   0
C25   1    0.848113    0.236872    1.170277    11.00000    0.02319    0.02189 =
         0.02124   -0.00941   -0.00408    0.00506
C26   1    0.663382    0.525480    0.916054    11.00000    0.02635    0.02182 =
         0.02966   -0.01074   -0.00576    0.00019
C27   1    0.598779    0.735348    0.744106    11.00000    0.02965    0.02468 =
         0.02460   -0.00654   -0.01009    0.00197
AFIX  13
H27   2    0.449429    0.689474    0.748751    11.00000   -1.20000
AFIX   0
C28   1    0.765781    0.719425    0.645398    11.00000    0.05887    0.03527 =
         0.03229   -0.01750   -0.00559    0.01190
AFIX 137
H28A  2    0.915532    0.761817    0.639343    11.00000   -1.50000
H28B  2    0.708736    0.763245    0.566433    11.00000   -1.50000
H28C  2    0.780109    0.623007    0.667155    11.00000   -1.50000
AFIX   0
C29   1    0.554147    0.882198    0.717555    11.00000    0.02771    0.02548 =
         0.02609   -0.00822   -0.00609    0.00565
C30   1    0.442083    0.945357    0.600123    11.00000    0.04354    0.04396 =
         0.03092   -0.00930   -0.01124    0.01422
AFIX 137
H30A  2    0.311195    0.886363    0.607263    11.00000   -1.50000
H30B  2    0.553524    0.955617    0.529607    11.00000   -1.50000
H30C  2    0.390159    1.034318    0.588706    11.00000   -1.50000
AFIX   0
C31   1    0.773520    0.967030    0.698993    11.00000    0.03779    0.02269 =
         0.04266   -0.01013   -0.00263   -0.00131
AFIX 137
H31A  2    0.736598    1.060171    0.681253    11.00000   -1.50000
H31B  2    0.878704    0.966844    0.630248    11.00000   -1.50000
H31C  2    0.845655    0.928367    0.773599    11.00000   -1.50000
AFIX   0
C32   1    0.386812    0.885141    0.823260    11.00000    0.03521    0.04178 =
         0.03693   -0.01622   -0.00455    0.01273
AFIX 137
H32A  2    0.247775    0.829299    0.836155    11.00000   -1.50000
H32B  2    0.347776    0.978538    0.802894    11.00000   -1.50000
H32C  2    0.458087    0.849463    0.898195    11.00000   -1.50000
AFIX   0
N1    3    0.422774    0.612465    0.299141    11.00000    0.03016    0.02268 =
         0.02306   -0.00872   -0.01000    0.00083
AFIX  43
H1    2    0.346881    0.578194    0.260503    11.00000   -1.20000
AFIX   0
N2    3    0.681282    0.660844    0.863153    11.00000    0.03202    0.02018 =
         0.02858   -0.00936   -0.01334    0.00050
AFIX  43
H2A   2    0.741484    0.704962    0.898852    11.00000   -1.20000
AFIX   0
O1    4    0.332762    0.953396    0.113618    11.00000    0.02792    0.01772 =
         0.02612   -0.00669   -0.00808    0.00065
O2    4   -0.209956    0.796848    0.029980    11.00000    0.03532    0.02735 =
         0.04609   -0.01799   -0.01506   -0.00036
O3    4    0.512995    0.805063    0.315264    11.00000    0.05400    0.02343 =
         0.04682   -0.01447   -0.02751    0.00121
O4    4    0.719722    0.324462    1.086325    11.00000    0.02323    0.02145 =
         0.02893   -0.00807   -0.00771    0.00130
O5    4    1.288650    0.473256    1.156315    11.00000    0.03131    0.03264 =
         0.04201   -0.02117   -0.01414    0.00066
O6    4    0.558871    0.457611    0.879153    11.00000    0.04549    0.02485 =
         0.04263   -0.01196   -0.02166   -0.00077
HKLF 4

REM  saka492_P1 in P1
REM R1 =  0.0398 for    2931 Fo > 4sig(Fo)  and  0.0441 for all    3228 data
REM    369 parameters refined using    107 restraints

END

WGHT      0.0613      0.0063

REM Highest difference peak  0.166,  deepest hole -0.234,  1-sigma level  0.045
Q1    1   0.0676  1.0159  0.0374  11.00000  0.05    0.17
Q2    1   0.3110  0.8639  0.3417  11.00000  0.05    0.15
Q3    1   0.6182  0.9813  0.4166  11.00000  0.05    0.15
Q4    1   0.4720  0.4719  0.4539  11.00000  0.05    0.14
Q5    1   0.4258  0.0741  1.2506  11.00000  0.05    0.14
;
_shelx_res_checksum              29406
_shelx_hkl_file
;
  -1   0   0  173.88    3.00
  -2   0   0  273.27    5.10
   2   0   0  265.27    4.90
  -3   0   0   22.70    1.70
   3   0   0   21.60    1.50
  -4   0   0   31.50    2.30
   4   0   0   31.60    2.10
  -5   0   0   12.60    2.00
   5   0   0   13.00    1.90
  -6   0   0   18.70    2.80
  -7   0   0   29.70    3.70
  -7   1   0   22.40    3.30
  -6   1   0   17.70    2.60
   5  -1   0    0.70    0.70
  -5   1   0    1.70    1.00
   4  -1   0   18.00    1.90
  -4   1   0   21.30    2.20
   3  -1   0  267.37    5.70
  -3   1   0  263.07    5.90
   2  -1   0  342.77    5.80
  -2   1   0  343.87    5.90
  -1   1   0 1898.21   23.20
   0  -1   0   42.70    1.00
  -1  -1   0 1597.74   17.70
   1   1   0 1575.04   17.90
  -2  -1   0 1382.26   16.90
  -2  -1   0 1376.06   14.30
   2   1   0 1366.36   17.00
  -3  -1   0   32.30    2.00
   3   1   0   36.20    2.00
  -4  -1   0    2.90    1.00
   4   1   0    2.80    1.00
  -5  -1   0   34.40    3.30
   5   1   0   33.30    3.00
  -6  -1   0   23.60    3.00
  -7  -1   0   93.79    5.60
  -7   2   0   19.10    3.00
  -6   2   0    6.30    1.80
   5  -2   0   76.09    3.70
  -5   2   0   65.79    3.70
   4  -2   0  106.49    4.00
  -4   2   0  107.89    4.10
   3  -2   0  157.18    4.30
  -3   2   0  153.78    4.30
  -2   2   0    0.30    0.40
  -1   2   0  248.58    4.10
   0  -2   0 1217.88   13.70
  -1  -2   0  569.94    7.00
  -1  -2   0  558.74    7.90
  -2  -2   0  156.58    2.70
  -2  -2   0  156.18    4.00
  -3  -2   0   76.79    3.20
  -3  -2   0   76.99    1.70
  -4  -2   0   43.20    2.80
   4   2   0   44.20    2.60
  -5  -2   0   24.10    2.90
  -6  -2   0   23.70    3.10
  -7  -2   0    7.30    2.20
  -7   3   0   55.49    5.00
  -6   3   0   82.29    4.70
   5  -3   0    4.10    1.20
  -5   3   0    2.40    1.00
   4  -3   0   77.19    3.40
  -4   3   0   68.79    3.30
  -3   3   0  735.53   11.60
  -2   3   0  309.37    5.80
   1  -3   0  129.49    3.10
   0  -3   0  237.88    4.40
  -1  -3   0  643.14    8.60
  -1  -3   0  646.44    9.30
  -2  -3   0  249.18    4.30
  -2  -3   0  237.38    5.50
  -3  -3   0   45.40    2.60
  -3  -3   0   44.50    1.50
  -4  -3   0  119.99    4.80
  -5  -3   0    6.00    1.50
  -6  -3   0    5.70    1.70
  -7  -3   0    8.70    2.20
  -7   4   0   12.80    2.60
  -6   4   0   24.50    3.10
   5  -4   0   37.40    2.80
  -5   4   0   25.90    2.80
  -4   4   0    0.70    0.80
  -3   4   0   18.20    1.80
   2  -4   0  103.49    3.40
   1  -4   0  334.67    6.10
   0  -4   0  854.71   11.60
  -1  -4   0  465.35    7.90
  -1  -4   0  462.75    7.50
  -2  -4   0   19.10    1.30
  -2  -4   0   22.30    2.10
  -3  -4   0   57.09    3.10
  -4  -4   0  156.38    5.60
  -5  -4   0    1.20    0.90
  -6  -4   0   18.20    3.00
  -7   5   0   27.90    3.60
  -6   5   0   23.30    3.10
   5  -5   0    6.30    1.50
  -5   5   0    8.50    1.80
  -4   5   0   18.20    2.20
   2  -5   0  117.39    3.90
   1  -5   0    8.40    1.10
   0  -5   0   78.79    2.90
  -1  -5   0  456.45    8.10
  -1  -5   0  452.95    8.30
  -2  -5   0    7.50    1.10
  -2  -5   0    6.20    1.30
  -3  -5   0   31.20    2.80
  -4  -5   0   63.39    3.80
  -5  -5   0    1.20    1.00
  -6  -5   0    2.50    1.40
  -6   6   0   45.50    4.30
  -5   6   0   18.20    2.50
   3  -6   0  145.29    5.00
   2  -6   0    3.10    0.90
   1  -6   0   30.40    2.00
   0  -6   0  145.89    4.40
  -1  -6   0   26.60    2.30
  -1  -6   0   24.10    2.30
  -2  -6   0  184.68    5.70
  -2  -6   0  190.58    5.10
  -3  -6   0  480.35   10.70
  -4  -6   0  432.36   10.90
  -5  -6   0    2.10    1.40
  -6  -6   0    0.50    1.20
   5  -7   0   28.70    3.30
   4  -7   0   32.60    3.20
   3  -7   0   58.89    3.30
   2  -7   0   33.00    2.30
   1  -7   0  161.38    5.00
   0  -7   0   41.10    2.70
   0  -7   0   41.60    2.50
  -1  -7   0   38.30    2.50
  -1  -7   0   34.70    2.40
  -2  -7   0    4.80    1.10
  -2  -7   0    6.50    1.50
  -3  -7   0    2.00    1.10
  -4  -7   0    8.70    2.00
  -5  -7   0    1.80    1.30
  -6  -7   0   33.20    4.80
   4  -8   0   26.90    3.00
   3  -8   0   23.90    2.80
   2  -8   0  625.64   12.00
   1  -8   0   76.09    3.70
   0  -8   0   54.39    3.10
   0  -8   0   55.99    3.40
  -1  -8   0    1.40    0.90
  -1  -8   0    1.10    0.80
  -2  -8   0    1.90    1.00
  -2  -8   0    2.00    0.90
  -3  -8   0    3.20    1.20
  -4  -8   0   10.70    2.30
  -5  -8   0    5.60    1.90
   3  -9   0   55.19    3.60
   2  -9   0   20.10    2.50
   1  -9   0   88.09    4.20
   1  -9   0   83.29    4.60
   0  -9   0   20.10    2.50
   0  -9   0   20.70    2.70
  -1  -9   0   97.19    4.70
  -1  -9   0   88.49    4.40
  -2  -9   0    2.40    1.30
  -2  -9   0    0.10    0.70
  -3  -9   0   28.90    3.50
  -4  -9   0   16.80    3.10
  -5  -9   0    4.00    1.90
   5 -10   0    2.10    1.60
   4 -10   0    4.30    1.90
   3 -10   0    3.40    1.50
   2 -10   0    6.20    1.60
   2 -10   0    4.30    1.50
   1 -10   0    7.20    1.70
   1 -10   0    5.10    1.70
   0 -10   0   20.10    2.60
   0 -10   0   16.00    2.50
  -1 -10   0   69.79    4.20
  -1 -10   0   67.69    4.20
  -2 -10   0   13.50    2.40
  -3 -10   0    1.20    1.30
  -4 -10   0  101.19    6.00
   4 -11   0    8.90    2.60
   3 -11   0   59.19    5.60
   2 -11   0    1.60    1.30
   1 -11   0    4.70    1.80
   1 -11   0    9.30    2.00
   0 -11   0   47.50    4.20
   0 -11   0   42.90    4.40
  -1 -11   0   24.10    3.20
  -1 -11   0   28.30    3.40
  -2 -11   0    1.00    1.20
  -3 -11   0    1.60    1.50
   2 -12   0    4.10    1.70
   1 -12   0   74.29    5.20
   0 -12   0   16.60    3.00
  -1 -12   0    3.30    1.60
  -1 -12   0    4.10    1.80
  -2 -12   0    4.20    1.90
  -1 -12   1    0.10    1.20
   0 -12   1   38.00    4.40
   1 -12   1   51.49    5.10
   2 -12   1   43.80    5.50
  -3 -11   1    1.10    1.40
  -2 -11   1   17.10    2.90
  -1 -11   1    1.00    1.20
   0 -11   1    6.20    2.10
   1 -11   1   21.60    3.30
   2 -11   1    5.50    2.00
   3 -11   1    4.70    1.80
  -4 -10   1   39.90    4.70
  -3 -10   1   13.70    2.70
  -2 -10   1    6.40    1.70
  -1 -10   1    4.80    1.60
  -1 -10   1    7.60    1.80
   0 -10   1   56.39    3.60
   0 -10   1   59.39    4.10
   1 -10   1   29.20    3.50
   2 -10   1    2.10    1.20
   3 -10   1   -0.20    1.00
   4 -10   1    3.90    1.80
  -4  -9   1   24.30    3.40
  -3  -9   1   -0.60    1.00
  -2  -9   1    0.60    1.00
  -2  -9   1   -0.30    0.70
  -1  -9   1  248.28    7.60
  -1  -9   1  255.37    7.90
   0  -9   1    9.00    1.70
   0  -9   1    7.30    1.70
   1  -9   1   77.89    4.50
   1  -9   1   68.19    3.60
   2  -9   1   11.80    2.30
   3  -9   1   25.20    3.20
   4  -9   1   13.70    2.60
   5  -9   1    4.00    1.80
  -5  -8   1    6.40    2.20
  -4  -8   1    1.20    1.20
  -3  -8   1   16.40    2.60
  -2  -8   1    1.30    0.90
  -2  -8   1    1.80    1.00
  -1  -8   1   12.90    2.10
  -1  -8   1    9.70    1.70
   0  -8   1    5.40    1.40
   0  -8   1    9.00    1.70
   1  -8   1  125.29    4.60
   1  -8   1  124.89    5.40
   2  -8   1  818.82   14.00
   2  -8   1  816.52   15.80
   3  -8   1   13.10    2.30
   3  -8   1   14.10    2.10
   4  -8   1    6.50    1.70
   5  -8   1    0.30    1.00
  -5  -7   1   21.60    3.30
  -4  -7   1   72.79    4.50
  -3  -7   1    5.00    1.40
  -2  -7   1    5.90    1.30
  -2  -7   1    4.70    1.20
  -1  -7   1    4.40    1.20
  -1  -7   1    3.60    1.10
   0  -7   1    7.70    1.50
   0  -7   1   11.50    1.60
   1  -7   1  380.26    9.20
   1  -7   1  383.26    8.10
   2  -7   1  124.29    5.20
   2  -7   1  126.39    4.50
   3  -7   1  193.98    6.00
   4  -7   1  298.67    8.10
   5  -7   1   25.80    3.30
  -6  -6   1   -0.30    1.40
  -5  -6   1   23.40    3.30
  -4  -6   1  300.67    8.90
  -3  -6   1   27.90    3.00
  -2  -6   1   21.30    2.40
  -2  -6   1   31.20    2.20
  -1  -6   1   79.29    3.40
  -1  -6   1   75.29    3.40
   0  -6   1  152.88    5.00
   0  -6   1  145.29    4.40
   1  -6   1   40.10    2.20
   1  -6   1   41.10    2.70
   2  -6   1   22.70    2.20
   3  -6   1  267.87    6.80
   4  -6   1  103.49    4.50
  -6  -5   1   48.50    4.80
  -5  -5   1   63.19    4.30
  -4  -5   1  185.18    6.60
  -3  -5   1   75.99    3.80
  -2  -5   1   51.39    2.80
  -2  -5   1   56.69    2.60
  -1  -5   1  433.46    8.10
  -1  -5   1  414.96    8.10
   0  -5   1    4.80    1.10
   0  -5   1    5.70    1.00
   1  -5   1   69.79    2.70
   2  -5   1   26.70    1.80
   3  -5   1  148.69    4.70
  -4   5  -1   91.39    3.90
  -5   5  -1    3.40    1.20
   5  -5   1    4.20    1.30
  -6  -4   1    4.00    1.60
  -5  -4   1   65.59    4.10
  -4  -4   1  407.96    9.90
  -3  -4   1  150.38    5.20
  -2  -4   1   48.90    2.60
  -2  -4   1   53.89    2.30
  -1  -4   1  408.56    7.30
  -1  -4   1  407.86    7.40
   0  -4   1  986.00   13.80
   0  -4   1 1001.00   12.90
   1  -4   1  727.43   10.20
   2  -4   1  452.05    7.80
  -3   4  -1  188.48    5.00
  -4   4  -1   41.20    2.60
  -5   4  -1   55.39    3.30
   5  -4   1   59.69    3.60
  -6   4  -1   40.90    3.80
  -7  -3   1    0.80    1.50
  -6  -3   1   38.10    4.10
  -5  -3   1   25.60    3.00
  -4  -3   1   56.39    3.30
  -3  -3   1   30.70    2.70
  -3  -3   1   29.70    1.50
  -2  -3   1   25.90    1.40
  -2  -3   1   25.90    1.80
  -1  -3   1   10.80    1.20
  -1  -3   1   12.60    1.20
   0  -3   1  211.18    4.50
   0  -3   1  214.98    4.00
   1  -3   1  165.18    3.50
  -2   3  -1  846.82   11.40
  -3   3  -1  988.20   13.90
  -4   3  -1  311.37    7.20
   4  -3   1  306.37    7.60
  -5   3  -1   46.10    3.10
   5  -3   1   37.10    3.40
  -6   3  -1   26.50    3.20
  -7   3  -1    9.20    2.30
  -7  -2   1    9.90    2.50
  -6  -2   1   12.30    2.30
  -5  -2   1    2.00    0.90
  -4  -2   1   45.00    2.90
  -3  -2   1  138.49    4.50
  -3  -2   1  133.99    3.00
  -2  -2   1  167.88    3.40
  -2  -2   1  167.78    4.30
  -1  -2   1  141.79    3.10
  -1  -2   1  140.39    3.20
   0  -2   1   11.50    0.70
   1  -2   1  715.23    8.80
  -2   2  -1  351.86    5.90
  -3   2  -1   60.09    2.50
   3  -2   1   55.39    2.70
  -4   2  -1   16.50    1.90
   4  -2   1   17.50    2.10
  -5   2  -1  601.04   11.90
   5  -2   1  586.34   12.00
  -6   2  -1  112.59    5.20
  -7   2  -1    6.00    1.80
  -7  -1   1   59.99    5.40
  -6  -1   1   20.10    2.90
  -5  -1   1   22.80    2.70
   4   1  -1    5.00    1.10
  -4  -1   1    6.60    1.40
  -3  -1   1   36.60    2.20
  -3  -1   1   37.40    1.40
  -2  -1   1  137.49    3.70
  -2  -1   1  140.29    2.80
  -1  -1   1   77.49    1.90
  -1  -1   1   80.59    2.20
   0  -1   1  612.64    7.50
   0  -1   1  619.94    6.90
  -1   1  -1   33.90    1.10
  -2   1  -1 1125.49   13.70
  -3   1  -1  175.58    4.50
   3  -1   1  179.68    4.80
  -4   1  -1   12.90    1.70
   4  -1   1   11.40    1.70
  -5   1  -1   53.49    3.30
   5  -1   1   49.90    3.20
  -6   1  -1   96.19    4.90
   6  -1   1   86.29    4.60
  -7   1  -1   18.20    3.00
  -7   0   1    0.30    1.30
  -6   0   1   26.10    3.20
   5   0  -1   14.90    2.00
  -5   0   1   16.90    2.40
   4   0  -1   22.10    2.10
  -4   0   1   25.00    2.50
   3   0  -1  412.06    7.20
  -3   0   1  395.96    7.80
  -3   0   1  401.86    6.10
   2   0  -1  301.37    5.10
  -2   0   1  304.37    5.70
  -2   0   1  297.67    4.50
  -1   0   1 4503.95   53.19
  -1   0   1 4739.13   51.69
  -1   0  -1  212.98    3.20
   1   0   1  217.38    2.90
   1   0   1  217.78    3.70
  -2   0  -1   89.59    2.50
   2   0   1   86.19    2.70
  -3   0  -1    1.10    0.50
   3   0   1    1.10    0.60
  -4   0  -1   16.90    1.90
   4   0   1   23.90    2.30
  -5   0  -1   75.49    3.90
   5   0   1   74.49    3.80
  -6   0  -1   38.70    3.70
   6   0   1   36.70    3.60
  -7   0  -1    1.20    1.30
  -7   1   1   10.90    2.40
  -6   1   1   11.20    2.20
   5  -1  -1   18.10    2.10
  -5   1   1   17.80    2.40
   4  -1  -1    5.50    1.10
  -4   1   1    4.40    1.10
   3  -1  -1   97.79    3.00
  -3   1   1   95.69    3.50
   2  -1  -1  811.32   10.30
  -2   1   1  808.72   11.10
   1  -1  -1 1156.28   12.50
  -1   1   1 1147.19   12.70
  -1   1   1 1134.99   13.20
   0   1   1   15.60    0.70
  -1  -1  -1 2657.23   31.90
   1   1   1 2648.73   28.90
  -2  -1  -1  560.74    8.30
   2   1   1  566.74    8.70
  -3  -1  -1  373.06    7.30
   3   1   1  382.76    7.50
  -4  -1  -1   14.40    1.80
   4   1   1   17.60    2.00
  -5  -1  -1   27.80    2.90
   5   1   1   31.00    3.10
  -6  -1  -1   26.90    3.30
   6   1   1   30.60    3.40
  -7  -1  -1   25.80    3.40
  -7   2   1    3.90    1.60
  -6   2   1  103.39    5.20
  -5   2   1   42.50    3.70
   4  -2  -1   33.40    2.00
  -4   2   1   36.10    3.10
   3  -2  -1  234.58    5.10
  -3   2   1  244.48    5.80
  -2   2   1   88.19    2.80
  -1   2   1   97.49    2.40
   0  -2  -1  141.69    2.80
  -1  -2  -1  203.18    3.90
  -2  -2  -1  156.48    2.00
  -2  -2  -1  160.68    3.90
   2   2   1  154.28    4.00
  -3  -2  -1 1049.99   15.00
   3   2   1 1070.09   15.60
  -4  -2  -1  138.49    4.80
   4   2   1  132.29    4.80
  -5  -2  -1   29.80    3.10
   5   2   1   31.40    3.10
  -6  -2  -1   67.39    4.30
   6   2   1   65.19    4.00
  -7  -2  -1    9.00    2.20
  -7   3   1   64.79    4.70
  -6   3   1  284.37    8.90
  -5   3   1   26.90    2.90
   4  -3  -1   12.10    1.60
  -4   3   1    9.40    1.60
  -3   3   1   39.10    2.30
  -2   3   1   16.40    1.50
   1  -3  -1  118.69    3.10
   0  -3  -1 1455.85   17.00
  -2  -3  -1  156.98    4.20
  -2  -3  -1  152.88    2.70
  -3  -3  -1  109.79    4.00
  -4  -3  -1   49.20    3.00
  -5  -3  -1    3.20    1.20
  -6  -3  -1   57.89    4.90
  -7  -3  -1   31.90    3.90
  -7   4   1    1.40    1.30
  -6   4   1  332.67    9.80
  -5   4   1   36.50    3.60
   4  -4  -1   77.79    3.40
  -4   4   1   86.39    3.90
  -3   4   1  115.09    4.00
  -2   4   1  176.48    4.50
   1  -4  -1  254.57    5.30
   0  -4  -1  112.79    3.20
  -1  -4  -1 1086.79   14.50
  -2  -4  -1   20.40    1.90
  -2  -4  -1   20.80    1.20
  -3  -4  -1   23.30    2.30
  -4  -4  -1    5.30    1.40
  -5  -4  -1    0.80    0.80
  -6  -4  -1    6.10    1.70
  -7  -4  -1    5.10    1.90
  -7   5   1   19.30    3.30
  -6   5   1    4.00    1.60
  -5   5   1   66.59    4.00
  -4   5   1   37.10    2.70
  -3   5   1  442.66    8.90
   2  -5  -1   37.40    2.20
   1  -5  -1  189.58    4.80
   0  -5  -1 1498.25   18.90
  -1  -5  -1   16.90    1.70
  -2  -5  -1   11.30    1.50
  -2  -5  -1   12.80    1.30
  -3  -5  -1  352.86    8.40
  -4  -5  -1   27.30    2.90
  -5  -5  -1   17.80    2.60
  -6  -5  -1    2.40    1.30
  -6   6   1    0.30    1.00
  -5   6   1    0.00    0.70
  -4   6   1    8.50    1.70
   3  -6  -1   84.19    3.90
   2  -6  -1  224.18    6.00
   1  -6  -1   79.69    3.20
   0  -6  -1  642.24   10.80
  -1  -6  -1  207.48    5.60
  -2  -6  -1   14.60    1.60
  -2  -6  -1   13.00    1.80
  -3  -6  -1  863.21   15.20
  -4  -6  -1  421.06   10.50
  -5  -6  -1    3.10    1.20
  -6  -6  -1    7.70    2.10
  -6   7   1   15.70    2.70
   4  -7  -1   26.50    3.00
   3  -7  -1  131.69    5.10
   2  -7  -1  258.37    6.90
   1  -7  -1   68.79    3.30
   0  -7  -1   43.90    2.60
  -1  -7  -1   29.50    2.70
  -2  -7  -1   84.49    3.50
  -2  -7  -1   92.49    4.10
  -3  -7  -1   99.09    4.70
  -4  -7  -1  221.28    7.70
  -5  -7  -1   46.40    4.60
  -6  -7  -1    8.90    2.60
   6  -8  -1   11.20    2.60
   5  -8  -1   61.69    4.30
   4  -8  -1   78.89    4.40
   3  -8  -1  277.07    7.90
   2  -8  -1   10.30    1.70
   1  -8  -1   15.00    2.00
   0  -8  -1   47.60    2.90
  -1  -8  -1   80.29    3.90
  -1  -8  -1   78.79    3.80
  -2  -8  -1   31.80    3.10
  -2  -8  -1   37.80    2.60
  -3  -8  -1    2.30    1.10
  -4  -8  -1   62.99    4.30
  -5  -8  -1   93.59    5.60
   5  -9  -1   51.79    4.80
   3  -9  -1  303.47    8.60
   2  -9  -1  219.08    7.00
   1  -9  -1  121.59    5.00
   0  -9  -1    8.70    1.70
  -1  -9  -1   60.49    3.60
  -1  -9  -1   64.09    3.70
  -2  -9  -1   30.50    3.30
  -2  -9  -1   13.80    2.30
  -3  -9  -1   21.00    3.10
  -4  -9  -1   28.90    3.80
  -5  -9  -1    4.80    1.90
   4 -10  -1    9.60    2.20
   3 -10  -1   34.10    3.70
   2 -10  -1   28.20    3.20
   1 -10  -1   17.00    2.50
   0 -10  -1   22.70    3.10
   0 -10  -1   23.30    2.70
  -1 -10  -1  126.79    5.50
  -1 -10  -1  141.99    5.90
  -2 -10  -1   11.70    2.30
  -3 -10  -1   32.70    3.80
  -4 -10  -1   40.70    4.40
   2 -11  -1    5.80    1.60
   1 -11  -1    0.20    0.90
   1 -11  -1    1.20    1.10
   0 -11  -1    4.10    1.50
   0 -11  -1    2.80    1.30
  -1 -11  -1   35.50    3.90
  -1 -11  -1   27.70    3.30
  -2 -11  -1   21.20    3.20
  -3 -11  -1    1.70    1.50
   3 -12  -1    2.60    1.80
   2 -12  -1    5.00    2.00
   1 -12  -1   -0.20    1.10
   1 -12  -1    0.90    1.10
   0 -12  -1   11.30    2.50
   0 -12  -1   11.40    2.40
  -1 -12  -1   24.00    3.50
  -1 -12  -1   21.20    3.10
  -2 -12  -1    0.60    1.30
   1 -13  -1    4.50    1.90
   0 -13  -1    4.00    1.70
  -1 -11   2    2.50    1.60
   0 -11   2    3.90    1.70
   1 -11   2   16.60    3.00
   2 -11   2   12.70    2.60
   3 -11   2   15.90    3.20
  -3 -10   2    7.00    2.10
  -2 -10   2    2.20    1.40
  -1 -10   2    1.30    1.00
   0 -10   2   17.70    2.90
   1 -10   2   40.00    4.30
   2 -10   2   32.80    3.90
   3 -10   2   12.00    2.60
   4 -10   2    4.60    1.90
  -4  -9   2    2.60    1.70
  -3  -9   2    1.50    1.20
  -2  -9   2   18.10    2.70
  -1  -9   2    7.50    1.70
  -1  -9   2    1.80    1.10
   0  -9   2   23.30    3.10
   1  -9   2   32.30    3.60
   2  -9   2   44.50    4.40
   3  -9   2    4.90    1.70
   4  -9   2    5.10    1.90
   5  -9   2    0.80    1.40
  -5  -8   2    7.90    2.50
  -4  -8   2    7.30    2.10
  -3  -8   2   14.80    2.50
  -2  -8   2  149.49    5.90
  -2  -8   2  154.18    6.00
  -1  -8   2   27.90    2.90
  -1  -8   2   28.90    3.20
   0  -8   2  174.38    6.50
   0  -8   2  185.18    5.80
   1  -8   2  246.78    6.50
   1  -8   2  244.38    7.90
   2  -8   2  286.47    8.70
   3  -8   2   27.00    3.30
   4  -8   2    1.90    1.10
   5  -8   2    6.50    1.90
  -5  -7   2   21.20    3.30
  -4  -7   2   12.70    2.40
  -3  -7   2    0.00    0.70
  -2  -7   2   14.00    2.10
  -2  -7   2   15.40    2.20
  -1  -7   2    3.30    1.10
  -1  -7   2    2.60    1.10
   0  -7   2   22.30    2.60
   0  -7   2   19.80    2.10
   1  -7   2    3.30    1.20
   1  -7   2    2.30    0.90
   2  -7   2  273.67    8.00
   2  -7   2  276.07    6.70
   3  -7   2   11.40    2.10
   4  -7   2   89.99    4.80
   5  -7   2    8.60    1.90
  -5  -6   2    3.60    1.70
  -4  -6   2   20.70    2.90
  -3  -6   2   14.60    2.20
  -2  -6   2   33.30    3.00
  -2  -6   2   30.80    2.70
  -1  -6   2  140.79    5.00
  -1  -6   2  135.59    4.60
   0  -6   2   10.80    1.70
   0  -6   2   10.30    1.40
   1  -6   2   34.20    3.00
   1  -6   2   31.30    1.90
   2  -6   2  165.38    4.70
   2  -6   2  169.38    5.80
   3  -6   2   19.60    2.00
   3  -6   2   23.10    2.70
   4  -6   2   46.90    3.30
   5  -6   2  114.99    5.30
  -6  -5   2   18.20    3.30
  -5  -5   2  141.69    6.40
  -4  -5   2  119.39    5.40
  -3  -5   2   27.90    2.80
  -2  -5   2    7.30    1.30
  -2  -5   2    5.00    1.10
  -1  -5   2   94.99    3.70
  -1  -5   2   98.29    3.50
   0  -5   2  213.48    5.80
   0  -5   2  214.98    5.00
   1  -5   2   13.90    1.70
   1  -5   2   17.90    1.60
   2  -5   2   97.29    3.20
   2  -5   2   92.39    4.00
   3  -5   2   21.70    2.10
   3  -5   2   21.10    2.40
   4  -5   2   44.20    3.00
   5  -5   2   21.70    2.80
   6  -5   2    7.40    2.00
  -6  -4   2    5.40    1.90
  -5  -4   2  136.09    6.10
  -4  -4   2  239.48    7.40
  -3  -4   2  287.77    7.40
  -3  -4   2  299.27    6.30
  -2  -4   2  306.57    6.60
  -2  -4   2  303.17    7.00
  -1  -4   2  128.69    4.00
  -1  -4   2  133.99    3.80
   0  -4   2    5.20    0.80
   0  -4   2    4.70    1.00
   1  -4   2  249.48    5.90
   1  -4   2  240.08    4.80
   2  -4   2  237.88    5.00
   2  -4   2  243.58    6.10
  -3   4  -2   53.29    2.40
   3  -4   2   50.99    2.80
  -4   4  -2   48.80    2.70
   4  -4   2   52.69    3.00
  -5   4  -2   17.10    2.30
   5  -4   2   14.00    2.30
   6  -4   2   13.80    2.50
  -6  -3   2   -1.00    1.00
  -5  -3   2   15.20    2.40
  -4  -3   2   52.89    3.40
  -3  -3   2   26.90    1.70
  -3  -3   2   30.10    2.70
  -2  -3   2   93.39    3.10
  -2  -3   2  105.59    3.60
  -1  -3   2 1447.16   17.60
  -1  -3   2 1404.66   17.80
   0  -3   2   70.19    2.60
   0  -3   2   69.79    2.10
   1  -3   2   70.29    2.70
   1  -3   2   73.39    2.10
   2  -3   2 1094.39   13.80
   2  -3   2 1096.19   15.00
  -3   3  -2   35.90    1.90
   3  -3   2   34.60    2.10
  -4   3  -2    1.50    0.80
   4  -3   2    4.00    1.30
   4  -3   2    2.50    0.80
  -5   3  -2  121.69    4.80
   5  -3   2  118.09    5.20
  -6   3  -2    0.70    1.00
   6  -3   2    1.80    1.20
  -7  -2   2   12.60    3.00
  -6  -2   2   12.00    2.30
  -5  -2   2   26.10    3.20
  -4  -2   2   59.79    3.40
  -3  -2   2   44.40    1.90
  -3  -2   2   40.90    2.40
  -2  -2   2  124.79    3.30
  -2  -2   2  125.69    3.70
  -1  -2   2  228.48    4.50
  -1  -2   2  232.38    4.70
   0  -2   2   80.29    2.60
   0  -2   2   80.79    1.90
   1  -2   2  749.33   10.50
   1  -2   2  765.32    9.00
  -2   2  -2 1235.08   14.60
   2  -2   2 1237.28   15.60
  -3   2  -2  176.68    4.30
   3  -2   2  178.08    4.40
  -4   2  -2   98.39    3.70
   4  -2   2   90.69    4.00
   4  -2   2   94.39    3.20
  -5   2  -2  399.36    9.00
   5  -2   2  405.36   10.00
  -6   2  -2  225.98    7.30
   6  -2   2  230.38    7.80
  -7   2  -2    9.50    2.10
  -7  -1   2   49.40    4.90
  -6  -1   2   16.20    2.70
  -5  -1   2   22.30    2.60
  -4  -1   2   42.60    2.80
  -3  -1   2   48.70    2.00
  -3  -1   2   47.40    2.60
  -2  -1   2  176.58    3.80
  -2  -1   2  174.38    4.30
  -1  -1   2 1901.71   20.90
  -1  -1   2 1869.71   21.00
   0  -1   2  783.72   10.00
   0  -1   2  768.62    8.60
  -1   1  -2   73.89    1.40
  -2   1  -2   11.70    1.00
   2  -1   2   10.40    1.00
  -3   1  -2   68.39    2.60
   3  -1   2   64.99    3.00
   3  -1   2   63.69    2.20
  -4   1  -2   27.30    2.00
   4  -1   2   30.60    1.60
   4  -1   2   32.80    2.40
  -5   1  -2  123.69    4.80
   5  -1   2  114.69    4.90
  -6   1  -2  187.18    6.70
   6  -1   2  197.38    7.10
  -7   1  -2   10.10    2.30
  -7   0   2   10.30    2.40
  -6   0   2    1.50    1.20
  -5   0   2    7.30    1.60
  -4   0   2  546.45   10.90
  -3   0   2  250.27    6.00
  -3   0   2  249.58    4.80
  -2   0   2  787.02   11.10
  -2   0   2  764.02   10.00
  -1   0   2 1171.48   13.70
  -1   0   2 1173.28   13.60
   0   0   2  232.98    3.00
  -1   0  -2  467.35    5.50
   1   0   2  460.35    6.10
  -2   0  -2  552.24    7.80
   2   0   2  571.74    9.00
   2   0   2  573.34    7.10
  -3   0  -2    2.70    0.70
   3   0   2    3.00    0.90
   3   0   2    3.40    0.50
  -4   0  -2   64.89    3.00
   4   0   2   63.59    3.20
  -5   0  -2   20.60    2.40
   5   0   2   22.70    2.60
  -6   0  -2   75.39    4.30
   6   0   2   92.59    4.80
  -7   0  -2   21.00    3.00
  -7   1   2    8.20    2.10
  -6   1   2   17.80    2.80
  -5   1   2    5.90    1.60
   4  -1  -2   25.60    1.70
  -4   1   2   32.10    2.90
   3  -1  -2  169.28    3.90
  -3   1   2  173.28    4.90
  -3   1   2  173.68    4.00
   2  -1  -2  136.89    2.70
  -2   1   2  139.29    3.20
  -2   1   2  136.39    3.70
  -1   1   2 5139.79   57.29
  -1   1   2 5005.20   58.39
   0  -1  -2 1019.20   11.20
   0   1   2 1019.20   11.30
  -1  -1  -2 2077.39   23.90
   1   1   2 2115.29   23.60
   1   1   2 2074.49   23.90
  -2  -1  -2   17.00    1.10
   2   1   2   19.80    0.70
   2   1   2   20.20    1.40
  -3  -1  -2   59.79    2.50
   3   1   2   51.99    2.60
   3   1   2   58.99    1.10
  -4  -1  -2    4.30    1.00
   4   1   2    6.00    1.30
  -5  -1  -2   20.10    2.50
   5   1   2   19.30    2.40
  -6  -1  -2   90.09    4.70
   6   1   2   80.09    4.60
  -7  -1  -2   19.40    3.00
  -7   2   2   23.20    3.50
  -6   2   2    5.10    1.60
  -5   2   2   43.30    3.80
   4  -2  -2   18.50    1.70
  -4   2   2   19.20    2.20
   3  -2  -2   75.39    2.40
  -3   2   2   78.79    3.20
   2  -2  -2   76.19    1.90
  -2   2   2   75.59    2.70
  -1   2   2 1894.91   21.10
  -1   2   2 1934.01   21.50
   0  -2  -2 3665.43   45.80
   0   2   2 3788.42   41.90
  -1  -2  -2 1776.12   19.80
   1   2   2 1798.82   20.80
   1   2   2 1783.52   18.50
  -2  -2  -2  611.94    9.00
   2   2   2  594.94    9.60
  -3  -2  -2  461.25    8.40
   3   2   2  457.75    8.90
  -4  -2  -2    5.60    1.20
   4   2   2    6.80    1.40
  -5  -2  -2    3.10    1.10
   5   2   2    4.80    1.40
  -6  -2  -2   56.39    3.80
   6   2   2   66.19    4.20
  -7  -2  -2    7.10    2.00
  -7   3   2   46.30    4.90
  -6   3   2  256.47    8.60
  -5   3   2   62.89    3.80
   4  -3  -2   28.80    1.80
  -4   3   2   30.50    2.80
   3  -3  -2   20.40    1.30
  -3   3   2   17.60    1.90
  -2   3   2   26.20    1.70
   0  -3  -2  208.28    4.10
  -2  -3  -2  198.18    4.70
   2   3   2  206.98    5.10
  -3  -3  -2  494.55    9.20
   3   3   2  484.45    9.60
  -4  -3  -2    6.10    1.30
   4   3   2    6.10    1.40
  -5  -3  -2   59.59    3.60
   5   3   2   58.89    3.70
  -6  -3  -2  123.49    5.80
   6   3   2  131.59    5.90
  -7  -3  -2    4.70    1.80
  -7   4   2   12.70    2.70
  -6   4   2   80.49    4.80
  -5   4   2  132.59    5.60
   4  -4  -2   53.89    2.60
  -4   4   2   53.39    3.20
  -3   4   2   56.49    2.90
  -2   4   2  322.27    6.60
   1  -4  -2   71.59    2.70
   0  -4  -2  254.67    5.20
  -1  -4  -2  605.94    9.40
  -2  -4  -2 1200.08   16.40
  -3  -4  -2  270.97    6.70
  -4  -4  -2   26.00    2.70
  -5  -4  -2    1.90    1.00
  -6  -4  -2   22.50    3.00
  -7  -4  -2    4.10    1.80
  -7   5   2   11.20    2.40
  -6   5   2   18.90    3.00
  -5   5   2  125.69    5.50
  -4   5   2  311.67    8.10
  -3   5   2  494.45    9.80
   2  -5  -2    7.20    1.20
   1  -5  -2  229.48    5.40
   0  -5  -2  526.75    9.00
  -1  -5  -2   51.99    2.50
  -2  -5  -2   34.80    2.20
  -3  -5  -2    3.90    1.10
  -4  -5  -2   22.30    2.60
  -5  -5  -2   24.80    3.00
  -6  -5  -2   -0.50    0.90
  -7  -5  -2    0.70    1.40
  -6   6   2   11.20    2.30
  -5   6   2   31.40    3.30
  -4   6   2   65.89    3.70
   3  -6  -2   60.79    3.40
   2  -6  -2   40.30    2.50
   1  -6  -2  246.28    6.10
   0  -6  -2  620.44   10.60
  -1  -6  -2   52.79    2.70
  -2  -6  -2   70.89    3.40
  -3  -6  -2  506.05   10.80
  -4  -6  -2  184.38    6.60
  -5  -6  -2    0.20    0.90
  -6  -6  -2   30.90    3.70
  -6   7   2   10.00    2.30
  -5   7   2    4.70    1.60
   4  -7  -2   20.30    2.70
   3  -7  -2   18.40    2.40
   2  -7  -2   37.10    2.50
   1  -7  -2   84.99    3.70
   0  -7  -2    6.00    1.20
  -1  -7  -2  260.17    6.80
  -2  -7  -2  244.78    7.00
  -2  -7  -2  249.97    6.00
  -3  -7  -2    5.20    1.40
  -4  -7  -2   82.99    4.60
  -5  -7  -2   17.60    2.80
  -6  -7  -2   17.20    3.00
   6  -8  -2   37.30    4.30
   5  -8  -2   29.80    3.60
   4  -8  -2   83.29    4.60
   3  -8  -2    9.00    1.70
   2  -8  -2  105.59    4.50
   1  -8  -2   12.40    1.90
   0  -8  -2    2.80    1.00
  -1  -8  -2   52.99    3.20
  -2  -8  -2   86.89    3.70
  -2  -8  -2   83.19    4.30
  -3  -8  -2  100.99    4.90
  -4  -8  -2    1.90    1.30
  -5  -8  -2   24.60    3.50
   5  -9  -2   32.30    3.80
   4  -9  -2   19.80    2.90
   3  -9  -2  423.56   10.70
   2  -9  -2  158.28    6.00
   1  -9  -2    6.20    1.50
   0  -9  -2   16.50    2.20
  -1  -9  -2   10.50    1.90
  -2  -9  -2   14.50    2.40
  -3  -9  -2  137.99    6.10
  -4  -9  -2    1.10    1.30
  -5  -9  -2   27.20    4.00
   5 -10  -2   16.20    2.90
   4 -10  -2    0.80    1.10
   3 -10  -2  101.49    5.20
   2 -10  -2  285.77    8.60
   1 -10  -2   28.80    3.20
   0 -10  -2   14.90    2.20
  -1 -10  -2   13.10    2.30
  -1 -10  -2   13.60    2.30
  -2 -10  -2    9.50    2.10
  -3 -10  -2   13.00    2.40
  -4 -10  -2   46.40    4.80
   4 -11  -2    1.30    1.40
   3 -11  -2   16.00    2.70
   2 -11  -2   35.00    3.80
   1 -11  -2   17.40    2.70
   0 -11  -2   81.79    4.50
  -1 -11  -2   30.90    3.50
  -1 -11  -2   31.40    3.60
  -2 -11  -2    6.90    1.80
  -3 -11  -2    8.90    2.20
  -4 -11  -2   10.40    2.60
   3 -12  -2    3.10    1.60
   2 -12  -2    3.50    1.60
   1 -12  -2    0.20    0.90
   0 -12  -2   12.10    2.40
   0 -12  -2   16.00    2.90
  -1 -12  -2   14.40    2.60
  -1 -12  -2   11.50    2.40
  -2 -12  -2   32.50    3.90
  -3 -12  -2   45.80    5.00
   2 -13  -2   28.40    4.10
   1 -13  -2   13.90    2.70
   1 -13  -2   21.20    3.20
   0 -13  -2    0.20    1.20
   0 -13  -2   -0.10    1.20
  -1 -13  -2    1.70    1.60
  -1 -11   3    7.40    2.30
   0 -11   3   16.30    3.10
   1 -11   3   43.00    4.90
   2 -11   3    3.70    1.80
  -1 -10   3    3.30    1.60
   0 -10   3   53.19    5.00
   1 -10   3    1.70    1.40
   2 -10   3   17.10    3.00
   3 -10   3   23.50    3.50
   4 -10   3   10.20    2.70
  -3  -9   3    2.90    1.50
  -1  -9   3   19.00    2.80
   0  -9   3   57.89    4.10
   1  -9   3    5.70    1.80
   2  -9   3   43.10    4.30
   3  -9   3    1.60    1.20
   4  -9   3    7.20    2.20
   5  -9   3   36.10    4.30
  -4  -8   3    6.10    2.00
  -3  -8   3   11.20    2.30
  -2  -8   3  185.38    6.60
  -2  -8   3  187.68    7.00
  -1  -8   3   22.40    2.60
  -1  -8   3   15.90    2.40
   0  -8   3   13.80    2.30
   2  -8   3   18.30    2.70
   3  -8   3   22.50    3.20
   4  -8   3    1.50    1.20
   5  -8   3    6.40    1.90
  -5  -7   3   23.50    3.60
  -4  -7   3   12.10    2.40
  -3  -7   3   11.70    2.10
  -2  -7   3   40.30    3.50
  -2  -7   3   41.20    3.70
  -1  -7   3   27.10    2.70
  -1  -7   3   19.00    2.50
   0  -7   3   26.20    2.40
   0  -7   3   22.60    2.70
   1  -7   3  285.17    8.40
   2  -7   3  216.88    7.30
   3  -7   3   54.29    3.70
   4  -7   3   24.70    3.20
   5  -7   3   18.80    2.90
   6  -7   3    0.60    1.50
  -5  -6   3   49.10    4.80
  -4  -6   3   34.70    3.80
  -3  -6   3    7.40    1.70
  -2  -6   3    8.80    1.60
  -1  -6   3   48.90    3.10
  -1  -6   3   50.39    2.80
   0  -6   3   32.70    2.10
   0  -6   3   25.80    2.70
   1  -6   3  236.98    7.10
   1  -6   3  235.18    5.40
   2  -6   3  970.50   16.60
   3  -6   3  256.17    7.70
   4  -6   3   50.79    3.50
   5  -6   3   12.50    2.20
   6  -6   3    3.50    1.70
  -6  -5   3    4.50    2.10
  -5  -5   3   47.30    4.60
  -4  -5   3   69.09    4.20
  -3  -5   3    3.90    1.20
  -2  -5   3   12.20    1.80
  -2  -5   3   14.40    1.90
  -1  -5   3   59.49    2.80
  -1  -5   3   60.69    3.20
   0  -5   3   80.39    3.70
   0  -5   3   80.59    2.90
   1  -5   3   46.00    2.00
   1  -5   3   47.50    2.90
   2  -5   3  104.99    4.40
   2  -5   3  105.49    3.30
   3  -5   3   61.39    3.50
   4  -5   3   42.50    3.00
   6  -5   3    7.20    2.00
  -6  -4   3    7.20    2.30
  -5  -4   3  149.49    6.50
  -4  -4   3  396.56   10.00
  -3  -4   3    5.90    1.30
  -3  -4   3    8.70    1.40
  -2  -4   3  186.58    5.40
  -2  -4   3  194.08    5.40
  -1  -4   3  146.49    4.10
  -1  -4   3  131.79    4.50
   0  -4   3   52.89    2.10
   0  -4   3   55.59    2.80
   1  -4   3   70.29    3.20
   1  -4   3   74.59    2.30
   2  -4   3   97.69    3.90
   2  -4   3   97.69    2.80
   3  -4   3   45.90    2.80
   3  -4   3   41.90    2.10
   4  -4   3   13.20    2.00
   5  -4   3    2.70    1.40
   6  -4   3    2.20    1.40
  -6  -3   3   12.30    2.60
  -5  -3   3   17.90    2.70
  -4  -3   3   55.19    3.50
  -3  -3   3    0.50    0.60
  -3  -3   3    2.70    0.80
  -2  -3   3  154.48    4.50
  -2  -3   3  145.59    4.40
  -1  -3   3 1048.40   14.80
  -1  -3   3 1038.60   13.90
   0  -3   3   42.00    2.30
   0  -3   3   40.70    1.60
   1  -3   3   54.19    2.50
   1  -3   3   54.19    1.70
   2  -3   3   77.09    3.10
   2  -3   3   76.39    2.30
  -3   3  -3   35.30    1.80
   3  -3   3   33.00    2.10
  -4   3  -3   18.80    1.90
   4  -3   3   14.50    1.80
   5  -3   3   20.60    2.80
   6  -3   3   70.89    4.60
  -6  -2   3    8.30    2.30
  -5  -2   3   47.40    4.20
  -4  -2   3   15.50    2.30
  -3  -2   3    2.80    0.80
  -3  -2   3    3.10    1.00
  -2  -2   3  457.05    7.90
  -2  -2   3  436.96    8.10
  -1  -2   3   47.90    2.20
  -1  -2   3   52.89    2.00
   0  -2   3  149.29    2.90
   0  -2   3  150.88    4.00
   1  -2   3 1414.76   17.60
   1  -2   3 1389.56   14.90
  -2   2  -3  605.74    8.00
   2  -2   3  628.04    9.70
  -3   2  -3   60.19    2.30
   3  -2   3   61.39    2.60
  -4   2  -3   25.90    1.80
   4  -2   3   25.90    1.80
   4  -2   3   28.80    2.90
  -5   2  -3  136.79    4.80
   5  -2   3  126.89    5.60
   6  -2   3  135.49    6.20
  -6  -1   3    4.80    1.70
  -5  -1   3   36.80    3.60
  -4  -1   3   86.99    4.10
  -3  -1   3   53.49    2.80
  -3  -1   3   52.09    2.30
  -2  -1   3  169.28    4.10
  -2  -1   3  164.38    4.30
  -1  -1   3  357.36    5.80
  -1  -1   3  342.87    6.20
   0  -1   3  464.55    7.40
   0  -1   3  469.45    5.80
   1  -1   3   28.50    1.50
  -2   1  -3   52.89    1.60
   2  -1   3   52.39    2.10
  -3   1  -3    8.90    1.10
   3  -1   3    5.10    0.80
   3  -1   3    8.60    1.50
  -4   1  -3   30.90    2.00
   4  -1   3   32.30    1.70
   4  -1   3   34.00    2.60
  -5   1  -3  146.19    5.10
   5  -1   3  142.89    5.80
  -6   1  -3   11.20    2.00
   6  -1   3   10.90    2.30
   7  -1   3   30.50    3.90
  -7   0   3    2.50    1.40
  -6   0   3   10.80    2.30
  -5   0   3   24.00    2.90
  -4   0   3  252.27    7.10
  -3   0   3  151.48    3.90
  -3   0   3  146.49    4.60
  -2   0   3  178.78    4.40
  -2   0   3  181.58    4.10
  -1   0   3 1288.87   15.20
  -1   0   3 1296.97   15.60
   0   0   3  571.14    8.10
   0   0   3  570.44    6.60
  -1   0  -3  628.04    6.80
   1   0   3  642.14    8.60
  -2   0  -3   81.99    2.10
   2   0   3   80.99    3.00
   2   0   3   79.19    2.30
  -3   0  -3  293.57    5.70
   3   0   3  295.57    5.00
   3   0   3  299.07    7.00
  -4   0  -3    1.20    0.60
   4   0   3    0.70    0.70
  -5   0  -3  206.58    6.20
   5   0   3  203.28    6.80
  -6   0  -3    9.40    2.00
   6   0   3   10.70    2.30
  -7   0  -3    1.60    1.20
   7   0   3    3.90    1.70
  -7   1   3   17.60    3.20
  -6   1   3    9.10    2.10
  -5   1   3    3.20    1.20
  -4   1   3   93.79    3.30
  -3   1   3 1224.48   15.80
  -3   1   3 1214.38   17.30
  -2   1   3  756.32   11.10
  -2   1   3  743.63   10.40
  -1   1   3 3364.26   39.70
  -1   1   3 3409.06   40.70
   0   1   3 2113.19   23.00
  -1  -1  -3    1.70    0.40
   1   1   3    1.60    0.40
   1   1   3    2.60    0.60
  -2  -1  -3  138.89    3.10
   2   1   3  131.89    3.90
   2   1   3  137.49    2.60
  -3  -1  -3   26.80    1.70
   3   1   3   25.90    1.00
   3   1   3   28.00    2.50
  -4  -1  -3   21.20    2.10
   4   1   3   24.40    2.60
  -5  -1  -3   49.90    3.10
   5   1   3   47.30    3.30
  -6  -1  -3   21.60    2.70
   6   1   3   17.80    2.70
  -7  -1  -3    3.80    1.60
   7   1   3    3.50    1.70
  -7   2   3    4.10    1.80
  -6   2   3    4.80    1.60
  -5   2   3    8.10    1.80
  -4   2   3    9.90    1.70
   3  -2  -3  105.89    2.60
  -3   2   3  103.39    3.40
  -3   2   3  106.89    3.90
   2  -2  -3  151.28    2.40
  -2   2   3  148.49    4.10
  -2   2   3  149.79    3.90
  -1   2   3 9373.26  108.69
  -1   2   3 9999.00  107.49
   0  -2  -3 2602.54   29.20
   0   2   3 2642.04   31.90
   0   2   3 2576.24   27.70
  -1  -2  -3  293.57    4.80
   1   2   3  288.17    5.30
   1   2   3  300.37    4.50
  -2  -2  -3   53.39    2.10
   2   2   3   50.79    2.30
   2   2   3   53.09    1.30
  -3  -2  -3   93.99    3.30
   3   2   3  104.29    3.90
  -4  -2  -3  120.19    4.30
   4   2   3  125.89    4.80
  -5  -2  -3   23.00    2.70
   5   2   3   23.40    2.90
  -6  -2  -3    1.20    1.00
   6   2   3    1.20    1.20
  -7  -2  -3    2.00    1.30
   7   2   3    1.10    1.40
  -7   3   3   27.30    3.60
  -6   3   3    3.40    1.50
  -5   3   3    8.70    1.80
  -4   3   3   29.40    2.90
   3  -3  -3   10.90    1.00
  -3   3   3   10.20    1.50
  -2   3   3   17.30    1.70
  -1   3   3  402.46    6.70
  -1   3   3  390.46    6.70
   0  -3  -3  254.07    4.80
   0   3   3  266.97    4.80
  -1  -3  -3   19.50    1.20
   1   3   3   18.60    1.30
  -2  -3  -3 1809.92   21.70
   2   3   3 1797.52   23.00
  -3  -3  -3   18.20    1.90
   3   3   3   11.90    1.70
  -4  -3  -3   32.00    2.30
   4   3   3   30.80    3.00
  -5  -3  -3   26.30    2.80
   5   3   3   31.30    3.30
  -6  -3  -3  162.18    6.50
   6   3   3  142.39    6.50
  -7  -3  -3    2.20    1.40
   7   3   3    3.80    1.70
  -7   4   3    0.80    1.10
  -6   4   3   26.40    3.40
  -5   4   3    3.10    1.30
  -4   4   3   56.39    3.40
   3  -4  -3   63.89    2.20
  -3   4   3   64.09    3.20
  -2   4   3  342.37    7.10
   1  -4  -3  228.48    5.20
   0  -4  -3  100.19    3.10
  -1  -4  -3  274.07    5.60
  -2  -4  -3   55.79    2.50
   2   4   3   56.19    2.70
  -3  -4  -3    2.90    0.80
   3   4   3    3.70    1.00
  -4  -4  -3   74.09    3.70
   4   4   3   76.29    4.00
  -5  -4  -3   89.59    4.50
   5   4   3   82.69    4.60
  -6  -4  -3    4.20    1.40
   6   4   3    4.90    1.60
  -7  -4  -3   16.50    2.90
  -7   5   3   91.59    5.80
  -6   5   3    4.50    1.70
  -5   5   3    6.90    1.70
  -4   5   3   44.40    3.10
  -3   5   3  209.38    6.10
   2  -5  -3  141.39    4.60
   1  -5  -3  637.64   10.60
   0  -5  -3  872.01   12.80
  -1  -5  -3  104.69    3.50
  -2  -5  -3  178.18    5.10
  -3  -5  -3   27.80    2.60
  -4  -5  -3    9.90    1.80
  -5  -5  -3   16.30    2.40
  -6  -5  -3   22.90    3.20
  -7  -5  -3   22.20    3.40
  -6   6   3   28.10    3.70
  -5   6   3   31.10    3.40
  -4   6   3    4.80    1.30
   2  -6  -3  131.39    4.70
   1  -6  -3  768.42   12.60
   0  -6  -3  392.66    8.00
  -1  -6  -3   73.09    3.20
  -2  -6  -3   33.80    2.30
  -3  -6  -3   63.39    3.40
  -4  -6  -3   31.10    3.20
  -5  -6  -3   50.99    4.50
  -6  -6  -3   40.00    4.30
  -6   7   3    2.30    1.40
  -5   7   3   11.00    2.20
   4  -7  -3   38.10    3.70
   3  -7  -3    0.40    0.60
   2  -7  -3   11.50    1.80
   1  -7  -3    0.60    0.60
   0  -7  -3  106.09    4.10
  -1  -7  -3   43.30    2.60
  -2  -7  -3  206.98    6.30
  -3  -7  -3  115.19    4.90
  -4  -7  -3   74.39    4.30
  -5  -7  -3   11.40    2.30
  -6  -7  -3    4.20    1.70
   6  -8  -3    3.70    1.80
   5  -8  -3    0.10    1.10
   4  -8  -3   32.80    3.70
   3  -8  -3    7.10    1.60
   2  -8  -3    5.60    1.40
   1  -8  -3  128.89    4.90
   0  -8  -3    2.00    0.80
  -1  -8  -3   61.49    3.40
  -2  -8  -3   12.50    1.90
  -3  -8  -3  950.20   17.20
  -4  -8  -3   23.80    3.10
  -5  -8  -3    0.20    1.00
  -6  -8  -3    0.90    1.40
   5  -9  -3   21.80    3.20
   4  -9  -3   75.79    4.70
   3  -9  -3  201.18    7.20
   2  -9  -3  124.49    5.30
   1  -9  -3    5.50    1.40
   0  -9  -3   38.50    3.40
  -1  -9  -3   10.50    1.80
  -2  -9  -3   15.40    2.40
  -3  -9  -3  241.58    8.10
  -4  -9  -3   49.99    4.70
  -5  -9  -3   42.90    4.60
   5 -10  -3   11.30    2.60
   4 -10  -3    0.50    1.00
   3 -10  -3   76.59    4.60
   2 -10  -3  194.78    7.10
   1 -10  -3   49.30    4.20
   0 -10  -3   18.90    2.50
  -1 -10  -3   33.20    3.40
  -2 -10  -3    5.50    1.70
  -3 -10  -3    9.10    2.20
  -4 -10  -3   10.30    2.40
  -5 -10  -3    2.00    1.70
   4 -11  -3   80.09    5.20
   3 -11  -3   36.50    4.00
   2 -11  -3   41.00    4.20
   1 -11  -3   45.70    4.30
   0 -11  -3  258.17    8.30
  -1 -11  -3   21.60    3.00
  -2 -11  -3   17.40    2.90
  -3 -11  -3    3.00    1.70
  -4 -11  -3   24.60    3.80
   4 -12  -3   28.80    3.90
   3 -12  -3   23.40    3.50
   2 -12  -3    4.80    1.80
   1 -12  -3    7.40    1.90
   0 -12  -3    1.80    1.20
  -1 -12  -3    1.60    1.30
  -1 -12  -3    1.70    1.30
  -2 -12  -3    4.80    1.90
  -3 -12  -3  124.49    6.80
   2 -13  -3    4.40    1.80
   1 -13  -3   14.80    2.90
   0 -13  -3   16.60    2.90
   0 -13  -3    7.10    2.10
  -1 -13  -3   12.40    2.60
  -2 -13  -3   10.50    2.70
  -1 -10   4    2.90    1.90
   0 -10   4   66.49    5.80
   1 -10   4   31.80    4.20
   2 -10   4   12.90    2.80
   3 -10   4    3.10    1.90
  -1  -9   4    1.10    1.30
   0  -9   4    7.50    2.10
   1  -9   4   19.70    3.10
   2  -9   4   17.60    2.80
   3  -9   4   32.00    3.90
   4  -9   4   71.89    5.10
  -4  -8   4    3.00    1.60
  -2  -8   4   14.80    2.50
  -1  -8   4   17.30    2.80
   0  -8   4   35.00    3.80
   1  -8   4    2.90    1.30
   2  -8   4    2.20    1.20
   3  -8   4    6.20    1.80
   4  -8   4   17.40    2.90
   5  -8   4   23.20    3.40
  -4  -7   4    7.60    2.00
  -3  -7   4    0.00    0.90
  -2  -7   4   15.00    2.50
  -2  -7   4   17.00    2.40
  -1  -7   4  110.59    5.30
   0  -7   4  220.58    7.50
   1  -7   4   43.10    4.00
   2  -7   4   38.30    3.80
   3  -7   4   44.50    4.20
   4  -7   4   42.50    4.30
   5  -7   4   10.20    2.30
  -5  -6   4   10.40    2.60
  -4  -6   4    1.90    1.30
  -3  -6   4    7.30    1.70
  -2  -6   4   20.90    2.60
  -2  -6   4   22.20    2.50
  -1  -6   4    9.30    1.80
  -1  -6   4    9.90    1.60
   0  -6   4   16.40    2.30
   1  -6   4 1873.81   26.70
   2  -6   4   29.20    3.10
   3  -6   4   82.89    4.50
   4  -6   4    4.10    1.40
   5  -6   4   11.90    2.30
   6  -6   4    6.70    2.20
  -5  -5   4    9.40    2.30
  -4  -5   4    4.40    1.50
  -3  -5   4   63.29    3.70
  -2  -5   4    8.70    1.50
  -2  -5   4   10.60    1.70
  -1  -5   4   10.10    1.70
  -1  -5   4   13.10    1.60
   0  -5   4  203.78    6.40
   0  -5   4  202.48    4.80
   1  -5   4   16.50    2.20
   2  -5   4   98.19    4.40
   3  -5   4   56.89    3.50
   4  -5   4   32.90    3.30
   6  -5   4    1.80    1.40
  -6  -4   4    1.60    1.70
  -5  -4   4   13.40    2.60
  -4  -4   4   50.69    3.60
  -3  -4   4   35.80    3.20
  -3  -4   4   34.10    2.90
  -2  -4   4    9.30    1.50
  -2  -4   4   11.10    1.70
  -1  -4   4   61.19    3.20
  -1  -4   4   70.59    2.80
   0  -4   4  121.19    4.50
   0  -4   4  118.89    3.30
   1  -4   4    2.70    0.60
   1  -4   4    1.30    0.60
   2  -4   4    7.70    1.40
   3  -4   4   20.10    2.40
   4  -4   4   27.70    2.70
   5  -4   4    8.90    2.10
   6  -4   4    5.90    1.80
   7  -4   4   -0.40    1.50
  -6  -3   4   28.40    3.70
  -5  -3   4  148.19    6.50
  -4  -3   4    4.60    1.40
  -3  -3   4  126.09    4.40
  -3  -3   4  127.09    4.80
  -2  -3   4  529.75    9.60
  -2  -3   4  532.85    9.90
  -1  -3   4   60.09    2.40
  -1  -3   4   57.49    2.90
   0  -3   4   10.00    1.00
   0  -3   4   10.10    1.50
   1  -3   4   10.50    1.50
   1  -3   4    9.10    0.80
   2  -3   4   74.79    3.30
   2  -3   4   73.09    2.00
   3  -3   4   42.50    2.50
   4  -3   4   12.00    1.70
   5  -3   4   78.39    4.60
   6  -3   4    6.30    2.10
   7  -3   4   11.70    2.70
  -6  -2   4    5.80    2.00
  -5  -2   4   49.00    4.40
  -4  -2   4   11.80    2.00
  -3  -2   4   11.60    1.70
  -3  -2   4   15.90    1.80
  -2  -2   4    3.50    0.90
  -2  -2   4    4.90    0.90
  -1  -2   4  607.04   10.20
  -1  -2   4  596.04    8.90
   0  -2   4  213.28    3.70
   0  -2   4  217.68    5.40
   1  -2   4 1207.28   12.70
   1  -2   4 1211.38   16.50
   2  -2   4  161.28    2.90
   2  -2   4  154.38    4.50
  -3   2  -4   60.49    2.10
   3  -2   4   58.19    2.70
   4  -2   4   78.29    4.10
   4  -2   4   74.29    3.20
   5  -2   4   44.30    4.20
   6  -2   4    6.60    1.90
   7  -2   4    4.10    1.70
  -6  -1   4    2.50    1.40
  -5  -1   4   64.39    4.10
  -4  -1   4  104.39    4.60
  -3  -1   4   23.10    2.00
  -3  -1   4   23.60    2.30
  -2  -1   4  207.98    5.10
  -2  -1   4  202.78    5.00
  -1  -1   4  178.18    4.60
  -1  -1   4  176.68    3.90
   0  -1   4   40.70    1.20
   0  -1   4   43.30    2.10
   1  -1   4  244.28    5.40
  -2   1  -4 3401.06   35.80
   2  -1   4 3402.46   37.30
  -3   1  -4  290.27    5.40
   3  -1   4  296.07    7.50
   3  -1   4  294.17    6.00
  -4   1  -4   93.09    3.40
   4  -1   4   96.79    3.20
   4  -1   4   94.69    4.40
  -5   1  -4   74.29    3.60
   5  -1   4   86.59    4.70
   6  -1   4   11.10    2.30
   7  -1   4    4.50    1.90
  -6   0   4    0.90    1.10
  -5   0   4  124.39    5.60
  -4   0   4   27.30    2.80
  -3   0   4    1.30    0.60
  -3   0   4    1.00    0.70
  -2   0   4  357.66    7.00
  -2   0   4  361.06    6.90
  -1   0   4  401.66    6.50
  -1   0   4  396.26    7.00
   0   0   4  580.04    9.00
   0   0   4  606.04    7.20
   1   0   4   13.20    1.30
  -2   0  -4  145.59    2.80
   2   0   4  140.19    4.40
   2   0   4  145.59    3.60
  -3   0  -4  159.08    3.80
   3   0   4  158.58    5.10
   3   0   4  155.38    3.80
  -4   0  -4  461.55    8.40
   4   0   4  450.25   10.30
  -5   0  -4  570.74   11.00
   5   0   4  589.24   12.80
  -6   0  -4    9.30    1.80
   6   0   4    7.50    2.00
   7   0   4    2.10    1.40
  -6   1   4    5.70    1.80
  -5   1   4    4.30    1.50
  -4   1   4    8.70    1.40
  -4   1   4    8.00    1.60
  -3   1   4  105.09    4.00
  -3   1   4  100.29    3.50
  -2   1   4  231.68    5.40
  -2   1   4  220.58    5.10
  -1   1   4  718.53   10.50
  -1   1   4  735.03    9.90
   0   1   4  990.80   12.90
   0   1   4 1004.00   11.50
  -1  -1  -4 1219.68   13.20
   1   1   4 1200.98   15.60
   1   1   4 1206.18   14.60
  -2  -1  -4   50.29    1.70
   2   1   4   50.79    2.50
   2   1   4   53.19    1.90
  -3  -1  -4   36.40    1.90
   3   1   4   35.70    1.50
   3   1   4   36.70    2.40
  -4  -1  -4   35.70    2.20
   4   1   4   34.70    2.60
  -5  -1  -4   55.49    3.20
   5   1   4   53.29    3.60
  -6  -1  -4   15.90    2.40
   6   1   4   14.80    2.60
  -7  -1  -4   64.19    4.60
   7   1   4   65.69    4.90
  -6   2   4    5.30    1.80
  -5   2   4   20.80    2.80
  -4   2   4   44.30    3.00
  -4   2   4   45.80    2.60
  -3   2   4   46.60    2.70
  -3   2   4   45.70    2.40
  -2   2   4  201.88    5.00
  -2   2   4  201.88    4.90
  -1   2   4 4457.95   52.89
  -1   2   4 4551.04   54.09
   0  -2  -4  715.03    9.40
   0   2   4  738.63    9.30
   0   2   4  735.83   10.10
  -1  -2  -4  613.84    8.10
   1   2   4  620.74    9.30
   1   2   4  613.44    8.40
  -2  -2  -4   45.90    1.80
   2   2   4   46.50    1.60
   2   2   4   45.20    2.30
  -3  -2  -4  108.59    3.50
   3   2   4  110.79    4.20
   3   2   4  109.89    2.20
  -4  -2  -4  168.68    5.10
   4   2   4  170.58    5.90
  -5  -2  -4   13.20    1.90
   5   2   4   16.40    2.40
  -6  -2  -4    7.80    1.80
   6   2   4   12.70    2.50
  -7  -2  -4   39.60    4.20
   7   2   4   38.40    4.50
  -6   3   4    8.40    2.10
  -5   3   4   11.40    2.00
  -4   3   4   29.20    2.90
  -3   3   4  199.18    5.40
  -3   3   4  197.78    5.70
  -2   3   4   30.10    1.90
  -2   3   4   30.50    1.90
  -1   3   4 1065.79   13.90
  -1   3   4 1051.99   14.10
   0  -3  -4  181.28    4.00
   0   3   4  175.58    4.00
   0   3   4  178.38    3.50
  -1  -3  -4   40.40    1.80
   1   3   4   43.40    1.70
   1   3   4   42.20    1.90
  -2  -3  -4 1030.20   13.80
   2   3   4 1046.90   12.10
   2   3   4 1024.40   15.00
  -3  -3  -4  143.99    4.30
  -4  -3  -4   73.79    3.40
   4   3   4   73.69    3.90
  -5  -3  -4   36.70    3.40
   5   3   4   38.80    3.80
  -6  -3  -4   33.30    3.50
   6   3   4   37.20    4.10
  -7  -3  -4   14.40    2.70
   7   3   4    8.20    2.30
  -6   4   4   11.00    2.40
  -5   4   4   57.39    3.90
  -4   4   4   95.49    4.50
  -3   4   4   44.50    2.70
  -2   4   4   14.10    1.70
   1  -4  -4   89.79    3.20
   0  -4  -4  172.98    4.20
   0   4   4  167.88    4.10
  -1  -4  -4    9.60    1.20
   1   4   4   11.30    1.40
  -2  -4  -4  115.49    3.70
   2   4   4  111.29    4.00
  -3  -4  -4  339.07    7.50
   3   4   4  344.37    8.30
  -4  -4  -4   86.19    3.90
   4   4   4   88.29    4.40
  -5  -4  -4  110.29    4.90
   5   4   4  131.99    5.90
  -6  -4  -4   46.20    4.20
   6   4   4   41.70    4.40
  -7  -4  -4    0.00    1.20
   7   4   4   -0.70    1.10
  -6   5   4   39.70    4.30
  -5   5   4   19.00    2.80
  -4   5   4   76.99    4.10
  -3   5   4   46.60    2.90
   1  -5  -4  367.46    7.60
   0  -5  -4  169.98    4.60
  -1  -5  -4    6.70    1.10
  -2  -5  -4   12.50    1.60
  -3  -5  -4  110.49    4.20
   3   5   4  105.59    4.40
  -4  -5  -4   13.90    2.10
   4   5   4    8.60    1.70
  -5  -5  -4   12.10    2.20
   5   5   4   12.30    2.20
  -6  -5  -4   18.70    2.90
  -7  -5  -4   11.40    2.50
  -6   6   4   72.69    4.90
  -5   6   4   33.60    3.80
  -4   6   4    9.60    1.90
  -3   6   4  203.38    6.40
   2  -6  -4  175.58    5.60
   1  -6  -4  290.37    6.90
   0  -6  -4  254.67    6.30
  -1  -6  -4    5.30    1.20
  -2  -6  -4   15.10    1.90
  -3  -6  -4   11.50    1.80
  -4  -6  -4   16.30    2.40
  -5  -6  -4   37.50    3.90
  -6  -6  -4    4.20    1.60
  -6   7   4    1.40    1.40
  -5   7   4    1.00    1.00
   3  -7  -4  138.39    5.60
   2  -7  -4   30.90    2.90
   1  -7  -4   80.29    3.70
   0  -7  -4  101.79    4.10
  -1  -7  -4  129.69    4.60
  -2  -7  -4  471.45   10.00
  -3  -7  -4  375.16    9.30
  -4  -7  -4  104.59    5.10
  -5  -7  -4   48.50    4.40
  -6  -7  -4    0.30    1.10
   5  -8  -4    3.30    1.60
   4  -8  -4   41.90    4.20
   3  -8  -4    4.30    1.40
   2  -8  -4   14.50    2.10
   1  -8  -4    8.00    1.50
   0  -8  -4   40.80    2.80
  -1  -8  -4  129.89    4.90
  -2  -8  -4  722.33   13.70
  -3  -8  -4  485.05   11.30
  -4  -8  -4    6.70    1.80
  -5  -8  -4    4.80    1.80
  -6  -8  -4    1.70    1.40
   5  -9  -4   14.80    2.70
   4  -9  -4    4.60    1.70
   3  -9  -4   38.60    3.90
   2  -9  -4   10.30    2.00
   1  -9  -4   81.29    4.20
   0  -9  -4    6.50    1.50
  -1  -9  -4  136.99    5.30
  -2  -9  -4  345.07    9.30
  -3  -9  -4   20.90    2.80
  -4  -9  -4    6.00    1.80
  -5  -9  -4   30.10    3.90
   5 -10  -4   17.60    3.30
   4 -10  -4   37.20    4.30
   3 -10  -4    3.70    1.50
   2 -10  -4    1.60    1.10
   1 -10  -4    1.50    1.10
   0 -10  -4    4.30    1.40
  -1 -10  -4   28.20    3.10
  -2 -10  -4   49.00    4.30
  -3 -10  -4    6.90    1.80
  -4 -10  -4    7.10    2.10
  -5 -10  -4    3.90    1.70
   4 -11  -4   17.80    3.10
   3 -11  -4  155.88    7.00
   2 -11  -4   20.30    3.00
   1 -11  -4   34.70    3.70
   0 -11  -4   63.19    4.10
  -1 -11  -4   15.60    2.60
  -2 -11  -4    7.70    1.90
  -3 -11  -4    5.90    1.90
  -4 -11  -4   12.10    2.80
   4 -12  -4    9.60    2.60
   3 -12  -4   22.10    3.30
   2 -12  -4   20.40    3.10
   1 -12  -4   43.90    4.60
   0 -12  -4    0.90    1.00
  -1 -12  -4   27.70    3.60
  -2 -12  -4   65.19    5.60
  -3 -12  -4   33.60    4.30
   3 -13  -4   27.60    3.90
   2 -13  -4    8.50    2.30
   1 -13  -4    1.00    1.20
   0 -13  -4    9.40    2.30
  -1 -13  -4   16.90    3.00
  -2 -13  -4   26.20    3.80
   0 -14  -4    2.40    1.90
   0 -10   5    7.80    2.30
   1 -10   5   20.50    3.40
  -1  -9   5    2.50    1.50
   0  -9   5    4.70    1.90
   1  -9   5    6.70    2.00
   2  -9   5   30.70    4.00
   3  -9   5   25.10    3.90
  -2  -8   5    1.40    1.30
  -1  -8   5    0.20    1.00
   0  -8   5    1.60    1.20
   1  -8   5   18.10    2.90
   2  -8   5    5.30    1.80
   3  -8   5    2.20    1.30
   4  -8   5    4.70    1.80
  -2  -7   5   49.30    4.50
  -1  -7   5   20.40    3.00
   0  -7   5    4.20    1.50
   1  -7   5    1.00    0.90
   2  -7   5    3.00    1.20
   3  -7   5   13.70    2.50
   4  -7   5    0.50    1.10
   5  -7   5   17.90    2.90
  -4  -6   5   11.10    2.30
  -3  -6   5   15.80    2.40
  -2  -6   5  109.59    5.20
  -1  -6   5   38.80    3.70
   0  -6   5   11.70    2.20
   1  -6   5  729.23   14.70
   2  -6   5    6.20    1.60
   3  -6   5    2.60    1.30
   4  -6   5   16.20    2.70
   5  -6   5   14.10    2.40
   6  -6   5    7.60    2.50
  -5  -5   5    5.10    2.00
  -4  -5   5   13.70    2.40
  -3  -5   5   11.40    2.00
  -2  -5   5   16.50    2.10
  -2  -5   5   20.60    2.70
  -1  -5   5    2.00    1.00
   0  -5   5    1.20    0.90
   1  -5   5   26.70    2.90
   2  -5   5  365.16    9.50
   3  -5   5  303.87    8.60
   4  -5   5    9.50    1.90
   6  -5   5    9.50    2.50
  -5  -4   5   50.79    4.80
  -4  -4   5   17.90    2.70
  -3  -4   5   16.30    2.20
  -3  -4   5   19.50    2.40
  -2  -4   5   23.80    2.40
  -2  -4   5   27.50    2.80
  -1  -4   5    4.40    1.00
  -1  -4   5    6.30    1.40
   0  -4   5   28.20    2.80
   1  -4   5   23.00    2.50
   2  -4   5   11.60    1.90
   3  -4   5   12.40    1.90
   4  -4   5  108.49    4.80
   5  -4   5    6.10    2.00
   6  -4   5   13.00    2.80
  -6  -3   5   78.49    5.40
  -5  -3   5  169.68    7.00
  -4  -3   5   11.70    2.20
  -3  -3   5   48.10    2.90
  -3  -3   5   46.70    3.00
  -2  -3   5  115.39    4.50
  -2  -3   5  112.69    4.00
  -1  -3   5   22.30    2.40
  -1  -3   5   23.40    1.60
   0  -3   5   74.39    2.20
   0  -3   5   72.49    3.50
   1  -3   5  236.18    6.50
   2  -3   5   49.10    2.90
   3  -3   5   29.90    2.70
   4  -3   5   25.30    2.60
   5  -3   5   56.59    5.00
   6  -3   5    5.50    2.30
   7  -3   5   62.39    6.10
  -6  -2   5    5.70    2.00
  -5  -2   5  114.59    5.70
  -4  -2   5   46.70    3.30
  -3  -2   5   34.20    2.40
  -3  -2   5   37.50    3.20
  -2  -2   5    3.90    0.90
  -2  -2   5    0.80    0.60
  -1  -2   5   15.50    1.40
  -1  -2   5   12.40    1.70
   0  -2   5   97.09    2.30
   0  -2   5   95.29    3.70
   1  -2   5  139.89    4.60
   2  -2   5  514.05    9.70
   3  -2   5   12.00    1.70
   4  -2   5  185.18    5.40
   4  -2   5  187.88    6.80
   5  -2   5   49.50    3.70
   6  -2   5    9.40    2.30
   7  -2   5    0.80    1.40
  -6  -1   5    6.60    2.00
  -5  -1   5    6.20    1.80
  -4  -1   5   58.39    3.60
  -3  -1   5    9.90    1.60
  -3  -1   5    9.50    1.50
  -2  -1   5  637.04   10.90
  -2  -1   5  635.84   10.40
  -1  -1   5   12.40    1.20
  -1  -1   5   12.10    1.60
   0  -1   5    2.20    0.80
   0  -1   5    2.00    0.40
   1  -1   5 1014.00   14.60
   2  -1   5   45.40    2.40
   3  -1   5   22.70    2.10
   4  -1   5  211.38    5.40
   4  -1   5  216.98    7.10
   5  -1   5   46.90    4.40
   6  -1   5    0.70    1.20
   7  -1   5    0.70    1.40
  -6   0   5    3.30    1.60
  -5   0   5   15.20    2.50
  -4   0   5    6.80    1.50
  -3   0   5   69.49    3.40
  -3   0   5   61.79    3.00
  -2   0   5   38.60    2.20
  -2   0   5   42.50    2.30
  -1   0   5  106.39    3.60
  -1   0   5   94.19    2.80
   0   0   5  288.17    6.20
   0   0   5  287.07    4.30
   1   0   5  962.90   13.50
  -2   0  -5   31.50    1.00
   2   0   5   32.70    1.90
  -3   0  -5   66.79    2.20
   3   0   5   61.69    3.30
   3   0   5   62.49    2.60
  -4   0  -5  705.13   11.10
   4   0   5  724.43   14.20
   5   0   5  640.64   14.10
   6   0   5    1.10    1.20
   7   0   5   14.20    2.90
  -6   1   5    1.60    1.20
  -5   1   5   70.29    4.40
  -4   1   5  153.08    5.70
  -4   1   5  145.79    4.80
  -3   1   5   88.29    3.80
  -3   1   5   89.29    3.50
  -2   1   5  144.19    4.30
  -2   1   5  143.89    4.40
  -1   1   5  164.18    4.50
  -1   1   5  164.68    3.90
   0   1   5   53.79    2.40
   0   1   5   51.59    1.60
  -1  -1  -5  207.98    3.10
   1   1   5  207.48    4.90
   1   1   5  202.08    4.60
  -2  -1  -5  105.29    2.40
   2   1   5  108.29    3.80
   2   1   5   99.19    3.00
  -3  -1  -5  409.06    6.90
   3   1   5  401.46    9.00
   3   1   5  399.76    6.70
  -4  -1  -5  130.89    4.10
   4   1   5  131.79    5.30
  -5  -1  -5   99.39    4.10
   5   1   5  107.59    5.30
   6   1   5    2.00    1.30
   7   1   5   51.59    5.10
  -6   2   5    4.60    1.70
  -5   2   5   32.80    3.50
  -4   2   5  207.08    5.80
  -4   2   5  191.98    6.40
  -3   2   5  120.59    4.20
  -3   2   5  122.39    4.50
  -2   2   5  577.74    9.80
  -2   2   5  560.84    9.70
  -1   2   5   26.00    1.80
  -1   2   5   25.00    1.50
  -1   2   5   25.40    0.90
   0  -2  -5   71.99    2.20
   0   2   5   67.59    2.10
   0   2   5   68.79    2.60
  -1  -2  -5    2.40    0.50
   1   2   5    2.80    0.70
   1   2   5    2.70    0.60
  -2  -2  -5   81.79    2.40
   2   2   5   74.19    3.20
   2   2   5   77.39    2.50
  -3  -2  -5   84.99    3.00
   3   2   5   93.19    3.90
   3   2   5   82.99    2.40
  -4  -2  -5   17.60    1.90
   4   2   5   18.00    2.50
  -5  -2  -5   70.49    3.60
   5   2   5   61.69    4.10
  -6  -2  -5   14.80    2.20
   6   2   5   17.20    2.80
   7   2   5    3.10    1.70
  -6   3   5   -0.90    1.00
  -5   3   5   28.20    3.30
  -4   3   5  208.18    6.80
  -3   3   5   26.00    2.60
  -3   3   5   26.10    2.40
  -2   3   5 2443.16   29.20
  -2   3   5 2418.86   29.00
  -1   3   5  350.56    7.00
  -1   3   5  352.16    6.60
   0  -3  -5  107.29    3.10
   0   3   5  102.79    3.20
   0   3   5  106.49    2.70
  -1  -3  -5    9.80    1.10
   1   3   5    7.10    1.00
   1   3   5    9.50    1.10
  -2  -3  -5  747.83   10.80
   2   3   5  741.33   10.00
   2   3   5  770.12   12.40
  -3  -3  -5   38.40    2.10
   3   3   5   35.50    2.50
   3   3   5   33.70    1.30
  -4  -3  -5   60.39    3.00
   4   3   5   58.59    3.50
  -5  -3  -5   47.00    3.10
   5   3   5   53.49    3.80
  -6  -3  -5   26.80    3.00
   6   3   5   35.70    4.20
  -7  -3  -5    0.10    1.10
   7   3   5   -0.50    1.10
  -6   4   5    7.10    2.10
  -5   4   5   15.30    2.50
  -4   4   5   45.40    3.90
  -2   4   5   59.59    2.90
  -2   4   5   64.39    3.00
   1  -4  -5   53.59    2.50
  -1   4   5   50.79    2.50
   0  -4  -5   24.20    1.60
   0   4   5   21.70    1.50
  -1  -4  -5   28.40    1.70
   1   4   5   26.60    1.70
   1   4   5   30.90    1.70
  -2  -4  -5  225.58    5.30
   2   4   5  241.68    6.20
   2   4   5  233.88    4.50
  -3  -4  -5   22.90    2.10
   3   4   5   23.20    2.50
  -4  -4  -5    1.50    0.80
   4   4   5    2.10    1.00
  -5  -4  -5  284.27    7.90
   5   4   5  267.17    8.80
  -6  -4  -5   26.60    3.10
   6   4   5   29.90    3.70
  -7  -4  -5    3.30    1.50
   7   4   5    5.20    2.00
  -6   5   5   21.50    3.40
  -5   5   5    0.00    1.00
  -4   5   5    8.90    1.80
  -3   5   5   24.70    2.60
  -2   5   5  350.06    7.90
   1  -5  -5   90.39    3.60
   0  -5  -5   87.09    3.30
  -1  -5  -5    6.60    1.10
  -2  -5  -5  329.27    7.10
   2   5   5  328.97    7.70
  -3  -5  -5   61.69    3.10
   3   5   5   59.69    3.40
  -4  -5  -5    2.00    1.00
   4   5   5    3.90    1.30
  -5  -5  -5   84.19    4.40
   5   5   5   86.09    5.00
  -6  -5  -5   14.00    2.40
   6   5   5   16.30    3.00
  -7  -5  -5   36.20    4.10
  -6   6   5   42.90    4.50
  -5   6   5   11.10    2.30
  -4   6   5  223.68    7.40
  -3   6   5    4.00    1.20
   2  -6  -5   88.89    4.00
   1  -6  -5   44.10    2.60
   0  -6  -5  258.27    6.40
  -1  -6  -5   57.29    2.90
  -2  -6  -5   86.19    3.70
  -3  -6  -5   28.10    2.70
  -4  -6  -5    3.60    1.20
  -5  -6  -5   97.49    5.00
  -6  -6  -5   42.50    4.20
  -6   7   5   24.90    3.60
  -5   7   5   16.50    2.70
  -4   7   5   66.99    4.10
   3  -7  -5   71.89    4.10
   2  -7  -5  107.09    4.70
   1  -7  -5  175.28    5.70
   0  -7  -5   65.19    3.30
  -1  -7  -5   24.60    2.40
  -2  -7  -5   58.19    3.30
  -3  -7  -5  187.78    6.30
  -4  -7  -5   -0.60    0.50
  -5  -7  -5   21.50    3.00
  -6  -7  -5   10.30    2.20
   5  -8  -5   46.90    4.90
   4  -8  -5    3.30    1.40
   3  -8  -5    1.50    1.00
   2  -8  -5    8.90    1.80
   1  -8  -5  131.39    5.10
   0  -8  -5  175.38    5.90
  -1  -8  -5   96.09    4.30
  -2  -8  -5  345.17    8.80
  -3  -8  -5   88.59    4.50
  -4  -8  -5   36.00    3.70
  -5  -8  -5   45.80    4.60
  -6  -8  -5    2.50    1.60
   5  -9  -5   11.00    2.70
   4  -9  -5    1.60    1.20
   3  -9  -5   23.10    3.10
   2  -9  -5   11.20    2.10
   1  -9  -5   51.49    3.40
   0  -9  -5   44.60    3.10
  -1  -9  -5   43.60    3.10
  -2  -9  -5  423.36   10.40
  -3  -9  -5   78.19    4.50
  -4  -9  -5   11.40    2.30
  -5  -9  -5    0.80    1.10
   5 -10  -5    4.90    2.00
   4 -10  -5    7.30    2.10
   3 -10  -5   78.29    4.80
   2 -10  -5   66.59    4.30
   1 -10  -5    6.80    1.70
   0 -10  -5   24.90    3.00
  -1 -10  -5   23.80    3.00
  -2 -10  -5   13.80    2.40
  -3 -10  -5   15.30    2.60
  -4 -10  -5   65.29    4.70
  -5 -10  -5   42.80    4.70
   4 -11  -5  170.68    7.80
   3 -11  -5  251.77    9.00
   2 -11  -5    8.60    2.10
   1 -11  -5   11.30    2.30
   0 -11  -5    8.40    2.00
  -1 -11  -5   10.70    2.10
  -2 -11  -5  106.79    5.60
  -3 -11  -5    7.60    2.00
  -4 -11  -5   53.09    5.30
   4 -12  -5   32.30    4.30
   3 -12  -5   19.90    3.40
   2 -12  -5   24.00    3.60
   1 -12  -5   35.20    3.90
   0 -12  -5    1.80    1.20
  -1 -12  -5    5.70    1.80
  -2 -12  -5   26.70    3.70
  -3 -12  -5   46.30    4.80
   3 -13  -5   10.20    2.70
   2 -13  -5    1.80    1.50
   1 -13  -5   33.90    4.20
   0 -13  -5    3.40    1.50
  -1 -13  -5    2.90    1.70
  -2 -13  -5    3.00    1.60
   1 -14  -5   19.20    3.30
   0 -14  -5    2.80    1.70
  -1  -9   6   37.20    4.50
   0  -9   6   21.80    3.60
   1  -9   6    2.10    1.40
   2  -9   6    3.60    1.80
  -2  -8   6    5.10    1.90
  -1  -8   6   15.60    3.00
   0  -8   6    2.10    1.50
   1  -8   6    9.40    2.40
   2  -8   6   17.50    3.10
   3  -8   6   41.70    4.60
   4  -8   6   -0.30    1.20
  -2  -7   6   26.80    3.60
  -1  -7   6   35.00    4.00
   0  -7   6   17.30    2.90
   1  -7   6   53.09    4.80
   2  -7   6    7.80    2.00
   3  -7   6    6.40    2.00
   4  -7   6   28.40    3.80
   5  -7   6    0.00    1.30
  -2  -6   6   50.49    4.50
  -1  -6   6  153.98    6.50
   0  -6   6   49.60    4.60
   1  -6   6   61.29    4.20
   2  -6   6    4.60    1.60
   3  -6   6   27.80    3.40
   4  -6   6    1.40    1.30
  -4  -5   6   10.80    2.30
  -2  -5   6   13.00    2.30
  -1  -5   6  137.39    5.80
   0  -5   6  781.52   15.40
   1  -5   6   17.60    2.60
   2  -5   6   29.00    3.20
   3  -5   6    2.60    1.20
   4  -5   6    4.80    1.50
   6  -5   6    8.50    2.50
  -5  -4   6    7.60    2.00
  -4  -4   6   14.40    2.40
  -3  -4   6    3.10    1.20
  -3  -4   6    2.00    1.00
  -2  -4   6   22.10    2.20
  -2  -4   6   20.60    2.60
  -1  -4   6   46.50    3.20
   0  -4   6  108.09    4.90
   1  -4   6  493.85   11.20
   2  -4   6  101.59    4.80
   3  -4   6   25.40    2.90
   4  -4   6   59.49    3.70
   5  -4   6    4.10    1.60
   6  -4   6    1.30    1.50
  -5  -3   6  119.19    6.10
  -4  -3   6   14.40    2.40
  -3  -3   6    3.60    1.20
  -3  -3   6    2.40    1.00
  -2  -3   6   10.40    1.80
  -2  -3   6    8.70    1.50
  -1  -3   6   22.90    2.00
  -1  -3   6   18.20    2.30
   0  -3   6  157.98    5.60
   1  -3   6    1.60    0.90
   2  -3   6   25.50    2.70
   3  -3   6    0.30    0.70
   4  -3   6   32.70    3.20
   5  -3   6    9.50    2.20
   6  -3   6   16.30    3.00
  -6  -2   6   12.30    2.80
  -5  -2   6  114.69    5.90
  -4  -2   6   54.89    3.70
  -3  -2   6   56.79    3.20
  -3  -2   6   54.19    3.20
  -2  -2   6   72.89    3.60
  -2  -2   6   73.19    3.20
  -1  -2   6   91.89    4.00
  -1  -2   6   90.19    3.00
   0  -2   6   64.09    1.90
   0  -2   6   65.19    3.30
   1  -2   6   20.70    2.20
   2  -2   6   27.70    2.70
   3  -2   6  102.09    4.20
   4  -2   6   40.10    3.90
   4  -2   6   34.80    3.00
   5  -2   6    8.50    2.10
   6  -2   6    4.20    1.60
   7  -2   6   18.90    3.60
  -6  -1   6   19.80    3.30
  -5  -1   6   25.50    3.40
  -4  -1   6   21.40    2.80
  -3  -1   6  213.28    6.30
  -3  -1   6  223.28    6.50
  -2  -1   6  300.07    7.40
  -2  -1   6  305.17    6.80
  -1  -1   6   24.30    2.40
  -1  -1   6   24.40    1.50
   0  -1   6   27.10    1.20
   0  -1   6   22.10    2.30
   1  -1   6  131.79    4.40
   2  -1   6   29.60    2.60
   3  -1   6  136.19    4.50
   4  -1   6   34.00    3.60
   4  -1   6   39.10    2.50
   5  -1   6   39.20    4.00
   6  -1   6    1.10    1.20
   7  -1   6   10.10    2.60
  -6   0   6    0.30    1.30
  -5   0   6    3.50    1.50
  -4   0   6   26.00    2.90
  -3   0   6   11.90    1.80
  -3   0   6   10.80    1.80
  -2   0   6   21.00    2.00
  -2   0   6   18.10    2.00
  -1   0   6   45.30    2.00
  -1   0   6   44.80    2.50
   0   0   6  242.58    6.10
   0   0   6  248.08    4.10
   1   0   6 1230.08   17.10
   2   0   6  271.87    6.30
   3   0   6   40.50    2.80
   3   0   6   43.80    2.30
   4   0   6  237.48    7.70
   5   0   6  211.18    7.90
   6   0   6    2.90    1.60
   7   0   6   66.49    6.30
  -6   1   6    6.70    2.00
  -5   1   6   37.10    3.90
  -4   1   6    6.00    1.40
  -4   1   6    6.50    1.60
  -3   1   6   28.30    2.70
  -3   1   6   24.60    2.40
  -2   1   6  110.99    3.80
  -2   1   6  106.49    4.00
  -1   1   6   69.09    3.00
  -1   1   6   70.39    2.50
   0   1   6  130.69    4.10
   0   1   6  128.39    2.80
  -1  -1  -6   31.10    1.00
   1   1   6   31.70    1.90
  -2  -1  -6  296.47    4.50
   2   1   6  295.87    7.10
   2   1   6  304.17    6.30
  -3  -1  -6  118.09    3.10
   3   1   6  115.49    3.60
   3   1   6  111.69    4.60
   4   1   6   15.40    2.30
   5   1   6   36.40    3.90
   6   1   6   34.40    4.20
   7   1   6   17.80    3.40
  -6   2   6    2.20    1.60
  -5   2   6   36.40    3.70
  -4   2   6  127.69    5.30
  -4   2   6  131.79    4.90
  -3   2   6   27.80    2.70
  -3   2   6   33.00    2.90
  -2   2   6  184.48    5.10
  -2   2   6  184.58    5.30
  -1   2   6   74.19    1.90
  -1   2   6   68.59    2.60
  -1   2   6   72.69    3.10
   0  -2  -6   14.90    1.10
   0   2   6   15.90    1.10
   0   2   6   16.30    1.70
  -1  -2  -6  141.49    3.10
   1   2   6  146.99    4.20
   1   2   6  145.49    4.10
  -2  -2  -6  125.59    3.00
   2   2   6  128.79    4.40
   2   2   6  124.59    3.60
  -3  -2  -6   -0.30    0.30
   3   2   6    0.40    0.40
   3   2   6    0.10    0.50
  -4  -2  -6    6.50    1.20
   4   2   6    5.50    1.40
   5   2   6  172.28    6.90
   6   2   6   61.99    4.50
   7   2   6   48.70    5.30
  -6   3   6    5.00    1.90
  -5   3   6   12.20    2.30
  -4   3   6   28.40    2.70
  -4   3   6   24.90    2.80
  -3   3   6   53.09    3.00
  -3   3   6   47.10    3.00
  -2   3   6 1724.93   22.50
  -2   3   6 1714.73   22.60
  -1   3   6 1425.06   19.00
  -1   3   6 1419.36   15.70
  -1   3   6 1428.16   18.20
   0  -3  -6   11.40    1.30
   0   3   6   10.60    1.10
   0   3   6    9.50    1.30
  -1  -3  -6   15.50    1.40
   1   3   6   17.90    1.70
   1   3   6   16.50    1.60
  -2  -3  -6   10.60    1.20
   2   3   6   12.80    1.70
   2   3   6   12.30    1.30
  -3  -3  -6  112.39    3.60
   3   3   6  120.29    4.80
   3   3   6  115.99    3.10
  -4  -3  -6    2.80    0.90
   4   3   6    5.10    1.40
  -5  -3  -6  116.19    4.60
   5   3   6   96.89    5.20
   6   3   6   49.80    4.90
   7   3   6   23.40    3.70
  -6   4   6    7.40    2.00
  -5   4   6   25.10    3.30
  -4   4   6   28.00    3.00
  -3   4   6   67.39    3.60
  -3   4   6   62.59    3.30
  -2   4   6  599.14   10.80
  -2   4   6  606.24   11.10
   1  -4  -6 1070.39   15.40
  -1   4   6 1083.29   15.70
   0  -4  -6   15.40    1.60
   0   4   6   16.40    1.20
   0   4   6   14.20    1.60
  -1  -4  -6  644.24    9.90
   1   4   6  622.44   10.30
   1   4   6  626.94    9.90
  -2  -4  -6  148.79    4.10
   2   4   6  141.59    3.70
   2   4   6  140.29    4.70
  -3  -4  -6  137.29    4.30
   3   4   6  137.49    5.10
   3   4   6  136.39    3.30
  -4  -4  -6   46.40    2.80
   4   4   6   48.50    3.40
  -5  -4  -6   63.09    3.60
   5   4   6   55.09    4.00
  -6  -4  -6   12.00    2.20
   6   4   6   10.60    2.40
   7   4   6    4.80    2.10
  -6   5   6    5.10    1.80
  -5   5   6    5.90    1.80
  -4   5   6   13.10    2.10
  -3   5   6   30.40    2.90
  -2   5   6  372.96    8.40
  -2   5   6  381.66    8.60
   1  -5  -6   25.70    2.40
  -1   5   6   23.70    2.30
   0  -5  -6   64.09    2.80
   0   5   6   62.99    2.90
  -1  -5  -6  361.66    7.30
   1   5   6  364.46    7.50
   1   5   6  354.76    7.00
  -2  -5  -6  347.77    7.40
   2   5   6  339.67    8.10
   2   5   6  349.96    6.50
  -3  -5  -6  179.18    5.40
   3   5   6  177.08    6.10
  -4  -5  -6   33.90    3.10
   4   5   6   28.40    3.20
  -5  -5  -6   46.40    3.30
   5   5   6   50.29    4.80
  -6  -5  -6   -0.60    0.90
   6   5   6    0.10    1.30
  -7  -5  -6    9.10    2.20
   7   5   6    9.20    2.60
  -6   6   6    7.90    2.30
  -5   6   6   11.90    2.40
  -4   6   6   76.59    4.40
  -3   6   6   22.50    2.60
   2  -6  -6   56.29    3.30
   1  -6  -6  104.59    4.20
   0  -6  -6   44.30    2.60
  -1  -6  -6    4.70    1.10
  -2  -6  -6   20.30    2.10
   2   6   6   21.10    2.30
  -3  -6  -6  124.09    4.70
   3   6   6  118.59    5.10
  -4  -6  -6   97.29    4.50
   4   6   6   93.69    4.90
  -5  -6  -6   51.79    3.70
   5   6   6   57.59    4.20
  -6  -6  -6   21.60    3.00
   6   6   6   10.40    2.50
  -6   7   6    1.00    1.50
  -5   7   6   15.50    2.80
  -4   7   6   39.10    3.80
   3  -7  -6   70.19    4.10
   2  -7  -6   98.79    4.60
   1  -7  -6  394.26    9.10
   0  -7  -6  133.59    4.80
  -1  -7  -6  110.59    4.40
  -2  -7  -6   26.30    2.70
  -3  -7  -6  116.49    4.90
  -4  -7  -6   90.99    4.60
  -5  -7  -6    0.20    0.80
  -6  -7  -6    8.50    2.10
   4  -8  -6    1.80    1.30
   3  -8  -6    1.40    1.00
   2  -8  -6  194.28    6.70
   1  -8  -6  172.48    6.00
   0  -8  -6   51.29    3.20
  -1  -8  -6   64.19    3.50
  -2  -8  -6    0.90    0.70
  -3  -8  -6    0.10    0.70
  -4  -8  -6    3.10    1.30
  -5  -8  -6   61.69    4.30
  -6  -8  -6    3.70    1.80
   5  -9  -6    6.20    2.00
   4  -9  -6    5.00    1.70
   3  -9  -6    1.10    0.90
   2  -9  -6   25.00    3.10
   1  -9  -6  101.49    4.90
   0  -9  -6  391.36    9.80
  -1  -9  -6  302.17    8.40
  -2  -9  -6  301.17    8.60
  -3  -9  -6   68.19    4.20
  -4  -9  -6    7.60    1.80
  -5  -9  -6    0.70    1.20
   5 -10  -6    0.60    1.40
   4 -10  -6   14.00    2.70
   3 -10  -6   64.89    4.50
   2 -10  -6   10.40    2.20
   1 -10  -6   32.10    3.60
   0 -10  -6   38.70    3.70
  -1 -10  -6   35.70    3.50
  -2 -10  -6  125.49    5.80
  -3 -10  -6    8.50    2.00
  -4 -10  -6    5.00    1.70
  -5 -10  -6    0.80    1.30
   4 -11  -6  141.99    7.20
   3 -11  -6   38.30    4.40
   2 -11  -6   19.60    2.90
   1 -11  -6    4.60    1.70
   0 -11  -6   18.90    2.80
  -1 -11  -6   24.80    3.20
  -2 -11  -6  100.99    5.40
  -3 -11  -6    6.50    1.80
  -4 -11  -6    0.30    1.20
   4 -12  -6   11.40    2.80
   3 -12  -6  123.89    6.60
   2 -12  -6    0.60    1.30
   1 -12  -6   29.80    3.70
   0 -12  -6   59.99    4.30
  -1 -12  -6    2.50    1.30
  -2 -12  -6    7.70    1.90
  -3 -12  -6    8.30    2.20
   3 -13  -6   17.10    3.30
   2 -13  -6    3.40    1.80
   1 -13  -6   25.90    3.80
   0 -13  -6   19.70    3.20
  -1 -13  -6    3.60    1.60
  -2 -13  -6   11.30    2.70
   1 -14  -6    6.30    2.30
   0 -14  -6    1.20    1.60
  -1  -8   7   15.10    2.80
   0  -8   7    9.50    2.70
   1  -8   7    1.60    1.80
   2  -8   7   12.10    2.90
   3  -8   7  131.59    7.20
  -2  -7   7   22.10    3.30
  -1  -7   7    3.90    1.70
   0  -7   7   23.80    3.50
   1  -7   7    5.50    1.90
   2  -7   7    3.50    1.60
   3  -7   7    5.60    1.90
   4  -7   7   49.70    5.20
  -2  -6   7   47.00    4.60
  -1  -6   7   24.60    3.40
   0  -6   7    1.10    1.10
   1  -6   7   23.60    3.40
   2  -6   7    0.60    1.10
   3  -6   7    0.10    1.10
   4  -6   7    3.50    1.50
  -2  -5   7  124.69    5.90
  -1  -5   7   86.09    4.90
   0  -5   7  435.16   11.40
   1  -5   7   45.20    4.40
   2  -5   7    1.90    1.30
   3  -5   7   24.90    3.20
   4  -5   7    7.00    2.10
  -3  -4   7    2.70    1.30
  -2  -4   7    1.90    1.10
  -1  -4   7   31.60    3.40
   0  -4   7  408.26   10.40
   1  -4   7  364.96    9.80
   2  -4   7  101.49    5.00
   3  -4   7    2.20    1.10
   4  -4   7    1.40    1.10
   5  -4   7    4.40    1.90
   6  -4   7    1.30    1.80
  -5  -3   7   14.10    2.70
  -4  -3   7   14.50    2.50
  -3  -3   7   14.10    2.10
  -3  -3   7   12.60    2.10
  -2  -3   7    0.50    0.90
  -1  -3   7   15.00    2.30
   0  -3   7    4.30    1.30
   1  -3   7   96.99    4.60
   2  -3   7   15.80    2.40
   3  -3   7   53.19    3.50
   4  -3   7   14.40    2.30
   5  -3   7    1.10    1.20
   6  -3   7    8.60    2.60
  -5  -2   7   15.70    2.80
  -4  -2   7    6.30    1.70
  -3  -2   7   50.19    3.40
  -3  -2   7   55.59    3.40
  -2  -2   7   16.90    1.90
  -2  -2   7   17.80    2.40
  -1  -2   7    0.90    0.80
   0  -2   7   36.10    3.30
   1  -2   7   72.19    3.70
   2  -2   7   18.50    2.20
   3  -2   7   17.30    2.20
   4  -2   7    3.60    1.20
   4  -2   7    6.90    1.90
   5  -2   7    3.60    1.50
   6  -2   7    4.60    1.90
  -5  -1   7   20.00    3.10
  -4  -1   7   27.10    3.10
  -3  -1   7   47.80    3.20
  -3  -1   7   53.29    3.20
  -2  -1   7   81.19    4.00
  -2  -1   7   85.69    3.50
  -1  -1   7   25.10    1.60
  -1  -1   7   24.90    2.50
   0  -1   7   62.79    3.30
   1  -1   7    8.80    1.60
   2  -1   7   13.60    1.80
   3  -1   7   13.00    1.80
   4  -1   7    5.90    1.60
   4  -1   7   10.00    1.70
   5  -1   7   26.50    3.60
   6  -1   7    2.70    1.50
   7  -1   7    1.70    2.00
  -6   0   7   12.00    2.80
  -5   0   7   11.70    2.40
  -4   0   7    8.90    1.90
  -3   0   7   45.30    3.00
  -3   0   7   45.40    2.90
  -2   0   7  137.79    5.00
  -2   0   7  134.49    4.40
  -1   0   7  120.39    3.50
  -1   0   7  118.29    4.50
   0   0   7  530.05   10.30
   0   0   7  526.25    7.20
   1   0   7  343.97    7.80
   2   0   7  101.29    4.00
   3   0   7  131.19    4.50
   3   0   7  123.69    5.20
   4   0   7   25.80    3.20
   5   0   7    7.10    2.00
   6   0   7   10.60    2.50
   7   0   7   17.90    3.60
  -6   1   7    3.80    1.80
  -5   1   7    0.30    0.90
  -4   1   7    8.60    1.70
  -4   1   7    7.90    1.80
  -3   1   7   57.39    3.30
  -3   1   7   60.49    3.30
  -2   1   7   25.50    2.30
  -2   1   7   30.10    2.80
  -1   1   7  250.37    5.40
  -1   1   7  245.48    6.50
   0   1   7  130.49    4.50
   1   1   7  221.18    5.80
   2   1   7   38.10    2.50
   2   1   7   41.30    2.40
   3   1   7  220.38    5.60
   3   1   7  228.38    7.00
   4   1   7  229.28    7.70
   5   1   7   11.80    2.50
   6   1   7    6.40    2.20
   7   1   7    5.50    2.20
  -6   2   7   13.10    2.70
  -5   2   7   25.30    3.30
  -4   2   7   31.50    3.10
  -4   2   7   37.70    3.60
  -3   2   7  158.88    5.50
  -3   2   7  157.38    5.50
  -2   2   7    2.20    0.80
  -2   2   7    2.00    0.90
  -1   2   7   31.70    1.80
  -1   2   7   28.10    2.50
   0  -2  -7   57.39    2.20
   0   2   7   61.29    3.00
   0   2   7   60.19    2.40
  -1  -2  -7   19.30    1.10
   1   2   7   24.80    2.30
   1   2   7   20.30    2.00
  -2  -2  -7    2.60    0.60
   2   2   7    2.70    1.00
   2   2   7    3.30    0.80
   3   2   7   26.00    2.80
   3   2   7   23.50    2.10
   4   2   7 1316.37   21.70
   5   2   7   42.50    4.30
   6   2   7   25.50    3.80
   7   2   7   28.70    4.30
  -6   3   7    9.00    2.50
  -5   3   7   21.00    2.90
  -4   3   7   59.89    3.60
  -4   3   7   64.09    3.90
  -3   3   7  148.69    5.40
  -3   3   7  154.38    5.40
  -2   3   7  743.43   12.60
  -2   3   7  755.32   13.00
  -1   3   7  613.14   11.00
  -1   3   7  596.84    9.90
   0  -3  -7  365.26    6.70
   0   3   7  353.46    6.40
   0   3   7  361.36    7.70
  -1  -3  -7   36.40    1.70
   1   3   7   33.80    2.10
   1   3   7   36.50    2.10
  -2  -3  -7    1.20    0.50
   2   3   7    2.40    0.70
   2   3   7    2.20    0.90
  -3  -3  -7   84.69    3.10
   3   3   7   91.29    4.20
   3   3   7   82.39    2.90
  -4  -3  -7  610.14   10.60
   4   3   7  610.44   13.30
   5   3   7   35.20    3.90
   6   3   7   14.70    2.80
   7   3   7   -1.30    1.10
  -6   4   7   -0.30    1.30
  -5   4   7   10.00    2.10
  -4   4   7   15.60    2.50
  -4   4   7   17.90    2.50
  -3   4   7   45.10    3.10
  -3   4   7   42.90    3.00
  -2   4   7   53.49    3.10
  -2   4   7   57.89    3.00
   1  -4  -7  360.96    7.70
  -1   4   7  364.46    8.10
   0  -4  -7   14.40    1.70
   0   4   7   10.90    1.20
   0   4   7   16.50    1.90
  -1  -4  -7   81.99    3.00
   1   4   7   81.99    3.20
   1   4   7   86.29    3.30
  -2  -4  -7   22.80    1.60
   2   4   7   22.50    2.00
   2   4   7   24.20    2.50
  -3  -4  -7   64.89    2.90
   3   4   7   68.29    2.60
   3   4   7   60.59    3.50
  -4  -4  -7    5.30    1.30
   4   4   7    5.40    1.50
  -5  -4  -7   23.30    2.60
   5   4   7   16.80    2.80
   6   4   7    8.90    2.20
   7   4   7    3.00    2.20
  -6   5   7    3.00    1.90
  -5   5   7    1.40    1.10
  -4   5   7   43.90    4.10
  -3   5   7  190.88    6.40
  -3   5   7  188.28    6.30
  -2   5   7   19.20    2.20
  -2   5   7   19.70    2.30
   1  -5  -7   49.00    2.80
  -1   5   7   52.89    3.00
   0  -5  -7   86.79    3.40
   0   5   7   86.69    3.60
   0   5   7   91.49    2.90
  -1  -5  -7  832.42   12.80
   1   5   7  838.82   12.90
   1   5   7  852.01   13.30
  -2  -5  -7  157.08    4.70
   2   5   7  158.38    4.40
   2   5   7  161.08    5.30
  -3  -5  -7    7.30    1.30
   3   5   7    9.10    1.80
  -4  -5  -7   11.00    1.90
   4   5   7    5.50    1.50
  -5  -5  -7   38.50    3.60
   5   5   7   38.90    4.20
  -6  -5  -7   22.20    3.10
   6   5   7   16.70    3.10
   7   5   7    7.40    2.60
  -6   6   7   13.50    2.90
  -5   6   7   11.50    2.40
  -4   6   7   13.20    2.40
  -3   6   7   30.40    3.10
   2  -6  -7   96.99    4.40
   1  -6  -7   17.20    2.20
  -1   6   7   10.60    1.70
   0  -6  -7   91.79    3.80
   0   6   7   85.99    3.70
  -1  -6  -7   79.99    3.50
   1   6   7   75.49    3.30
  -2  -6  -7   12.80    1.70
   2   6   7   12.90    1.90
  -3  -6  -7    7.90    1.50
   3   6   7   11.10    2.00
  -4  -6  -7  169.88    6.00
   4   6   7  173.18    6.90
  -5  -6  -7   24.00    3.00
   5   6   7   28.80    3.70
  -6  -6  -7    1.90    1.30
   6   6   7    6.00    2.10
  -5   7   7    4.50    1.70
  -4   7   7    3.00    1.20
   3  -7  -7   29.90    3.20
   2  -7  -7   48.40    3.30
   1  -7  -7   21.80    2.50
   0  -7  -7   10.30    1.70
  -1  -7  -7    4.00    1.10
  -2  -7  -7    0.50    0.60
  -3  -7  -7    7.30    1.50
  -4  -7  -7   62.89    3.80
   4   7   7   73.09    4.50
  -5  -7  -7   27.20    3.40
   5   7   7   22.50    3.20
  -6  -7  -7    4.60    1.80
   4  -8  -7    9.10    2.10
   3  -8  -7   28.90    3.50
   2  -8  -7   76.69    4.30
   1  -8  -7  139.99    5.50
   0  -8  -7   16.30    2.30
  -1  -8  -7   26.90    2.80
  -2  -8  -7  141.99    5.40
  -3  -8  -7   34.80    3.40
  -4  -8  -7   16.20    2.60
  -5  -8  -7    3.50    1.50
  -6  -8  -7   44.50    4.70
   5  -9  -7   19.90    3.50
   4  -9  -7    1.50    1.10
   3  -9  -7    4.70    1.60
   2  -9  -7   77.09    4.50
   1  -9  -7   37.80    3.70
   0  -9  -7   94.79    4.60
  -1  -9  -7  544.25   11.90
  -2  -9  -7  284.47    8.30
  -3  -9  -7  242.48    8.10
  -4  -9  -7   69.59    4.50
  -5  -9  -7   10.80    2.40
   5 -10  -7   11.40    3.40
   4 -10  -7    3.40    1.60
   3 -10  -7    3.30    1.40
   2 -10  -7    7.70    1.90
   1 -10  -7   40.90    4.10
   0 -10  -7   29.60    3.50
  -1 -10  -7   40.40    3.90
  -2 -10  -7  379.06   10.30
  -3 -10  -7    2.00    1.30
  -4 -10  -7    2.40    1.50
  -5 -10  -7   12.80    2.80
   4 -11  -7   11.60    2.80
   3 -11  -7   22.50    3.50
   2 -11  -7   22.70    3.20
   1 -11  -7   31.00    3.60
   0 -11  -7   28.40    3.40
  -1 -11  -7   63.89    4.10
  -2 -11  -7   45.90    4.40
  -3 -11  -7   20.10    3.20
  -4 -11  -7   11.50    2.50
   3 -12  -7    6.60    2.20
   2 -12  -7    4.30    1.70
   1 -12  -7   13.50    2.70
   0 -12  -7   34.70    4.00
  -1 -12  -7   47.40    4.50
  -2 -12  -7    7.20    2.00
  -3 -12  -7    0.60    1.40
   2 -13  -7   35.60    4.40
   1 -13  -7   29.80    3.90
   0 -13  -7    7.70    2.10
  -1 -13  -7    2.10    1.30
  -2 -13  -7   12.60    2.60
   1 -14  -7    8.50    2.80
   0 -14  -7   32.00    4.20
  -1  -7   8    8.20    2.40
   0  -7   8    8.10    2.40
   1  -7   8    9.90    2.40
   2  -7   8   -1.00    1.40
   3  -7   8  127.09    7.20
  -2  -6   8    6.90    2.10
  -1  -6   8   11.80    2.60
   0  -6   8    7.30    2.00
   1  -6   8    2.70    1.50
   2  -6   8    6.10    2.00
   3  -6   8   23.10    3.40
   4  -6   8   13.20    2.60
  -2  -5   8   30.00    3.60
  -1  -5   8   48.50    4.70
   0  -5   8   54.99    4.90
   1  -5   8   14.30    2.60
   2  -5   8   11.10    2.40
   3  -5   8    7.60    2.00
   4  -5   8    3.50    1.80
  -3  -4   8   23.70    3.20
  -2  -4   8   11.70    2.30
  -1  -4   8   38.00    4.00
   0  -4   8  554.84   13.10
   1  -4   8   15.30    2.50
   2  -4   8   12.20    2.30
   3  -4   8   27.20    3.40
   4  -4   8   12.10    2.40
   5  -4   8   28.40    4.30
  -3  -3   8    3.60    1.50
  -2  -3   8   32.70    3.50
  -1  -3   8    3.80    1.40
   0  -3   8  250.67    8.00
   1  -3   8  122.29    5.40
   2  -3   8    9.10    2.00
   3  -3   8   76.99    4.40
   4  -3   8   54.19    3.80
   5  -3   8    8.20    2.40
   6  -3   8    3.90    2.00
  -5  -2   8   13.50    2.80
  -4  -2   8    0.40    1.10
  -3  -2   8   29.30    3.30
  -2  -2   8   42.20    3.80
  -1  -2   8   19.10    2.70
   0  -2   8   12.80    2.10
   1  -2   8   95.99    4.60
   2  -2   8   50.49    3.40
   3  -2   8   58.39    3.60
   4  -2   8    2.90    1.20
   4  -2   8    2.00    1.20
   5  -2   8    3.20    1.50
   6  -2   8   84.19    6.00
  -5  -1   8   29.20    3.80
  -4  -1   8   12.50    2.30
  -3  -1   8   17.80    2.50
  -3  -1   8   17.20    2.20
  -2  -1   8   42.50    3.80
  -1  -1   8   47.80    3.20
   0  -1   8  271.57    7.70
   1  -1   8  374.46    9.10
   2  -1   8   60.89    3.50
   3  -1   8    4.70    1.20
   4  -1   8   60.29    4.20
   4  -1   8   57.89    3.40
   5  -1   8   15.10    2.90
   6  -1   8   13.90    3.00
  -5   0   8   64.59    4.50
  -4   0   8   15.60    2.50
  -3   0   8   20.10    2.50
  -3   0   8   24.70    2.70
  -2   0   8   56.69    2.90
  -2   0   8   58.29    3.50
  -1   0   8   32.00    1.90
  -1   0   8   34.10    3.30
   0   0   8  148.79    5.30
   1   0   8  218.58    6.50
   2   0   8   35.80    2.60
   3   0   8  100.19    4.90
   3   0   8  100.49    4.20
   4   0   8    5.10    1.60
   5   0   8    3.40    1.60
   6   0   8    7.10    2.30
  -5   1   8   34.10    4.00
  -4   1   8    4.10    1.40
  -4   1   8    2.00    1.20
  -3   1   8   80.89    4.00
  -3   1   8   80.49    4.20
  -2   1   8   11.70    1.60
  -2   1   8   16.50    2.20
  -1   1   8   23.70    2.60
  -1   1   8   16.50    1.60
   0   1   8  102.99    4.30
   1   1   8   28.30    2.70
   2   1   8   71.19    3.40
   2   1   8   64.99    3.50
   3   1   8  428.46   10.40
   3   1   8  432.46    8.90
   4   1   8  332.77    9.80
   5   1   8   22.20    3.30
   6   1   8   26.80    3.70
  -6   2   8   17.00    3.70
  -5   2   8   -0.90    1.10
  -4   2   8    3.30    1.20
  -4   2   8    0.60    0.90
  -3   2   8   75.49    4.00
  -3   2   8   75.19    3.90
  -2   2   8    5.10    1.30
  -2   2   8    2.70    1.00
  -1   2   8   32.80    2.90
  -1   2   8   35.30    2.00
   0  -2  -8   10.10    1.20
   0   2   8    8.10    1.40
   0   2   8   17.30    1.80
   1   2   8   71.39    3.40
   1   2   8   67.99    3.10
   2   2   8    2.10    0.90
   2   2   8    0.70    0.70
   3   2   8  233.68    7.40
   3   2   8  241.88    6.10
   4   2   8  492.25   12.10
   5   2   8    4.20    1.50
   6   2   8    2.50    1.50
   7   2   8    8.60    2.80
  -6   3   8   35.70    4.50
  -5   3   8   14.90    2.80
  -4   3   8    6.10    1.70
  -4   3   8    5.30    1.50
  -3   3   8   52.39    3.30
  -3   3   8   51.39    3.30
  -2   3   8   23.40    2.40
  -2   3   8   20.10    2.40
  -1   3   8   15.90    1.80
  -1   3   8   13.60    1.90
   0  -3  -8   34.80    1.90
   0   3   8   36.40    1.90
   0   3   8   33.90    2.90
  -1  -3  -8   24.80    1.50
   1   3   8   26.80    2.40
   1   3   8   25.30    2.30
   2   3   8  133.79    4.40
   2   3   8  135.89    4.90
   3   3   8  136.69    4.20
   3   3   8  131.49    5.30
   4   3   8   70.29    4.30
   5   3   8   95.29    5.50
   6   3   8   98.89    6.10
   7   3   8    5.80    2.40
  -6   4   8    7.50    2.70
  -5   4   8   79.69    5.00
  -4   4   8    2.50    1.20
  -4   4   8    2.80    1.30
  -3   4   8   78.29    4.10
  -3   4   8   76.39    4.10
  -2   4   8   82.79    3.80
  -2   4   8   86.49    4.10
   1  -4  -8   23.70    2.30
  -1   4   8   21.90    2.30
   0  -4  -8   21.60    2.00
   0   4   8   13.70    1.80
   0   4   8   19.00    1.70
  -1  -4  -8   34.00    1.90
   1   4   8   30.80    2.20
   1   4   8   33.00    2.10
  -2  -4  -8  109.89    3.50
   2   4   8  115.19    3.90
   2   4   8  116.59    4.50
  -3  -4  -8    9.60    1.40
   3   4   8   12.30    1.50
   3   4   8    7.60    1.60
   4   4   8   47.40    3.50
   5   4   8   30.90    3.80
   6   4   8    9.90    2.50
  -5   5   8    6.70    1.80
  -4   5   8   15.20    2.60
  -3   5   8  217.48    7.10
  -3   5   8  221.88    7.10
  -2   5   8  327.57    8.50
   1  -5  -8    3.90    1.00
  -1   5   8    3.50    1.10
   0  -5  -8   28.00    2.50
   0   5   8   21.40    1.50
   0   5   8   21.10    2.30
  -1  -5  -8  376.86    7.70
   1   5   8  377.46    8.00
   1   5   8  381.26    8.10
  -2  -5  -8   20.60    2.00
   2   5   8   17.00    2.10
   2   5   8   22.50    2.10
  -3  -5  -8    0.60    0.60
   3   5   8    0.80    0.90
  -4  -5  -8    7.50    1.50
   4   5   8    6.40    1.80
   5   5   8   29.40    3.60
   6   5   8    5.60    2.00
  -5   6   8    2.70    1.50
  -4   6   8    0.60    0.90
  -3   6   8   36.10    3.50
   2  -6  -8   67.09    3.80
  -2   6   8   63.39    3.70
   1  -6  -8   33.20    3.00
  -1   6   8   38.70    3.40
   0  -6  -8   14.40    1.80
   0   6   8   17.40    2.10
  -1  -6  -8    8.00    1.40
   1   6   8    6.80    1.30
   1   6   8    7.30    1.30
  -2  -6  -8   12.50    1.80
   2   6   8   11.70    1.80
   2   6   8   10.70    1.60
  -3  -6  -8   16.00    2.10
   3   6   8   12.70    2.10
  -4  -6  -8  280.37    7.80
   4   6   8  280.27    9.10
  -5  -6  -8   47.00    3.40
   5   6   8   49.00    4.90
   6   6   8   -0.60    1.20
  -5   7   8   -0.90    1.10
  -4   7   8    4.30    1.60
   3  -7  -8   11.30    2.20
   2  -7  -8   54.69    3.60
   1  -7  -8   15.70    2.20
   0  -7  -8    3.60    1.10
  -1  -7  -8   74.19    3.60
  -2  -7  -8   59.09    3.30
   2   7   8   59.69    3.40
  -3  -7  -8   41.00    3.00
   3   7   8   34.20    3.60
  -4  -7  -8   24.00    2.90
   4   7   8   23.60    3.30
  -5  -7  -8    6.30    1.80
   5   7   8    6.50    2.00
  -6  -7  -8   22.50    3.10
   6   7   8   28.50    4.20
   4  -8  -8   22.70    3.30
   3  -8  -8   60.09    4.10
   2  -8  -8    3.30    1.40
   1  -8  -8   13.10    2.10
   0  -8  -8    1.10    0.80
  -1  -8  -8   16.30    2.30
  -2  -8  -8   19.00    2.40
  -3  -8  -8   11.50    2.00
  -4  -8  -8  112.99    5.40
  -5  -8  -8   33.80    3.70
  -6  -8  -8    0.40    1.20
   5  -9  -8   14.10    3.00
   4  -9  -8   17.10    3.00
   3  -9  -8   12.50    2.40
   2  -9  -8   85.59    4.80
   1  -9  -8   26.00    3.20
   0  -9  -8   17.60    2.60
  -1  -9  -8   59.09    3.70
  -2  -9  -8  361.96    9.60
  -3  -9  -8    3.40    1.30
  -4  -9  -8   92.89    5.20
  -5  -9  -8    4.20    1.80
   4 -10  -8    4.10    1.90
   3 -10  -8    9.10    2.30
   2 -10  -8    2.80    1.40
   1 -10  -8   55.69    3.90
   0 -10  -8   93.99    4.90
  -1 -10  -8  139.49    6.00
  -2 -10  -8   42.50    3.90
  -3 -10  -8   18.10    2.70
  -4 -10  -8   13.00    2.50
  -5 -10  -8    4.40    1.90
   4 -11  -8    9.40    2.70
   3 -11  -8   27.20    3.80
   2 -11  -8   31.10    3.80
   1 -11  -8   15.00    2.70
   0 -11  -8   48.80    4.40
  -1 -11  -8  221.68    7.90
  -2 -11  -8    7.40    2.10
  -3 -11  -8   51.39    4.80
  -4 -11  -8    9.70    2.40
   3 -12  -8   38.20    4.50
   2 -12  -8   28.50    3.90
   1 -12  -8   39.80    4.50
   0 -12  -8    7.20    1.90
  -1 -12  -8   36.00    3.90
  -2 -12  -8   25.80    3.70
  -3 -12  -8    3.90    1.80
   2 -13  -8   10.00    2.80
   1 -13  -8   19.60    3.40
   0 -13  -8    4.90    1.90
  -1 -13  -8   12.00    2.50
  -2 -13  -8   22.90    3.50
  -1  -6   9   47.30    5.00
   0  -6   9    6.20    2.20
   1  -6   9    9.50    2.40
   2  -6   9   26.70    4.00
   3  -6   9   32.10    4.30
  -2  -5   9   41.00    4.50
  -1  -5   9    1.90    1.50
   0  -5   9    8.60    2.30
   1  -5   9    9.00    2.20
   2  -5   9   35.70    4.30
   3  -5   9    3.70    1.70
   4  -5   9   26.90    3.70
  -2  -4   9   14.60    2.60
  -1  -4   9    8.50    2.00
   0  -4   9   26.80    3.50
   1  -4   9    2.60    1.40
   2  -4   9    4.60    1.70
   3  -4   9    5.20    1.70
   4  -4   9    6.50    1.90
   5  -4   9    7.70    2.60
  -3  -3   9    5.70    1.90
  -2  -3   9    5.10    1.70
  -1  -3   9  350.26   10.30
   0  -3   9   85.19    4.90
   1  -3   9   11.00    2.20
   2  -3   9    2.50    1.30
   3  -3   9   69.79    4.30
   4  -3   9    4.10    1.50
   5  -3   9    1.90    1.40
  -3  -2   9    8.30    2.00
  -2  -2   9   16.30    2.60
  -1  -2   9    0.90    1.10
   0  -2   9   27.50    3.30
   1  -2   9   44.50    4.00
   2  -2   9   17.60    2.60
   3  -2   9    0.20    0.80
   4  -2   9   22.70    3.40
   4  -2   9   26.40    3.10
   5  -2   9    1.00    1.20
  -3  -1   9   16.10    2.60
  -2  -1   9   11.10    2.20
  -1  -1   9   23.80    2.90
   0  -1   9    1.30    0.90
   1  -1   9   20.00    2.70
   2  -1   9   21.30    2.70
   3  -1   9   29.70    3.20
   4  -1   9   14.70    2.80
   4  -1   9   10.10    1.90
   5  -1   9    3.90    1.70
   6  -1   9   25.40    4.10
  -5   0   9   20.00    3.10
  -4   0   9   10.10    2.00
  -3   0   9   85.49    4.30
  -3   0   9  103.19    5.10
  -2   0   9   46.70    4.10
  -1   0   9   97.79    4.70
   0   0   9   17.50    2.40
   1   0   9   11.10    1.90
   2   0   9    6.00    1.50
   3   0   9    5.30    1.40
   3   0   9    3.50    1.30
   4   0   9   -0.30    1.00
   5   0   9   18.30    3.00
   6   0   9   76.79    5.70
  -5   1   9   15.10    2.90
  -4   1   9   15.10    2.40
  -4   1   9   18.20    2.60
  -3   1   9   92.89    4.80
  -3   1   9  102.09    4.60
  -2   1   9   37.90    3.60
  -2   1   9   34.70    2.40
  -1   1   9   94.19    4.50
   0   1   9   93.79    4.40
   1   1   9   13.10    2.00
   2   1   9    5.90    1.50
   2   1   9    5.40    1.30
   3   1   9   22.10    2.90
   3   1   9   26.10    2.70
   4   1   9   80.49    4.90
   5   1   9   23.50    3.40
   6   1   9   78.59    5.60
  -5   2   9   -0.50    1.00
  -4   2   9   27.50    3.20
  -4   2   9   28.10    3.30
  -3   2   9    5.50    1.50
  -3   2   9    2.70    1.30
  -2   2   9   22.50    2.40
  -2   2   9   23.70    2.80
  -1   2   9    1.50    0.60
  -1   2   9    1.80    1.00
   0   2   9  426.06    8.30
   0   2   9  416.76    9.60
   1   2   9   20.50    2.30
   1   2   9   18.10    2.20
   2   2   9   54.79    3.30
   2   2   9   59.09    3.20
   3   2   9  149.59    5.10
   3   2   9  152.58    6.10
   4   2   9  174.18    7.10
   5   2   9    3.70    1.50
   6   2   9   56.09    5.70
  -5   3   9   48.90    4.90
  -4   3   9    1.90    1.10
  -4   3   9    0.40    1.00
  -3   3   9   32.80    3.30
  -3   3   9   39.60    3.80
  -2   3   9   22.20    2.70
  -2   3   9   25.40    2.50
  -1   3   9   43.00    3.00
   0  -3  -9   34.40    2.20
   0   3   9   37.40    3.30
   1   3   9   18.40    2.10
   1   3   9   19.50    2.30
   2   3   9   50.49    2.90
   2   3   9   46.50    3.00
   3   3   9  292.37    7.00
   3   3   9  289.97    8.50
   4   3   9   26.20    3.20
   5   3   9   36.50    4.20
   6   3   9    9.60    2.50
  -5   4   9   17.00    2.90
  -4   4   9    4.90    1.70
  -4   4   9    3.40    1.30
  -3   4   9  108.69    4.90
  -3   4   9   97.69    4.90
  -2   4   9   99.19    4.20
  -2   4   9   97.29    4.60
   1  -4  -9   43.40    2.60
  -1   4   9   44.60    3.00
   0  -4  -9   16.50    1.90
   0   4   9   14.30    2.00
  -1  -4  -9   46.70    2.30
   1   4   9   44.20    2.60
   1   4   9   47.90    2.90
   2   4   9   24.80    2.50
   2   4   9   25.10    2.80
   3   4   9  131.09    4.40
   3   4   9  129.79    5.60
   4   4   9   80.79    4.80
   5   4   9   38.20    4.20
   6   4   9   19.90    3.40
  -5   5   9    8.20    2.20
  -4   5   9    1.70    1.20
  -4   5   9    3.30    1.40
  -3   5   9  332.77    9.10
  -3   5   9  335.17    9.40
  -2   5   9  838.92   15.50
   1  -5  -9  106.09    4.30
  -1   5   9   93.99    4.40
   0  -5  -9    6.50    1.30
   0   5   9   10.00    1.80
  -1  -5  -9   20.50    2.10
   1   5   9   16.20    1.90
   1   5   9   19.40    2.20
  -2  -5  -9   24.90    2.20
   2   5   9   24.50    2.60
   2   5   9   28.60    2.60
   3   5   9   44.30    3.30
   4   5   9    5.40    1.70
   5   5   9   30.00    3.90
   6   5   9    0.60    1.10
  -5   6   9   25.60    3.60
  -4   6   9    4.30    1.60
  -3   6   9    9.70    2.20
  -3   6   9    8.00    1.80
   2  -6  -9   88.09    4.40
  -2   6   9   77.99    4.30
   1  -6  -9  138.99    5.20
  -1   6   9  144.99    5.60
   0  -6  -9  206.18    6.00
   0   6   9  201.98    6.40
  -1  -6  -9   11.30    1.60
   1   6   9   12.60    1.80
   1   6   9    8.60    1.60
  -2  -6  -9   60.79    3.10
   2   6   9   57.49    3.10
   2   6   9   58.89    3.50
  -3  -6  -9  112.19    4.40
   3   6   9  116.29    5.40
   4   6   9   44.30    4.60
   5   6   9   66.09    4.90
   6   6   9   61.49    6.00
  -5   7   9   33.80    4.20
   3  -7  -9   26.70    3.30
   2  -7  -9    3.20    1.20
  -2   7   9    2.70    1.20
   1  -7  -9   26.60    2.90
  -1   7   9   30.70    3.30
   0  -7  -9  124.49    4.90
   0   7   9  130.89    5.20
  -1  -7  -9   74.49    3.70
   1   7   9   70.79    3.60
   2   7   9   96.39    4.00
   2   7   9   87.79    4.30
  -3  -7  -9   13.60    2.10
   3   7   9   11.50    2.20
  -4  -7  -9    5.50    1.50
   4   7   9    1.00    1.10
   5   7   9   15.40    2.90
   6   7   9    1.60    1.60
   5  -8  -9   34.30    4.50
   4  -8  -9    4.90    1.90
   3  -8  -9    9.80    2.30
   2  -8  -9    6.00    1.70
   1  -8  -9  156.48    6.10
   0  -8  -9  123.59    5.10
  -1  -8  -9    5.50    1.40
  -2  -8  -9   30.10    3.00
  -3  -8  -9   18.90    2.60
  -4  -8  -9   44.60    4.10
   4   8   9   44.70    4.60
  -5  -8  -9   21.20    3.10
   5   8   9   26.90    3.70
   4  -9  -9   53.89    5.40
   3  -9  -9   24.50    3.50
   2  -9  -9   83.09    4.80
   1  -9  -9   19.20    2.70
   0  -9  -9   28.20    3.00
  -1  -9  -9   36.20    3.50
  -2  -9  -9   82.69    4.50
  -3  -9  -9   68.49    4.20
  -4  -9  -9   35.70    3.70
  -5  -9  -9   10.70    2.40
   4 -10  -9    1.60    1.50
   3 -10  -9    8.90    2.20
   2 -10  -9   47.10    4.50
   1 -10  -9   54.09    4.90
   0 -10  -9   14.00    2.40
  -1 -10  -9   40.90    4.00
  -2 -10  -9   87.49    4.80
  -3 -10  -9   27.60    3.30
  -4 -10  -9   11.60    2.60
  -5 -10  -9   15.50    2.80
   3 -11  -9   12.00    2.70
   2 -11  -9   24.20    3.30
   1 -11  -9   49.90    4.80
   0 -11  -9   44.90    4.30
  -1 -11  -9  252.87    8.60
  -2 -11  -9   25.00    3.30
  -3 -11  -9    1.60    1.20
  -4 -11  -9    2.00    1.40
   3 -12  -9    4.30    2.00
   2 -12  -9   13.30    2.70
   1 -12  -9    7.90    2.30
   0 -12  -9   27.90    3.70
  -1 -12  -9   23.70    3.40
  -2 -12  -9    3.00    1.50
  -3 -12  -9    4.60    1.90
   2 -13  -9   13.90    3.10
   1 -13  -9   11.70    2.70
   0 -13  -9    2.80    1.60
  -1 -13  -9   29.90    3.70
  -2 -13  -9    4.00    1.70
  -1  -5  10   19.50    3.40
   0  -5  10    4.10    1.90
   1  -5  10    3.90    1.80
   2  -5  10   16.30    3.20
   3  -5  10   29.70    4.10
  -2  -4  10   12.30    2.70
  -1  -4  10   83.89    5.40
   0  -4  10    7.00    2.10
   1  -4  10    0.90    1.20
   2  -4  10    9.20    2.20
   3  -4  10   12.60    2.60
   4  -4  10    3.20    1.60
  -3  -3  10   19.30    3.20
  -2  -3  10    9.00    2.30
  -1  -3  10  260.47    9.20
   0  -3  10  239.78    8.80
   1  -3  10    2.50    1.40
   2  -3  10   43.70    4.30
   3  -3  10    0.10    1.50
   4  -3  10    3.60    1.50
  -3  -2  10    6.50    2.00
  -2  -2  10   -0.10    0.80
  -1  -2  10  105.59    5.60
   0  -2  10  172.88    7.10
   1  -2  10   25.90    3.30
   2  -2  10   38.30    3.90
   3  -2  10   10.10    2.10
   4  -2  10    2.70    1.50
   4  -2  10    3.70    1.60
   5  -2  10   -0.40    0.90
  -3  -1  10    7.90    2.00
  -2  -1  10   36.70    3.90
  -1  -1  10   42.10    4.10
   0  -1  10    7.60    1.90
   1  -1  10    3.80    1.40
   2  -1  10    3.40    1.40
   3  -1  10   46.30    4.10
   4  -1  10    9.10    2.40
   4  -1  10    6.40    1.80
   5  -1  10    2.40    1.50
  -3   0  10   21.40    3.00
  -2   0  10   21.50    3.00
  -1   0  10   26.10    3.10
   0   0  10   51.99    3.60
   1   0  10    9.00    1.90
   2   0  10   27.90    3.00
   3   0  10   52.79    3.90
   3   0  10   50.09    3.50
   4   0  10   18.00    3.00
   5   0  10   31.20    4.30
   6   0  10   32.20    4.50
  -4   1  10   16.20    2.70
  -3   1  10   11.00    2.20
  -2   1  10    1.40    1.10
  -1   1  10    8.90    1.90
   0   1  10  192.78    6.80
   1   1  10    9.20    1.80
   2   1  10   60.29    3.60
   2   1  10   70.19    4.00
   3   1  10   11.80    2.20
   3   1  10   12.60    2.10
   4   1  10    7.50    1.90
   5   1  10   11.30    2.60
   6   1  10   19.40    3.40
  -5   2  10   22.50    3.40
  -4   2  10   86.59    5.00
  -4   2  10   79.09    4.80
  -3   2  10    3.40    1.40
  -3   2  10    1.00    1.00
  -2   2  10    8.00    1.80
  -1   2  10  132.79    5.50
   0   2  10  157.18    5.90
   1   2  10  151.18    5.30
   1   2  10  165.98    5.90
   2   2  10  124.29    5.20
   2   2  10  131.09    5.20
   3   2  10   34.30    3.60
   3   2  10   35.60    3.20
   4   2  10   30.20    3.80
   5   2  10   12.00    2.60
   6   2  10    3.60    1.90
  -5   3  10    1.00    1.50
  -4   3  10   25.20    3.30
  -4   3  10   19.50    2.90
  -3   3  10   18.10    2.60
  -3   3  10   20.80    2.70
  -2   3  10    6.00    1.50
  -2   3  10    7.90    1.50
  -1   3  10   43.50    4.00
   0   3  10  114.39    5.00
   1   3  10  221.78    6.30
   1   3  10  211.58    6.60
   2   3  10   76.79    4.10
   2   3  10   73.79    3.80
   3   3  10  751.92   15.30
   3   3  10  761.02   13.50
   4   3  10    7.30    2.00
   5   3  10    0.30    1.20
   6   3  10    6.10    2.20
  -5   4  10    1.20    1.60
  -4   4  10   17.80    2.80
  -4   4  10   19.20    3.00
  -3   4  10   44.30    4.10
  -3   4  10   42.20    3.70
  -2   4  10  100.79    5.00
  -2   4  10   98.89    4.40
   1  -4 -10   15.20    1.90
  -1   4  10   16.20    2.40
   0   4  10   25.80    2.80
   1   4  10   75.19    3.90
   1   4  10   68.29    3.40
   2   4  10   72.09    3.70
   2   4  10   70.89    3.80
   3   4  10  132.59    5.80
   3   4  10  130.69    4.80
   4   4  10   11.10    2.40
   6   4  10   16.20    3.10
  -5   5  10   -0.40    1.10
  -4   5  10   29.70    3.50
  -4   5  10   32.40    3.90
  -3   5  10   84.49    4.60
  -3   5  10   78.09    4.70
   2  -5 -10  167.98    6.20
  -2   5  10  168.28    6.50
   1  -5 -10    8.60    1.60
  -1   5  10   13.30    2.20
   0  -5 -10   59.09    3.00
   0   5  10   58.19    3.50
   1   5  10   26.30    2.70
   1   5  10   26.70    2.60
   2   5  10    0.20    0.70
   2   5  10   -0.10    0.60
   3   5  10  197.38    7.10
   4   5  10    0.20    0.90
   5   5  10    3.30    1.70
   6   5  10   21.40    3.70
  -5   6  10    1.10    1.60
  -4   6  10    6.50    2.00
  -4   6  10    2.00    1.20
  -3   6  10   51.29    4.60
   2  -6 -10   99.99    4.90
  -2   6  10   98.49    5.10
   1  -6 -10   23.40    2.70
  -1   6  10   22.40    2.70
   0  -6 -10  200.38    6.10
   0   6  10  212.78    6.90
  -1  -6 -10   87.29    3.80
   1   6  10   84.39    4.10
   1   6  10   82.59    3.80
   2   6  10    7.40    1.50
   2   6  10    7.40    1.60
   3   6  10   12.10    2.20
   4   6  10    3.80    1.40
   5   6  10    3.10    1.70
   6   6  10    1.70    1.60
  -5   7  10    0.10    1.30
   3  -7 -10    8.70    2.00
   2  -7 -10   17.70    2.80
  -2   7  10   14.80    2.50
   1  -7 -10    6.50    1.50
  -1   7  10    4.20    1.30
   0  -7 -10   23.20    2.60
   0   7  10   23.50    2.70
  -1  -7 -10   49.60    3.10
   1   7  10   52.59    3.30
  -2  -7 -10   15.60    2.10
   2   7  10   17.70    2.30
   2   7  10   12.50    2.20
  -3  -7 -10   19.20    2.40
   3   7  10   17.40    2.70
   4   7  10   85.49    5.30
   5   7  10    5.40    2.00
   4  -8 -10    5.80    1.90
   3  -8 -10   55.89    5.10
   2  -8 -10    6.10    1.70
   1  -8 -10    0.30    0.80
   0  -8 -10   11.10    1.90
  -1  -8 -10    1.50    0.90
  -2  -8 -10   47.90    3.20
  -3  -8 -10  124.89    5.30
   3   8  10  120.49    5.80
  -4  -8 -10   18.20    2.80
   4   8  10   17.10    3.00
   5   8  10    3.20    1.70
   4  -9 -10   10.90    2.70
   3  -9 -10   21.80    3.40
   2  -9 -10   12.40    2.30
   1  -9 -10   52.79    3.80
   0  -9 -10    1.80    1.20
  -1  -9 -10   18.40    2.60
  -2  -9 -10    4.50    1.40
  -3  -9 -10  118.29    5.50
  -4  -9 -10    2.90    1.50
   4 -10 -10    0.30    1.60
   3 -10 -10   12.50    2.70
   2 -10 -10   32.80    4.00
   1 -10 -10   22.50    3.20
   0 -10 -10   16.70    2.60
  -1 -10 -10  116.79    5.50
  -2 -10 -10   88.29    4.90
  -3 -10 -10    5.40    1.80
  -4 -10 -10    2.80    1.60
  -5 -10 -10    8.20    2.30
   3 -11 -10   17.70    3.20
   2 -11 -10    8.40    2.20
   1 -11 -10   46.60    4.70
   0 -11 -10  116.49    5.90
  -1 -11 -10  271.67    9.00
  -2 -11 -10  101.29    5.50
  -3 -11 -10   20.00    3.10
  -4 -11 -10    8.90    2.40
   2 -12 -10    1.00    1.40
   1 -12 -10   21.10    3.20
   0 -12 -10   34.90    4.10
  -1 -12 -10    9.60    2.20
  -2 -12 -10   26.50    3.40
  -3 -12 -10    8.40    2.30
   1 -13 -10    9.50    2.50
   0 -13 -10   26.60    3.80
  -1 -13 -10    1.60    1.30
  -2 -13 -10   -0.30    1.00
  -1  -4  11    8.20    2.40
   0  -4  11   16.60    3.00
   1  -4  11    5.20    2.10
   2  -4  11   11.90    2.80
   3  -4  11   28.70    4.00
  -2  -3  11    5.00    1.90
  -1  -3  11  156.98    7.40
   0  -3  11   34.00    4.20
   1  -3  11   27.60    3.70
   2  -3  11    9.30    2.40
   3  -3  11    3.00    1.50
   4  -3  11    1.80    1.60
  -3  -2  11   12.10    2.70
  -2  -2  11    2.30    1.40
  -1  -2  11   29.20    3.80
   0  -2  11   29.40    3.80
   1  -2  11    8.60    2.30
   2  -2  11   28.90    3.70
   3  -2  11   11.90    2.50
   4  -2  11   13.60    2.90
   4  -2  11   11.20    2.40
  -3  -1  11    7.30    2.00
  -2  -1  11    5.50    1.80
  -1  -1  11   75.79    4.90
   0  -1  11   19.10    3.00
   1  -1  11   -0.10    0.90
   2  -1  11   75.89    4.70
   3  -1  11   48.80    4.80
   3  -1  11   42.10    4.10
   4  -1  11    1.20    1.20
   5  -1  11    9.10    2.50
  -3   0  11   10.10    2.30
  -2   0  11    8.80    2.10
  -1   0  11   14.60    2.60
   0   0  11   -0.60    0.80
   1   0  11    6.10    1.60
   2   0  11    0.90    0.90
   3   0  11    1.00    1.00
   3   0  11    1.10    1.10
   4   0  11    1.20    1.30
   5   0  11   67.69    6.40
  -4   1  11   14.00    2.90
  -3   1  11    8.60    2.20
  -2   1  11    4.60    1.50
  -1   1  11   17.60    2.80
   0   1  11   31.30    3.50
   1   1  11   19.60    2.80
   1   1  11   18.50    2.40
   2   1  11    3.70    1.40
   2   1  11    4.40    1.40
   3   1  11   12.60    2.40
   3   1  11   15.20    2.30
   4   1  11    0.00    0.90
   5   1  11   75.79    5.60
  -4   2  11    7.00    2.00
  -3   2  11    5.70    1.70
  -2   2  11   19.20    3.00
  -1   2  11  104.89    5.20
   0   2  11  173.88    6.70
   1   2  11   25.90    2.70
   1   2  11   25.50    3.00
   2   2  11   11.90    2.10
   2   2  11   10.60    1.90
   3   2  11  130.39    5.40
   3   2  11  139.79    6.30
   4   2  11   23.20    3.50
   5   2  11   13.60    2.80
  -4   3  11    1.10    1.20
  -4   3  11    0.30    1.10
  -3   3  11    6.70    1.80
  -2   3  11    0.40    0.80
  -1   3  11   19.40    2.70
   0   3  11    4.20    1.40
   1   3  11   29.00    3.10
   2   3  11  325.77    9.10
   2   3  11  341.37    9.00
   3   3  11  356.56   10.20
   3   3  11  355.36    9.00
   4   3  11   84.89    5.20
   5   3  11   57.29    5.70
   6   3  11    1.10    1.80
  -4   4  11    5.70    1.90
  -4   4  11    3.60    1.70
  -3   4  11    8.40    2.00
  -3   4  11   12.40    2.30
  -2   4  11    8.20    2.00
  -1   4  11    4.40    1.40
   0   4  11   17.70    2.70
   1   4  11   52.09    3.40
   2   4  11   80.59    4.20
   2   4  11   77.99    4.10
   3   4  11  198.28    7.40
   3   4  11  205.18    6.50
   4   4  11    4.90    1.80
   5   4  11    2.30    1.60
   6   4  11   17.30    3.40
  -4   5  11    6.30    1.90
  -4   5  11    8.80    2.20
  -3   5  11   53.69    4.80
  -3   5  11   50.89    4.40
   2  -5 -11    4.20    1.40
  -2   5  11    5.50    1.70
  -1   5  11   11.40    2.10
   0   5  11   48.10    3.40
   1   5  11   17.30    2.40
   2   5  11   13.50    2.30
   2   5  11   13.40    2.10
   3   5  11  179.68    6.90
   4   5  11   15.00    2.60
   5   5  11    0.10    0.90
  -4   6  11   20.90    3.20
  -4   6  11   22.80    3.30
   3  -6 -11   49.50    4.60
  -3   6  11   50.69    4.80
   2  -6 -11    4.10    1.40
  -2   6  11    6.50    1.80
   1  -6 -11   37.00    3.40
  -1   6  11   28.90    3.30
   0   6  11   19.20    2.70
   1   6  11  103.99    4.80
   2   6  11    5.50    1.40
   2   6  11    6.90    1.70
   3   6  11   34.60    3.80
   4   6  11    0.50    1.00
   5   6  11    1.20    1.20
   4  -7 -11   29.80    4.00
   3  -7 -11   74.29    4.90
  -3   7  11   84.09    5.20
   2  -7 -11    2.80    1.40
  -2   7  11    2.90    1.20
   1  -7 -11   45.70    4.00
  -1   7  11   48.30    4.30
   0  -7 -11  106.29    4.70
   0   7  11  101.69    5.10
  -1  -7 -11    3.80    1.10
   1   7  11    2.30    1.20
   2   7  11   21.30    2.60
   2   7  11   24.40    2.90
   3   7  11    4.70    1.70
   4   7  11  109.59    6.00
   5   7  11    1.00    1.30
   4  -8 -11   56.49    5.40
   3  -8 -11    5.70    1.80
   2  -8 -11    9.60    2.20
   1  -8 -11   12.90    2.30
  -1   8  11   12.50    2.40
   0  -8 -11    2.80    1.20
   0   8  11    2.50    1.20
  -1  -8 -11   41.20    3.60
   1   8  11   49.50    4.20
  -2  -8 -11   29.90    3.00
   2   8  11   27.10    3.10
   2   8  11   29.50    3.10
   3   8  11  125.89    6.10
   4   8  11   10.30    2.50
   5   8  11   10.00    2.70
   4  -9 -11    4.70    2.00
   3  -9 -11    3.80    1.70
   2  -9 -11   10.90    2.40
   1  -9 -11   18.00    2.70
   0  -9 -11   42.20    3.90
  -1  -9 -11  102.89    5.00
  -2  -9 -11   56.79    3.80
  -3  -9 -11   46.70    4.10
   3 -10 -11   30.60    4.10
   2 -10 -11    0.40    1.00
   1 -10 -11    4.30    1.70
   0 -10 -11   30.60    3.60
  -1 -10 -11  151.68    6.40
  -2 -10 -11    4.20    1.50
  -3 -10 -11   13.20    2.40
  -4 -10 -11   12.40    2.50
   3 -11 -11   20.70    3.60
   2 -11 -11   11.40    2.60
   1 -11 -11    1.60    1.30
   0 -11 -11   57.39    5.10
  -1 -11 -11  115.89    5.80
  -2 -11 -11   18.40    3.00
  -3 -11 -11   34.20    4.00
  -4 -11 -11    5.10    1.90
   2 -12 -11   20.90    3.50
   1 -12 -11    8.00    2.30
   0 -12 -11   23.90    3.30
  -1 -12 -11    0.40    1.20
  -2 -12 -11   30.40    3.80
  -3 -12 -11    4.90    1.90
   1 -13 -11    2.40    1.60
   0 -13 -11    1.90    1.30
  -1 -13 -11    7.70    2.10
  -2 -13 -11    2.50    1.40
   0  -3  12    4.50    2.00
   1  -3  12    6.90    2.30
   2  -3  12   -1.30    1.30
   3  -3  12    2.20    1.80
  -2  -2  12   22.50    3.50
  -1  -2  12   13.80    2.80
   0  -2  12   27.20    3.70
   1  -2  12    3.70    1.80
   2  -2  12   26.70    3.80
   3  -2  12    8.70    2.30
   4  -2  12   14.60    3.40
   4  -2  12    7.20    2.30
  -2  -1  12   73.79    5.20
  -1  -1  12   63.19    5.70
   0  -1  12   14.20    2.60
   1  -1  12   26.10    3.50
   2  -1  12   49.30    4.70
   3  -1  12    1.30    1.30
   3  -1  12    2.50    1.40
   4  -1  12   11.60    2.90
  -3   0  12   15.40    2.90
  -2   0  12   20.80    3.40
  -1   0  12   -0.40    1.00
   0   0  12    1.20    1.10
   1   0  12   -1.10    0.80
   2   0  12    3.70    1.50
   2   0  12    3.80    1.50
   3   0  12   15.60    2.60
   3   0  12   18.10    3.20
   4   0  12    3.50    1.70
  -3   1  12   12.70    2.80
  -2   1  12    5.50    1.90
  -1   1  12   17.50    2.90
   0   1  12    3.00    1.40
   1   1  12    3.90    1.50
   2   1  12   39.80    3.90
   2   1  12   40.60    4.20
   3   1  12    5.00    1.80
   3   1  12    4.30    1.50
   4   1  12    1.20    1.40
   5   1  12   -0.80    1.10
  -3   2  12   43.10    4.50
  -2   2  12   20.40    3.10
  -1   2  12   18.30    2.80
   0   2  12   -0.10    0.80
   1   2  12    2.70    1.30
   2   2  12    9.40    2.00
   2   2  12   12.70    2.40
   3   2  12   19.10    3.00
   3   2  12   22.00    2.90
   4   2  12   10.20    2.60
   5   2  12   28.10    4.30
  -4   3  12   20.80    3.20
  -3   3  12   15.00    2.80
  -2   3  12   10.80    2.20
  -1   3  12   88.19    5.10
   0   3  12   62.89    4.20
   1   3  12   45.60    4.20
   2   3  12   78.39    4.50
   2   3  12   73.69    4.30
   3   3  12   69.99    4.10
   3   3  12   77.39    4.80
   4   3  12   55.39    5.20
   5   3  12   80.99    5.80
  -4   4  12   12.90    2.70
  -3   4  12    8.50    2.10
  -2   4  12    4.60    1.70
  -1   4  12   30.50    3.60
   0   4  12   73.19    4.50
   1   4  12   50.69    4.30
   2   4  12   30.20    3.20
   2   4  12   31.80    3.40
   3   4  12   55.89    4.00
   3   4  12   62.89    3.90
   4   4  12    5.30    1.80
   5   4  12    5.10    1.90
  -4   5  12   42.40    4.80
  -4   5  12   36.80    4.30
  -3   5  12    5.80    1.90
  -2   5  12   36.80    4.00
  -1   5  12   17.40    2.70
   0   5  12   13.10    2.40
   1   5  12   12.90    2.20
   2   5  12  177.78    6.50
   2   5  12  174.28    6.40
   3   5  12   17.90    2.80
   4   5  12   10.00    2.30
   5   5  12   22.40    3.60
  -4   6  12   49.30    4.90
   3  -6 -12  135.09    6.50
  -3   6  12  130.79    6.70
  -2   6  12    2.20    1.50
  -1   6  12   12.10    2.40
   0   6  12   23.30    3.10
   1   6  12    0.50    0.80
   2   6  12  125.39    5.40
   3   6  12   15.90    2.70
   4   6  12    5.00    1.80
   5   6  12   10.80    2.70
   4  -7 -12   12.20    2.90
   3  -7 -12  147.79    6.90
  -3   7  12  153.08    7.20
   2  -7 -12   11.00    2.20
  -2   7  12   13.90    2.60
   1  -7 -12    1.60    1.20
  -1   7  12    2.70    1.40
   0   7  12   12.10    2.30
   1   7  12    8.90    2.00
   2   7  12    8.20    1.80
   3   7  12   27.70    3.50
   4   7  12   19.70    3.20
   5   7  12    1.10    1.60
   3  -8 -12   16.30    3.00
   2  -8 -12   14.00    2.60
  -2   8  12   17.20    2.90
   1  -8 -12   38.20    3.80
  -1   8  12   30.30    3.60
   0  -8 -12   69.29    4.10
   0   8  12   76.39    4.60
   1   8  12    2.50    1.30
   2   8  12   41.10    3.90
   3   8  12   16.20    2.80
   4   8  12   60.29    5.70
   5   8  12    8.00    2.70
   3  -9 -12   43.30    4.80
   2  -9 -12   -1.00    0.90
   1  -9 -12    2.40    1.30
   0  -9 -12    3.50    1.40
  -1  -9 -12    9.70    2.10
   4   9  12   10.10    2.40
   3 -10 -12   16.40    3.10
   2 -10 -12   38.20    4.20
   1 -10 -12   40.20    4.30
   0 -10 -12    5.90    1.80
  -1 -10 -12    9.90    2.20
  -2 -10 -12   20.60    2.90
   2 -11 -12   53.29    5.30
   1 -11 -12   44.50    4.60
   0 -11 -12   10.90    2.50
  -1 -11 -12    7.20    1.90
  -2 -11 -12    3.40    1.60
  -3 -11 -12   37.70    4.10
   1 -12 -12    7.20    2.20
   0 -12 -12   47.30    4.80
  -1 -12 -12   44.10    4.60
  -2 -12 -12    4.10    1.80
   0 -13 -12   32.30    4.20
  -1 -13 -12   33.50    4.10
   1  -2  13    3.60    1.80
   2  -2  13   14.10    3.00
  -1  -1  13  168.78    8.00
   0  -1  13    2.20    1.30
   1  -1  13    7.50    2.20
   2  -1  13    1.60    1.30
   3  -1  13    0.50    1.40
   3  -1  13   -1.90    0.90
  -2   0  13    1.60    1.60
  -1   0  13   43.60    4.80
   0   0  13    1.70    1.50
   1   0  13   24.20    3.50
   2   0  13   16.20    3.20
   2   0  13   19.10    3.00
   3   0  13    4.90    1.90
   3   0  13    4.50    1.70
   4   0  13   34.90    4.70
  -2   1  13    6.90    2.20
  -1   1  13    5.90    2.00
   0   1  13    1.00    1.30
   1   1  13   33.00    3.90
   2   1  13    0.50    0.90
   3   1  13   12.30    2.50
   3   1  13    9.90    2.40
   4   1  13   10.00    2.50
  -3   2  13    7.50    2.30
  -2   2  13    1.80    1.40
  -1   2  13   13.40    2.70
   0   2  13   16.60    2.80
   1   2  13   12.60    2.40
   2   2  13   20.70    3.10
   3   2  13    2.80    1.40
   3   2  13    3.00    1.70
   4   2  13   -0.80    1.10
  -3   3  13   31.50    4.10
  -2   3  13    5.60    1.90
  -1   3  13   83.99    5.30
   0   3  13    0.60    1.10
   1   3  13    1.40    1.10
   2   3  13   10.20    2.20
   3   3  13    6.20    2.00
   3   3  13    4.20    1.50
   4   3  13    3.20    1.70
  -3   4  13    0.20    1.10
  -2   4  13   18.20    3.00
  -1   4  13   20.60    3.10
   0   4  13  117.59    6.00
   1   4  13   80.29    4.80
   2   4  13   28.30    3.40
   3   4  13   34.90    4.00
   4   4  13    2.20    1.50
   5   4  13    0.90    1.20
  -3   5  13    5.20    2.00
  -2   5  13    0.80    1.20
  -1   5  13    8.00    2.00
   0   5  13    8.30    2.10
   1   5  13    9.80    2.10
   2   5  13  308.97    9.10
   3   5  13   44.70    4.50
   4   5  13    1.60    1.30
   5   5  13    3.60    1.90
  -3   6  13   66.79    6.00
  -2   6  13    2.30    1.50
  -1   6  13   10.10    2.30
   0   6  13    8.20    2.10
   1   6  13   63.69    4.20
   2   6  13   48.70    4.30
   3   6  13    6.70    1.90
   4   6  13    2.80    1.60
   5   6  13    3.70    1.90
  -3   7  13   60.79    5.70
  -2   7  13   24.50    3.50
  -1   7  13   34.60    4.00
   0   7  13   78.99    4.90
   1   7  13   26.70    3.40
   2   7  13   74.59    4.50
   3   7  13    0.10    0.90
   4   7  13    0.80    1.30
   5   7  13    1.00    1.60
   3  -8 -13   24.90    3.70
  -3   8  13   22.90    3.80
  -2   8  13   13.00    2.60
  -1   8  13   32.90    4.00
   0   8  13   43.90    4.50
   1   8  13   18.70    2.80
   2   8  13   43.40    4.20
   3   8  13   11.20    2.40
   4   8  13    1.30    1.40
   3  -9 -13   -0.30    1.20
   2  -9 -13    1.30    1.40
   1  -9 -13   10.10    2.20
  -1   9  13   13.30    2.60
   0   9  13   15.00    2.70
   1   9  13   20.20    3.10
   4   9  13    6.70    2.10
   2 -10 -13   28.90    4.00
   1 -10 -13   12.60    2.60
   0 -10 -13    5.10    1.70
   2 -11 -13    0.70    1.30
   1 -11 -13   10.50    2.40
   0 -11 -13   15.30    2.80
  -1 -11 -13   15.80    2.80
   1 -12 -13    9.30    2.50
   0 -12 -13  105.79    6.10
  -1 -12 -13   67.99    5.90
  -2 -12 -13    3.40    1.90
   1   0  14   53.19    5.40
   2   0  14    6.30    2.30
  -1   1  14    0.60    1.20
   0   1  14   -0.20    1.20
   1   1  14    0.80    1.40
   2   1  14   44.80    4.70
   3   1  14    4.90    1.90
   3   1  14    4.80    2.00
  -1   2  14    5.10    2.10
   0   2  14    7.00    2.20
   1   2  14   13.40    2.70
   2   2  14    5.60    1.80
   3   2  14   21.90    3.20
   3   2  14   14.40    2.90
   4   2  14   14.00    3.10
  -2   3  14    4.20    1.80
  -1   3  14   23.30    3.40
   0   3  14    7.60    2.30
   1   3  14   -0.20    1.10
   2   3  14   57.29    5.10
   3   3  14   22.90    3.60
   3   3  14   15.80    2.60
   4   3  14   98.99    6.20
  -2   4  14   21.30    3.50
  -1   4  14    3.20    1.60
   0   4  14   21.00    3.30
   1   4  14   13.90    2.70
   2   4  14   85.39    5.20
   4   4  14   10.30    2.60
  -2   5  14    7.00    2.20
  -1   5  14   24.40    3.50
   0   5  14   21.70    3.30
   1   5  14   49.10    4.60
   2   5  14  291.97    9.30
   4   5  14   26.30    3.80
  -2   6  14    0.80    1.40
  -1   6  14   13.50    2.60
   0   6  14   15.70    2.90
   1   6  14   23.00    3.20
   2   6  14    5.10    1.70
   4   6  14    0.70    1.20
  -2   7  14    4.30    2.00
  -1   7  14   15.30    2.80
   0   7  14    2.10    1.30
   1   7  14   10.90    2.40
   2   7  14   17.70    2.90
   4   7  14   -0.10    1.10
  -2   8  14    0.40    1.10
  -1   8  14    0.90    1.30
   0   8  14   48.10    4.90
   1   8  14   20.60    3.20
   2   8  14    9.50    2.20
   4   8  14    6.80    2.10
  -1   9  14    2.30    1.60
   0   9  14    6.80    2.10
   1   9  14    7.00    2.10
   1   2  15    5.90    2.10
   2   2  15    4.00    2.00
   0   3  15    4.50    2.00
   1   3  15    4.10    2.10
   2   3  15    3.30    1.60
   0   4  15    4.70    2.00
   1   4  15   14.40    2.90
   2   4  15   58.09    5.30
  -1   5  15    6.10    2.30
   0   5  15   -0.10    1.40
   1   5  15   59.59    5.40
   2   5  15   31.00    3.80
  -1   6  15   26.30    3.90
   0   6  15    1.50    1.60
   1   6  15   40.60    4.50
   2   6  15    0.10    1.10
  -1   7  15    5.00    2.20
   0   7  15    5.40    2.10
   1   7  15   14.10    2.70
   2   7  15    6.40    2.00
   0   8  15   -0.80    1.40
   1   8  15   49.70    5.00
   0   9  15    1.60    1.40
   1   9  15   17.30    3.20
;
_shelx_hkl_checksum              63551
loop_
_space_group_symop_operation_xyz
'x, y, z'
loop_
_atom_site_type_symbol
_atom_site_label
_atom_site_fract_x
_atom_site_fract_y
_atom_site_fract_z
_atom_site_U_iso_or_equiv
_atom_site_adp_type
_atom_site_calc_flag
_atom_site_refinement_flags_adp
_atom_site_refinement_flags_posn
_atom_site_occupancy
C C1 0.2673(5) 0.8206(3) 0.1716(3) 0.0244(6) Uani d U . 1
C C2 0.0856(5) 0.7659(3) 0.1495(3) 0.0288(7) Uani d U . 1
H H2 0.0486 0.6714 0.1943 0.035 Uiso calc U R 1
C C3 -0.0550(5) 0.8465(3) 0.0595(3) 0.0251(6) Uani d U . 1
C C4 0.0040(5) 0.9924(3) 0.0053(3) 0.0237(6) Uani d U . 1
C C5 -0.1283(5) 1.0874(3) -0.0735(3) 0.0270(7) Uani d U . 1
H H5 -0.2632 1.0578 -0.0919 0.032 Uiso calc U R 1
C C6 -0.0652(5) 1.2232(3) -0.1245(3) 0.0291(7) Uani d U . 1
H H6 -0.1565 1.2873 -0.1775 0.035 Uiso calc U R 1
C C7 0.1345(5) 1.2668(3) -0.0980(3) 0.0279(7) Uani d U . 1
H H7 0.1791 1.3606 -0.1346 0.033 Uiso calc U R 1
C C8 0.2662(5) 1.1766(3) -0.0202(3) 0.0240(6) Uani d U . 1
H H8 0.4017 1.2069 -0.0028 0.029 Uiso calc U R 1
C C9 0.1979(5) 1.0394(3) 0.0332(3) 0.0216(6) Uani d U . 1
C C10 0.4172(5) 0.7459(3) 0.2679(3) 0.0262(6) Uani d U . 1
C C11 0.5499(5) 0.5220(3) 0.3948(3) 0.0240(6) Uani d U . 1
H H11 0.6648 0.5793 0.4081 0.029 Uiso calc U R 1
C C12 0.6801(5) 0.4322(3) 0.3460(3) 0.0321(7) Uani d U . 1
H H12A 0.5718 0.3779 0.3283 0.048 Uiso calc U R 1
H H12B 0.7703 0.3721 0.4075 0.048 Uiso calc U R 1
H H12C 0.7822 0.4888 0.2707 0.048 Uiso calc U R 1
C C13 0.3941(5) 0.4424(3) 0.5185(3) 0.0286(6) Uani d U . 1
C C14 0.2603(7) 0.5409(4) 0.5556(3) 0.0475(9) Uani d U . 1
H H14A 0.1578 0.5876 0.4956 0.071 Uiso calc U R 1
H H14B 0.3669 0.6074 0.5585 0.071 Uiso calc U R 1
H H14C 0.1704 0.4908 0.6366 0.071 Uiso calc U R 1
C C15 0.5461(6) 0.3672(4) 0.6168(3) 0.0408(8) Uani d U . 1
H H15A 0.4505 0.3191 0.6964 0.061 Uiso calc U R 1
H H15B 0.6532 0.4325 0.6212 0.061 Uiso calc U R 1
H H15C 0.6316 0.3021 0.5955 0.061 Uiso calc U R 1
C C16 0.2288(6) 0.3417(4) 0.5103(4) 0.0476(9) Uani d U . 1
H H16A 0.125 0.2978 0.5876 0.071 Uiso calc U R 1
H H16B 0.3145 0.2731 0.4946 0.071 Uiso calc U R 1
H H16C 0.1401 0.3893 0.4432 0.071 Uiso calc U R 1
C C17 0.7997(5) 0.4547(3) 1.0202(3) 0.0233(6) Uani d U . 1
C C18 0.9895(5) 0.5067(3) 1.0374(3) 0.0262(6) Uani d U . 1
H H18 1.0377 0.5988 0.9865 0.031 Uiso calc U R 1
C C19 1.1228(5) 0.4256(3) 1.1319(3) 0.0248(6) Uani d U . 1
C C20 1.0467(5) 0.2822(3) 1.1955(3) 0.0229(6) Uani d U . 1
C C21 1.1704(5) 0.1859(3) 1.2786(3) 0.0275(7) Uani d U . 1
H H21 1.305 0.2142 1.2982 0.033 Uiso calc U R 1
C C22 1.1008(5) 0.0509(3) 1.3325(3) 0.0314(7) Uani d U . 1
H H22 1.1892 -0.0138 1.3871 0.038 Uiso calc U R 1
C C23 0.8984(5) 0.0090(3) 1.3065(3) 0.0281(7) Uani d U . 1
H H23 0.8488 -0.0842 1.3449 0.034 Uiso calc U R 1
C C24 0.7711(5) 0.1015(3) 1.2261(3) 0.0253(6) Uani d U . 1
H H24 0.6334 0.0732 1.2091 0.03 Uiso calc U R 1
C C25 0.8481(5) 0.2369(3) 1.1703(3) 0.0220(6) Uani d U . 1
C C26 0.6634(5) 0.5255(3) 0.9161(3) 0.0259(6) Uani d U . 1
C C27 0.5988(5) 0.7353(3) 0.7441(3) 0.0272(6) Uani d U . 1
H H27 0.4494 0.6895 0.7488 0.033 Uiso calc U R 1
C C28 0.7658(7) 0.7194(4) 0.6454(3) 0.0412(8) Uani d U . 1
H H28A 0.9155 0.7618 0.6393 0.062 Uiso calc U R 1
H H28B 0.7087 0.7632 0.5664 0.062 Uiso calc U R 1
H H28C 0.7801 0.623 0.6672 0.062 Uiso calc U R 1
C C29 0.5541(5) 0.8822(3) 0.7176(3) 0.0273(6) Uani d U . 1
C C30 0.4421(6) 0.9454(4) 0.6001(3) 0.0414(8) Uani d U . 1
H H30A 0.3112 0.8864 0.6073 0.062 Uiso calc U R 1
H H30B 0.5535 0.9556 0.5296 0.062 Uiso calc U R 1
H H30C 0.3902 1.0343 0.5887 0.062 Uiso calc U R 1
C C31 0.7735(6) 0.9670(3) 0.6990(3) 0.0362(7) Uani d U . 1
H H31A 0.7366 1.0602 0.6813 0.054 Uiso calc U R 1
H H31B 0.8787 0.9668 0.6302 0.054 Uiso calc U R 1
H H31C 0.8457 0.9284 0.7736 0.054 Uiso calc U R 1
C C32 0.3868(6) 0.8851(4) 0.8233(3) 0.0384(8) Uani d U . 1
H H32A 0.2478 0.8293 0.8362 0.058 Uiso calc U R 1
H H32B 0.3478 0.9785 0.8029 0.058 Uiso calc U R 1
H H32C 0.4581 0.8495 0.8982 0.058 Uiso calc U R 1
N N1 0.4228(4) 0.6125(2) 0.2991(2) 0.0251(5) Uani d U . 1
H H1 0.3469 0.5782 0.2605 0.03 Uiso calc U R 1
N N2 0.6813(4) 0.6608(2) 0.8632(2) 0.0265(6) Uani d U . 1
H H2A 0.7415 0.705 0.8989 0.032 Uiso calc U R 1
O O1 0.3328(3) 0.95340(19) 0.11362(17) 0.0245(5) Uani d U . 1
O O2 -0.2100(4) 0.7968(2) 0.0300(2) 0.0346(5) Uani d U . 1
O O3 0.5130(4) 0.8051(2) 0.3153(2) 0.0397(6) Uani d U . 1
O O4 0.7197(3) 0.32446(19) 1.08632(18) 0.0252(5) Uani d U . 1
O O5 1.2887(3) 0.4733(2) 1.1563(2) 0.0327(5) Uani d U . 1
O O6 0.5589(4) 0.4576(2) 0.8792(2) 0.0371(5) Uani d U . 1
loop_
_atom_site_aniso_label
_atom_site_aniso_U_11
_atom_site_aniso_U_22
_atom_site_aniso_U_33
_atom_site_aniso_U_12
_atom_site_aniso_U_13
_atom_site_aniso_U_23
C1 0.0287(15) 0.0193(15) 0.0233(15) -0.0026(13) -0.0030(12) -0.0076(13)
C2 0.0316(16) 0.0199(15) 0.0324(17) -0.0005(13) -0.0067(13) -0.0086(14)
C3 0.0226(14) 0.0250(15) 0.0305(16) -0.0032(13) -0.0018(12) -0.0153(14)
C4 0.0263(15) 0.0232(15) 0.0233(15) 0.0025(12) -0.0035(12) -0.0118(13)
C5 0.0236(14) 0.0313(17) 0.0293(16) 0.0019(13) -0.0064(12) -0.0155(14)
C6 0.0337(16) 0.0272(16) 0.0261(16) 0.0089(13) -0.0064(13) -0.0106(14)
C7 0.0368(16) 0.0202(14) 0.0237(15) -0.0009(13) 0.0004(13) -0.0082(13)
C8 0.0277(14) 0.0221(15) 0.0216(14) 0.0003(12) -0.0005(11) -0.0097(12)
C9 0.0217(14) 0.0230(15) 0.0202(14) 0.0015(12) -0.0006(11) -0.0102(12)
C10 0.0305(15) 0.0199(15) 0.0258(15) -0.0004(12) -0.0068(12) -0.0070(13)
C11 0.0231(13) 0.0244(14) 0.0263(14) 0.0009(11) -0.0081(11) -0.0114(12)
C12 0.0291(15) 0.0333(17) 0.0357(17) 0.0039(13) -0.0043(13) -0.0169(14)
C13 0.0270(14) 0.0316(16) 0.0256(14) 0.0079(12) -0.0062(12) -0.0103(13)
C14 0.053(2) 0.049(2) 0.0332(19) 0.0225(18) 0.0016(16) -0.0135(17)
C15 0.0452(18) 0.042(2) 0.0285(17) 0.0146(16) -0.0116(14) -0.0074(15)
C16 0.0395(19) 0.043(2) 0.044(2) -0.0092(16) 0.0004(16) -0.0056(17)
C17 0.0249(15) 0.0200(15) 0.0260(15) 0.0034(13) -0.0047(12) -0.0106(13)
C18 0.0303(15) 0.0208(15) 0.0279(15) -0.0015(13) -0.0055(12) -0.0107(13)
C19 0.0247(15) 0.0273(16) 0.0281(16) 0.0061(13) -0.0053(12) -0.0169(14)
C20 0.0234(14) 0.0271(15) 0.0241(15) 0.0057(12) -0.0051(11) -0.0162(13)
C21 0.0316(16) 0.0307(17) 0.0254(16) 0.0054(14) -0.0096(13) -0.0156(14)
C22 0.0403(17) 0.0310(17) 0.0229(16) 0.0081(14) -0.0120(14) -0.0097(14)
C23 0.0353(16) 0.0217(15) 0.0225(15) 0.0009(13) -0.0034(13) -0.0054(13)
C24 0.0246(14) 0.0259(15) 0.0246(15) 0.0001(12) -0.0034(12) -0.0102(13)
C25 0.0232(14) 0.0219(15) 0.0212(14) 0.0051(12) -0.0041(11) -0.0094(12)
C26 0.0264(14) 0.0218(15) 0.0297(15) 0.0002(12) -0.0058(12) -0.0107(13)
C27 0.0297(15) 0.0247(15) 0.0246(15) 0.0020(12) -0.0101(12) -0.0065(13)
C28 0.059(2) 0.0353(18) 0.0323(18) 0.0119(17) -0.0056(16) -0.0175(16)
C29 0.0277(14) 0.0255(15) 0.0261(15) 0.0057(12) -0.0061(12) -0.0082(12)
C30 0.0435(18) 0.044(2) 0.0309(17) 0.0142(16) -0.0112(15) -0.0093(15)
C31 0.0378(16) 0.0227(16) 0.0427(19) -0.0013(13) -0.0026(14) -0.0101(15)
C32 0.0352(17) 0.042(2) 0.0369(18) 0.0127(15) -0.0045(14) -0.0162(16)
N1 0.0302(12) 0.0227(12) 0.0231(12) 0.0008(10) -0.0100(10) -0.0087(10)
N2 0.0320(13) 0.0202(12) 0.0286(13) 0.0005(10) -0.0133(11) -0.0094(11)
O1 0.0279(11) 0.0177(10) 0.0261(11) 0.0007(9) -0.0081(9) -0.0067(9)
O2 0.0353(11) 0.0274(12) 0.0461(14) -0.0004(10) -0.0151(10) -0.0180(11)
O3 0.0540(14) 0.0234(12) 0.0468(14) 0.0012(11) -0.0275(12) -0.0145(11)
O4 0.0232(10) 0.0214(11) 0.0289(11) 0.0013(9) -0.0077(9) -0.0081(9)
O5 0.0313(11) 0.0326(12) 0.0420(13) 0.0007(10) -0.0141(10) -0.0212(11)
O6 0.0455(13) 0.0248(11) 0.0426(13) -0.0008(10) -0.0217(11) -0.0120(10)
loop_
_atom_type_symbol
_atom_type_description
_atom_type_scat_dispersion_real
_atom_type_scat_dispersion_imag
_atom_type_scat_source
C C 0.0033 0.0016 'International Tables Vol C Tables 4.2.6.8 and 6.1.1.4'
H H 0.0000 0.0000 'International Tables Vol C Tables 4.2.6.8 and 6.1.1.4'
N N 0.0061 0.0033 'International Tables Vol C Tables 4.2.6.8 and 6.1.1.4'
O O 0.0106 0.0060 'International Tables Vol C Tables 4.2.6.8 and 6.1.1.4'
loop_
_geom_angle_atom_site_label_1
_geom_angle_atom_site_label_2
_geom_angle_atom_site_label_3
_geom_angle
C2 C1 O1 123.6(3)
C2 C1 C10 125.7(3)
O1 C1 C10 110.6(2)
C1 C2 C3 121.9(3)
C1 C2 H2 119.1
C3 C2 H2 119.1
O2 C3 C2 122.9(3)
O2 C3 C4 123.0(3)
C2 C3 C4 114.1(2)
C9 C4 C5 118.3(3)
C9 C4 C3 119.4(2)
C5 C4 C3 122.3(3)
C6 C5 C4 120.6(3)
C6 C5 H5 119.7
C4 C5 H5 119.7
C5 C6 C7 119.6(3)
C5 C6 H6 120.2
C7 C6 H6 120.2
C8 C7 C6 121.2(3)
C8 C7 H7 119.4
C6 C7 H7 119.4
C7 C8 C9 118.7(3)
C7 C8 H8 120.7
C9 C8 H8 120.7
O1 C9 C8 116.3(2)
O1 C9 C4 122.2(2)
C8 C9 C4 121.5(3)
O3 C10 N1 124.9(3)
O3 C10 C1 120.3(3)
N1 C10 C1 114.7(2)
N1 C11 C12 107.7(2)
N1 C11 C13 112.3(2)
C12 C11 C13 113.8(2)
N1 C11 H11 107.6
C12 C11 H11 107.6
C13 C11 H11 107.6
C11 C12 H12A 109.5
C11 C12 H12B 109.5
H12A C12 H12B 109.5
C11 C12 H12C 109.5
H12A C12 H12C 109.5
H12B C12 H12C 109.5
C16 C13 C14 109.5(3)
C16 C13 C15 109.8(3)
C14 C13 C15 108.1(3)
C16 C13 C11 111.3(2)
C14 C13 C11 109.7(3)
C15 C13 C11 108.4(2)
C13 C14 H14A 109.5
C13 C14 H14B 109.5
H14A C14 H14B 109.5
C13 C14 H14C 109.5
H14A C14 H14C 109.5
H14B C14 H14C 109.5
C13 C15 H15A 109.5
C13 C15 H15B 109.5
H15A C15 H15B 109.5
C13 C15 H15C 109.5
H15A C15 H15C 109.5
H15B C15 H15C 109.5
C13 C16 H16A 109.5
C13 C16 H16B 109.5
H16A C16 H16B 109.5
C13 C16 H16C 109.5
H16A C16 H16C 109.5
H16B C16 H16C 109.5
C18 C17 O4 123.7(3)
C18 C17 C26 125.6(3)
O4 C17 C26 110.3(2)
C17 C18 C19 121.5(3)
C17 C18 H18 119.3
C19 C18 H18 119.3
O5 C19 C18 123.0(3)
O5 C19 C20 122.7(3)
C18 C19 C20 114.4(3)
C21 C20 C25 117.8(3)
C21 C20 C19 122.4(3)
C25 C20 C19 119.8(3)
C22 C21 C20 121.2(3)
C22 C21 H21 119.4
C20 C21 H21 119.4
C21 C22 C23 119.6(3)
C21 C22 H22 120.2
C23 C22 H22 120.2
C24 C23 C22 120.7(3)
C24 C23 H23 119.6
C22 C23 H23 119.6
C23 C24 C25 118.6(3)
C23 C24 H24 120.7
C25 C24 H24 120.7
O4 C25 C24 116.3(2)
O4 C25 C20 121.6(3)
C24 C25 C20 122.1(3)
O6 C26 N2 124.0(3)
O6 C26 C17 119.1(3)
N2 C26 C17 116.7(2)
N2 C27 C28 108.2(2)
N2 C27 C29 112.4(2)
C28 C27 C29 114.4(3)
N2 C27 H27 107.2
C28 C27 H27 107.2
C29 C27 H27 107.2
C27 C28 H28A 109.5
C27 C28 H28B 109.5
H28A C28 H28B 109.5
C27 C28 H28C 109.5
H28A C28 H28C 109.5
H28B C28 H28C 109.5
C27 C29 C31 112.5(2)
C27 C29 C32 109.5(2)
C31 C29 C32 109.6(3)
C27 C29 C30 108.3(2)
C31 C29 C30 108.7(3)
C32 C29 C30 108.2(3)
C29 C30 H30A 109.5
C29 C30 H30B 109.5
H30A C30 H30B 109.5
C29 C30 H30C 109.5
H30A C30 H30C 109.5
H30B C30 H30C 109.5
C29 C31 H31A 109.5
C29 C31 H31B 109.5
H31A C31 H31B 109.5
C29 C31 H31C 109.5
H31A C31 H31C 109.5
H31B C31 H31C 109.5
C29 C32 H32A 109.5
C29 C32 H32B 109.5
H32A C32 H32B 109.5
C29 C32 H32C 109.5
H32A C32 H32C 109.5
H32B C32 H32C 109.5
C10 N1 C11 122.7(2)
C10 N1 H1 118.6
C11 N1 H1 118.6
C26 N2 C27 119.2(2)
C26 N2 H2A 120.4
C27 N2 H2A 120.4
C1 O1 C9 118.3(2)
C17 O4 C25 118.6(2)
loop_
_geom_bond_atom_site_label_1
_geom_bond_atom_site_label_2
_geom_bond_distance
C1 C2 1.344(4)
C1 O1 1.347(3)
C1 C10 1.510(4)
C2 C3 1.442(4)
C2 H2 0.95
C3 O2 1.234(3)
C3 C4 1.466(4)
C4 C9 1.397(4)
C4 C5 1.398(4)
C5 C6 1.374(5)
C5 H5 0.95
C6 C7 1.401(4)
C6 H6 0.95
C7 C8 1.368(4)
C7 H7 0.95
C8 C9 1.392(4)
C8 H8 0.95
C9 O1 1.377(3)
C10 O3 1.220(4)
C10 N1 1.346(4)
C11 N1 1.464(3)
C11 C12 1.519(4)
C11 C13 1.549(4)
C11 H11 1.0
C12 H12A 0.98
C12 H12B 0.98
C12 H12C 0.98
C13 C16 1.519(5)
C13 C14 1.527(5)
C13 C15 1.535(4)
C14 H14A 0.98
C14 H14B 0.98
C14 H14C 0.98
C15 H15A 0.98
C15 H15B 0.98
C15 H15C 0.98
C16 H16A 0.98
C16 H16B 0.98
C16 H16C 0.98
C17 C18 1.340(4)
C17 O4 1.350(4)
C17 C26 1.512(4)
C18 C19 1.447(4)
C18 H18 0.95
C19 O5 1.239(4)
C19 C20 1.462(4)
C20 C21 1.396(4)
C20 C25 1.396(4)
C21 C22 1.373(5)
C21 H21 0.95
C22 C23 1.404(4)
C22 H22 0.95
C23 C24 1.376(4)
C23 H23 0.95
C24 C25 1.388(4)
C24 H24 0.95
C25 O4 1.380(3)
C26 O6 1.226(4)
C26 N2 1.338(4)
C27 N2 1.477(3)
C27 C28 1.529(4)
C27 C29 1.531(4)
C27 H27 1.0
C28 H28A 0.98
C28 H28B 0.98
C28 H28C 0.98
C29 C31 1.531(4)
C29 C32 1.536(4)
C29 C30 1.539(4)
C30 H30A 0.98
C30 H30B 0.98
C30 H30C 0.98
C31 H31A 0.98
C31 H31B 0.98
C31 H31C 0.98
C32 H32A 0.98
C32 H32B 0.98
C32 H32C 0.98
N1 H1 0.88
N2 H2A 0.88
loop_
_geom_torsion_atom_site_label_1
_geom_torsion_atom_site_label_2
_geom_torsion_atom_site_label_3
_geom_torsion_atom_site_label_4
_geom_torsion
O1 C1 C2 C3 0.5(5)
C10 C1 C2 C3 176.8(3)
C1 C2 C3 O2 173.4(3)
C1 C2 C3 C4 -6.0(4)
O2 C3 C4 C9 -172.7(3)
C2 C3 C4 C9 6.7(4)
O2 C3 C4 C5 7.7(4)
C2 C3 C4 C5 -173.0(3)
C9 C4 C5 C6 1.7(4)
C3 C4 C5 C6 -178.7(3)
C4 C5 C6 C7 0.4(5)
C5 C6 C7 C8 -1.2(4)
C6 C7 C8 C9 -0.2(4)
C7 C8 C9 O1 -178.1(2)
C7 C8 C9 C4 2.4(4)
C5 C4 C9 O1 177.4(3)
C3 C4 C9 O1 -2.3(4)
C5 C4 C9 C8 -3.2(4)
C3 C4 C9 C8 177.2(3)
C2 C1 C10 O3 -150.5(3)
O1 C1 C10 O3 26.3(4)
C2 C1 C10 N1 26.1(4)
O1 C1 C10 N1 -157.2(3)
N1 C11 C13 C16 67.5(3)
C12 C11 C13 C16 -55.2(3)
N1 C11 C13 C14 -53.9(3)
C12 C11 C13 C14 -176.5(3)
N1 C11 C13 C15 -171.7(2)
C12 C11 C13 C15 65.6(3)
O4 C17 C18 C19 -1.2(4)
C26 C17 C18 C19 -172.8(3)
C17 C18 C19 O5 -174.2(3)
C17 C18 C19 C20 6.3(4)
O5 C19 C20 C21 -7.4(5)
C18 C19 C20 C21 172.0(3)
O5 C19 C20 C25 175.0(3)
C18 C19 C20 C25 -5.6(4)
C25 C20 C21 C22 0.9(4)
C19 C20 C21 C22 -176.8(3)
C20 C21 C22 C23 -1.8(4)
C21 C22 C23 C24 1.1(4)
C22 C23 C24 C25 0.6(4)
C23 C24 C25 O4 177.2(2)
C23 C24 C25 C20 -1.6(4)
C21 C20 C25 O4 -177.8(2)
C19 C20 C25 O4 -0.1(4)
C21 C20 C25 C24 0.9(4)
C19 C20 C25 C24 178.6(3)
C18 C17 C26 O6 150.0(3)
O4 C17 C26 O6 -22.6(4)
C18 C17 C26 N2 -24.5(4)
O4 C17 C26 N2 162.9(3)
N2 C27 C29 C31 66.6(3)
C28 C27 C29 C31 -57.3(3)
N2 C27 C29 C32 -55.5(3)
C28 C27 C29 C32 -179.4(3)
N2 C27 C29 C30 -173.2(2)
C28 C27 C29 C30 62.8(3)
O3 C10 N1 C11 -0.8(5)
C1 C10 N1 C11 -177.1(2)
C12 C11 N1 C10 -134.7(3)
C13 C11 N1 C10 99.2(3)
O6 C26 N2 C27 -8.6(5)
C17 C26 N2 C27 165.6(2)
C28 C27 N2 C26 -72.5(4)
C29 C27 N2 C26 160.2(3)
C2 C1 O1 C9 4.5(4)
C10 C1 O1 C9 -172.3(2)
C8 C9 O1 C1 177.0(2)
C4 C9 O1 C1 -3.5(4)
C18 C17 O4 C25 -5.0(4)
C26 C17 O4 C25 167.8(2)
C24 C25 O4 C17 -173.2(2)
C20 C25 O4 C17 5.6(4)
