#------------------------------------------------------------------------------
#$Date: 2015-08-08 06:07:29 +0300 (Sat, 08 Aug 2015) $
#$Revision: 153275 $
#$URL: svn://www.crystallography.net/cod/cif/7/15/45/7154561.cif $
#------------------------------------------------------------------------------
#
# This file is available in the Crystallography Open Database (COD),
# http://www.crystallography.net/
#
# All data on this site have been placed in the public domain by the
# contributors.
#
data_7154561
loop_
_publ_author_name
'Manna, Susanta Kumar'
'Mandal, Arabinda'
'Mondal, Suresh Kumar'
'Adak, Arup Kr'
'Jana, Akash'
'Das, Somnath'
'Chattopadhyay, Sourav'
'Roy, Somenath'
'Ghorai, Shyamal Kr'
'Samanta, Shubhankar'
'Hossain, Maidul'
'Baidya, Mahiuddin'
_publ_section_title
;
 Pyrido[1,2-a]pyrimidinium ions - a novel bridgehead nitrogen
 heterocycles: synthesis, characterisation, and elucidation of DNA binding
 and cell imaging properties.
;
_journal_issue                   29
_journal_name_full               'Organic &amp; biomolecular chemistry'
_journal_page_first              8037
_journal_page_last               8047
_journal_paper_doi               10.1039/c5ob01082a
_journal_volume                  13
_journal_year                    2015
_chemical_formula_moiety         'C17 H15 N2 O, Br'
_chemical_formula_sum            'C17 H15 Br N2 O'
_chemical_formula_weight         343.22
_space_group_crystal_system      triclinic
_space_group_IT_number           2
_space_group_name_Hall           '-P 1'
_space_group_name_H-M_alt        'P -1'
_symmetry_space_group_name_Hall  '-P 1'
_symmetry_space_group_name_H-M   'P -1'
_atom_sites_solution_hydrogens   geom
_atom_sites_solution_primary     direct
_atom_sites_solution_secondary   difmap
_audit_creation_method           SHELXL-2014
_audit_update_record
;
2015-05-29 deposited with the CCDC.
2015-06-19 downloaded from the CCDC.
;
_cell_angle_alpha                90.1471(10)
_cell_angle_beta                 101.3231(10)
_cell_angle_gamma                107.6322(9)
_cell_formula_units_Z            2
_cell_length_a                   6.8274(2)
_cell_length_b                   8.3498(2)
_cell_length_c                   14.5138(4)
_cell_measurement_reflns_used    9985
_cell_measurement_temperature    296(2)
_cell_measurement_theta_max      28.33
_cell_measurement_theta_min      2.57
_cell_volume                     771.47(4)
_computing_cell_refinement       'Bruker SAINT'
_computing_data_collection       'Bruker APEX2'
_computing_data_reduction        'Bruker SAINT'
_computing_molecular_graphics    'Bruker SHELXTL'
_computing_publication_material  'Bruker SHELXTL'
_computing_structure_refinement  'SHELXL-2014 (Sheldrick, 2014)'
_computing_structure_solution    'SHELXS-97 (Sheldrick 2008)'
_diffrn_ambient_temperature      296(2)
_diffrn_measured_fraction_theta_full 0.988
_diffrn_measured_fraction_theta_max 0.988
_diffrn_measurement_device_type  'Bruker APEX-II CCD'
_diffrn_measurement_method       '\f and \w scans'
_diffrn_radiation_type           MoK\a
_diffrn_radiation_wavelength     0.71073
_diffrn_reflns_av_R_equivalents  0.0175
_diffrn_reflns_av_unetI/netI     0.0123
_diffrn_reflns_laue_measured_fraction_full 0.988
_diffrn_reflns_laue_measured_fraction_max 0.988
_diffrn_reflns_limit_h_max       6
_diffrn_reflns_limit_h_min       -8
_diffrn_reflns_limit_k_max       9
_diffrn_reflns_limit_k_min       -9
_diffrn_reflns_limit_l_max       17
_diffrn_reflns_limit_l_min       -16
_diffrn_reflns_number            11522
_diffrn_reflns_point_group_measured_fraction_full 0.988
_diffrn_reflns_point_group_measured_fraction_max 0.988
_diffrn_reflns_theta_full        25.000
_diffrn_reflns_theta_max         25.000
_diffrn_reflns_theta_min         2.855
_exptl_absorpt_coefficient_mu    2.664
_exptl_absorpt_correction_type   none
_exptl_crystal_colour            yellow
_exptl_crystal_density_diffrn    1.478
_exptl_crystal_density_method    'not measured'
_exptl_crystal_description       Rectangular
_exptl_crystal_F_000             348
_exptl_crystal_size_max          0.350
_exptl_crystal_size_mid          0.250
_exptl_crystal_size_min          0.100
_refine_diff_density_max         0.576
_refine_diff_density_min         -0.447
_refine_diff_density_rms         0.100
_refine_ls_extinction_coef       0.057(5)
_refine_ls_extinction_expression Fc^*^=kFc[1+0.001xFc^2^\l^3^/sin(2\q)]^-1/4^
_refine_ls_extinction_method     SHELXL
_refine_ls_goodness_of_fit_ref   1.135
_refine_ls_hydrogen_treatment    constr
_refine_ls_matrix_type           full
_refine_ls_number_parameters     192
_refine_ls_number_reflns         2681
_refine_ls_number_restraints     0
_refine_ls_restrained_S_all      1.135
_refine_ls_R_factor_all          0.0406
_refine_ls_R_factor_gt           0.0394
_refine_ls_shift/su_max          0.001
_refine_ls_shift/su_mean         0.000
_refine_ls_structure_factor_coef Fsqd
_refine_ls_weighting_details
'w=1/[\s^2^(Fo^2^)+(0.0682P)^2^+1.1508P] where P=(Fo^2^+2Fc^2^)/3'
_refine_ls_weighting_scheme      calc
_refine_ls_wR_factor_gt          0.1194
_refine_ls_wR_factor_ref         0.1211
_reflns_Friedel_coverage         0.000
_reflns_number_gt                2588
_reflns_number_total             2681
_reflns_threshold_expression     'I > 2\s(I)'
_cod_data_source_file            c5ob01082a2.cif
_cod_data_source_block           B1
_cod_depositor_comments          'Adding full bibliography for 7154561.cif.'
_cod_database_code               7154561
_shelx_space_group_comment
;
The symmetry employed for this shelxl refinement is uniquely defined
by the following loop, which should always be used as a source of
symmetry information in preference to the above space-group names.
They are only intended as comments.
;
_shelx_estimated_absorpt_t_min   0.456
_shelx_estimated_absorpt_t_max   0.777
_shelxl_version_number           2014-3
_shelx_res_file
;
TITL B1 in P-1
CELL 0.71073 6.8274 8.3498 14.5138 90.1471 101.3231 107.6322
ZERR 2 0.0002 0.0002 0.0004 0.001 0.001 0.0009
LATT 1

SFAC C H N O Br
UNIT 34 30 4 2 2

L.S. 10
PLAN  5
SIZE 0.1 0.25 0.35
TEMP 23
BOND $H
CONF
MORE -1
fmap 2
acta 50
OMIT -3 50
OMIT 1 0 0
OMIT 0 1 0
OMIT 0 2 0
OMIT 1 0 2
OMIT 0 -1 2
OMIT 0 0 3
OMIT 0 1 2
OMIT 2 -3 1
OMIT -1 1 1
OMIT 1 1 3
OMIT 2 1 2
OMIT -1 -1 1
OMIT 0 1 1
OMIT 0 2 3
OMIT 2 -1 3
OMIT 1 2 1
OMIT -1 -2 5

WGHT    0.068200    1.150800
EXTI    0.056591
FVAR       0.27696
BR1   5    0.057066    0.427814    0.281021    11.00000    0.03768    0.03866 =
         0.04180    0.00435    0.00662    0.00942
C1    1    0.553743    0.784064    0.432372    11.00000    0.05836    0.06809 =
         0.05625    0.00896    0.00601    0.02012
AFIX  43
H1    2    0.670624    0.796852    0.405893    11.00000   -1.20000
AFIX   0
C2    1    0.547428    0.716251    0.516153    11.00000    0.07383    0.07346 =
         0.05412    0.00787    0.00534    0.02386
AFIX  43
H2    2    0.660045    0.682724    0.546889    11.00000   -1.20000
AFIX   0
C3    1    0.374888    0.695693    0.557307    11.00000    0.08824    0.07878 =
         0.05334    0.01039    0.01507    0.02176
AFIX  43
H3    2    0.368008    0.642970    0.613473    11.00000   -1.20000
AFIX   0
C4    1    0.217285    0.753138    0.514823    11.00000    0.07546    0.08353 =
         0.05608    0.00572    0.01979    0.02245
AFIX  43
H4    2    0.103295    0.742637    0.543029    11.00000   -1.20000
AFIX   0
C5    1    0.223096    0.828666    0.428474    11.00000    0.05470    0.06198 =
         0.05612   -0.00095    0.01283    0.01375
C6    1    0.090660    0.976867    0.314867    11.00000    0.05274    0.07096 =
         0.05822    0.00438    0.01141    0.02323
AFIX  43
H6    2   -0.005535    1.033557    0.292728    11.00000   -1.20000
AFIX   0
C7    1    0.247770    0.984153    0.264066    11.00000    0.05306    0.05891 =
         0.05527   -0.00229    0.00660    0.01836
C8    1    0.262844    1.075743    0.176652    11.00000    0.06217    0.07272 =
         0.05986    0.00688    0.00996    0.03249
AFIX  23
H8A   2    0.213819    1.172646    0.180467    11.00000   -1.20000
H8B   2    0.174014    1.002323    0.122789    11.00000   -1.20000
AFIX   0
C9    1    0.489127    1.133521    0.163780    11.00000    0.06387    0.06000 =
         0.05585    0.00888    0.01097    0.02102
AFIX  23
H9A   2    0.496180    1.184630    0.104085    11.00000   -1.20000
H9B   2    0.575598    1.216996    0.213783    11.00000   -1.20000
AFIX   0
C10   1    0.568730    0.985200    0.165910    11.00000    0.04504    0.05850 =
         0.04887    0.00279    0.00475    0.01471
C11   1    0.676639    0.954823    0.100888    11.00000    0.05415    0.06808 =
         0.05593    0.01434    0.01417    0.02174
AFIX  43
H11   2    0.713210    1.034246    0.057366    11.00000   -1.20000
AFIX   0
C12   1    0.732708    0.808268    0.098418    11.00000    0.05533    0.07152 =
         0.05282    0.00546    0.01125    0.02613
C13   1    0.679015    0.689710    0.163808    11.00000    0.06564    0.06690 =
         0.06698    0.00751    0.01495    0.03078
AFIX  43
H13   2    0.713887    0.590486    0.162370    11.00000   -1.20000
AFIX   0
C14   1    0.575407    0.719284    0.229835    11.00000    0.06025    0.06005 =
         0.06016    0.01045    0.01449    0.02316
AFIX  43
H14   2    0.540326    0.639625    0.273410    11.00000   -1.20000
AFIX   0
C15   1    0.520299    0.868233    0.233430    11.00000    0.04506    0.05772 =
         0.05460    0.00577    0.00644    0.01488
C16   1    0.386758    0.898167    0.295492    11.00000    0.04600    0.05575 =
         0.04918    0.00120    0.00613    0.01344
C17   1    0.885734    0.641247    0.020693    11.00000    0.15651    0.11746 =
         0.09751    0.02272    0.06230    0.08678
AFIX 137
H17A  2    0.974474    0.653014   -0.024247    11.00000   -1.50000
H17B  2    0.759088    0.549586   -0.000535    11.00000   -1.50000
H17C  2    0.958023    0.618904    0.080561    11.00000   -1.50000
AFIX   0
N1    3    0.387129    0.835352    0.384827    11.00000    0.05202    0.05584 =
         0.05341    0.00222    0.00970    0.01319
N2    3    0.070097    0.896073    0.391031    11.00000    0.06104    0.07658 =
         0.06356    0.00234    0.01626    0.02306
O2    4    0.835179    0.791575    0.029958    11.00000    0.09417    0.09530 =
         0.06537    0.01338    0.03087    0.05145
HKLF 4

REM  B1 in P-1
REM R1 =  0.0394 for    2588 Fo > 4sig(Fo)  and  0.0406 for all    2681 data
REM    192 parameters refined using      0 restraints

END

WGHT      0.0682      1.1507

REM Highest difference peak  0.576,  deepest hole -0.447,  1-sigma level  0.100
Q1    1   0.0624  0.4660  0.3123  11.00000  0.05    0.58
Q2    1   0.1442  0.4309  0.2921  11.00000  0.05    0.56
Q3    1   0.0256  0.3638  0.2790  11.00000  0.05    0.55
Q4    1   0.8323  0.7207  0.1455  11.00000  0.05    0.52
Q5    1   0.4239  1.0338  0.2936  11.00000  0.05    0.36
;
_shelx_res_checksum              75917
_shelx_hkl_file
;
  -1   0   0   41.65    0.81
  -1   0   0   40.33    0.80
  -1   0   0   39.37    0.87
  -1   0   0   40.21    0.83
  -1   0   0   41.04    0.81
  -1   0   0   39.28    0.88
   1   0   0   38.84    0.87
   1   0   0   40.89    0.81
   1   0   0   37.77    0.83
  -2   0   0  127.29    2.62
  -2   0   0  122.24    2.79
  -2   0   0  130.70    2.58
  -2   0   0  131.73    2.60
  -2   0   0  123.96    2.55
  -2   0   0  124.82    2.79
   2   0   0  129.22    2.59
   2   0   0  131.20    2.62
   2   0   0  124.71    2.76
  -3   0   0   17.60    0.41
  -3   0   0   17.51    0.38
  -3   0   0   17.69    0.42
  -3   0   0   17.21    0.37
  -3   0   0   17.97    0.39
   3   0   0   18.24    0.38
   3   0   0   18.79    0.38
   3   0   0   18.27    0.40
   3   0   0   17.70    0.40
  -4   0   0    3.55    0.12
  -4   0   0    3.54    0.12
  -4   0   0    3.68    0.10
  -5   0   0    2.50    0.10
  -5   0   0    2.50    0.10
  -5   0   0    2.73    0.11
  -6   0   0   21.45    0.50
  -6   0   0   21.81    0.49
  -6   0   0   20.53    0.53
  -7   0   0   11.68    0.32
  -7   0   0   11.68    0.34
  -7   0   0   11.72    0.31
  -8   0   0    6.05    0.21
  -8   0   0    5.88    0.22
  -8   0   0    6.51    0.42
  -8   0   0    5.94    0.24
  -8   1   0   10.11    0.28
  -8   1   0   10.31    0.53
  -8   1   0    9.72    0.28
  -8   1   0    9.90    0.32
  -7   1   0   23.36    0.53
  -7   1   0   24.47    0.88
  -7   1   0   22.84    0.58
  -7   1   0   22.95    0.54
  -6   1   0    0.05    0.04
  -6   1   0    0.11    0.03
  -6   1   0    0.12    0.04
  -6   1   0    0.08    0.09
  -6   1   0    0.12    0.04
  -5   1   0   28.44    0.62
  -5   1   0   28.90    0.60
  -5   1   0   27.97    0.66
  -5   1   0   27.99    0.66
  -5   1   0   28.60    0.60
  -4   1   0    9.61    0.26
  -4   1   0    9.82    0.24
  -4   1   0   10.17    0.22
  -4   1   0   10.24    0.22
  -4   1   0    9.86    0.25
  -3   1   0    0.70    0.04
  -3   1   0    0.56    0.04
  -3   1   0    0.66    0.04
  -2   1   0   53.40    1.07
  -2   1   0   52.69    1.14
  -2   1   0   52.30    1.14
  -2   1   0   51.36    1.51
   1  -1   0  141.42    4.21
   1  -1   0  148.71    3.21
   1  -1   0  151.04    3.00
  -1   1   0  148.91    3.01
  -1   1   0  143.90    4.20
  -1   1   0  152.06    2.94
  -1   1   0  142.97    3.20
   0  -1   0    0.47    0.02
   0  -1   0    0.45    0.02
   0  -1   0    0.46    0.02
   0   1   0    0.39    0.02
   0   1   0    0.43    0.02
   0   1   0    0.50    0.02
  -1  -1   0  479.37    9.66
  -1  -1   0  462.96   10.49
  -1  -1   0  481.28    9.83
  -1  -1   0  486.22    9.83
   1   1   0  483.36   10.49
   1   1   0  498.20    9.84
   1   1   0  489.42    9.64
  -2  -1   0  166.36    3.26
  -2  -1   0  163.41    3.41
  -2  -1   0  166.55    3.58
  -2  -1   0  169.24    3.35
   2   1   0  171.56    3.29
   2   1   0  144.22    3.31
   2   1   0  172.13    3.34
   2   1   0  154.50    3.29
   2   1   0  163.14    3.57
   2   1   0  164.66    3.61
  -3  -1   0  101.05    2.04
  -3  -1   0   97.79    2.18
  -3  -1   0   97.91    2.00
  -3  -1   0   99.05    2.04
   3   1   0   99.30    2.18
   3   1   0  102.90    2.05
   3   1   0  100.14    2.03
   3   1   0   99.57    2.17
  -4  -1   0    9.13    0.25
  -4  -1   0    9.07    0.22
  -4  -1   0    9.06    0.23
   4   1   0    9.02    0.21
   4   1   0    8.12    0.23
  -5  -1   0    9.12    0.27
  -5  -1   0    9.08    0.24
  -5  -1   0    8.96    0.25
   5   1   0    9.16    0.21
  -6  -1   0    4.25    0.18
  -6  -1   0    4.26    0.16
  -6  -1   0    4.29    0.17
  -7  -1   0    0.13    0.06
  -7  -1   0    0.09    0.05
  -7  -1   0    0.04    0.05
  -8  -1   0    4.24    0.37
  -8  -1   0    3.89    0.19
  -8  -1   0    4.07    0.18
  -8  -1   0    3.83    0.20
  -8   2   0    4.99    0.21
  -8   2   0    4.64    0.17
  -8   2   0    5.36    0.36
  -7   2   0   10.96    0.29
  -7   2   0   11.09    0.28
  -7   2   0   11.23    0.30
  -7   2   0   11.03    0.33
  -7   2   0   11.83    0.52
  -6   2   0   67.39    1.35
  -6   2   0   62.68    1.48
  -6   2   0   66.89    1.35
  -6   2   0   64.24    1.39
  -6   2   0   67.37    1.49
  -6   2   0   68.87    2.02
  -5   2   0   67.32    1.52
  -5   2   0   69.20    2.04
  -5   2   0   69.14    1.52
  -5   2   0   68.22    1.37
  -5   2   0   67.26    1.43
  -5   2   0   68.99    1.38
  -4   2   0   58.59    1.18
  -4   2   0   55.88    1.69
  -4   2   0   58.28    1.14
  -4   2   0   57.41    1.25
  -4   2   0   55.27    1.26
  -4   2   0   56.61    1.14
  -3   2   0   36.28    0.83
  -3   2   0   37.35    1.11
  -3   2   0   36.79    0.74
  -3   2   0   37.78    0.77
  -3   2   0   37.35    0.82
   2  -2   0    4.88    0.19
   2  -2   0    4.96    0.12
   2  -2   0    4.96    0.13
  -2   2   0    4.86    0.12
  -2   2   0    4.86    0.19
  -2   2   0    4.85    0.11
  -2   2   0    5.03    0.12
  -2   2   0    4.76    0.13
   1  -2   0   62.07    1.20
   1  -2   0   59.00    1.22
   1  -2   0   50.12    1.70
   1  -2   0   58.01    1.30
  -1   2   0   61.15    1.22
  -1   2   0   63.47    1.69
  -1   2   0   60.28    1.22
  -1   2   0   58.71    1.30
  -1   2   0   61.40    1.20
   0  -2   0   11.85    0.29
   0  -2   0   12.17    0.33
   0  -2   0   11.78    0.27
   0  -2   0   11.53    0.27
   0   2   0   12.48    0.27
   0   2   0   11.88    0.27
   0   2   0   11.80    0.26
  -1  -2   0  338.85    7.57
  -1  -2   0  338.30    6.95
  -1  -2   0  350.28    7.11
  -1  -2   0  338.23    7.00
   1   2   0  353.76    6.95
   1   2   0  348.37    7.09
   1   2   0  333.03    7.49
   1   2   0  351.88    7.05
  -2  -2   0  157.90    3.18
  -2  -2   0  152.67    3.39
  -2  -2   0  156.06    3.18
  -2  -2   0  153.10    3.12
   2   2   0  157.55    3.18
   2   2   0  159.36    3.11
   2   2   0  155.31    3.39
   2   2   0  157.65    3.18
  -3  -2   0  202.24    4.03
  -3  -2   0  193.65    4.03
  -3  -2   0  199.58    4.30
  -3  -2   0  197.11    3.96
   3   2   0  198.25    4.32
  -4  -2   0   56.17    1.28
  -4  -2   0   57.63    1.20
  -4  -2   0   55.53    1.17
  -4  -2   0   54.40    1.20
   4   2   0   56.57    1.18
   4   2   0   56.93    1.27
  -5  -2   0    5.92    0.20
  -5  -2   0    6.31    0.20
  -5  -2   0    6.32    0.22
   5   2   0    5.57    0.19
   5   2   0    6.27    0.17
  -6  -2   0    5.33    0.19
  -6  -2   0    5.46    0.22
  -6  -2   0    5.00    0.20
  -7  -2   0    0.81    0.11
  -7  -2   0    0.85    0.09
  -7  -2   0    0.83    0.10
  -8   3   0    0.13    0.12
  -8   3   0    0.06    0.04
  -8   3   0    0.12    0.04
  -8   3   0    0.12    0.05
  -7   3   0   16.03    0.43
  -7   3   0   16.87    0.65
  -7   3   0   16.21    0.37
  -7   3   0   15.39    0.40
  -6   3   0   19.76    0.46
  -6   3   0   19.52    0.43
  -6   3   0   20.00    0.48
  -6   3   0   19.12    0.49
  -6   3   0   19.68    0.71
  -5   3   0   38.60    0.79
  -5   3   0   38.19    0.87
  -5   3   0   38.67    0.88
  -5   3   0   38.37    1.20
  -5   3   0   38.56    0.82
  -4   3   0   64.07    1.43
  -4   3   0   63.78    1.31
  -4   3   0   65.55    1.35
  -4   3   0   65.87    1.93
  -4   3   0   67.42    1.44
   3  -3   0   68.01    1.36
   3  -3   0   64.50    1.45
   3  -3   0   65.61    1.93
   3  -3   0   67.39    1.45
  -3   3   0   66.48    1.47
  -3   3   0   67.61    1.37
  -3   3   0   67.47    1.95
  -3   3   0   68.78    1.38
  -3   3   0   66.31    1.34
   2  -3   0   39.40    0.89
   2  -3   0   40.83    0.81
   2  -3   0   40.16    0.83
   2  -3   0   40.69    1.17
   2  -3   0   39.62    0.83
  -2   3   0   38.68    0.89
  -2   3   0   40.81    0.84
  -2   3   0   39.14    1.17
  -2   3   0   40.44    0.82
  -2   3   0   39.65    0.84
   1  -3   0    6.75    0.17
   1  -3   0    6.82    0.23
   1  -3   0    6.43    0.17
   1  -3   0    6.47    0.18
   1  -3   0    6.95    0.17
  -1   3   0    6.76    0.17
  -1   3   0    6.50    0.18
  -1   3   0    6.82    0.22
  -1   3   0    6.54    0.17
  -1   3   0    6.59    0.17
   0  -3   0    5.90    0.16
   0  -3   0    5.75    0.16
   0   3   0    5.70    0.17
   0   3   0    5.75    0.16
   0   3   0    5.73    0.16
   0   3   0    5.66    0.16
  -1  -3   0   27.36    0.61
  -1  -3   0   27.04    0.66
  -1  -3   0   28.07    0.62
  -1  -3   0   28.25    0.60
   1   3   0   28.51    0.60
   1   3   0   28.39    0.61
   1   3   0   28.94    0.62
   1   3   0   28.07    0.66
  -2  -3   0   82.36    1.73
  -2  -3   0   82.27    1.73
  -2  -3   0   82.92    1.70
  -2  -3   0   81.35    1.85
   2   3   0   84.07    1.73
   2   3   0   85.93    1.69
  -3  -3   0   16.24    0.40
  -3  -3   0   16.04    0.42
  -3  -3   0   15.88    0.38
  -3  -3   0   15.75    0.39
   3   3   0   16.47    0.39
  -4  -3   0   61.52    1.29
  -4  -3   0   61.21    1.32
  -4  -3   0   61.03    1.32
  -4  -3   0   61.36    1.41
   4   3   0   62.40    1.40
  -5  -3   0   22.15    0.74
  -5  -3   0   22.32    0.54
  -5  -3   0   22.90    0.60
  -5  -3   0   22.56    0.56
  -6  -3   0    9.15    0.29
  -6  -3   0    9.68    0.31
  -6  -3   0    9.28    0.33
  -7  -3   0    0.74    0.11
  -7  -3   0    0.58    0.10
  -7  -3   0    0.78    0.09
  -8   4   0    1.83    0.12
  -8   4   0    2.01    0.11
  -8   4   0    2.34    0.26
  -7   4   0    0.05    0.03
  -7   4   0    0.21    0.05
  -7   4   0    0.01    0.09
  -6   4   0   24.22    0.54
  -6   4   0   24.00    0.83
  -6   4   0   23.82    0.54
  -6   4   0   24.14    0.52
  -5   4   0   24.70    0.54
  -5   4   0   24.52    0.82
  -5   4   0   24.59    0.54
  -5   4   0   24.28    0.58
  -5   4   0   24.65    0.53
  -4   4   0   71.10    1.45
  -4   4   0   72.86    2.03
  -4   4   0   69.15    1.42
  -4   4   0   68.56    1.45
  -4   4   0   68.52    2.06
  -4   4   0   69.37    1.55
   3  -4   0  117.69    2.60
   3  -4   0  119.62    2.44
   3  -4   0  122.24    3.42
   3  -4   0  124.87    2.61
  -3   4   0  112.53    3.42
  -3   4   0  124.88    3.35
  -3   4   0  120.53    2.45
  -3   4   0  119.13    2.45
  -3   4   0  117.50    2.61
  -3   4   0  119.11    2.40
   2  -4   0  241.83    4.69
   2  -4   0  225.39    4.77
   2  -4   0  228.25    5.07
   2  -4   0  241.72    4.75
  -2   4   0  240.07    6.43
  -2   4   0  238.18    4.75
  -2   4   0  232.57    6.64
  -2   4   0  235.19    4.68
  -2   4   0  233.16    5.07
  -2   4   0  226.85    4.75
   1  -4   0   40.31    0.87
   1  -4   0   39.51    0.93
   1  -4   0   40.75    0.87
   1  -4   0   42.10    1.18
   1  -4   0   41.13    0.85
  -1   4   0   41.20    1.14
  -1   4   0   40.89    0.87
  -1   4   0   40.17    0.93
  -1   4   0   39.81    0.87
  -1   4   0   40.78    0.85
   0  -4   0    3.37    0.12
   0  -4   0    3.18    0.13
   0  -4   0    3.29    0.12
   0   4   0    3.46    0.13
   0   4   0    3.21    0.12
  -1  -4   0    0.49    0.06
  -1  -4   0    0.69    0.07
  -1  -4   0    0.44    0.05
  -1  -4   0    0.66    0.06
   1   4   0    0.63    0.06
   1   4   0    0.57    0.06
   1   4   0    0.77    0.06
  -2  -4   0   20.03    0.47
  -2  -4   0   19.68    0.48
  -2  -4   0   19.56    0.51
  -2  -4   0   20.00    0.48
   2   4   0   20.56    0.48
  -3  -4   0   30.60    0.75
  -3  -4   0   30.31    0.70
  -3  -4   0   30.11    0.70
  -3  -4   0   30.61    0.88
  -3  -4   0   29.34    0.68
   3   4   0   30.47    0.69
  -4  -4   0   30.05    0.91
  -4  -4   0   30.97    0.72
  -4  -4   0   29.71    0.69
  -4  -4   0   30.20    0.76
   4   4   0   30.34    0.74
   4   4   0   30.30    0.70
  -5  -4   0   23.06    0.57
  -5  -4   0   22.68    0.59
  -5  -4   0   23.74    0.63
  -6  -4   0    5.81    0.27
  -6  -4   0    5.59    0.24
  -6  -4   0    5.79    0.23
  -8   5   0    0.14    0.04
  -8   5   0    0.21    0.06
  -8   5   0    0.12    0.12
  -7   5   0    0.24    0.05
  -7   5   0    0.14    0.11
  -7   5   0    0.19    0.04
  -6   5   0    1.84    0.20
  -6   5   0    1.89    0.10
  -6   5   0    2.02    0.10
  -6   5   0    2.03    0.10
  -5   5   0   18.04    0.66
  -5   5   0   18.77    0.44
  -5   5   0   18.38    0.42
  -5   5   0   19.11    0.43
  -5   5   0   18.73    0.46
   4  -5   0   37.16    1.13
   4  -5   0   36.08    0.82
  -4   5   0   37.40    0.80
  -4   5   0   36.20    0.85
  -4   5   0   37.22    0.78
  -4   5   0   36.95    0.81
  -4   5   0   38.89    1.14
  -4   5   0   34.74    1.13
   3  -5   0   52.32    1.18
   3  -5   0   50.85    1.10
   3  -5   0   52.22    1.56
  -3   5   0   52.76    1.10
  -3   5   0   53.18    1.12
  -3   5   0   54.83    1.53
  -3   5   0   53.54    1.54
  -3   5   0   52.51    1.12
  -3   5   0   51.18    1.19
   2  -5   0   16.68    0.42
   2  -5   0   16.77    0.38
   2  -5   0   16.27    0.39
  -2   5   0   16.79    0.40
  -2   5   0   17.28    0.39
  -2   5   0   16.42    0.42
  -2   5   0   15.91    0.40
  -2   5   0   16.68    0.52
   1  -5   0  129.53    3.74
   1  -5   0  132.37    2.72
   1  -5   0  135.68    2.67
   1  -5   0  130.26    2.90
  -1   5   0  133.90    3.62
  -1   5   0  130.98    2.91
  -1   5   0  131.38    2.72
  -1   5   0  133.49    2.67
  -1   5   0  131.06    2.73
   0  -5   0   40.32    0.87
   0  -5   0   40.15    0.95
   0  -5   0   41.37    0.89
   0  -5   0   41.15    0.90
   0   5   0   40.40    0.88
   0   5   0   40.97    0.89
   0   5   0   40.37    0.90
  -1  -5   0   11.08    0.31
  -1  -5   0   10.66    0.33
  -1  -5   0   11.12    0.29
  -1  -5   0   10.69    0.30
   1   5   0   10.95    0.31
   1   5   0   10.97    0.29
  -2  -5   0   -0.09    0.04
  -2  -5   0   -0.10    0.05
  -2  -5   0   -0.06    0.05
  -2  -5   0   -0.01    0.04
   2   5   0   -0.11    0.04
  -3  -5   0   13.60    0.36
  -3  -5   0   13.42    0.40
  -3  -5   0   13.31    0.37
  -3  -5   0   12.40    0.40
  -3  -5   0   12.89    0.37
   3   5   0   13.30    0.37
  -4  -5   0    5.68    0.22
  -4  -5   0    5.71    0.24
  -4  -5   0    5.79    0.26
  -5  -5   0    8.13    0.33
  -5  -5   0    8.01    0.30
  -5  -5   0    7.61    0.28
  -6  -5   0   10.26    0.37
  -6  -5   0   11.19    0.41
  -8   6   0    8.77    0.26
  -8   6   0    9.24    0.49
  -8   6   0    9.07    0.28
  -7   6   0    1.37    0.10
  -7   6   0    1.26    0.10
  -7   6   0    1.33    0.19
  -6   6   0    1.44    0.18
  -6   6   0    1.24    0.09
  -6   6   0    1.16    0.10
  -5   6   0    5.42    0.28
  -5   6   0    5.70    0.18
  -5   6   0    5.53    0.18
  -5   6   0    5.68    0.19
   4  -6   0   11.15    0.30
  -4   6   0   11.68    0.44
  -4   6   0   11.43    0.41
  -4   6   0   11.56    0.33
  -4   6   0   11.27    0.30
  -4   6   0   11.37    0.30
  -4   6   0   11.58    0.31
   3  -6   0   27.40    0.93
   3  -6   0   29.05    0.65
   3  -6   0   29.51    0.70
  -3   6   0   29.81    0.90
  -3   6   0   29.71    0.65
  -3   6   0   29.60    0.66
  -3   6   0   29.66    0.71
  -3   6   0   29.43    0.67
   2  -6   0   46.40    1.58
   2  -6   0   54.90    1.14
   2  -6   0   54.15    1.22
  -2   6   0   53.99    1.13
  -2   6   0   54.85    1.15
  -2   6   0   54.90    1.52
  -2   6   0   53.35    1.16
   1  -6   0   55.27    1.28
   1  -6   0   58.21    1.18
   1  -6   0   57.42    1.20
   1  -6   0   53.63    1.62
  -1   6   0   54.65    1.21
  -1   6   0   55.11    1.20
  -1   6   0   54.57    1.18
   0  -6   0   27.45    0.65
   0  -6   0   27.58    0.63
   0  -6   0   27.36    0.69
   0   6   0   27.79    0.63
   0   6   0   27.52    0.66
  -1  -6   0   39.65    0.90
  -1  -6   0   39.58    0.88
  -1  -6   0   40.05    0.97
   1   6   0   40.24    0.91
   1   6   0   39.41    0.88
  -2  -6   0    5.97    0.25
  -2  -6   0    5.71    0.23
  -2  -6   0    5.60    0.21
   2   6   0    5.98    0.23
  -3  -6   0    0.26    0.09
  -3  -6   0    0.24    0.08
  -3  -6   0    0.20    0.07
   3   6   0    0.23    0.07
  -4  -6   0    0.69    0.11
  -4  -6   0    0.61    0.11
  -5  -6   0    4.65    0.27
  -5  -6   0    4.26    0.24
  -8   7   0    2.97    0.28
  -8   7   0    2.70    0.15
  -8   7   0    2.92    0.14
  -7   7   0    4.94    0.31
  -7   7   0    5.04    0.19
  -7   7   0    4.91    0.19
  -6   7   0    5.98    0.21
  -6   7   0    6.29    0.32
  -6   7   0    6.52    0.23
  -5   7   0    1.67    0.11
  -5   7   0    1.71    0.13
  -5   7   0    1.77    0.15
   4  -7   0    3.33    0.14
  -4   7   0    3.18    0.22
  -4   7   0    3.41    0.15
  -4   7   0    3.35    0.17
   3  -7   0    5.61    0.21
   3  -7   0    5.50    0.19
  -3   7   0    5.71    0.22
  -3   7   0    5.61    0.20
  -3   7   0    5.64    0.20
  -3   7   0    5.62    0.25
   2  -7   0   34.87    0.79
   2  -7   0   35.47    0.85
  -2   7   0   34.95    0.81
  -2   7   0   34.79    0.79
  -2   7   0   35.14    1.02
  -2   7   0   34.90    0.80
   1  -7   0   20.45    0.49
   1  -7   0   20.50    0.55
   1  -7   0   20.55    0.51
  -1   7   0   20.23    0.50
  -1   7   0   19.93    0.52
   0  -7   0   51.42    1.16
   0  -7   0   53.10    1.25
   0  -7   0   52.00    1.14
   0   7   0   53.21    1.17
   0   7   0   51.98    1.17
  -1  -7   0   10.04    0.32
  -1  -7   0   10.37    0.35
   1   7   0   10.13    0.33
  -2  -7   0   21.83    0.58
  -2  -7   0   22.85    0.63
   2   7   0   22.01    0.59
  -3  -7   0    1.57    0.14
  -3  -7   0    1.89    0.19
  -4  -7   0    0.06    0.09
  -4  -7   0    0.17    0.10
  -7   8   0    6.44    0.24
  -7   8   0    6.81    0.24
  -6   8   0    5.40    0.22
  -6   8   0    5.31    0.20
  -6   8   0    5.06    0.27
  -5   8   0    5.71    0.21
  -5   8   0    5.84    0.23
  -4   8   0    2.57    0.17
  -4   8   0    2.99    0.15
   3  -8   0    0.18    0.06
   3  -8   0    0.25    0.07
  -3   8   0    0.15    0.07
  -3   8   0    0.11    0.05
  -3   8   0    0.14    0.07
   2  -8   0    1.61    0.13
   2  -8   0    1.66    0.15
  -2   8   0    1.79    0.16
   1  -8   0   15.62    0.46
   1  -8   0   14.95    0.42
  -1   8   0   15.41    0.45
   0  -8   0   16.68    0.46
   0  -8   0   16.96    0.50
   0   8   0   16.53    0.48
  -1  -8   0   14.75    0.44
  -1  -8   0   15.29    0.48
   1   8   0   14.56    0.45
  -2  -8   0    3.31    0.21
  -2  -8   0    3.56    0.23
   2   8   0    3.27    0.21
  -3  -8   0   13.69    0.48
  -3  -8   0   13.05    0.44
  -7   9   0    2.89    0.18
  -6   9   0    5.68    0.24
  -5   9   0   11.64    0.37
  -4   9   0    8.29    0.31
   3  -9   0    0.60    0.09
  -3   9   0    0.49    0.10
   2  -9   0   -0.06    0.07
  -2   9   0   -0.02    0.07
   1  -9   0    0.25    0.09
   1  -9   0    0.23    0.09
  -1   9   0    0.13    0.09
   0  -9   0    5.23    0.27
   0  -9   0    4.93    0.25
   0   9   0    5.26    0.27
  -1  -9   0   10.13    0.37
  -1  -9   0   11.46    0.41
   1   9   0   10.59    0.39
  -2  -9   0   10.27    0.39
  -2  -9   0   11.70    0.44
  -6  10   0    1.25    0.13
  -5  10   0    5.52    0.27
  -4  10   0    3.26    0.22
  -3  10   0    6.67    0.30
   2 -10   0    0.78    0.12
  -2  10   0    0.76    0.13
   1 -10   0    0.10    0.09
  -1  10   0    0.12    0.09
   0 -10   0   -0.12    0.08
   0 -10   0    0.05    0.10
   0  10   0    0.00    0.09
  -1 -10   0    1.32    0.15
  -1 -10   0    1.79    0.19
  -4  11   0    9.52    0.38
  -3  11   0    3.56    0.25
  -2  11   0    5.90    0.31
  -2  11  -1    0.26    0.11
  -3  11  -1   -0.18    0.07
  -1 -10   1    6.30    0.32
  -1 -10   1    5.75    0.30
   0  10  -1    4.86    0.27
   0 -10   1    5.08    0.28
   0 -10   1    4.67    0.26
  -1  10  -1    7.04    0.32
   1 -10   1    7.27    0.32
  -2  10  -1    2.22    0.21
   2 -10   1    2.47    0.20
  -3  10  -1    2.19    0.20
  -4  10  -1    0.08    0.08
  -5  10  -1   -0.01    0.08
  -6  10  -1    1.74    0.18
  -2  -9   1    1.03    0.15
  -2  -9   1    1.14    0.14
   1   9  -1    4.36    0.25
  -1  -9   1    4.60    0.25
  -1  -9   1    4.85    0.28
   0   9  -1   10.12    0.37
   0  -9   1   10.30    0.36
   0  -9   1   10.42    0.39
  -1   9  -1   18.66    0.54
   1  -9   1   18.50    0.56
   1  -9   1   19.02    0.52
  -2   9  -1   13.40    0.43
   2  -9   1   13.78    0.41
   2  -9   1   14.33    0.44
  -3   9  -1    7.87    0.31
   3  -9   1    8.64    0.30
  -4   9  -1    6.59    0.28
  -5   9  -1   -0.03    0.07
  -6   9  -1    0.24    0.08
  -7   9  -1    1.66    0.15
  -4  -8   1    1.17    0.15
  -4  -8   1    1.33    0.17
  -3  -8   1    2.62    0.21
  -3  -8   1    2.84    0.23
   2   8  -1    1.10    0.12
  -2  -8   1    1.15    0.13
  -2  -8   1    0.90    0.13
   1   8  -1    1.36    0.14
  -1  -8   1    1.24    0.13
  -1  -8   1    1.20    0.15
   0   8  -1    3.24    0.20
   0  -8   1    3.51    0.19
   0  -8   1    3.66    0.21
  -1   8  -1   12.81    0.39
   1  -8   1   12.95    0.38
   1  -8   1   12.92    0.41
  -2   8  -1   27.40    0.82
  -2   8  -1   27.79    0.69
   2  -8   1   28.61    0.72
   2  -8   1   28.02    0.67
  -3   8  -1   19.44    0.63
  -3   8  -1   19.19    0.52
  -3   8  -1   19.75    0.50
   3  -8   1   20.09    0.53
   3  -8   1   18.87    0.49
  -4   8  -1    5.24    0.22
  -4   8  -1    5.10    0.20
  -5   8  -1    9.40    0.29
  -5   8  -1    9.74    0.32
  -6   8  -1    2.90    0.17
  -6   8  -1    2.57    0.15
  -6   8  -1    2.97    0.22
  -7   8  -1    0.23    0.06
  -7   8  -1    0.29    0.07
  -7   8  -1    0.28    0.12
  -4  -7   1    8.92    0.34
  -4  -7   1    9.27    0.37
  -3  -7   1    5.42    0.25
  -3  -7   1    5.95    0.28
   2   7  -1   21.88    0.58
  -2  -7   1   22.08    0.58
  -2  -7   1   22.10    0.62
   1   7  -1    0.04    0.07
  -1  -7   1    0.14    0.07
  -1  -7   1    0.01    0.06
   0   7  -1   10.28    0.32
   0   7  -1    9.82    0.33
   0  -7   1   10.20    0.32
   0  -7   1   10.27    0.35
   0  -7   1   10.09    0.30
  -1   7  -1    8.60    0.27
  -1   7  -1    9.01    0.30
   1  -7   1    9.24    0.31
   1  -7   1    9.28    0.28
   1  -7   1    9.23    0.27
  -2   7  -1   23.64    0.59
  -2   7  -1   23.60    0.57
  -2   7  -1   24.38    0.58
  -2   7  -1   23.59    0.72
   2  -7   1   24.33    0.62
   2  -7   1   24.42    0.57
  -3   7  -1   31.27    0.73
  -3   7  -1   32.10    0.97
  -3   7  -1   32.22    0.75
  -3   7  -1   32.01    0.72
   3  -7   1   30.92    0.72
   3  -7   1   31.43    0.77
  -4   7  -1   28.58    0.66
  -4   7  -1   28.30    0.68
  -4   7  -1   29.54    0.90
   4  -7   1   28.22    0.69
  -5   7  -1   13.17    0.49
  -5   7  -1   12.70    0.36
  -5   7  -1   13.26    0.35
  -6   7  -1    7.13    0.36
  -6   7  -1    7.13    0.25
  -6   7  -1    7.58    0.24
  -7   7  -1    1.61    0.21
  -7   7  -1    1.54    0.12
  -7   7  -1    1.71    0.13
  -8   7  -1   -0.04    0.04
  -8   7  -1    0.00    0.05
  -8   7  -1    0.10    0.12
  -5  -6   1    7.30    0.33
  -5  -6   1    7.06    0.30
  -4  -6   1   16.04    0.47
  -4  -6   1   16.79    0.51
   3   6  -1   20.43    0.53
  -3  -6   1   21.17    0.58
  -3  -6   1   20.19    0.52
  -3  -6   1   20.19    0.54
   2   6  -1   15.90    0.44
  -2  -6   1   15.70    0.42
  -2  -6   1   16.42    0.47
  -2  -6   1   16.70    0.44
   1   6  -1   22.50    0.53
   1   6  -1   22.42    0.56
  -1  -6   1   22.27    0.59
  -1  -6   1   22.24    0.55
  -1  -6   1   21.90    0.53
   0   6  -1    2.15    0.14
   0   6  -1    2.17    0.12
   0  -6   1    2.25    0.12
   0  -6   1    2.23    0.14
   0  -6   1    2.23    0.13
  -1   6  -1    4.22    0.16
  -1   6  -1    4.09    0.17
  -1   6  -1    4.35    0.18
  -1   6  -1    4.24    0.16
   1  -6   1    4.11    0.18
   1  -6   1    4.29    0.17
   1  -6   1    4.21    0.16
  -2   6  -1   30.63    0.70
  -2   6  -1   30.55    0.68
  -2   6  -1   30.40    0.90
  -2   6  -1   30.48    0.69
   2  -6   1   30.04    0.74
   2  -6   1   30.80    0.69
  -3   6  -1   24.05    0.57
  -3   6  -1   23.90    0.60
  -3   6  -1   23.00    0.54
  -3   6  -1   23.81    0.56
  -3   6  -1   24.12    0.76
   3  -6   1   23.78    0.58
   3  -6   1   23.83    0.55
  -4   6  -1   37.47    0.90
  -4   6  -1   37.62    0.84
  -4   6  -1   37.78    1.16
  -4   6  -1   38.37    0.85
  -4   6  -1   39.40    1.18
  -4   6  -1   37.65    0.82
   4  -6   1   36.72    0.87
  -5   6  -1   24.84    0.57
  -5   6  -1   23.34    0.81
  -5   6  -1   23.90    0.55
  -6   6  -1   10.30    0.28
  -6   6  -1   10.40    0.29
  -6   6  -1    9.74    0.46
  -7   6  -1    8.98    0.26
  -7   6  -1    8.93    0.27
  -7   6  -1    9.02    0.46
  -8   6  -1    1.60    0.23
  -8   6  -1    1.38    0.11
  -8   6  -1    1.48    0.12
  -6  -5   1    0.82    0.12
  -6  -5   1    0.93    0.14
  -5  -5   1    6.18    0.25
  -5  -5   1    6.32    0.26
  -5  -5   1    6.84    0.29
  -4  -5   1   12.65    0.37
  -4  -5   1   12.52    0.40
  -4  -5   1   12.55    0.36
   3   5  -1   41.62    0.94
  -3  -5   1   41.61    1.01
  -3  -5   1   41.28    0.94
  -3  -5   1   41.09    0.92
  -3  -5   1   41.58    0.94
   2   5  -1   46.90    1.04
  -2  -5   1   46.24    1.04
  -2  -5   1   47.30    1.02
  -2  -5   1   47.18    1.04
  -2  -5   1   48.00    1.12
   1   5  -1   65.86    1.35
   1   5  -1   65.57    1.39
  -1  -5   1   63.65    1.38
  -1  -5   1   64.36    1.48
  -1  -5   1   64.02    1.36
  -1  -5   1   64.20    1.38
   0   5  -1   58.60    1.22
   0   5  -1   56.89    1.20
   0   5  -1   57.37    1.23
   0  -5   1   56.73    1.22
   0  -5   1   57.04    1.31
   0  -5   1   56.12    1.22
  -1   5  -1   13.68    0.42
  -1   5  -1   14.28    0.35
  -1   5  -1   14.09    0.35
  -1   5  -1   13.87    0.36
   1  -5   1   14.06    0.34
   1  -5   1   14.13    0.38
   1  -5   1   14.34    0.35
   1  -5   1   13.90    0.46
  -2   5  -1    0.17    0.04
  -2   5  -1    0.14    0.05
  -2   5  -1    0.11    0.04
  -2   5  -1    0.12    0.04
  -2   5  -1    0.17    0.04
   2  -5   1    0.29    0.04
   2  -5   1    0.13    0.04
   2  -5   1    0.12    0.04
   2  -5   1    0.22    0.06
  -3   5  -1   20.54    0.48
  -3   5  -1   20.63    0.51
  -3   5  -1   20.16    0.46
  -3   5  -1   20.13    0.47
  -3   5  -1   21.67    0.67
  -3   5  -1   20.90    0.66
   3  -5   1   19.71    0.68
   3  -5   1   20.42    0.50
  -4   5  -1   27.98    0.93
  -4   5  -1   29.84    0.65
  -4   5  -1   28.91    0.63
  -4   5  -1   30.14    0.66
  -4   5  -1   28.90    0.69
  -5   5  -1   24.93    0.86
  -5   5  -1   24.69    0.60
  -5   5  -1   24.66    0.56
  -5   5  -1   24.88    0.55
  -5   5  -1   25.33    0.57
  -6   5  -1   22.32    0.79
  -6   5  -1   20.34    0.50
  -6   5  -1   21.27    0.49
  -7   5  -1    9.88    0.29
  -7   5  -1    9.72    0.27
  -7   5  -1    9.95    0.48
  -8   5  -1    1.59    0.12
  -8   5  -1    1.60    0.23
  -8   5  -1    1.36    0.10
  -7  -4   1    0.88    0.11
  -7  -4   1    0.80    0.11
  -7  -4   1    0.88    0.13
  -6  -4   1    0.03    0.06
  -6  -4   1   -0.06    0.06
  -6  -4   1   -0.04    0.07
  -5  -4   1   -0.06    0.06
  -5  -4   1   -0.07    0.05
  -5  -4   1    0.02    0.07
   4   4  -1   12.68    0.35
  -4  -4   1   13.11    0.44
  -4  -4   1   13.35    0.36
  -4  -4   1   13.95    0.40
  -4  -4   1   13.18    0.37
   3   4  -1   60.67    1.28
  -3  -4   1   57.89    1.28
  -3  -4   1   58.63    1.37
  -3  -4   1   60.11    1.26
  -3  -4   1   59.05    1.66
  -3  -4   1   59.73    1.28
   2   4  -1   51.48    1.09
  -2  -4   1   50.63    1.07
  -2  -4   1   49.99    1.17
  -2  -4   1   50.24    1.09
  -2  -4   1   50.20    1.39
  -2  -4   1   51.32    1.09
   1   4  -1  113.75    2.35
   1   4  -1  115.15    2.35
   1   4  -1  118.01    2.31
  -1  -4   1  112.22    2.35
  -1  -4   1  111.55    2.31
  -1  -4   1  114.18    2.35
  -1  -4   1  111.90    2.51
   0   4  -1  133.82    2.98
   0   4  -1  138.87    2.74
   0   4  -1  138.84    2.79
   0   4  -1  135.29    2.80
   0  -4   1  135.19    2.79
   0  -4   1  135.53    2.98
   0  -4   1  136.54    2.79
  -1   4  -1   48.25    1.04
  -1   4  -1   47.07    1.10
  -1   4  -1   50.51    1.37
  -1   4  -1   48.47    1.03
  -1   4  -1   49.58    1.02
   1  -4   1   51.01    1.42
   1  -4   1   48.83    1.03
   1  -4   1   48.84    1.04
   1  -4   1   49.52    1.01
   1  -4   1   47.00    1.10
  -2   4  -1  129.75    2.88
  -2   4  -1  131.79    2.65
  -2   4  -1  135.33    3.73
  -2   4  -1  133.47    2.70
  -2   4  -1  129.40    2.70
   2  -4   1  129.98    2.69
   2  -4   1  131.41    2.87
   2  -4   1  131.52    2.69
   2  -4   1  134.41    2.64
  -3   4  -1   19.17    0.65
  -3   4  -1   20.37    0.46
  -3   4  -1   19.63    0.48
  -3   4  -1   20.11    0.45
  -3   4  -1   20.01    0.44
   3  -4   1   20.75    0.66
   3  -4   1   19.99    0.47
  -4   4  -1   12.41    0.32
  -4   4  -1   12.47    0.30
  -4   4  -1   12.38    0.30
  -4   4  -1   12.46    0.29
  -4   4  -1   12.16    0.47
   4  -4   1   12.26    0.29
   4  -4   1   12.22    0.29
  -5   4  -1   28.80    0.62
  -5   4  -1   29.40    0.64
  -5   4  -1   29.63    0.96
  -5   4  -1   28.43    0.68
  -5   4  -1   28.98    0.64
  -6   4  -1   18.30    0.44
  -6   4  -1   18.56    0.42
  -6   4  -1   18.52    0.69
  -7   4  -1   18.52    0.43
  -7   4  -1   18.38    0.71
  -7   4  -1   17.79    0.46
  -8   4  -1   11.96    0.35
  -8   4  -1   12.59    0.33
  -8   4  -1   13.50    0.59
  -7  -3   1    4.64    0.24
  -7  -3   1    4.50    0.22
  -7  -3   1    4.62    0.21
  -6  -3   1    5.93    0.22
  -6  -3   1    5.83    0.23
  -6  -3   1    5.65    0.25
  -5  -3   1    0.38    0.07
  -5  -3   1    0.52    0.07
  -5  -3   1    0.46    0.08
  -5  -3   1    0.48    0.10
   4   3  -1    1.42    0.09
   4   3  -1    1.38    0.09
  -4  -3   1    1.32    0.12
  -4  -3   1    1.17    0.11
  -4  -3   1    1.61    0.11
  -4  -3   1    1.28    0.11
  -4  -3   1    1.45    0.10
   3   3  -1    1.15    0.08
  -3  -3   1    1.04    0.09
  -3  -3   1    1.02    0.08
  -3  -3   1    0.89    0.09
  -3  -3   1    1.14    0.08
  -3  -3   1    0.89    0.08
   2   3  -1  125.86    2.44
   2   3  -1  123.41    2.50
   2   3  -1  115.96    2.50
  -2  -3   1  119.02    2.67
  -2  -3   1  123.62    3.33
  -2  -3   1  122.03    2.50
  -2  -3   1  120.56    2.50
  -2  -3   1  121.94    2.45
   1   3  -1  105.88    2.17
   1   3  -1  105.42    2.31
   1   3  -1  106.45    2.17
   1   3  -1  108.04    2.13
  -1  -3   1  105.56    2.17
  -1  -3   1  103.87    2.32
  -1  -3   1  105.50    2.17
  -1  -3   1  104.37    2.13
   0   3  -1  205.32    4.04
   0   3  -1  195.78    4.39
   0   3  -1  201.23    4.12
   0   3  -1  208.30    4.12
   0   3  -1  206.06    5.56
   0  -3   1  205.31    4.13
   0  -3   1  197.51    4.39
   0  -3   1  205.03    4.12
  -1   3  -1  187.34    3.83
  -1   3  -1  184.73    4.09
  -1   3  -1  189.76    3.77
  -1   3  -1  190.54    3.84
   1  -3   1  182.82    4.10
   1  -3   1  188.53    5.46
   1  -3   1  187.47    3.83
   1  -3   1  196.67    3.76
   1  -3   1  192.75    3.83
  -2   3  -1    6.59    0.17
  -2   3  -1    6.48    0.18
  -2   3  -1    6.51    0.16
  -2   3  -1    6.57    0.17
  -2   3  -1    6.34    0.25
   2  -3   1    6.69    0.15
   2  -3   1    6.40    0.17
   2  -3   1    6.82    0.18
   2  -3   1    6.34    0.16
   2  -3   1    6.29    0.25
  -3   3  -1  148.46    3.23
  -3   3  -1  148.13    4.24
  -3   3  -1  151.76    3.03
  -3   3  -1  149.84    2.97
  -3   3  -1  153.22    3.03
   3  -3   1  135.30    3.22
   3  -3   1  152.70    3.02
   3  -3   1  152.45    4.24
  -4   3  -1    5.57    0.16
  -4   3  -1    5.80    0.17
  -4   3  -1    5.50    0.15
  -4   3  -1    5.52    0.26
  -4   3  -1    5.57    0.16
  -5   3  -1    0.30    0.03
  -5   3  -1    0.31    0.04
  -5   3  -1    0.29    0.05
  -5   3  -1    0.35    0.04
  -5   3  -1    0.28    0.08
  -6   3  -1   12.52    0.30
  -6   3  -1   12.68    0.51
  -6   3  -1   12.53    0.33
  -6   3  -1   11.97    0.35
  -7   3  -1    3.21    0.13
  -7   3  -1    3.04    0.15
  -7   3  -1    3.08    0.15
  -7   3  -1    3.34    0.27
  -8   3  -1    8.49    0.30
  -8   3  -1    9.12    0.27
  -8   3  -1    9.71    0.49
  -8   3  -1    8.95    0.27
  -7  -2   1   10.61    0.32
  -7  -2   1   11.13    0.35
  -7  -2   1   10.54    0.33
  -6  -2   1   13.01    0.38
  -6  -2   1   12.44    0.35
  -6  -2   1   12.63    0.34
   5   2  -1   18.49    0.41
   5   2  -1   15.87    0.44
  -5  -2   1   18.68    0.48
  -5  -2   1   18.54    0.45
  -5  -2   1   19.23    0.63
  -5  -2   1   18.85    0.44
  -5  -2   1   18.84    0.45
   4   2  -1   20.97    0.47
   4   2  -1   21.02    0.51
  -4  -2   1   21.06    0.49
  -4  -2   1   21.76    0.68
  -4  -2   1   21.19    0.49
  -4  -2   1   21.17    0.53
  -4  -2   1   20.76    0.48
   3   2  -1    0.28    0.04
  -3  -2   1    0.25    0.04
  -3  -2   1    0.20    0.04
  -3  -2   1    0.22    0.05
  -3  -2   1    0.17    0.06
  -3  -2   1    0.28    0.04
   2   2  -1   25.00    0.55
   2   2  -1   25.71    0.55
   2   2  -1   26.47    0.53
   2   2  -1   25.31    0.59
  -2  -2   1   24.54    0.59
  -2  -2   1   25.81    0.55
  -2  -2   1   25.76    0.73
  -2  -2   1   24.70    0.54
  -2  -2   1   25.04    0.55
   1   2  -1  189.18    3.87
   1   2  -1  196.29    3.82
   1   2  -1  190.14    4.14
   1   2  -1  193.27    3.94
  -1  -2   1  196.66    3.95
  -1  -2   1  193.67    3.87
  -1  -2   1  194.07    5.25
  -1  -2   1  183.66    3.87
  -1  -2   1  184.97    4.13
   0   2  -1  184.97    4.06
   0   2  -1  185.78    3.73
   0   2  -1  184.63    3.80
   0   2  -1  193.19    3.83
   0  -2   1  188.65    3.82
   0  -2   1  170.05    3.77
   0  -2   1  186.84    3.83
   0  -2   1  187.87    4.10
  -1   2  -1  476.16   13.74
  -1   2  -1  481.30   10.55
  -1   2  -1  498.36    9.92
  -1   2  -1  491.23    9.71
  -1   2  -1  497.40    9.90
   1  -2   1  504.52    9.91
   1  -2   1  491.55    9.89
   1  -2   1  411.81   13.76
   1  -2   1  503.23    9.71
   1  -2   1  491.74   10.56
  -2   2  -1  233.46    6.76
  -2   2  -1  245.75    5.14
  -2   2  -1  231.45    4.70
  -2   2  -1  232.66    4.79
  -2   2  -1  231.52    5.09
   2  -2   1  231.37    5.09
   2  -2   1  221.73    5.12
   2  -2   1  236.93    4.79
   2  -2   1  239.67    4.65
   2  -2   1  229.39    6.66
  -3   2  -1  108.88    2.14
  -3   2  -1  107.02    2.09
  -3   2  -1  101.50    2.29
  -3   2  -1  105.57    2.28
   3  -2   1  103.99    2.26
   3  -2   1  106.69    2.12
   3  -2   1  101.89    2.27
  -4   2  -1   20.34    0.45
  -4   2  -1   19.44    0.48
  -4   2  -1   19.41    0.66
  -4   2  -1   19.76    0.47
  -4   2  -1   20.12    0.42
  -5   2  -1    3.09    0.13
  -5   2  -1    3.12    0.21
  -5   2  -1    2.92    0.12
  -5   2  -1    3.11    0.10
  -5   2  -1    3.00    0.12
  -6   2  -1    2.17    0.12
  -6   2  -1    2.41    0.10
  -6   2  -1    2.21    0.21
  -6   2  -1    2.20    0.12
  -7   2  -1    7.86    0.41
  -7   2  -1    7.53    0.23
  -7   2  -1    7.19    0.23
  -7   2  -1    7.43    0.26
  -8   2  -1    2.60    0.28
  -8   2  -1    2.47    0.13
  -8   2  -1    2.57    0.16
  -8  -1   1    3.85    0.18
  -8  -1   1    3.58    0.19
  -8  -1   1    3.67    0.17
  -7  -1   1   12.95    0.35
  -7  -1   1   12.88    0.38
  -7  -1   1   13.17    0.35
  -6  -1   1   16.47    0.44
  -6  -1   1   16.31    0.41
  -6  -1   1   16.57    0.40
  -5  -1   1   33.34    0.72
  -5  -1   1   33.82    0.79
  -5  -1   1   34.65    1.05
  -5  -1   1   32.63    0.73
   4   1  -1   17.63    0.39
   4   1  -1   16.89    0.40
   4   1  -1   17.54    0.38
  -4  -1   1   17.09    0.39
  -4  -1   1   18.12    0.58
  -4  -1   1   17.41    0.40
  -4  -1   1   17.64    0.40
  -4  -1   1   17.53    0.43
   3   1  -1   23.48    0.49
   3   1  -1   23.38    0.49
   3   1  -1   23.20    0.52
  -3  -1   1   23.00    0.50
  -3  -1   1   22.41    0.50
  -3  -1   1   22.44    0.48
  -3  -1   1   22.27    0.53
   2   1  -1   13.04    0.30
   2   1  -1   13.16    0.27
   2   1  -1   12.78    0.28
   2   1  -1   12.67    0.28
  -2  -1   1   12.39    0.31
  -2  -1   1   12.70    0.29
  -2  -1   1   12.81    0.28
  -2  -1   1   12.84    0.29
   1   1  -1    4.29    0.10
   1   1  -1    4.26    0.11
   1   1  -1    4.27    0.10
  -1  -1   1    4.11    0.11
  -1  -1   1    4.19    0.14
  -1  -1   1    4.33    0.11
  -1  -1   1    4.17    0.11
  -1  -1   1    4.25    0.10
   0   1  -1    3.41    0.08
   0   1  -1    3.34    0.09
   0   1  -1    3.42    0.08
   0  -1   1    3.40    0.08
   0  -1   1    3.22    0.09
  -1   1  -1  338.69    6.84
  -1   1  -1  338.28    7.44
  -1   1  -1  328.94    9.75
  -1   1  -1  358.15    7.48
  -1   1  -1  357.85    7.00
   1  -1   1  349.67    6.84
   1  -1   1  324.11    9.75
   1  -1   1  331.86    7.47
   1  -1   1  354.10    6.98
   1  -1   1  343.51    7.44
  -2   1  -1  205.29    4.15
  -2   1  -1  205.04    4.05
  -2   1  -1  201.79    4.40
  -2   1  -1  200.81    4.43
  -2   1  -1  194.78    5.76
  -2   1  -1  202.48    4.05
   2  -1   1  202.34    4.11
   2  -1   1  196.18    4.39
  -3   1  -1   98.10    2.92
  -3   1  -1  103.06    2.22
  -3   1  -1  101.42    2.04
  -3   1  -1  103.90    2.09
  -3   1  -1  103.71    2.05
  -3   1  -1   99.39    2.22
   3  -1   1  103.18    2.06
   3  -1   1  101.80    2.20
   3  -1   1  103.18    2.06
   3  -1   1  102.30    2.20
  -4   1  -1   92.54    2.03
  -4   1  -1   96.94    1.86
  -4   1  -1   90.08    2.04
  -4   1  -1   89.88    1.91
  -4   1  -1   93.36    1.86
  -4   1  -1   92.73    2.69
  -5   1  -1    7.98    0.36
  -5   1  -1    8.17    0.24
  -5   1  -1    8.03    0.20
  -5   1  -1    8.34    0.22
  -5   1  -1    7.97    0.23
  -5   1  -1    7.87    0.23
  -6   1  -1   12.65    0.52
  -6   1  -1   12.07    0.34
  -6   1  -1   11.86    0.32
  -6   1  -1   12.08    0.32
  -6   1  -1   12.50    0.30
  -7   1  -1    1.30    0.11
  -7   1  -1    1.30    0.10
  -7   1  -1    1.19    0.19
  -7   1  -1    1.30    0.10
  -8   1  -1    0.48    0.16
  -8   1  -1    0.40    0.08
  -8   1  -1    0.45    0.07
  -8   0   1    1.72    0.12
  -8   0   1    1.57    0.12
  -8   0   1    1.80    0.13
  -8   0   1    1.80    0.26
  -7   0   1    4.80    0.18
  -7   0   1    4.96    0.17
  -7   0   1    4.95    0.17
  -6   0   1   67.73    1.36
  -6   0   1   65.87    1.39
  -6   0   1   65.19    1.49
  -5   0   1   33.34    0.70
  -5   0   1   34.43    1.05
  -5   0   1   32.84    0.76
  -5   0   1   32.70    0.72
  -4   0   1  127.41    2.61
  -4   0   1  130.70    2.61
  -4   0   1  125.96    2.55
  -4   0   1  128.72    2.78
  -3   0   1   61.74    1.22
  -3   0   1   60.78    1.34
  -3   0   1   62.58    1.25
  -3   0   1   60.20    1.25
  -3   0   1   61.32    1.23
  -2   0   1   82.59    1.81
  -2   0   1   84.80    1.70
  -2   0   1   83.95    1.72
   1   0  -1   50.95    1.42
  -1   0   1   51.28    1.04
  -1   0   1   50.56    1.11
  -1   0   1   51.19    1.41
  -1   0   1   50.29    1.05
  -1   0  -1   55.59    1.23
  -1   0  -1   56.79    1.16
  -1   0  -1   55.83    1.23
  -1   0  -1   57.07    1.14
  -1   0  -1   58.00    1.14
   1   0   1   59.94    1.15
   1   0   1   54.30    1.16
   1   0   1   57.97    1.13
   1   0   1   53.04    1.23
   1   0   1   55.50    1.23
  -2   0  -1  367.49    7.65
  -2   0  -1  363.94    7.51
  -2   0  -1  371.90    8.13
  -2   0  -1  378.41    7.47
  -2   0  -1  357.23    8.15
   2   0   1  392.49    7.40
   2   0   1  392.73    7.41
   2   0   1  377.12    8.09
   2   0   1  355.12    8.13
   2   0   1  356.44    7.65
   2   0   1  384.15    7.59
  -3   0  -1  120.13    2.65
  -3   0  -1  120.74    2.66
  -3   0  -1  119.54    2.45
  -3   0  -1  123.76    2.43
  -3   0  -1  124.21    2.49
   3   0   1  122.00    2.47
   3   0   1  124.91    2.48
   3   0   1  120.47    2.64
  -4   0  -1   93.88    2.08
  -4   0  -1   94.83    1.90
  -4   0  -1   90.78    2.07
  -4   0  -1   93.08    1.95
   4   0   1   96.59    2.04
   4   0   1   95.80    1.92
   4   0   1   94.65    2.04
  -5   0  -1   72.13    1.63
  -5   0  -1   73.80    1.49
  -5   0  -1   72.83    1.53
  -6   0  -1   16.30    0.44
  -6   0  -1   16.52    0.39
  -6   0  -1   16.20    0.41
  -7   0  -1    0.78    0.17
  -7   0  -1    0.84    0.08
  -7   0  -1    0.88    0.10
  -7   0  -1    0.84    0.08
  -8   0  -1    0.05    0.06
  -8   0  -1    0.08    0.06
  -8   0  -1    0.08    0.05
  -8   0  -1   -0.07    0.13
  -8   1   1    0.18    0.05
  -8   1   1    0.14    0.05
  -8   1   1    0.16    0.04
  -8   1   1    0.10    0.13
  -7   1   1    8.09    0.22
  -7   1   1    8.10    0.42
  -7   1   1    8.14    0.22
  -7   1   1    8.05    0.24
  -6   1   1    2.23    0.10
  -6   1   1    2.26    0.10
  -6   1   1    2.33    0.10
  -6   1   1    2.36    0.09
  -5   1   1   50.38    1.00
  -5   1   1   46.54    1.09
  -5   1   1   51.23    1.49
  -5   1   1   49.79    0.99
  -5   1   1   48.70    1.10
  -5   1   1   48.75    1.03
  -4   1   1   65.76    1.49
  -4   1   1   68.08    1.48
  -4   1   1   69.86    1.39
  -3   1   1  162.05    3.61
  -3   1   1  171.13    3.40
  -3   1   1  167.28    3.61
  -2   1   1   94.14    2.61
   1  -1  -1    0.81    0.05
   1  -1  -1    1.08    0.03
  -1   1   1    0.93    0.04
  -1   1   1    0.96    0.03
  -1   1   1    0.91    0.05
  -1   1   1    0.88    0.03
   0  -1  -1   17.57    0.41
   0  -1  -1   17.66    0.44
   0   1   1   18.26    0.40
   0   1   1   17.83    0.44
   0   1   1   17.84    0.41
   0   1   1   19.01    0.41
  -1  -1  -1  427.94    8.58
  -1  -1  -1  431.45    8.73
  -1  -1  -1  424.70    9.32
  -1  -1  -1  430.79    8.75
   1   1   1  421.91    9.31
   1   1   1  435.46    8.56
   1   1   1  417.98    8.71
   1   1   1  424.52    8.72
  -2  -1  -1    4.18    0.12
  -2  -1  -1    4.52    0.13
  -2  -1  -1    4.31    0.12
   2   1   1    4.34    0.13
   2   1   1    4.17    0.13
   2   1   1    4.32    0.12
   2   1   1    5.16    0.13
   2   1   1    4.37    0.11
  -3  -1  -1   90.04    2.02
  -3  -1  -1   90.54    1.89
  -3  -1  -1   93.38    1.85
   3   1   1   90.38    2.02
   3   1   1   93.34    1.88
   3   1   1   90.53    2.00
   3   1   1   94.09    1.90
  -4  -1  -1   42.42    0.89
  -4  -1  -1   43.51    0.91
  -4  -1  -1   42.34    0.97
   4   1   1   43.72    0.89
   4   1   1   38.85    0.96
  -5  -1  -1   43.26    1.01
  -5  -1  -1   43.40    0.93
  -5  -1  -1   43.46    0.95
   5   1   1   44.04    0.97
   5   1   1   43.03    0.91
  -6  -1  -1    7.35    0.25
  -6  -1  -1    7.13    0.22
  -6  -1  -1    7.32    0.24
  -7  -1  -1   24.31    0.58
  -7  -1  -1   23.43    0.63
  -7  -1  -1   23.57    0.58
  -8  -1  -1    1.08    0.11
  -8  -1  -1    0.98    0.12
  -8  -1  -1    0.86    0.09
  -8  -1  -1    0.89    0.20
  -8   2   1    1.95    0.10
  -8   2   1    1.82    0.10
  -8   2   1    1.88    0.12
  -8   2   1    1.96    0.25
  -7   2   1    3.84    0.29
  -7   2   1    3.80    0.13
  -7   2   1    3.86    0.13
  -7   2   1    3.81    0.12
  -7   2   1    4.01    0.15
  -6   2   1    0.64    0.13
  -6   2   1    0.74    0.06
  -6   2   1    0.84    0.05
  -6   2   1    0.78    0.07
  -6   2   1    0.66    0.06
  -6   2   1    0.60    0.05
  -5   2   1   78.99    1.69
  -5   2   1   75.41    2.27
  -5   2   1   76.00    1.68
  -5   2   1   74.01    1.59
  -5   2   1   80.59    2.25
  -4   2   1   55.49    1.13
  -4   2   1   54.30    1.21
  -4   2   1   56.09    1.62
  -4   2   1   54.46    1.63
  -4   2   1   55.93    1.20
  -3   2   1  163.78    4.63
  -3   2   1  161.28    3.55
  -3   2   1  169.58    3.35
  -3   2   1  163.07    3.58
  -3   2   1  161.58    4.53
  -2   2   1  280.28    5.59
  -2   2   1  263.51    7.83
  -2   2   1  274.77    5.46
  -2   2   1  277.02    5.60
  -2   2   1  271.61    5.96
  -2   2   1  278.31    7.65
   1  -2  -1  251.68    5.61
   1  -2  -1  265.36    5.27
   1  -2  -1  258.71    7.18
   1  -2  -1  258.03    5.16
  -1   2   1  255.20    5.19
  -1   2   1  263.86    5.26
  -1   2   1  257.41    5.28
  -1   2   1  250.65    7.10
  -1   2   1  254.17    7.23
  -1   2   1  251.63    5.63
   0  -2  -1  376.91    8.23
   0  -2  -1  368.07    7.68
   0  -2  -1  389.59    7.74
   0   2   1  374.60    7.71
   0   2   1  369.82    8.24
   0   2   1  371.11    7.71
   0   2   1  385.84    7.61
  -1  -2  -1   61.64    1.28
  -1  -2  -1   62.23    1.25
  -1  -2  -1   60.54    1.27
  -1  -2  -1   60.50    1.36
   1   2   1   61.74    1.36
   1   2   1   63.19    1.28
   1   2   1   61.83    1.25
   1   2   1   60.57    1.27
  -2  -2  -1    0.05    0.03
  -2  -2  -1    0.08    0.03
  -2  -2  -1    0.07    0.03
  -2  -2  -1    0.16    0.03
   2   2   1    0.10    0.03
   2   2   1    0.12    0.03
   2   2   1    0.06    0.02
   2   2   1    0.12    0.03
  -3  -2  -1    7.09    0.22
  -3  -2  -1    7.08    0.21
  -3  -2  -1    7.20    0.20
   3   2   1    7.32    0.22
  -4  -2  -1   35.30    0.77
  -4  -2  -1   34.98    0.79
  -4  -2  -1   35.95    0.85
   4   2   1   35.80    0.78
   4   2   1   36.25    0.84
  -5  -2  -1   25.74    0.58
  -5  -2  -1   25.19    0.64
  -5  -2  -1   24.84    0.59
   5   2   1   24.82    0.57
  -6  -2  -1   25.41    0.66
  -6  -2  -1   25.26    0.62
  -6  -2  -1   25.81    0.60
  -7  -2  -1    6.71    0.24
  -7  -2  -1    7.02    0.28
  -7  -2  -1    6.62    0.26
  -9   3   1    7.17    0.21
  -9   3   1    7.63    0.46
  -8   3   1    1.81    0.23
  -8   3   1    1.49    0.09
  -8   3   1    1.34    0.09
  -8   3   1    1.47    0.10
  -7   3   1    0.87    0.16
  -7   3   1    0.79    0.06
  -7   3   1    0.84    0.08
  -7   3   1    0.75    0.07
  -6   3   1    1.24    0.07
  -6   3   1    1.35    0.07
  -6   3   1    1.20    0.16
  -6   3   1    1.26    0.07
  -6   3   1    1.23    0.06
  -5   3   1    1.85    0.06
  -5   3   1    1.96    0.08
  -5   3   1    1.85    0.07
  -5   3   1    1.90    0.07
  -5   3   1    2.06    0.16
  -4   3   1   32.23    0.65
  -4   3   1   32.03    0.67
  -4   3   1   33.12    1.00
  -4   3   1   31.63    0.72
  -4   3   1   32.02    0.99
  -4   3   1   32.41    0.68
  -3   3   1   39.22    0.79
  -3   3   1   38.60    1.13
  -3   3   1   36.64    1.12
  -3   3   1   38.43    0.77
  -3   3   1   36.83    0.84
  -3   3   1   37.96    0.79
   2  -3  -1   71.59    1.48
   2  -3  -1   74.29    1.48
   2  -3  -1   74.52    2.06
   2  -3  -1   72.43    1.58
  -2   3   1   73.83    2.03
  -2   3   1   71.19    2.06
  -2   3   1   69.35    1.58
  -2   3   1   72.77    1.49
  -2   3   1   71.85    1.48
  -2   3   1   72.26    1.46
   1  -3  -1  213.54    4.36
   1  -3  -1  207.49    6.08
   1  -3  -1  209.57    5.96
   1  -3  -1  211.69    4.31
   1  -3  -1  218.64    4.33
   1  -3  -1  216.41    4.60
  -1   3   1  216.98    5.93
  -1   3   1  206.36    4.61
  -1   3   1  217.13    4.31
  -1   3   1  212.12    4.39
  -1   3   1  213.79    4.36
   0  -3  -1   99.78    2.71
   0  -3  -1   98.26    2.03
   0  -3  -1   95.44    2.16
   0  -3  -1  100.22    2.03
   0   3   1  101.84    2.04
   0   3   1   97.72    2.17
   0   3   1   98.93    2.03
   0   3   1   98.89    1.99
  -1  -3  -1   54.06    1.11
  -1  -3  -1   53.47    1.21
  -1  -3  -1   53.44    1.14
  -1  -3  -1   54.11    1.14
   1   3   1   54.92    1.14
   1   3   1   54.50    1.13
   1   3   1   52.54    1.21
   1   3   1   54.23    1.11
  -2  -3  -1   28.99    0.71
  -2  -3  -1   29.31    0.67
  -2  -3  -1   29.70    0.65
  -2  -3  -1   30.19    0.67
   2   3   1   30.50    0.64
   2   3   1   30.63    0.67
  -3  -3  -1    0.06    0.03
  -3  -3  -1    0.13    0.05
  -3  -3  -1    0.04    0.03
  -3  -3  -1    0.09    0.04
   3   3   1    0.04    0.04
   3   3   1    0.02    0.04
  -4  -3  -1   -0.04    0.04
  -4  -3  -1   -0.04    0.05
  -4  -3  -1   -0.04    0.05
   4   3   1    0.00    0.05
   4   3   1    0.01    0.02
  -5  -3  -1    4.91    0.20
  -5  -3  -1    5.00    0.22
  -5  -3  -1    4.98    0.19
  -6  -3  -1   12.09    0.36
  -6  -3  -1   12.59    0.40
  -6  -3  -1   12.66    0.38
  -7  -3  -1    4.15    0.21
  -7  -3  -1    4.14    0.20
  -7  -3  -1    4.07    0.23
  -9   4   1    3.43    0.13
  -9   4   1    3.38    0.31
  -8   4   1   24.17    0.88
  -8   4   1   22.83    0.51
  -8   4   1   21.93    0.53
  -7   4   1    9.97    0.27
  -7   4   1   10.14    0.24
  -7   4   1    9.85    0.45
  -6   4   1   14.24    0.32
  -6   4   1   14.04    0.33
  -6   4   1   14.46    0.55
  -6   4   1   14.09    0.33
  -6   4   1   14.05    0.35
  -5   4   1    3.37    0.10
  -5   4   1    3.34    0.11
  -5   4   1    3.43    0.21
  -5   4   1    3.44    0.12
  -5   4   1    3.46    0.11
  -4   4   1    2.76    0.19
  -4   4   1    2.58    0.10
  -4   4   1    2.71    0.17
  -4   4   1    2.66    0.09
  -4   4   1    2.86    0.10
  -4   4   1    2.78    0.09
   3  -4  -1   37.70    1.10
   3  -4  -1   38.30    0.78
   3  -4  -1   38.23    0.83
  -3   4   1   36.60    0.77
  -3   4   1   36.18    0.84
  -3   4   1   38.08    0.79
  -3   4   1   36.62    0.79
  -3   4   1   36.22    1.11
  -3   4   1   37.07    1.10
   2  -4  -1   94.07    1.91
   2  -4  -1   87.22    2.64
   2  -4  -1   94.38    1.86
   2  -4  -1   94.03    2.03
  -2   4   1   91.91    1.91
  -2   4   1   93.90    1.91
  -2   4   1   94.24    1.88
  -2   4   1   91.33    2.04
  -2   4   1   94.24    2.58
   1  -4  -1   80.83    2.29
   1  -4  -1   82.48    1.64
   1  -4  -1   79.68    1.68
   1  -4  -1   81.35    1.68
   1  -4  -1   78.53    1.79
  -1   4   1   81.12    1.68
  -1   4   1   77.01    1.79
  -1   4   1   81.95    1.65
  -1   4   1   81.44    1.68
  -1   4   1   85.09    2.24
   0  -4  -1  137.28    2.76
   0  -4  -1  130.85    2.76
   0  -4  -1  134.76    3.68
   0  -4  -1  133.88    2.95
   0   4   1  133.41    2.95
   0   4   1  136.17    2.71
   0   4   1  136.71    2.76
   0   4   1  134.38    2.77
  -1  -4  -1  128.78    2.70
  -1  -4  -1  125.40    2.69
  -1  -4  -1  129.03    2.64
  -1  -4  -1  128.89    2.88
   1   4   1  135.71    2.65
   1   4   1  134.88    2.70
   1   4   1  133.57    2.69
  -2  -4  -1   40.42    0.89
  -2  -4  -1   39.08    0.95
  -2  -4  -1   40.00    0.89
  -2  -4  -1   40.30    0.87
   2   4   1   40.75    0.89
  -3  -4  -1   29.44    0.73
  -3  -4  -1   28.75    0.66
  -3  -4  -1   29.00    0.68
  -3  -4  -1   28.37    0.67
   3   4   1   29.56    0.67
  -4  -4  -1    2.49    0.15
  -4  -4  -1    2.48    0.14
  -4  -4  -1    2.64    0.17
   4   4   1    2.38    0.14
   4   4   1    2.63    0.15
  -5  -4  -1    0.35    0.08
  -5  -4  -1    0.38    0.09
  -5  -4  -1    0.32    0.07
  -6  -4  -1    1.47    0.15
  -6  -4  -1    1.19    0.13
  -6  -4  -1    1.36    0.14
  -8   5   1    2.26    0.25
  -8   5   1    1.99    0.10
  -8   5   1    2.03    0.12
  -7   5   1   21.90    0.79
  -7   5   1   21.34    0.48
  -7   5   1   20.59    0.49
  -6   5   1   19.42    0.70
  -6   5   1   19.26    0.43
  -6   5   1   19.20    0.45
  -6   5   1   19.55    0.44
  -5   5   1   10.31    0.43
  -5   5   1   10.65    0.26
  -5   5   1   10.81    0.29
  -5   5   1   10.93    0.28
  -5   5   1   10.89    0.27
   4  -5  -1    4.30    0.12
  -4   5   1    4.31    0.21
  -4   5   1    4.06    0.23
  -4   5   1    4.38    0.15
  -4   5   1    4.59    0.14
  -4   5   1    4.44    0.14
  -4   5   1    4.38    0.15
   3  -5  -1    9.64    0.33
   3  -5  -1    9.11    0.23
   3  -5  -1    8.86    0.24
  -3   5   1    8.98    0.24
  -3   5   1    9.04    0.25
  -3   5   1    8.97    0.26
  -3   5   1    9.04    0.34
  -3   5   1    9.22    0.31
  -3   5   1    8.99    0.24
   2  -5  -1    3.79    0.13
   2  -5  -1    3.86    0.13
   2  -5  -1    3.80    0.14
  -2   5   1    3.90    0.13
  -2   5   1    3.54    0.14
  -2   5   1    3.78    0.13
  -2   5   1    3.62    0.14
  -2   5   1    3.67    0.17
   1  -5  -1   33.39    0.79
   1  -5  -1   34.06    0.99
   1  -5  -1   33.46    0.74
   1  -5  -1   33.97    0.72
  -1   5   1   34.12    0.75
  -1   5   1   32.79    0.74
  -1   5   1   33.67    0.73
  -1   5   1   32.81    0.79
   0  -5  -1   40.34    0.96
   0  -5  -1   41.84    0.88
   0  -5  -1   41.41    0.90
   0   5   1   41.66    0.89
   0   5   1   40.14    0.90
   0   5   1   41.06    0.91
  -1  -5  -1   64.55    1.34
  -1  -5  -1   62.97    1.37
  -1  -5  -1   63.44    1.37
  -1  -5  -1   62.27    1.46
   1   5   1   64.78    1.37
   1   5   1   64.48    1.34
  -2  -5  -1   49.25    1.10
  -2  -5  -1   49.92    1.17
  -2  -5  -1   49.72    1.10
  -2  -5  -1   50.06    1.08
   2   5   1   49.72    1.10
  -3  -5  -1   14.88    0.40
  -3  -5  -1   15.23    0.44
  -3  -5  -1   14.53    0.41
  -3  -5  -1   15.06    0.41
   3   5   1   15.18    0.41
  -4  -5  -1   12.61    0.39
  -4  -5  -1   13.17    0.42
  -4  -5  -1   13.00    0.37
   4   5   1   13.16    0.39
  -5  -5  -1    0.39    0.09
  -5  -5  -1    0.67    0.11
  -6  -5  -1   -0.04    0.08
  -6  -5  -1    0.11    0.10
  -8   6   1    6.97    0.41
  -8   6   1    6.48    0.21
  -8   6   1    7.10    0.22
  -7   6   1   10.10    0.48
  -7   6   1   10.54    0.29
  -7   6   1   10.70    0.28
  -6   6   1   20.10    0.74
  -6   6   1   21.05    0.48
  -6   6   1   20.56    0.49
  -5   6   1   43.56    0.95
  -5   6   1   44.28    0.94
  -5   6   1   43.42    0.93
  -5   6   1   42.44    1.32
   4  -6  -1   23.50    0.76
  -4   6   1   24.70    0.78
  -4   6   1   23.58    0.59
  -4   6   1   23.83    0.54
  -4   6   1   23.41    0.56
  -4   6   1   23.84    0.55
  -4   6   1   23.61    0.74
   3  -6  -1   28.14    0.67
   3  -6  -1   28.21    0.87
  -3   6   1   27.98    0.64
  -3   6   1   27.23    0.68
  -3   6   1   28.13    0.86
  -3   6   1   27.56    0.64
  -3   6   1   27.85    0.63
   2  -6  -1    1.28    0.09
   2  -6  -1    1.18    0.11
   2  -6  -1    1.37    0.11
  -2   6   1    1.20    0.10
  -2   6   1    1.24    0.11
  -2   6   1    1.31    0.10
   1  -6  -1   13.67    0.36
   1  -6  -1   13.62    0.45
   1  -6  -1   14.23    0.35
   1  -6  -1   13.36    0.38
  -1   6   1   13.78    0.36
  -1   6   1   13.38    0.36
  -1   6   1   13.68    0.37
   0  -6  -1   24.24    0.63
   0  -6  -1   24.87    0.59
   0  -6  -1   24.62    0.57
   0   6   1   24.41    0.60
   0   6   1   24.66    0.58
  -1  -6  -1   28.95    0.67
  -1  -6  -1   28.68    0.74
  -1  -6  -1   29.29    0.69
   1   6   1   29.27    0.67
   1   6   1   28.89    0.70
  -2  -6  -1   21.43    0.59
  -2  -6  -1   21.50    0.55
  -2  -6  -1   21.41    0.53
   2   6   1   21.81    0.55
  -3  -6  -1   22.51    0.59
  -3  -6  -1   22.71    0.58
  -3  -6  -1   23.43    0.64
   3   6   1   23.26    0.59
  -4  -6  -1   15.29    0.48
  -4  -6  -1   14.44    0.45
  -5  -6  -1    2.25    0.22
  -5  -6  -1    1.67    0.16
  -8   7   1    0.05    0.05
  -8   7   1    0.09    0.05
  -7   7   1    3.65    0.16
  -7   7   1    3.48    0.25
  -7   7   1    3.59    0.15
  -6   7   1   11.86    0.46
  -6   7   1   11.80    0.33
  -6   7   1   11.87    0.32
  -5   7   1   11.81    0.32
  -5   7   1   12.05    0.34
  -5   7   1   11.77    0.42
   4  -7  -1   41.15    0.97
  -4   7   1   42.56    0.95
  -4   7   1   42.53    1.28
  -4   7   1   41.65    0.92
   3  -7  -1   21.12    0.53
   3  -7  -1   20.39    0.69
   3  -7  -1   21.23    0.50
  -3   7   1   20.95    0.67
  -3   7   1   21.24    0.51
  -3   7   1   20.72    0.51
  -3   7   1   20.62    0.52
   2  -7  -1    7.90    0.25
   2  -7  -1    8.02    0.27
  -2   7   1    7.79    0.27
  -2   7   1    8.01    0.25
  -2   7   1    7.92    0.25
   1  -7  -1    2.31    0.15
   1  -7  -1    2.50    0.13
   1  -7  -1    2.56    0.14
  -1   7   1    2.42    0.16
  -1   7   1    2.43    0.14
   0  -7  -1    0.72    0.10
   0  -7  -1    0.73    0.08
   0  -7  -1    0.72    0.11
   0   7   1    0.52    0.10
  -1  -7  -1   15.83    0.44
  -1  -7  -1   16.21    0.48
   1   7   1   15.55    0.45
  -2  -7  -1   12.04    0.38
  -2  -7  -1   11.11    0.40
   2   7   1   11.48    0.37
  -3  -7  -1   10.03    0.36
  -3  -7  -1   10.75    0.39
  -4  -7  -1    7.03    0.31
  -4  -7  -1    7.91    0.35
  -7   8   1    0.46    0.08
  -7   8   1    0.56    0.08
  -6   8   1    6.40    0.29
  -6   8   1    6.86    0.25
  -6   8   1    6.58    0.23
  -5   8   1   10.16    0.30
  -5   8   1   10.06    0.32
  -4   8   1   15.10    0.42
  -4   8   1   14.58    0.40
   3  -8  -1   24.21    0.62
   3  -8  -1   23.88    0.58
  -3   8   1   23.80    0.59
  -3   8   1   24.73    0.76
  -3   8   1   24.57    0.62
   2  -8  -1   20.87    0.57
   2  -8  -1   21.57    0.54
  -2   8   1   21.25    0.56
   1  -8  -1    9.37    0.31
   1  -8  -1    9.71    0.34
  -1   8   1    9.56    0.33
   0  -8  -1    0.29    0.08
   0  -8  -1    0.29    0.08
   0   8   1    0.29    0.08
  -1  -8  -1    0.75    0.11
  -1  -8  -1    0.57    0.10
   1   8   1    0.94    0.12
  -2  -8  -1    5.24    0.28
  -2  -8  -1    4.91    0.25
   2   8   1    5.22    0.26
  -3  -8  -1    3.66    0.24
  -3  -8  -1    3.35    0.26
  -7   9   1    0.07    0.07
  -6   9   1   -0.04    0.06
  -5   9   1    5.79    0.25
  -4   9   1    8.34    0.31
   3  -9  -1   13.85    0.42
  -3   9   1   13.25    0.42
   2  -9  -1   14.97    0.45
  -2   9   1   14.21    0.44
   1  -9  -1    8.84    0.32
   1  -9  -1    9.41    0.35
  -1   9   1    9.18    0.34
   0  -9  -1    7.02    0.29
   0  -9  -1    7.52    0.32
   0   9   1    7.46    0.31
  -1  -9  -1    0.92    0.13
  -1  -9  -1    1.20    0.14
   1   9   1    0.62    0.12
  -2  -9  -1    0.01    0.09
  -2  -9  -1   -0.12    0.08
  -6  10   1    0.01    0.07
  -5  10   1    0.35    0.09
  -4  10   1    0.16    0.08
  -3  10   1    4.11    0.25
   2 -10  -1   10.07    0.38
  -2  10   1   10.31    0.38
   1 -10  -1    7.10    0.32
  -1  10   1    7.00    0.32
   0 -10  -1    4.58    0.27
   0  10   1    4.29    0.26
  -1 -10  -1    2.25    0.23
  -1 -10  -1    1.43    0.15
  -4  11   1    0.56    0.12
  -3  11   1    0.51    0.12
  -2  11   1    1.80    0.18
  -2  11  -2    7.49    0.35
  -3  11  -2    2.67    0.24
  -1 -10   2   -0.08    0.09
  -1 -10   2   -0.21    0.08
   0  10  -2    0.83    0.13
   0 -10   2    0.70    0.12
   0 -10   2    0.90    0.14
  -1  10  -2    0.39    0.11
   1 -10   2    0.36    0.10
  -2  10  -2    0.84    0.13
   2 -10   2    1.29    0.14
  -3  10  -2   13.72    0.45
  -4  10  -2    5.12    0.26
  -5  10  -2    4.28    0.24
  -2  -9   2    6.86    0.34
  -2  -9   2    6.71    0.31
   1   9  -2    2.47    0.21
  -1  -9   2    3.02    0.23
  -1  -9   2    2.39    0.20
   0   9  -2    0.91    0.12
   0  -9   2    1.28    0.13
   0  -9   2    1.11    0.14
  -1   9  -2    0.33    0.10
   1  -9   2    0.32    0.10
   1  -9   2    0.49    0.10
  -2   9  -2    5.74    0.26
   2  -9   2    5.46    0.24
   2  -9   2    5.74    0.26
  -3   9  -2    5.42    0.25
   3  -9   2    5.71    0.24
  -4   9  -2   18.08    0.51
  -5   9  -2    6.51    0.27
  -6   9  -2    7.56    0.29
  -4  -8   2    2.32    0.21
  -4  -8   2    2.54    0.23
  -3  -8   2    9.33    0.38
  -3  -8   2    9.34    0.35
   2   8  -2    5.84    0.28
  -2  -8   2    5.85    0.29
  -2  -8   2    5.23    0.25
   1   8  -2   29.77    0.75
  -1  -8   2   30.27    0.80
  -1  -8   2   29.12    0.74
   0   8  -2    2.38    0.18
   0  -8   2    2.66    0.19
   0  -8   2    2.44    0.17
  -1   8  -2    4.21    0.22
   1  -8   2    4.39    0.20
   1  -8   2    4.64    0.23
  -2   8  -2   -0.03    0.07
  -2   8  -2   -0.08    0.05
   2  -8   2   -0.07    0.06
   2  -8   2   -0.03    0.05
  -3   8  -2    3.01    0.19
  -3   8  -2    3.05    0.18
   3  -8   2    3.02    0.15
   3  -8   2    2.99    0.17
  -4   8  -2    5.68    0.21
  -4   8  -2    5.80    0.24
  -5   8  -2    6.37    0.23
  -5   8  -2    6.20    0.25
  -5   8  -2    6.55    0.31
  -6   8  -2    7.09    0.25
  -6   8  -2    7.26    0.36
  -6   8  -2    7.63    0.27
  -7   8  -2    9.83    0.32
  -7   8  -2    9.35    0.31
  -7   8  -2    9.62    0.46
  -5  -7   2    0.14    0.10
  -5  -7   2    0.18    0.12
  -4  -7   2    2.39    0.22
  -4  -7   2    2.45    0.20
  -3  -7   2    9.44    0.36
  -3  -7   2    9.19    0.33
   2   7  -2   26.61    0.68
  -2  -7   2   27.80    0.74
  -2  -7   2   26.89    0.68
   1   7  -2   29.59    0.72
  -1  -7   2   28.87    0.71
  -1  -7   2   29.18    0.76
   0   7  -2   66.35    1.45
   0  -7   2   66.67    1.44
   0  -7   2   67.71    1.55
   0  -7   2   64.04    1.41
  -1   7  -2    8.76    0.29
  -1   7  -2    8.87    0.27
  -1   7  -2    8.79    0.27
   1  -7   2    8.90    0.26
   1  -7   2    8.95    0.30
   1  -7   2    8.97    0.28
  -2   7  -2    7.73    0.25
  -2   7  -2    7.72    0.27
  -2   7  -2    7.64    0.25
  -2   7  -2    7.92    0.29
   2  -7   2    7.79    0.27
   2  -7   2    7.77    0.25
  -3   7  -2   -0.07    0.04
  -3   7  -2   -0.04    0.04
  -3   7  -2    0.04    0.07
  -3   7  -2   -0.03    0.05
   3  -7   2    0.14    0.06
   3  -7   2    0.05    0.04
  -4   7  -2    1.29    0.13
  -4   7  -2    1.34    0.11
  -4   7  -2    1.53    0.15
   4  -7   2    1.27    0.11
  -5   7  -2   25.61    0.86
  -5   7  -2   26.10    0.63
  -5   7  -2   25.71    0.61
  -6   7  -2    4.38    0.18
  -6   7  -2    4.30    0.19
  -6   7  -2    3.76    0.27
  -7   7  -2    4.70    0.32
  -7   7  -2    4.30    0.19
  -7   7  -2    4.38    0.18
  -8   7  -2    5.20    0.22
  -8   7  -2    5.49    0.38
  -8   7  -2    5.33    0.21
  -5  -6   2    0.70    0.13
  -5  -6   2    0.45    0.10
  -4  -6   2   -0.05    0.07
  -4  -6   2    0.14    0.08
   3   6  -2    5.97    0.24
  -3  -6   2    5.77    0.24
  -3  -6   2    5.81    0.23
  -3  -6   2    5.89    0.26
   2   6  -2   21.25    0.53
  -2  -6   2   20.56    0.57
  -2  -6   2   20.26    0.53
  -2  -6   2   21.15    0.52
   1   6  -2   12.54    0.33
   1   6  -2   12.17    0.35
  -1  -6   2   12.27    0.38
  -1  -6   2   12.30    0.35
  -1  -6   2   12.31    0.34
   0   6  -2   45.29    1.00
   0   6  -2   44.18    0.97
   0  -6   2   44.35    0.97
   0  -6   2   45.55    1.07
   0  -6   2   44.93    0.99
  -1   6  -2  108.33    2.22
  -1   6  -2  105.35    2.26
  -1   6  -2  107.87    2.27
  -1   6  -2  108.85    2.98
   1  -6   2  108.49    2.41
   1  -6   2  108.91    2.26
   1  -6   2  109.80    2.22
  -2   6  -2   32.23    0.95
  -2   6  -2   32.31    0.73
  -2   6  -2   31.40    0.71
  -2   6  -2   31.23    0.72
   2  -6   2   31.92    0.72
   2  -6   2   31.93    0.77
  -3   6  -2   21.23    0.50
  -3   6  -2   22.06    0.70
  -3   6  -2   20.75    0.55
  -3   6  -2   22.46    0.70
  -3   6  -2   21.49    0.51
  -3   6  -2   21.37    0.52
   3  -6   2   21.78    0.54
  -4   6  -2    0.14    0.05
  -4   6  -2    0.23    0.05
  -4   6  -2    0.25    0.08
  -4   6  -2    0.14    0.04
  -4   6  -2    0.23    0.04
   4  -6   2    0.23    0.05
  -5   6  -2    0.04    0.05
  -5   6  -2    0.10    0.09
  -5   6  -2    0.10    0.04
  -6   6  -2   11.90    0.34
  -6   6  -2   12.04    0.32
  -6   6  -2   12.01    0.53
  -7   6  -2    5.54    0.36
  -7   6  -2    5.13    0.19
  -7   6  -2    5.34    0.21
  -8   6  -2    4.65    0.20
  -8   6  -2    4.29    0.18
  -8   6  -2    4.66    0.36
  -6  -5   2    7.77    0.33
  -6  -5   2    7.21    0.29
  -5  -5   2    3.44    0.19
  -5  -5   2    3.45    0.20
  -5  -5   2    3.36    0.22
  -4  -5   2    4.61    0.19
  -4  -5   2    4.46    0.22
  -4  -5   2    4.27    0.20
   3   5  -2   -0.11    0.04
  -3  -5   2   -0.08    0.04
  -3  -5   2   -0.16    0.05
  -3  -5   2   -0.02    0.05
  -3  -5   2   -0.17    0.05
   2   5  -2    7.14    0.24
  -2  -5   2    7.37    0.26
  -2  -5   2    7.15    0.24
  -2  -5   2    7.29    0.24
  -2  -5   2    7.24    0.23
   1   5  -2   43.20    0.92
   1   5  -2   43.12    0.95
  -1  -5   2   42.32    0.95
  -1  -5   2   43.67    0.93
  -1  -5   2   43.12    0.95
  -1  -5   2   42.20    1.01
   0   5  -2   70.21    1.45
   0   5  -2   69.48    1.49
   0   5  -2   70.04    1.48
   0  -5   2   68.29    1.48
   0  -5   2   71.54    1.48
   0  -5   2   70.81    1.59
  -1   5  -2   55.59    1.52
  -1   5  -2   53.95    1.14
  -1   5  -2   52.74    1.16
  -1   5  -2   55.24    1.16
   1  -5   2   53.22    1.24
   1  -5   2   53.38    1.15
   1  -5   2   54.91    1.13
   1  -5   2   54.02    1.59
  -2   5  -2  111.75    2.30
  -2   5  -2  113.08    2.31
  -2   5  -2  106.83    2.45
  -2   5  -2  112.49    2.26
   2  -5   2  113.39    2.30
   2  -5   2  112.91    2.46
   2  -5   2  117.43    2.25
   2  -5   2  102.65    3.22
  -3   5  -2   78.31    1.76
  -3   5  -2   78.31    2.30
  -3   5  -2   80.45    1.66
  -3   5  -2   78.48    1.62
  -3   5  -2   80.01    1.65
   3  -5   2   78.59    1.75
  -4   5  -2   25.83    0.57
  -4   5  -2   25.99    0.63
  -4   5  -2   25.00    0.85
  -4   5  -2   26.33    0.60
  -4   5  -2   25.67    0.59
   4  -5   2   25.94    0.60
  -5   5  -2    1.98    0.10
  -5   5  -2    1.90    0.10
  -5   5  -2    1.92    0.11
  -5   5  -2    1.90    0.11
  -5   5  -2    2.00    0.20
   5  -5   2    1.81    0.07
  -6   5  -2   -0.03    0.03
  -6   5  -2   -0.02    0.04
  -6   5  -2    0.04    0.09
  -7   5  -2    3.36    0.14
  -7   5  -2    3.59    0.16
  -7   5  -2    3.94    0.31
  -8   5  -2    2.64    0.16
  -8   5  -2    2.56    0.13
  -8   5  -2    2.45    0.28
  -7  -4   2    6.44    0.27
  -7  -4   2    6.05    0.25
  -7  -4   2    6.16    0.29
  -6  -4   2    6.83    0.26
  -6  -4   2    7.41    0.30
  -6  -4   2    6.80    0.26
  -5  -4   2   24.52    0.61
  -5  -4   2   24.47    0.60
  -5  -4   2   25.40    0.66
  -4  -4   2    9.97    0.30
  -4  -4   2    9.53    0.34
  -4  -4   2   10.31    0.33
  -4  -4   2   10.59    0.30
   3   4  -2   16.43    0.40
  -3  -4   2   15.92    0.40
  -3  -4   2   16.27    0.44
  -3  -4   2   16.09    0.41
  -3  -4   2   15.57    0.47
  -3  -4   2   15.84    0.41
   2   4  -2    0.88    0.08
  -2  -4   2    0.90    0.08
  -2  -4   2    0.85    0.09
  -2  -4   2    0.84    0.08
  -2  -4   2    0.92    0.09
   1   4  -2   21.99    0.48
   1   4  -2   21.42    0.49
   1   4  -2   21.05    0.50
  -1  -4   2   21.30    0.49
  -1  -4   2   21.49    0.50
  -1  -4   2   21.46    0.50
  -1  -4   2   20.84    0.53
   0   4  -2   32.80    0.70
   0   4  -2   32.81    0.77
   0   4  -2   33.21    0.90
   0   4  -2   32.43    0.71
   0   4  -2   32.79    0.72
   0  -4   2   31.86    0.77
   0  -4   2   32.83    0.72
   0  -4   2   32.34    0.71
  -1   4  -2   92.42    1.87
  -1   4  -2   93.68    1.91
  -1   4  -2   90.35    2.03
  -1   4  -2   92.74    1.91
   1  -4   2   91.27    1.90
   1  -4   2   89.78    2.03
   1  -4   2   94.70    2.64
   1  -4   2   95.04    1.87
   1  -4   2   90.06    1.91
  -2   4  -2  114.82    2.33
  -2   4  -2  112.84    2.32
  -2   4  -2  110.10    2.28
  -2   4  -2  111.58    2.48
  -2   4  -2  114.44    3.22
   2  -4   2  115.66    2.27
   2  -4   2  113.52    2.32
   2  -4   2  112.18    2.47
   2  -4   2  111.21    2.31
  -3   4  -2   39.32    0.83
  -3   4  -2   37.50    1.18
  -3   4  -2   38.35    0.88
  -3   4  -2   39.52    0.83
  -3   4  -2   38.21    0.81
   3  -4   2   37.66    0.87
   3  -4   2   37.88    1.18
  -4   4  -2   93.13    1.95
  -4   4  -2   93.40    2.76
  -4   4  -2   93.80    1.95
  -4   4  -2   94.93    2.08
  -4   4  -2   94.65    1.91
  -5   4  -2   17.01    0.62
  -5   4  -2   16.86    0.43
  -5   4  -2   16.34    0.40
  -5   4  -2   16.82    0.39
  -5   4  -2   16.61    0.41
  -6   4  -2    2.80    0.13
  -6   4  -2    2.80    0.12
  -6   4  -2    2.70    0.23
  -7   4  -2    0.27    0.06
  -7   4  -2   -0.03    0.10
  -7   4  -2    0.04    0.04
  -7   4  -2    0.07    0.05
  -8   4  -2    0.98    0.19
  -8   4  -2    0.63    0.07
  -8   4  -2    0.77    0.09
  -8   4  -2    0.72    0.09
  -7  -3   2    1.51    0.14
  -7  -3   2    1.63    0.15
  -7  -3   2    1.45    0.14
  -6  -3   2   18.17    0.48
  -6  -3   2   18.17    0.46
  -6  -3   2   18.02    0.51
  -5  -3   2   25.19    0.60
  -5  -3   2   24.66    0.58
  -5  -3   2   24.08    0.78
  -5  -3   2   25.18    0.64
   4   3  -2   33.04    0.73
  -4  -3   2   32.72    0.98
  -4  -3   2   32.82    0.75
  -4  -3   2   32.79    0.80
  -4  -3   2   33.82    0.73
  -4  -3   2   33.34    0.75
   3   3  -2   37.61    0.90
  -3  -3   2   42.64    0.91
  -3  -3   2   42.72    1.20
  -3  -3   2   43.06    0.90
  -3  -3   2   42.83    0.98
  -3  -3   2   43.46    0.92
   2   3  -2   73.87    1.45
   2   3  -2   71.25    1.49
  -2  -3   2   71.62    1.46
  -2  -3   2   71.12    1.96
  -2  -3   2   69.02    1.59
  -2  -3   2   70.53    1.49
  -2  -3   2   70.56    1.49
   1   3  -2    2.45    0.10
   1   3  -2    2.56    0.10
   1   3  -2    2.59    0.10
   1   3  -2    2.62    0.09
  -1  -3   2    2.45    0.10
  -1  -3   2    2.36    0.10
  -1  -3   2    2.54    0.10
  -1  -3   2    2.43    0.09
   0   3  -2    0.44    0.04
   0   3  -2    0.44    0.05
   0   3  -2    0.42    0.05
   0  -3   2    0.26    0.04
  -1   3  -2   55.59    1.25
  -1   3  -2   57.07    1.17
  -1   3  -2   55.84    1.17
  -1   3  -2   57.04    1.61
  -1   3  -2   54.48    1.15
   1  -3   2   56.61    1.14
   1  -3   2   55.66    1.17
   1  -3   2   55.75    1.17
   1  -3   2   55.68    1.25
   1  -3   2   57.03    1.63
  -2   3  -2   67.87    1.49
  -2   3  -2   64.26    1.95
  -2   3  -2   68.73    1.40
  -2   3  -2   68.64    1.39
  -2   3  -2   67.52    1.36
   2  -3   2   68.17    1.39
   2  -3   2   69.23    1.49
   2  -3   2   59.98    1.96
   2  -3   2   67.21    1.48
   2  -3   2   70.47    1.36
  -3   3  -2   82.21    1.66
  -3   3  -2   81.32    1.76
  -3   3  -2   81.11    2.34
  -3   3  -2   81.38    1.62
   3  -3   2   81.07    1.64
   3  -3   2   72.67    1.76
   3  -3   2   80.03    2.33
   3  -3   2   80.33    1.75
  -4   3  -2   62.68    1.28
  -4   3  -2   64.55    1.41
  -4   3  -2   62.47    1.31
  -4   3  -2   63.69    1.88
  -4   3  -2   62.33    1.40
   4  -3   2   60.95    1.37
   4  -3   2   62.39    1.37
  -5   3  -2   65.27    1.50
  -5   3  -2   68.86    1.42
  -5   3  -2   67.31    1.37
  -5   3  -2   64.94    1.51
  -5   3  -2   68.60    2.02
  -6   3  -2   14.14    0.34
  -6   3  -2   13.63    0.39
  -6   3  -2   13.45    0.55
  -6   3  -2   13.77    0.37
  -7   3  -2    5.90    0.19
  -7   3  -2    5.36    0.22
  -7   3  -2    5.82    0.35
  -7   3  -2    5.30    0.21
  -8   3  -2   -0.02    0.05
  -8   3  -2   -0.03    0.05
  -8   3  -2    0.07    0.05
  -8   3  -2    0.03    0.12
  -8  -2   2    0.07    0.06
  -8  -2   2   -0.08    0.06
  -7  -2   2    2.96    0.16
  -7  -2   2    2.85    0.16
  -7  -2   2    2.67    0.17
  -6  -2   2    8.04    0.25
  -6  -2   2    8.37    0.26
  -6  -2   2    8.10    0.27
   5   2  -2   25.21    0.54
   5   2  -2   22.35    0.57
  -5  -2   2   26.13    0.58
  -5  -2   2   25.54    0.81
  -5  -2   2   25.20    0.58
  -5  -2   2   25.31    0.62
  -5  -2   2   25.61    0.57
   4   2  -2   91.64    1.87
  -4  -2   2   92.47    2.57
  -4  -2   2   89.39    1.86
  -4  -2   2   91.74    1.90
  -4  -2   2   91.60    1.90
  -4  -2   2   90.75    2.02
   3   2  -2  115.06    2.32
  -3  -2   2  113.09    2.33
  -3  -2   2  113.61    2.33
  -3  -2   2  113.88    2.29
  -3  -2   2  111.05    2.49
  -3  -2   2  114.04    3.14
   2   2  -2   25.79    0.58
   2   2  -2   25.65    0.55
   2   2  -2   25.44    0.53
  -2  -2   2   25.14    0.55
  -2  -2   2   25.39    0.73
  -2  -2   2   25.53    0.54
  -2  -2   2   25.27    0.55
  -2  -2   2   24.58    0.59
   1   2  -2  133.49    2.72
   1   2  -2  134.18    2.90
   1   2  -2  133.86    3.69
   1   2  -2  135.94    2.67
   1   2  -2  135.56    2.72
  -1  -2   2  133.39    2.72
  -1  -2   2  132.97    2.67
  -1  -2   2  131.09    2.72
  -1  -2   2  133.61    2.90
   0   2  -2   21.00    0.45
   0   2  -2   20.37    0.48
   0   2  -2   20.66    0.44
   0   2  -2   20.66    0.45
   0  -2   2   20.09    0.44
   0  -2   2   20.70    0.45
  -1   2  -2    2.13    0.07
  -1   2  -2    2.11    0.08
  -1   2  -2    1.91    0.11
  -1   2  -2    2.18    0.08
  -1   2  -2    1.94    0.07
   1  -2   2    2.03    0.08
   1  -2   2    1.92    0.12
   1  -2   2    2.18    0.07
   1  -2   2    2.15    0.07
  -2   2  -2   41.55    0.92
  -2   2  -2   40.46    0.91
  -2   2  -2   41.61    1.21
  -2   2  -2   41.24    0.85
  -2   2  -2   41.17    0.83
   2  -2   2   39.89    0.90
   2  -2   2   39.68    0.92
   2  -2   2   40.84    0.82
   2  -2   2   39.72    1.21
   2  -2   2   41.01    0.85
  -3   2  -2  226.45    4.56
  -3   2  -2  207.40    4.80
  -3   2  -2  213.84    4.77
  -3   2  -2  220.41    6.19
  -3   2  -2  225.54    4.38
   3  -2   2  221.95    4.79
   3  -2   2  212.10    4.75
   3  -2   2  224.49    4.46
  -4   2  -2   54.24    1.23
  -4   2  -2   55.75    1.12
  -4   2  -2   53.97    1.24
  -4   2  -2   56.30    1.16
   4  -2   2   54.93    1.12
   4  -2   2   53.35    1.19
   4  -2   2   54.01    1.19
  -5   2  -2   35.91    0.76
  -5   2  -2   36.13    1.14
  -5   2  -2   35.50    0.85
  -5   2  -2   35.79    0.80
  -5   2  -2   34.92    0.84
  -6   2  -2   32.26    1.06
  -6   2  -2   31.32    0.69
  -6   2  -2   32.10    0.78
  -6   2  -2   30.33    0.73
  -7   2  -2    5.63    0.20
  -7   2  -2    5.63    0.23
  -7   2  -2    6.00    0.36
  -7   2  -2    5.55    0.21
  -8   2  -2    2.29    0.14
  -8   2  -2    2.27    0.17
  -8   2  -2    2.27    0.28
  -8  -1   2    2.36    0.15
  -8  -1   2    2.43    0.15
  -8  -1   2    2.34    0.14
  -7  -1   2    0.13    0.06
  -7  -1   2    0.09    0.05
  -7  -1   2    0.14    0.05
  -6  -1   2    2.40    0.11
  -6  -1   2    2.40    0.13
  -6  -1   2    2.35    0.12
  -5  -1   2   27.89    0.88
  -5  -1   2   27.19    0.60
  -5  -1   2   27.91    0.66
  -5  -1   2   27.66    0.61
  -5  -1   2   27.43    0.61
   4   1  -2   45.18    0.91
   4   1  -2   40.36    0.92
  -4  -1   2   45.56    1.31
  -4  -1   2   45.58    0.94
  -4  -1   2   45.22    0.92
  -4  -1   2   45.14    0.94
  -4  -1   2   44.58    1.00
   3   1  -2   41.70    0.82
   3   1  -2   39.56    0.87
   3   1  -2   40.20    0.82
   3   1  -2   38.86    0.88
  -3  -1   2   39.31    0.83
  -3  -1   2   40.29    1.15
  -3  -1   2   38.34    0.89
  -3  -1   2   39.81    0.81
  -3  -1   2   39.46    0.83
   2   1  -2  238.46    4.72
   2   1  -2  232.49    4.74
   2   1  -2  233.91    5.03
  -2  -1   2  225.49    4.64
  -2  -1   2  229.15    5.06
  -2  -1   2  228.51    4.74
  -2  -1   2  228.00    6.38
  -2  -1   2  230.52    4.77
   1   1  -2  139.23    2.81
   1   1  -2  138.33    3.01
   1   1  -2  139.71    3.81
   1   1  -2  135.93    2.84
  -1  -1   2  135.62    2.80
  -1  -1   2  138.58    3.05
  -1  -1   2  139.11    2.80
  -1  -1   2  136.54    2.80
   0   1  -2   33.97    0.74
   0   1  -2   34.16    0.69
   0   1  -2   33.64    0.69
   0   1  -2   33.07    0.68
   0  -1   2   32.59    0.69
   0  -1   2   34.22    0.96
   0  -1   2   33.58    0.74
   0  -1   2   32.36    0.68
   0  -1   2   32.73    0.69
  -1   1  -2   95.01    2.74
  -1   1  -2   95.93    1.95
  -1   1  -2   97.85    1.96
  -1   1  -2   98.61    2.12
  -1   1  -2   96.74    2.10
   1  -1   2   98.31    1.99
   1  -1   2   97.34    2.10
   1  -1   2   96.77    2.12
   1  -1   2   90.41    2.74
   1  -1   2   96.92    1.97
  -2   1  -2    9.39    0.22
  -2   1  -2    9.32    0.23
  -2   1  -2    8.89    0.24
  -2   1  -2    8.94    0.21
   2  -1   2    9.18    0.20
   2  -1   2    9.21    0.32
   2  -1   2    9.37    0.20
   2  -1   2    9.20    0.21
   2  -1   2    9.26    0.23
   2  -1   2    9.16    0.23
  -3   1  -2    0.10    0.03
  -3   1  -2    0.09    0.03
   3  -1   2    0.14    0.02
   3  -1   2    0.04    0.02
   3  -1   2    0.08    0.02
  -4   1  -2   38.79    0.89
  -4   1  -2   38.93    0.80
  -4   1  -2   37.39    0.84
  -4   1  -2   38.74    1.20
  -4   1  -2   37.50    0.90
  -4   1  -2   39.16    0.81
   4  -1   2   38.79    0.85
   4  -1   2   38.45    0.85
   4  -1   2   39.39    0.80
  -5   1  -2   30.34    0.73
  -5   1  -2   29.77    0.69
  -5   1  -2   29.40    0.73
  -5   1  -2   30.99    0.66
  -5   1  -2   30.93    1.01
  -5   1  -2   31.40    0.67
  -6   1  -2   25.48    0.61
  -6   1  -2   25.10    0.60
  -6   1  -2   26.46    0.58
  -6   1  -2   26.79    0.92
  -6   1  -2   25.51    0.64
  -7   1  -2   18.47    0.52
  -7   1  -2   19.41    0.75
  -7   1  -2   18.51    0.48
  -8   1  -2    6.01    0.26
  -8   1  -2    5.75    0.40
  -8   1  -2    5.88    0.22
  -8   0   2    2.19    0.13
  -8   0   2    2.12    0.13
  -8   0   2    2.57    0.13
  -7   0   2    4.94    0.18
  -7   0   2    5.30    0.17
  -7   0   2    5.26    0.17
  -6   0   2    1.70    0.08
  -6   0   2    1.66    0.10
  -6   0   2    1.75    0.09
  -5   0   2    0.45    0.04
  -5   0   2    0.37    0.10
  -5   0   2    0.51    0.05
  -5   0   2    0.45    0.04
  -5   0   2    0.55    0.04
  -4   0   2   59.27    1.23
  -4   0   2   61.20    1.23
  -4   0   2   58.04    1.31
  -4   0   2   60.23    1.20
  -4   0   2   60.89    1.73
  -3   0   2  182.55    3.71
  -3   0   2  183.36    3.72
  -3   0   2  183.73    5.02
  -3   0   2  179.05    3.96
  -2   0   2  267.67    5.84
  -2   0   2  278.90    5.48
  -2   0   2  266.23    7.53
  -2   0   2  265.14    5.47
   1   0  -2  403.26    8.13
   1   0  -2  386.05   11.05
  -1   0   2  423.31    8.68
  -1   0   2  389.86   11.03
   0   0  -2  190.90    5.69
   0   0  -2  198.26    4.41
   0   0  -2  204.46    4.08
   0   0  -2  207.73    4.15
   0   0  -2  203.66    4.41
   0   0   2  200.24    4.42
   0   0   2  201.47    4.07
   0   0   2  195.86    4.40
   0   0   2  197.26    4.11
   0   0   2  199.69    5.74
  -1   0  -2    1.75    0.06
  -1   0  -2    1.67    0.09
  -1   0  -2    1.63    0.07
   1   0   2    1.74    0.07
   1   0   2    1.89    0.07
   1   0   2    1.77    0.06
   1   0   2    2.11    0.07
   1   0   2    1.71    0.05
  -2   0  -2  106.40    2.12
  -2   0  -2  102.48    3.00
  -2   0  -2  101.59    2.31
  -2   0  -2  108.35    2.11
  -2   0  -2  106.19    2.30
  -2   0  -2  104.93    2.16
   2   0   2  105.18    2.29
   2   0   2  100.90    2.30
   2   0   2  106.15    2.11
   2   0   2  105.80    2.16
   2   0   2  112.93    2.15
  -3   0  -2    0.03    0.02
  -3   0  -2    0.00    0.02
  -3   0  -2    0.02    0.02
  -3   0  -2    0.04    0.02
  -3   0  -2    0.15    0.03
   3   0   2    0.00    0.02
   3   0   2    0.10    0.03
   3   0   2    0.08    0.02
  -4   0  -2    6.03    0.17
  -4   0  -2    6.24    0.19
  -4   0  -2    5.67    0.19
  -4   0  -2    6.15    0.19
   4   0   2    6.18    0.16
  -5   0  -2   23.85    0.55
  -5   0  -2   23.13    0.81
  -5   0  -2   23.18    0.52
  -5   0  -2   22.62    0.57
   5   0   2   23.26    0.52
   5   0   2   22.99    0.50
  -6   0  -2   26.83    0.94
  -6   0  -2   26.14    0.62
  -6   0  -2   25.87    0.66
  -6   0  -2   26.56    0.60
  -7   0  -2    9.33    0.31
  -7   0  -2    9.09    0.29
  -7   0  -2    9.55    0.28
  -7   0  -2    9.42    0.49
  -8   0  -2    3.58    0.20
  -8   0  -2    3.70    0.18
  -8   0  -2    3.63    0.34
  -8   1   2   10.15    0.27
  -8   1   2   10.33    0.27
  -8   1   2   10.37    0.30
  -8   1   2   10.27    0.52
  -7   1   2    4.56    0.14
  -7   1   2    4.54    0.14
  -7   1   2    4.34    0.15
  -6   1   2    8.16    0.21
  -6   1   2    8.58    0.21
  -6   1   2    8.28    0.22
  -6   1   2    8.74    0.20
  -5   1   2   13.50    0.32
  -5   1   2   13.85    0.51
  -5   1   2   13.63    0.30
  -4   1   2    1.07    0.04
  -4   1   2    1.04    0.04
  -4   1   2    1.06    0.04
  -4   1   2    0.99    0.04
  -4   1   2    0.84    0.11
   2  -1  -2   89.92    2.52
  -2   1   2   91.73    2.52
   1  -1  -2  177.16    3.46
   1  -1  -2  150.08    3.70
   1  -1  -2  160.25    4.69
  -1   1   2  173.36    3.72
  -1   1   2  177.36    3.47
  -1   1   2  178.34    4.68
   0  -1  -2   86.22    1.73
   0  -1  -2   81.34    1.81
   0   1   2   84.28    1.70
   0   1   2   81.88    1.81
  -1  -1  -2  471.00    9.41
  -1  -1  -2  467.39    9.61
  -1  -1  -2  460.64   10.22
   1   1   2  466.93   10.24
   1   1   2  467.20   10.21
   1   1   2  471.47    9.58
   1   1   2  467.64    9.39
  -2  -1  -2   16.30    0.36
  -2  -1  -2   15.87    0.40
  -2  -1  -2   16.82    0.38
   2   1   2   15.64    0.39
   2   1   2   15.98    0.37
   2   1   2   16.98    0.38
   2   1   2   16.75    0.36
   2   1   2   16.86    0.41
   2   1   2   16.77    0.37
  -3  -1  -2   76.01    1.53
  -3  -1  -2   75.02    1.67
  -3  -1  -2   74.81    1.57
   3   1   2   74.29    1.67
  -4  -1  -2    2.47    0.10
  -4  -1  -2    2.53    0.12
  -4  -1  -2    2.49    0.12
   4   1   2    2.56    0.10
   4   1   2    2.39    0.11
  -5  -1  -2    0.50    0.06
  -5  -1  -2    0.34    0.05
  -5  -1  -2    0.41    0.06
   5   1   2    0.54    0.05
   5   1   2    0.39    0.05
  -6  -1  -2    0.04    0.05
  -6  -1  -2    0.07    0.05
  -6  -1  -2    0.08    0.04
  -7  -1  -2    3.93    0.18
  -7  -1  -2    3.97    0.21
  -7  -1  -2    4.14    0.20
  -7  -1  -2    3.97    0.34
  -8   2   2   11.12    0.32
  -8   2   2   12.07    0.55
  -8   2   2   11.44    0.28
  -8   2   2   11.48    0.28
  -7   2   2   21.84    0.53
  -7   2   2   23.13    0.82
  -7   2   2   22.06    0.49
  -7   2   2   22.20    0.48
  -7   2   2   22.10    0.47
  -6   2   2   62.85    1.28
  -6   2   2   61.69    1.37
  -6   2   2   60.92    1.37
  -6   2   2   62.87    1.89
  -5   2   2    6.45    0.31
  -5   2   2    6.51    0.16
  -5   2   2    6.65    0.16
  -5   2   2    6.25    0.16
  -4   2   2   11.86    0.43
  -3   2   2    0.32    0.06
  -3   2   2    0.16    0.06
   2  -2  -2   41.78    0.83
   2  -2  -2   40.95    1.17
  -2   2   2   41.13    0.84
  -2   2   2   41.77    1.17
  -2   2   2   39.03    0.89
  -2   2   2   40.68    0.83
  -2   2   2   39.71    1.16
   1  -2  -2   58.28    1.30
   1  -2  -2   60.14    1.65
  -1   2   2   57.02    1.30
  -1   2   2   61.54    1.65
  -1   2   2   59.57    1.19
  -1   2   2   59.31    1.22
  -1   2   2   59.99    1.22
   0  -2  -2  968.03   20.93
   0  -2  -2  979.89   19.62
   0   2   2  939.01   19.25
   0   2   2  942.06   19.59
   0   2   2 1000.00   19.64
  -1  -2  -2  184.60    3.68
  -1  -2  -2  187.54    3.81
  -1  -2  -2  186.07    4.00
   1   2   2  182.28    4.00
   1   2   2  183.48    3.75
   1   2   2  185.14    3.75
   1   2   2  183.41    3.68
  -2  -2  -2  104.10    2.08
  -2  -2  -2  101.96    2.26
  -2  -2  -2  102.44    2.12
   2   2   2  100.37    2.26
   2   2   2  103.73    2.07
   2   2   2  103.31    2.12
   2   2   2  103.09    2.12
  -3  -2  -2   28.98    0.71
  -3  -2  -2   29.39    0.65
  -3  -2  -2   30.73    0.67
   3   2   2   30.30    0.71
   3   2   2   29.51    0.66
  -4  -2  -2   21.69    0.50
  -4  -2  -2   21.43    0.52
  -4  -2  -2   21.63    0.55
   4   2   2   22.13    0.56
  -5  -2  -2    1.90    0.13
  -5  -2  -2    1.83    0.11
  -5  -2  -2    1.96    0.14
   5   2   2    1.92    0.12
  -6  -2  -2    0.81    0.09
  -6  -2  -2    0.72    0.09
  -6  -2  -2    0.78    0.10
  -7  -2  -2    5.99    0.24
  -7  -2  -2    6.30    0.27
  -7  -2  -2    5.94    0.41
  -7  -2  -2    6.27    0.25
  -9   3   2    0.64    0.06
  -9   3   2    0.65    0.17
  -8   3   2    3.56    0.29
  -8   3   2    3.32    0.11
  -8   3   2    3.49    0.13
  -8   3   2    3.55    0.12
  -7   3   2   37.75    1.22
  -7   3   2   36.46    0.75
  -7   3   2   35.95    0.78
  -7   3   2   36.28    0.75
  -7   3   2   36.77    0.83
  -6   3   2    0.70    0.05
  -6   3   2    0.80    0.12
  -6   3   2    0.74    0.05
  -5   3   2   74.03    1.50
  -5   3   2   72.52    1.50
  -5   3   2   73.45    1.60
  -5   3   2   74.00    2.17
  -4   3   2   59.06    1.21
  -4   3   2   59.28    1.21
  -4   3   2   59.68    1.73
  -4   3   2   60.21    1.72
  -4   3   2   57.51    1.29
  -3   3   2   32.32    0.68
  -3   3   2   31.67    0.72
  -3   3   2   32.13    0.65
  -3   3   2   32.19    0.96
  -3   3   2   32.40    0.67
  -3   3   2   32.94    0.97
   2  -3  -2    6.14    0.15
   2  -3  -2    5.79    0.23
   2  -3  -2    6.15    0.20
   2  -3  -2    6.22    0.16
  -2   3   2    6.12    0.15
  -2   3   2    6.32    0.20
  -2   3   2    5.90    0.22
  -2   3   2    6.25    0.16
  -2   3   2    6.07    0.17
  -2   3   2    6.19    0.15
   1  -3  -2    5.99    0.16
   1  -3  -2    6.21    0.15
   1  -3  -2    6.05    0.17
   1  -3  -2    6.44    0.19
   1  -3  -2    6.06    0.21
  -1   3   2    5.98    0.16
  -1   3   2    5.91    0.17
  -1   3   2    6.23    0.16
  -1   3   2    6.10    0.17
   0  -3  -2    2.67    0.10
   0  -3  -2    2.57    0.10
   0  -3  -2    3.22    0.10
   0   3   2    2.37    0.09
   0   3   2    2.62    0.09
   0   3   2    2.56    0.10
   0   3   2    2.66    0.10
  -1  -3  -2   27.13    0.62
  -1  -3  -2   27.65    0.67
  -1  -3  -2   27.53    0.62
  -1  -3  -2   28.63    0.61
   1   3   2   28.72    0.61
   1   3   2   28.54    0.63
   1   3   2   29.17    0.62
  -2  -3  -2  141.26    3.21
  -2  -3  -2  146.62    2.95
  -2  -3  -2  143.83    3.00
   2   3   2  151.48    3.01
   2   3   2  148.46    2.94
  -3  -3  -2   75.11    1.56
  -3  -3  -2   73.63    1.59
  -3  -3  -2   75.48    1.70
   3   3   2   76.51    1.59
   3   3   2   76.00    1.70
  -4  -3  -2   27.99    0.67
  -4  -3  -2   28.74    0.72
  -4  -3  -2   28.19    0.65
   4   3   2   28.38    0.66
   4   3   2   29.22    0.71
  -5  -3  -2   14.23    0.42
  -5  -3  -2   13.44    0.37
  -5  -3  -2   13.45    0.39
  -6  -3  -2    0.97    0.11
  -6  -3  -2    0.64    0.08
  -6  -3  -2    0.93    0.12
  -7  -3  -2    1.38    0.15
  -7  -3  -2    1.53    0.15
  -7  -3  -2    1.46    0.14
  -9   4   2    0.44    0.05
  -9   4   2    0.36    0.15
  -8   4   2    0.15    0.04
  -8   4   2    0.17    0.03
  -8   4   2    0.22    0.12
  -7   4   2    2.74    0.09
  -7   4   2    2.61    0.11
  -7   4   2    2.69    0.09
  -7   4   2    2.78    0.23
  -6   4   2   84.06    1.68
  -6   4   2   84.57    1.84
  -6   4   2   82.21    1.72
  -6   4   2   84.69    2.49
  -6   4   2   83.86    1.72
  -5   4   2   66.99    2.01
  -5   4   2   68.93    1.40
  -5   4   2   68.23    1.50
  -5   4   2   68.54    1.37
  -5   4   2   67.47    1.40
  -4   4   2   79.58    1.79
  -4   4   2   79.20    2.36
  -4   4   2   81.24    1.68
  -4   4   2   83.57    1.67
  -4   4   2   81.53    1.64
  -4   4   2   83.92    2.34
   3  -4  -2   72.37    1.45
  -3   4   2   71.60    2.02
  -3   4   2   70.61    2.03
  -3   4   2   70.62    1.46
  -3   4   2   71.14    1.44
  -3   4   2   68.82    1.56
  -3   4   2   71.20    1.47
   2  -4  -2   72.99    1.63
   2  -4  -2   75.62    2.11
   2  -4  -2   75.31    1.49
  -2   4   2   75.55    2.07
  -2   4   2   73.16    1.54
  -2   4   2   73.79    1.51
  -2   4   2   74.41    1.53
  -2   4   2   71.25    1.64
   1  -4  -2   28.99    0.64
   1  -4  -2   29.33    0.64
   1  -4  -2   28.35    0.68
   1  -4  -2   29.24    0.84
   1  -4  -2   29.28    0.62
  -1   4   2   28.70    0.63
  -1   4   2   29.32    0.65
  -1   4   2   28.36    0.68
  -1   4   2   29.92    0.64
   0  -4  -2    3.46    0.13
   0  -4  -2    3.53    0.13
   0  -4  -2    3.46    0.12
   0  -4  -2    3.59    0.13
   0   4   2    3.47    0.13
   0   4   2    3.49    0.13
   0   4   2    3.62    0.14
   0   4   2    3.55    0.14
  -1  -4  -2   81.96    1.67
  -1  -4  -2   79.91    1.70
  -1  -4  -2   79.00    1.82
  -1  -4  -2   80.34    1.70
   1   4   2   83.00    1.71
   1   4   2   81.86    1.67
   1   4   2   82.12    1.71
  -2  -4  -2   35.54    0.81
  -2  -4  -2   36.24    0.79
  -2  -4  -2   34.88    0.86
   2   4   2   36.65    0.81
  -3  -4  -2   46.18    1.01
  -3  -4  -2   47.43    1.11
  -3  -4  -2   46.38    1.04
   3   4   2   47.50    1.04
   3   4   2   46.88    1.10
  -4  -4  -2   32.29    0.77
  -4  -4  -2   32.59    0.75
  -4  -4  -2   33.52    0.83
   4   4   2   32.13    0.75
   4   4   2   32.70    0.81
  -5  -4  -2   10.84    0.37
  -5  -4  -2   10.53    0.32
  -5  -4  -2   10.43    0.34
  -6  -4  -2    4.47    0.25
  -6  -4  -2    3.56    0.21
  -6  -4  -2    4.18    0.22
  -8   5   2    0.81    0.16
  -8   5   2    0.82    0.08
  -8   5   2    0.57    0.05
  -7   5   2    0.08    0.03
  -7   5   2    0.08    0.03
  -7   5   2    0.15    0.09
  -6   5   2    3.73    0.12
  -6   5   2    3.78    0.13
  -6   5   2    4.04    0.24
  -6   5   2    3.85    0.13
  -5   5   2   19.24    0.68
  -5   5   2   20.16    0.46
  -5   5   2   20.52    0.45
  -5   5   2   20.03    0.48
  -5   5   2   19.80    0.44
  -4   5   2   58.27    1.19
  -4   5   2   57.16    1.30
  -4   5   2   56.31    1.69
  -4   5   2   58.04    1.21
  -4   5   2   58.99    1.70
  -4   5   2   58.19    1.22
   3  -5  -2   67.72    1.40
   3  -5  -2   65.42    1.49
   3  -5  -2   68.78    1.94
  -3   5   2   67.24    1.92
  -3   5   2   66.40    1.51
  -3   5   2   68.31    1.39
  -3   5   2   68.96    1.93
  -3   5   2   68.39    1.42
  -3   5   2   68.01    1.42
   2  -5  -2   63.55    2.14
   2  -5  -2   76.54    1.56
   2  -5  -2   76.04    1.67
  -2   5   2   75.02    1.67
  -2   5   2   75.95    1.54
  -2   5   2   78.20    2.10
  -2   5   2   76.63    1.57
  -2   5   2   76.45    1.56
   1  -5  -2   87.14    1.75
   1  -5  -2   86.01    1.79
   1  -5  -2   84.45    2.38
   1  -5  -2   85.20    1.91
  -1   5   2   85.10    1.79
  -1   5   2   84.83    1.93
  -1   5   2   86.56    1.80
  -1   5   2   85.63    1.76
   0  -5  -2    0.04    0.04
   0  -5  -2    0.08    0.03
   0  -5  -2    0.02    0.04
   0  -5  -2    0.04    0.04
   0   5   2    0.15    0.05
   0   5   2    0.09    0.03
   0   5   2    0.01    0.03
  -1  -5  -2    0.13    0.05
  -1  -5  -2    0.20    0.05
  -1  -5  -2    0.11    0.05
   1   5   2    0.22    0.05
  -2  -5  -2    8.23    0.29
  -2  -5  -2    8.62    0.27
  -2  -5  -2    8.41    0.26
   2   5   2    8.80    0.28
  -3  -5  -2    7.83    0.27
  -3  -5  -2    8.00    0.29
  -3  -5  -2    8.12    0.26
   3   5   2    7.91    0.27
  -4  -5  -2   11.42    0.36
  -4  -5  -2   10.59    0.34
  -4  -5  -2   12.02    0.39
   4   5   2   11.46    0.37
  -5  -5  -2   15.44    0.49
  -5  -5  -2   14.54    0.45
  -6  -5  -2    8.51    0.36
  -6  -5  -2    8.05    0.33
  -8   6   2    1.06    0.18
  -8   6   2    0.95    0.08
  -8   6   2    1.02    0.09
  -7   6   2    0.66    0.14
  -7   6   2    0.42    0.05
  -7   6   2    0.44    0.06
  -6   6   2    0.56    0.06
  -6   6   2    0.63    0.12
  -6   6   2    0.46    0.05
  -5   6   2    6.04    0.19
  -5   6   2    6.27    0.20
  -5   6   2    5.83    0.26
  -5   6   2    6.27    0.19
   4  -6  -2   21.35    0.68
  -4   6   2   21.57    0.54
  -4   6   2   21.43    0.50
  -4   6   2   22.07    0.72
  -4   6   2   21.92    0.50
  -4   6   2   22.00    0.52
  -4   6   2   21.40    0.66
   3  -6  -2   82.25    1.84
   3  -6  -2   83.67    2.38
  -3   6   2   83.34    1.71
  -3   6   2   81.34    1.74
  -3   6   2   80.97    1.85
  -3   6   2   83.68    1.74
  -3   6   2   84.03    2.34
   2  -6  -2   78.97    1.77
   2  -6  -2   79.89    1.66
  -2   6   2   79.27    1.67
  -2   6   2   77.19    1.66
  -2   6   2   78.57    1.63
   1  -6  -2   48.85    1.06
   1  -6  -2   48.89    1.04
   1  -6  -2   48.90    1.14
   1  -6  -2   48.65    1.42
  -1   6   2   49.32    1.08
  -1   6   2   48.99    1.05
  -1   6   2   47.53    1.06
   0  -6  -2   26.32    0.77
   0  -6  -2   27.38    0.69
   0  -6  -2   26.91    0.62
   0  -6  -2   26.90    0.64
   0   6   2   27.54    0.65
   0   6   2   27.13    0.63
  -1  -6  -2    7.06    0.24
  -1  -6  -2    6.94    0.21
  -1  -6  -2    5.40    0.21
  -1  -6  -2    7.11    0.26
   1   6   2    6.84    0.25
   1   6   2    6.65    0.22
  -2  -6  -2    0.23    0.07
  -2  -6  -2    0.33    0.07
  -2  -6  -2    0.25    0.07
   2   6   2    0.38    0.08
  -3  -6  -2    1.73    0.16
  -3  -6  -2    2.16    0.18
   3   6   2    2.23    0.16
  -4  -6  -2    8.34    0.34
  -4  -6  -2    7.86    0.31
  -5  -6  -2    4.55    0.27
  -5  -6  -2    3.97    0.24
  -8   7   2    1.31    0.10
  -8   7   2    1.23    0.10
  -7   7   2    4.11    0.16
  -7   7   2    3.84    0.16
  -7   7   2    4.04    0.26
  -6   7   2    0.71    0.11
  -6   7   2    0.60    0.07
  -6   7   2    0.71    0.08
  -5   7   2    1.46    0.12
  -5   7   2    1.37    0.12
  -5   7   2    1.22    0.10
   4  -7  -2    3.47    0.13
   4  -7  -2    3.41    0.17
   4  -7  -2    3.31    0.14
  -4   7   2    3.50    0.17
  -4   7   2    3.44    0.15
   3  -7  -2   10.98    0.30
   3  -7  -2   10.91    0.32
   3  -7  -2   11.27    0.40
  -3   7   2   10.85    0.31
  -3   7   2   11.17    0.31
  -3   7   2   11.30    0.40
  -3   7   2   11.19    0.33
   2  -7  -2   19.26    0.47
   2  -7  -2   18.24    0.50
  -2   7   2   18.73    0.47
  -2   7   2   18.36    0.47
  -2   7   2   18.71    0.49
   1  -7  -2   41.39    0.93
   1  -7  -2   41.62    0.91
   1  -7  -2   41.37    1.00
  -1   7   2   40.77    0.92
  -1   7   2   41.75    0.95
   0  -7  -2   34.08    0.86
   0  -7  -2   34.81    0.81
   0   7   2   34.63    0.82
  -1  -7  -2   12.44    0.37
  -1  -7  -2   12.14    0.40
   1   7   2   12.00    0.38
  -2  -7  -2   11.05    0.37
  -2  -7  -2   11.27    0.39
   2   7   2   11.05    0.37
  -3  -7  -2    1.54    0.17
  -3  -7  -2    1.01    0.12
  -4  -7  -2   -0.10    0.09
  -4  -7  -2   -0.02    0.08
  -8   8   2   10.25    0.30
  -8   8   2   10.01    0.30
  -7   8   2    1.46    0.12
  -7   8   2    1.39    0.12
  -6   8   2    5.46    0.21
  -6   8   2    5.58    0.22
  -5   8   2    1.99    0.13
  -5   8   2    1.98    0.15
  -4   8   2    1.24    0.12
  -4   8   2    1.34    0.12
   3  -8  -2    0.95    0.10
   3  -8  -2    0.91    0.09
  -3   8   2    0.95    0.11
  -3   8   2    0.82    0.09
   2  -8  -2   11.55    0.33
   2  -8  -2   11.46    0.36
  -2   8   2   11.10    0.36
   1  -8  -2   20.95    0.55
   1  -8  -2   21.80    0.59
  -1   8   2   21.93    0.58
   0  -8  -2   13.64    0.43
   0  -8  -2   13.80    0.41
   0   8   2   13.56    0.42
  -1  -8  -2   15.71    0.49
  -1  -8  -2   15.50    0.46
   1   8   2   15.11    0.46
  -2  -8  -2    5.11    0.26
  -2  -8  -2    5.07    0.28
   2   8   2    5.07    0.26
  -3  -8  -2    7.29    0.32
  -3  -8  -2    7.00    0.34
  -7   9   2    4.63    0.21
  -7   9   2    4.58    0.21
  -6   9   2    4.52    0.22
  -5   9   2    5.66    0.25
  -4   9   2    2.43    0.18
  -3   9   2    0.03    0.08
   2  -9  -2    1.75    0.16
  -2   9   2    1.22    0.13
   1  -9  -2    2.34    0.19
   1  -9  -2    2.36    0.18
  -1   9   2    2.13    0.19
   0  -9  -2   11.57    0.41
   0  -9  -2   11.90    0.39
   0   9   2   11.48    0.40
  -1  -9  -2    8.77    0.37
  -1  -9  -2    8.57    0.34
   1   9   2    8.49    0.34
  -2  -9  -2    4.80    0.29
  -2  -9  -2    4.93    0.27
  -6  10   2    0.84    0.11
  -5  10   2    4.65    0.25
  -4  10   2    4.12    0.24
  -3  10   2    2.22    0.20
  -2  10   2    0.31    0.10
   1 -10  -2    0.24    0.09
  -1  10   2    0.09    0.10
   0 -10  -2    2.26    0.22
   0  10   2    1.92    0.18
  -3  11   2    0.52    0.12
  -2  11   2    1.02    0.15
  -2  11  -3    0.20    0.11
  -1 -10   3    5.96    0.32
  -1 -10   3    5.61    0.29
   0  10  -3    4.02    0.26
   0 -10   3    4.34    0.27
   0 -10   3    3.91    0.24
  -1  10  -3    2.48    0.22
   1 -10   3    2.53    0.21
  -2  10  -3    4.24    0.26
   2 -10   3    4.32    0.25
  -3  10  -3    0.82    0.13
  -4  10  -3    0.34    0.10
  -5  10  -3    1.95    0.19
  -2  -9   3    5.43    0.30
  -2  -9   3    5.03    0.28
   1   9  -3    5.46    0.28
  -1  -9   3    6.20    0.28
  -1  -9   3    6.19    0.31
   0   9  -3   19.11    0.56
   0  -9   3   19.49    0.59
   0  -9   3   19.75    0.54
  -1   9  -3   23.21    0.63
   1  -9   3   22.88    0.61
   1  -9   3   23.80    0.66
  -2   9  -3    3.45    0.22
   2  -9   3    3.11    0.19
   2  -9   3    3.66    0.21
  -3   9  -3    0.86    0.12
   3  -9   3    0.82    0.11
  -4   9  -3    0.68    0.11
  -5   9  -3    0.12    0.07
  -6   9  -3    2.04    0.17
  -6   9  -3    1.88    0.22
  -4  -8   3    0.90    0.14
  -4  -8   3    1.05    0.16
  -3  -8   3    0.59    0.12
  -3  -8   3    0.64    0.13
  -2  -8   3    2.16    0.21
  -2  -8   3    1.93    0.19
   1   8  -3    3.65    0.21
  -1  -8   3    4.03    0.22
  -1  -8   3    3.76    0.23
   0   8  -3    9.71    0.34
   0  -8   3    9.78    0.33
   0  -8   3   10.31    0.36
  -1   8  -3   24.73    0.64
   1  -8   3   26.14    0.68
   1  -8   3   24.99    0.63
  -2   8  -3   21.86    0.57
   2  -8   3   21.93    0.55
   2  -8   3   21.75    0.60
  -3   8  -3   21.99    0.57
  -3   8  -3   20.74    0.70
   3  -8   3   21.45    0.58
  -4   8  -3    4.57    0.21
  -5   8  -3    3.75    0.24
  -5   8  -3    3.76    0.20
  -6   8  -3    0.10    0.10
  -6   8  -3   -0.03    0.06
  -7   8  -3    0.38    0.14
  -7   8  -3    0.32    0.08
  -5  -7   3    4.79    0.30
  -5  -7   3    4.56    0.27
  -4  -7   3    7.73    0.31
  -4  -7   3    7.78    0.34
  -3  -7   3    0.63    0.12
  -3  -7   3    0.55    0.10
   2   7  -3    2.41    0.17
  -2  -7   3    2.26    0.18
  -2  -7   3    2.74    0.20
   1   7  -3   17.77    0.49
  -1  -7   3   17.97    0.49
  -1  -7   3   18.24    0.53
   0   7  -3    1.08    0.12
   0  -7   3    1.13    0.11
   0  -7   3    0.84    0.08
   0  -7   3    1.11    0.12
  -1   7  -3   30.25    0.72
  -1   7  -3   29.90    0.70
  -1   7  -3   29.50    0.86
   1  -7   3   30.30    0.69
   1  -7   3   30.22    0.71
   1  -7   3   30.17    0.76
  -2   7  -3   38.27    1.12
  -2   7  -3   37.98    0.85
  -2   7  -3   37.63    0.88
   2  -7   3   38.47    0.86
   2  -7   3   38.58    0.93
  -3   7  -3   37.12    1.11
  -3   7  -3   36.29    0.81
  -3   7  -3   35.50    0.83
  -3   7  -3   36.44    0.84
   3  -7   3   35.77    0.88
  -4   7  -3   29.74    0.69
  -4   7  -3   30.54    0.72
  -4   7  -3   30.09    0.96
   4  -7   3   29.48    0.73
  -5   7  -3    4.12    0.17
  -5   7  -3    4.17    0.19
  -5   7  -3    4.19    0.26
  -6   7  -3    1.43    0.13
  -6   7  -3    1.42    0.19
  -6   7  -3    1.40    0.12
  -7   7  -3    0.59    0.09
  -7   7  -3    0.68    0.16
  -7   7  -3    0.53    0.08
  -5  -6   3    8.33    0.34
  -5  -6   3    7.84    0.31
  -4  -6   3   13.65    0.45
  -4  -6   3   13.31    0.41
  -4  -6   3   13.49    0.40
   3   6  -3   13.01    0.38
  -3  -6   3   12.96    0.38
  -3  -6   3   13.19    0.39
  -3  -6   3   13.71    0.43
   2   6  -3    2.85    0.16
  -2  -6   3    2.80    0.16
  -2  -6   3    3.19    0.19
  -2  -6   3    2.93    0.15
   1   6  -3   13.85    0.39
   1   6  -3   14.12    0.37
  -1  -6   3   13.87    0.42
  -1  -6   3   14.08    0.37
  -1  -6   3   14.19    0.39
   0   6  -3   11.77    0.34
   0   6  -3   11.99    0.32
   0  -6   3   11.61    0.33
   0  -6   3   11.59    0.32
   0  -6   3   12.11    0.36
  -1   6  -3    0.02    0.04
  -1   6  -3   -0.01    0.03
  -1   6  -3    0.05    0.05
  -1   6  -3    0.01    0.05
   1  -6   3   -0.01    0.05
   1  -6   3    0.11    0.06
  -2   6  -3   36.52    0.84
  -2   6  -3   36.62    0.83
  -2   6  -3   36.87    0.81
   2  -6   3   36.24    0.82
   2  -6   3   38.42    0.82
   2  -6   3   36.56    0.88
  -3   6  -3   32.50    0.73
  -3   6  -3   33.10    0.75
  -3   6  -3   33.14    0.76
  -3   6  -3   33.56    1.03
   3  -6   3   33.18    0.79
  -4   6  -3   29.57    0.97
  -4   6  -3   30.30    0.69
  -4   6  -3   29.82    0.68
  -4   6  -3   29.92    0.74
  -4   6  -3   30.67    0.70
   4  -6   3   30.29    0.72
  -5   6  -3   22.10    0.80
  -5   6  -3   23.12    0.54
  -5   6  -3   23.29    0.56
  -6   6  -3   20.09    0.50
  -6   6  -3   20.75    0.53
  -6   6  -3   21.53    0.80
  -7   6  -3    2.40    0.26
  -7   6  -3    2.21    0.13
  -7   6  -3    2.40    0.15
  -8   6  -3    0.31    0.15
  -8   6  -3    0.03    0.05
  -8   6  -3    0.14    0.06
  -6  -5   3    3.18    0.23
  -6  -5   3    2.98    0.20
  -6  -5   3    3.25    0.21
  -5  -5   3   13.90    0.41
  -5  -5   3   14.74    0.46
  -5  -5   3   14.05    0.42
  -4  -5   3   21.16    0.58
  -4  -5   3   21.02    0.53
  -4  -5   3   20.66    0.54
   3   5  -3   37.47    0.84
  -3  -5   3   36.88    0.83
  -3  -5   3   36.23    0.84
  -3  -5   3   36.87    0.91
  -3  -5   3   36.37    0.85
   2   5  -3   62.01    1.35
  -2  -5   3   61.87    1.35
  -2  -5   3   62.07    1.35
  -2  -5   3   63.85    1.45
  -2  -5   3   62.55    1.32
   1   5  -3   28.43    0.63
   1   5  -3   28.20    0.66
  -1  -5   3   27.68    0.65
  -1  -5   3   28.46    0.66
  -1  -5   3   28.26    0.64
  -1  -5   3   28.32    0.70
   0   5  -3    0.00    0.04
   0   5  -3    0.00    0.03
   0   5  -3   -0.02    0.04
   0  -5   3   -0.03    0.04
   0  -5   3   -0.01    0.01
   0  -5   3    0.05    0.05
   0  -5   3    0.01    0.03
  -1   5  -3    6.41    0.21
  -1   5  -3    6.36    0.19
  -1   5  -3    6.40    0.20
   1  -5   3    6.21    0.20
   1  -5   3    6.49    0.19
   1  -5   3    6.42    0.22
  -2   5  -3    8.54    0.24
  -2   5  -3    9.24    0.33
  -2   5  -3    8.53    0.24
  -2   5  -3    8.53    0.26
  -2   5  -3    8.59    0.25
   2  -5   3    8.51    0.26
   2  -5   3    8.44    0.24
   2  -5   3    9.15    0.23
  -3   5  -3   21.88    0.74
  -3   5  -3   22.57    0.53
  -3   5  -3   23.16    0.53
  -3   5  -3   22.78    0.51
  -3   5  -3   22.67    0.56
   3  -5   3   22.33    0.55
  -4   5  -3   29.77    1.00
  -4   5  -3   30.59    0.67
  -4   5  -3   30.46    0.69
  -4   5  -3   30.60    0.73
  -4   5  -3   30.87    0.70
   4  -5   3   30.50    0.71
  -5   5  -3   44.28    0.99
  -5   5  -3   44.99    0.98
  -5   5  -3   44.76    0.96
  -5   5  -3   45.02    1.44
   5  -5   3   44.48    1.00
  -6   5  -3   10.24    0.28
  -6   5  -3   10.14    0.30
  -6   5  -3   10.42    0.49
  -7   5  -3   10.64    0.33
  -7   5  -3   10.61    0.31
  -7   5  -3   11.44    0.54
  -8   5  -3    3.05    0.18
  -8   5  -3    2.65    0.15
  -8   5  -3    2.83    0.31
  -7  -4   3    0.34    0.08
  -7  -4   3    0.11    0.09
  -7  -4   3    0.26    0.08
  -6  -4   3    0.05    0.07
  -6  -4   3    0.17    0.08
  -6  -4   3    0.14    0.06
  -5  -4   3    4.32    0.19
  -5  -4   3    4.51    0.22
  -5  -4   3    4.64    0.20
  -4  -4   3   29.01    0.67
  -4  -4   3   28.54    0.68
  -4  -4   3   28.74    0.85
  -4  -4   3   30.30    0.74
   3   4  -3   42.53    0.92
  -3  -4   3   42.39    1.00
  -3  -4   3   40.33    0.93
  -3  -4   3   41.93    0.93
  -3  -4   3   41.91    0.91
   2   4  -3   55.57    1.17
  -2  -4   3   53.46    1.17
  -2  -4   3   55.24    1.26
  -2  -4   3   53.67    1.17
  -2  -4   3   54.90    1.15
   1   4  -3   78.05    1.57
   1   4  -3   76.70    1.60
  -1  -4   3   76.00    1.71
  -1  -4   3   76.14    1.60
  -1  -4   3   75.25    1.57
  -1  -4   3   76.22    1.61
   0   4  -3  101.70    2.12
   0   4  -3  102.95    2.12
   0   4  -3   99.42    2.08
   0  -4   3  107.19    2.12
   0  -4   3  101.21    2.12
  -1   4  -3    6.13    0.18
  -1   4  -3    6.30    0.19
  -1   4  -3    6.12    0.19
  -1   4  -3    6.28    0.18
   1  -4   3    6.52    0.19
   1  -4   3    6.07    0.20
   1  -4   3    6.51    0.25
   1  -4   3    6.31    0.18
   1  -4   3    6.28    0.18
  -2   4  -3    0.32    0.04
  -2   4  -3    0.40    0.07
  -2   4  -3    0.36    0.05
  -2   4  -3    0.36    0.04
  -2   4  -3    0.34    0.05
   2  -4   3    0.37    0.04
   2  -4   3    0.37    0.08
   2  -4   3    0.45    0.05
  -3   4  -3   21.41    0.48
  -3   4  -3   21.38    0.52
  -3   4  -3   21.22    0.72
  -3   4  -3   20.98    0.49
  -3   4  -3   21.77    0.50
   3  -4   3   20.71    0.51
  -4   4  -3   14.17    0.35
  -4   4  -3   14.36    0.36
  -4   4  -3   13.98    0.37
  -4   4  -3   14.18    0.34
  -4   4  -3   14.14    0.54
   4  -4   3   13.61    0.35
  -5   4  -3   21.96    0.52
  -5   4  -3   22.48    0.79
  -5   4  -3   22.10    0.50
  -5   4  -3   21.78    0.55
   5  -4   3   21.33    0.50
  -6   4  -3   20.97    0.52
  -6   4  -3   21.05    0.49
  -6   4  -3   21.12    0.78
  -6   4  -3   21.41    0.56
  -7   4  -3   13.97    0.37
  -7   4  -3   14.36    0.61
  -7   4  -3   13.84    0.40
  -7   4  -3   13.78    0.41
  -8   4  -3    3.13    0.16
  -8   4  -3    3.04    0.18
  -8   4  -3    3.29    0.18
  -8   4  -3    3.33    0.31
  -7  -3   3    0.68    0.10
  -7  -3   3    0.70    0.11
  -7  -3   3    0.65    0.09
  -6  -3   3    0.48    0.08
  -6  -3   3    0.45    0.07
  -6  -3   3    0.58    0.10
  -5  -3   3    2.40    0.17
  -5  -3   3    2.57    0.13
  -5  -3   3    2.67    0.15
  -5  -3   3    2.49    0.14
   4   3  -3    3.94    0.14
  -4  -3   3    4.29    0.16
  -4  -3   3    4.00    0.16
  -4  -3   3    3.89    0.19
  -4  -3   3    3.93    0.15
  -4  -3   3    4.01    0.17
  -3  -3   3   88.12    1.85
  -3  -3   3   88.88    1.98
  -3  -3   3   89.42    1.82
  -3  -3   3   88.96    2.46
  -3  -3   3   89.43    1.86
   2   3  -3   71.34    1.46
  -2  -3   3   69.97    1.44
  -2  -3   3   69.62    1.46
  -2  -3   3   70.33    1.47
  -2  -3   3   68.09    1.56
   1   3  -3  105.69    2.09
   1   3  -3  102.60    2.28
   1   3  -3  103.51    2.14
   1   3  -3  103.67    2.83
   1   3  -3  103.56    2.13
  -1  -3   3  104.69    2.14
  -1  -3   3  102.65    2.13
  -1  -3   3  103.19    2.28
  -1  -3   3  104.48    2.10
   0   3  -3  215.79    4.21
   0   3  -3  212.63    4.29
   0   3  -3  212.54    4.57
   0   3  -3  213.23    4.29
   0  -3   3  209.17    4.28
   0  -3   3  207.85    5.99
   0  -3   3  210.31    4.58
   0  -3   3  209.78    4.29
   0  -3   3  209.49    4.21
  -1   3  -3   91.76    2.59
  -1   3  -3   90.52    1.87
  -1   3  -3   90.84    1.87
  -1   3  -3   89.33    1.99
  -1   3  -3   90.49    1.83
   1  -3   3   90.21    1.87
   1  -3   3   89.62    1.99
   1  -3   3   89.24    1.86
   1  -3   3   90.72    1.83
   1  -3   3   93.16    2.61
  -2   3  -3   44.18    0.94
  -2   3  -3   44.26    0.92
  -2   3  -3   43.71    1.00
  -2   3  -3   45.15    0.94
  -2   3  -3   42.61    1.33
   2  -3   3   44.99    0.91
   2  -3   3   43.74    0.94
   2  -3   3   46.29    1.01
   2  -3   3   43.59    1.00
  -3   3  -3   15.08    0.35
  -3   3  -3   15.32    0.36
  -3   3  -3   15.45    0.54
  -3   3  -3   15.34    0.38
   3  -3   3   14.72    0.37
  -4   3  -3   27.60    0.59
  -4   3  -3   26.88    0.66
  -4   3  -3   26.16    0.64
  -4   3  -3   27.45    0.61
  -4   3  -3   27.70    0.89
  -5   3  -3    4.79    0.18
  -5   3  -3    4.97    0.18
  -5   3  -3    5.12    0.28
  -5   3  -3    5.27    0.16
  -5   3  -3    4.74    0.19
  -6   3  -3   18.64    0.49
  -6   3  -3   18.72    0.45
  -6   3  -3   19.22    0.52
  -6   3  -3   18.65    0.71
  -7   3  -3    8.57    0.31
  -7   3  -3    9.03    0.27
  -7   3  -3    9.14    0.46
  -7   3  -3    9.09    0.30
  -8   3  -3    8.45    0.31
  -8   3  -3    8.71    0.48
  -8   3  -3    8.50    0.29
  -8   3  -3    8.21    0.29
  -8  -2   3    2.94    0.17
  -8  -2   3    2.84    0.18
  -8  -2   3    2.78    0.16
  -7  -2   3   12.90    0.39
  -7  -2   3   13.04    0.36
  -7  -2   3   12.71    0.35
  -6  -2   3    5.00    0.19
  -6  -2   3    5.24    0.21
  -6  -2   3    5.05    0.18
   5   2  -3    5.54    0.14
  -5  -2   3    5.84    0.18
  -5  -2   3    5.42    0.19
  -5  -2   3    5.77    0.27
  -5  -2   3    5.66    0.19
  -5  -2   3    5.53    0.20
   4   2  -3    2.90    0.10
  -4  -2   3    2.81    0.12
  -4  -2   3    2.90    0.11
  -4  -2   3    2.86    0.12
  -4  -2   3    2.58    0.16
  -4  -2   3    2.80    0.13
   3   2  -3   25.43    0.55
  -3  -2   3   25.09    0.60
  -3  -2   3   24.73    0.56
  -3  -2   3   25.32    0.55
  -3  -2   3   25.35    0.74
  -3  -2   3   25.41    0.56
   2   2  -3  138.57    3.00
   2   2  -3  139.92    2.75
   2   2  -3  136.48    2.81
  -2  -2   3  137.44    2.82
  -2  -2   3  135.21    2.81
  -2  -2   3  141.64    3.78
  -2  -2   3  136.27    2.76
  -2  -2   3  138.88    3.01
   1   2  -3  178.27    3.62
   1   2  -3  181.08    3.58
   1   2  -3  181.82    3.62
   1   2  -3  179.83    4.96
   1   2  -3  182.06    3.86
  -1  -2   3  172.99    3.55
  -1  -2   3  180.01    3.62
  -1  -2   3  179.77    3.62
  -1  -2   3  170.67    3.88
   0   2  -3  164.47    3.61
   0   2  -3  168.48    3.37
   0   2  -3  171.13    3.41
   0   2  -3  162.74    3.39
   0  -2   3  167.22    3.39
   0  -2   3  164.36    4.78
   0  -2   3  168.62    3.39
   0  -2   3  165.21    3.39
   0  -2   3  169.91    3.70
  -1   2  -3  143.67    2.89
  -1   2  -3  131.71    4.02
  -1   2  -3  143.78    2.84
  -1   2  -3  145.08    3.09
  -1   2  -3  144.54    2.89
   1  -2   3  136.34    4.04
   1  -2   3  142.83    2.84
   1  -2   3  139.33    3.10
   1  -2   3  147.29    2.89
   1  -2   3  147.53    3.09
  -2   2  -3  137.04    2.91
  -2   2  -3  134.33    2.66
  -2   2  -3  133.53    2.90
  -2   2  -3  137.63    3.80
  -2   2  -3  135.83    2.72
   2  -2   3  130.69    2.71
   2  -2   3  131.72    2.91
   2  -2   3  123.47    3.80
   2  -2   3  132.22    2.89
   2  -2   3  136.21    2.66
  -3   2  -3    7.09    0.22
  -3   2  -3    7.05    0.18
  -3   2  -3    7.20    0.21
  -3   2  -3    7.36    0.20
  -3   2  -3    7.47    0.30
   3  -2   3    7.18    0.20
   3  -2   3    7.43    0.19
   3  -2   3    7.21    0.20
  -4   2  -3    9.50    0.38
  -4   2  -3    9.23    0.28
  -4   2  -3    9.62    0.26
  -4   2  -3    9.30    0.24
  -4   2  -3    9.39    0.27
  -5   2  -3    6.47    0.22
  -5   2  -3    6.41    0.19
  -5   2  -3    6.56    0.22
  -5   2  -3    6.68    0.23
  -5   2  -3    6.36    0.32
   5  -2   3    6.32    0.16
  -6   2  -3    3.70    0.18
  -6   2  -3    3.75    0.17
  -6   2  -3    3.72    0.15
  -6   2  -3    3.59    0.26
  -7   2  -3    9.23    0.30
  -7   2  -3    9.83    0.49
  -7   2  -3    9.75    0.30
  -7   2  -3   10.01    0.34
  -8   2  -3    5.34    0.22
  -8   2  -3    5.13    0.25
  -8   2  -3    5.39    0.38
  -8  -1   3    6.50    0.24
  -8  -1   3    6.59    0.23
  -8  -1   3    6.71    0.23
  -7  -1   3   11.20    0.33
  -7  -1   3   11.55    0.31
  -7  -1   3   11.29    0.31
  -6  -1   3   20.72    0.48
  -6  -1   3   19.79    0.46
  -6  -1   3   20.40    0.51
  -5  -1   3   35.86    0.83
  -5  -1   3   35.50    0.75
  -5  -1   3   36.21    1.10
  -5  -1   3   35.70    0.77
  -5  -1   3   35.24    0.77
  -4  -1   3    2.53    0.09
  -4  -1   3    2.59    0.15
  -4  -1   3    2.41    0.09
  -4  -1   3    2.49    0.09
  -4  -1   3    2.32    0.10
   3   1  -3   32.51    0.67
   3   1  -3   32.69    0.67
   3   1  -3   32.54    0.71
  -3  -1   3   32.19    0.95
  -3  -1   3   32.32    0.69
  -3  -1   3   32.19    0.67
  -3  -1   3   32.17    0.73
  -3  -1   3   31.98    0.68
   2   1  -3   30.82    0.64
   2   1  -3   30.31    0.88
   2   1  -3   30.39    0.64
   2   1  -3   30.34    0.62
   2   1  -3   30.52    0.68
  -2  -1   3   31.28    0.88
  -2  -1   3   30.42    0.69
  -2  -1   3   29.89    0.64
  -2  -1   3   30.31    0.63
  -2  -1   3   31.87    0.65
   1   1  -3  165.58    4.66
   1   1  -3  161.50    3.41
   1   1  -3  170.64    3.39
   1   1  -3  164.67    3.64
  -1  -1   3  163.70    3.60
  -1  -1   3  169.61    3.39
  -1  -1   3  161.68    3.35
  -1  -1   3  170.54    3.44
   0   1  -3  333.79    6.78
   0   1  -3  330.60    9.37
   0   1  -3  328.40    6.74
   0   1  -3  328.79    6.64
   0   1  -3  331.73    7.21
   0  -1   3  331.44    7.22
   0  -1   3  313.38    6.72
   0  -1   3  324.09    7.21
   0  -1   3  331.02    9.37
   0  -1   3  328.38    6.62
  -1   1  -3  218.96    4.44
  -1   1  -3  213.41    6.15
  -1   1  -3  209.02    4.64
  -1   1  -3  209.49    4.76
  -1   1  -3  214.24    4.32
   1  -1   3  208.98    4.67
   1  -1   3  201.28    6.12
   1  -1   3  212.92    4.39
   1  -1   3  216.10    4.71
   1  -1   3  216.86    4.31
  -2   1  -3   42.29    0.88
  -2   1  -3   42.87    1.26
  -2   1  -3   42.14    0.97
  -2   1  -3   42.04    0.96
  -2   1  -3   43.44    0.91
   2  -1   3   43.77    0.87
   2  -1   3   41.12    1.27
   2  -1   3   42.74    0.96
   2  -1   3   41.96    0.96
   2  -1   3   43.55    0.87
   2  -1   3   42.55    0.90
  -3   1  -3  137.73    3.08
  -3   1  -3  141.91    2.90
  -3   1  -3  142.04    3.08
  -3   1  -3  139.50    4.03
  -3   1  -3  139.12    2.83
   3  -1   3  138.87    3.06
   3  -1   3  142.48    3.06
   3  -1   3  146.63    2.88
  -4   1  -3   61.68    1.41
  -4   1  -3   63.43    1.29
  -4   1  -3   60.97    1.33
  -4   1  -3   62.86    1.86
  -4   1  -3   62.84    1.40
   4  -1   3   59.06    1.37
   4  -1   3   63.10    1.29
  -5   1  -3    7.95    0.26
  -5   1  -3    8.05    0.38
  -5   1  -3    8.26    0.26
  -5   1  -3    8.47    0.24
  -5   1  -3    8.13    0.25
   5  -1   3    8.22    0.21
   5  -1   3    8.47    0.20
  -6   1  -3    0.25    0.06
  -6   1  -3    0.35    0.07
  -6   1  -3    0.25    0.12
  -7   1  -3    0.19    0.13
  -7   1  -3    0.09    0.07
  -7   1  -3    0.12    0.06
  -8   1  -3    3.80    0.35
  -8   1  -3    3.96    0.19
  -8   1  -3    4.03    0.22
  -8   0   3    3.95    0.15
  -8   0   3    4.03    0.16
  -8   0   3    3.59    0.16
  -7   0   3   15.41    0.37
  -7   0   3   15.80    0.38
  -7   0   3   15.23    0.40
  -6   0   3   27.19    0.58
  -6   0   3   26.61    0.63
  -6   0   3   27.19    0.59
  -5   0   3   31.38    0.67
  -5   0   3   32.07    0.67
  -5   0   3   31.32    0.99
  -5   0   3   31.63    0.65
  -5   0   3   31.46    0.72
  -4   0   3  161.56    3.25
  -4   0   3  159.65    3.26
  -4   0   3  158.79    3.20
  -4   0   3  162.66    4.45
  -4   0   3  159.47    3.46
  -3   0   3    4.35    0.11
  -3   0   3    4.26    0.19
  -3   0   3    4.43    0.11
  -3   0   3    4.45    0.12
   2   0  -3   -0.01    0.03
  -2   0   3    0.15    0.02
  -2   0   3   -0.01    0.03
   1   0  -3   80.15    2.14
   1   0  -3   79.31    1.60
   1   0  -3   73.65    1.68
   1   0  -3   72.01    1.58
  -1   0   3   78.52    1.55
  -1   0   3   76.37    1.69
  -1   0   3   80.68    1.58
   0   0  -3   17.03    0.39
   0   0  -3   16.33    0.36
   0   0  -3   16.84    0.37
   0   0  -3   16.37    0.50
   0   0  -3   16.39    0.39
   0   0   3   16.20    0.50
   0   0   3   16.01    0.39
   0   0   3   16.32    0.36
   0   0   3   16.75    0.39
   0   0   3   16.46    0.37
  -1   0  -3  688.67   14.08
  -1   0  -3  698.63   19.41
  -1   0  -3  692.49   13.80
  -1   0  -3  680.70   14.93
  -1   0  -3  665.94   14.91
   1   0   3  698.60   14.93
   1   0   3  691.17   13.72
   1   0   3  661.56   14.97
   1   0   3  660.37   13.72
   1   0   3  689.82   14.04
   1   0   3  710.12   19.47
  -2   0  -3  153.48    3.02
  -2   0  -3  150.00    4.27
  -2   0  -3  152.76    3.27
  -2   0  -3  150.00    3.08
  -2   0  -3  144.94    3.28
   2   0   3  144.03    3.28
   2   0   3  150.32    3.27
   2   0   3  154.87    3.04
   2   0   3  150.84    3.08
   2   0   3  154.71    3.06
  -3   0  -3   84.78    1.67
  -3   0  -3   83.31    2.39
  -3   0  -3   81.63    1.72
  -3   0  -3   81.77    1.82
  -3   0  -3   80.42    1.83
  -3   0  -3   84.15    1.69
   3   0   3   80.59    1.82
   3   0   3   79.78    1.71
  -4   0  -3   29.81    0.64
  -4   0  -3   29.20    0.71
  -4   0  -3   28.81    0.71
  -4   0  -3   30.21    0.96
  -4   0  -3   29.85    0.68
   4   0   3   29.33    0.69
   4   0   3   29.90    0.64
  -5   0  -3   19.19    0.45
  -5   0  -3   18.66    0.47
  -5   0  -3   18.80    0.49
  -5   0  -3   19.67    0.70
   5   0   3   19.05    0.46
   5   0   3   18.45    0.43
  -6   0  -3    1.10    0.10
  -6   0  -3    1.26    0.12
  -6   0  -3    1.41    0.12
  -6   0  -3    1.08    0.17
  -7   0  -3    0.46    0.16
  -7   0  -3    0.21    0.07
  -7   0  -3    0.29    0.08
  -8   0  -3   -0.06    0.05
  -8   0  -3   -0.06    0.12
  -8   0  -3   -0.03    0.07
  -8   1   3    0.61    0.06
  -8   1   3    0.63    0.07
  -8   1   3    0.59    0.06
  -7   1   3    7.34    0.19
  -7   1   3    6.93    0.20
  -7   1   3    7.31    0.19
  -6   1   3   33.09    0.74
  -6   1   3   31.04    0.68
  -6   1   3   32.87    0.69
  -6   1   3   34.01    0.67
  -5   1   3   44.24    0.98
  -5   1   3   44.02    0.92
  -5   1   3   46.15    1.36
  -5   1   3   45.07    0.92
  -4   1   3   39.29    1.17
  -3   1   3  159.33    4.40
   2  -1  -3  180.82    5.15
  -2   1   3  185.08    3.76
  -2   1   3  189.36    5.08
   1  -1  -3   50.70    1.13
   1  -1  -3   43.98    1.05
   1  -1  -3   54.22    1.44
  -1   1   3   54.05    1.06
  -1   1   3   52.06    1.13
  -1   1   3   53.98    1.45
   0  -1  -3    0.17    0.03
   0  -1  -3    0.15    0.03
   0  -1  -3    0.14    0.03
   0   1   3    0.11    0.03
   0   1   3    0.17    0.03
   0   1   3    0.10    0.03
  -1  -1  -3    3.78    0.11
  -1  -1  -3    3.67    0.12
   1   1   3    3.66    0.11
   1   1   3    3.73    0.12
   1   1   3    3.58    0.12
  -2  -1  -3  311.22    6.27
  -2  -1  -3  319.83    6.50
  -2  -1  -3  302.01    6.86
   2   1   3  313.42    6.21
   2   1   3  316.36    6.39
   2   1   3  301.81    6.37
   2   1   3  305.62    6.81
   2   1   3  305.52    6.30
   2   1   3  312.97    6.88
  -3  -1  -3   60.42    1.28
  -3  -1  -3   59.01    1.36
  -3  -1  -3   61.95    1.25
   3   1   3   60.09    1.37
   3   1   3   59.59    1.26
  -4  -1  -3   71.42    1.44
  -4  -1  -3   70.04    1.48
  -4  -1  -3   69.17    1.57
   4   1   3   66.58    1.57
   4   1   3   70.79    1.46
  -5  -1  -3   20.47    0.73
  -5  -1  -3   19.86    0.52
  -5  -1  -3   20.51    0.47
  -5  -1  -3   19.45    0.49
   5   1   3   18.21    0.49
   5   1   3   19.39    0.46
  -6  -1  -3   23.79    0.56
  -6  -1  -3   23.55    0.87
  -6  -1  -3   23.18    0.59
  -6  -1  -3   22.83    0.62
  -7  -1  -3    4.59    0.22
  -7  -1  -3    4.78    0.23
  -7  -1  -3    4.57    0.20
  -7  -1  -3    4.94    0.38
  -9   2   3    0.79    0.07
  -9   2   3    1.16    0.22
  -9   2   3    0.83    0.08
  -8   2   3    0.08    0.03
  -8   2   3    0.08    0.12
  -8   2   3    0.04    0.03
  -8   2   3    0.14    0.04
  -7   2   3    0.63    0.14
  -7   2   3    0.64    0.06
  -7   2   3    0.60    0.05
  -6   2   3   31.00    0.69
  -6   2   3   30.98    0.69
  -5   2   3   66.64    1.95
  -4   2   3  105.93    2.98
   3  -2  -3  130.72    3.68
  -3   2   3  131.77    2.67
  -3   2   3  134.23    3.67
   2  -2  -3  121.76    2.42
   2  -2  -3  111.80    2.59
   2  -2  -3  115.77    3.30
  -2   2   3  123.83    2.41
  -2   2   3  124.49    3.29
  -2   2   3  117.74    2.59
   1  -2  -3  189.97    4.39
   1  -2  -3  202.61    5.59
  -1   2   3  205.79    4.02
  -1   2   3  204.48    4.12
  -1   2   3  189.95    4.36
   0  -2  -3   18.34    0.44
   0  -2  -3   18.48    0.41
   0   2   3   18.86    0.41
   0   2   3   18.01    0.40
   0   2   3   18.20    0.44
  -1  -2  -3   12.36    0.29
  -1  -2  -3   12.26    0.30
   1   2   3   12.08    0.29
   1   2   3   12.48    0.30
   1   2   3   12.40    0.30
   1   2   3   11.94    0.31
  -2  -2  -3    1.72    0.08
  -2  -2  -3    1.75    0.09
  -2  -2  -3    1.66    0.09
   2   2   3    1.85    0.09
   2   2   3    1.74    0.09
   2   2   3    1.92    0.09
   2   2   3    1.63    0.08
  -3  -2  -3   68.48    1.45
  -3  -2  -3   68.51    1.42
  -3  -2  -3   67.32    1.55
   3   2   3   69.09    1.55
   3   2   3   68.87    1.44
  -4  -2  -3   40.30    0.96
  -4  -2  -3   39.59    0.90
  -4  -2  -3   39.97    0.87
   4   2   3   40.45    0.96
  -5  -2  -3   35.74    0.83
  -5  -2  -3   36.18    0.80
  -5  -2  -3   36.30    0.88
   5   2   3   34.74    0.89
  -6  -2  -3   11.37    0.35
  -6  -2  -3   11.51    0.34
  -6  -2  -3   11.41    0.38
  -7  -2  -3    0.83    0.20
  -7  -2  -3    1.09    0.13
  -7  -2  -3    1.05    0.12
  -7  -2  -3    1.01    0.11
  -9   3   3    2.83    0.30
  -8   3   3    0.33    0.03
  -8   3   3    0.34    0.13
  -8   3   3    0.35    0.04
  -7   3   3    0.70    0.05
  -7   3   3    0.55    0.13
  -6   3   3    1.27    0.15
  -5   3   3    3.30    0.19
  -4   3   3   60.35    1.23
  -4   3   3   60.14    1.32
  -4   3   3   60.28    1.23
  -4   3   3   59.78    1.75
  -4   3   3   61.58    1.76
   3  -3  -3  120.40    3.40
  -3   3   3  122.31    2.47
  -3   3   3  123.68    2.48
  -3   3   3  121.18    2.64
  -3   3   3  123.49    3.39
  -3   3   3  120.44    3.44
   2  -3  -3  187.93    3.81
   2  -3  -3  186.29    5.13
   2  -3  -3  181.15    4.06
  -2   3   3  189.64    3.81
  -2   3   3  187.76    4.03
  -2   3   3  187.50    3.77
  -2   3   3  182.88    3.79
  -2   3   3  188.39    5.12
   1  -3  -3  101.04    2.08
   1  -3  -3  105.86    2.05
   1  -3  -3  100.22    2.22
   1  -3  -3  103.58    2.82
  -1   3   3  102.28    2.05
  -1   3   3  101.59    2.23
  -1   3   3  100.33    2.09
  -1   3   3   99.90    2.09
   0  -3  -3   49.70    1.02
   0  -3  -3   48.23    1.11
   0  -3  -3   48.20    1.04
   0   3   3   49.16    1.11
   0   3   3   50.57    1.04
   0   3   3   49.80    1.02
   0   3   3   49.26    1.05
  -1  -3  -3  165.33    3.52
  -1  -3  -3  155.42    3.30
  -1  -3  -3  161.31    3.24
   1   3   3  165.32    3.30
   1   3   3  159.38    3.24
   1   3   3  160.82    3.30
  -2  -3  -3    1.89    0.11
  -2  -3  -3    2.06    0.10
   2   3   3    1.97    0.11
   2   3   3    2.01    0.11
   2   3   3    2.00    0.10
  -3  -3  -3    6.97    0.24
  -3  -3  -3    6.86    0.21
  -3  -3  -3    6.84    0.22
   3   3   3    6.80    0.22
   3   3   3    6.96    0.23
  -4  -3  -3    6.33    0.23
  -4  -3  -3    6.36    0.22
  -4  -3  -3    6.69    0.25
   4   3   3    6.92    0.22
   4   3   3    6.61    0.24
  -5  -3  -3   21.72    0.55
  -5  -3  -3   21.19    0.53
  -5  -3  -3   21.28    0.59
  -6  -3  -3    4.73    0.25
  -6  -3  -3    5.06    0.23
  -6  -3  -3    5.05    0.21
  -7  -3  -3   11.03    0.60
  -7  -3  -3   11.57    0.39
  -7  -3  -3   12.52    0.43
  -9   4   3    3.24    0.30
  -9   4   3    3.03    0.12
  -8   4   3   10.40    0.49
  -8   4   3   10.07    0.24
  -7   4   3    0.48    0.05
  -7   4   3    0.64    0.13
  -7   4   3    0.59    0.05
  -6   4   3   17.42    0.39
  -6   4   3   18.10    0.64
  -6   4   3   17.76    0.42
  -6   4   3   17.96    0.39
  -5   4   3   31.37    0.72
  -5   4   3   31.58    0.67
  -5   4   3   32.13    0.67
  -5   4   3   31.31    0.65
  -5   4   3   32.57    1.00
  -4   4   3    4.94    0.14
  -4   4   3    4.91    0.15
  -4   4   3    5.00    0.13
  -4   4   3    5.08    0.21
  -4   4   3    5.12    0.24
  -4   4   3    4.88    0.14
   3  -4  -3   49.32    1.00
  -3   4   3   47.74    0.99
  -3   4   3   48.31    1.40
  -3   4   3   48.12    1.09
  -3   4   3   48.33    1.01
  -3   4   3   48.89    1.02
  -3   4   3   48.29    1.39
   2  -4  -3  107.73    2.99
   2  -4  -3  107.56    3.02
   2  -4  -3  106.74    2.34
  -2   4   3  106.52    2.16
  -2   4   3  105.53    2.20
  -2   4   3  104.15    2.35
  -2   4   3  107.14    2.21
  -2   4   3  112.25    2.98
   1  -4  -3  173.09    3.46
   1  -4  -3  167.77    3.69
   1  -4  -3  169.34    4.66
   1  -4  -3  171.74    3.39
  -1   4   3  169.88    3.46
  -1   4   3  166.52    3.69
  -1   4   3  166.71    3.40
  -1   4   3  171.82    3.47
   0  -4  -3  257.91    5.59
   0  -4  -3  254.89    5.24
   0  -4  -3  259.58    5.14
   0   4   3  255.69    5.14
   0   4   3  259.14    5.24
   0   4   3  259.60    5.24
  -1  -4  -3    0.68    0.07
  -1  -4  -3    0.46    0.06
  -1  -4  -3    0.57    0.06
   1   4   3    0.40    0.05
   1   4   3    0.63    0.06
  -2  -4  -3    9.34    0.28
  -2  -4  -3    9.48    0.30
  -2  -4  -3    9.35    0.26
   2   4   3    9.29    0.28
  -3  -4  -3    1.38    0.11
  -3  -4  -3    1.43    0.13
  -3  -4  -3    1.33    0.13
   3   4   3    1.56    0.12
   3   4   3    1.60    0.12
  -4  -4  -3    4.75    0.22
  -4  -4  -3    4.39    0.19
  -4  -4  -3    4.44    0.21
   4   4   3    4.36    0.20
   4   4   3    4.56    0.20
  -5  -4  -3    0.95    0.11
  -5  -4  -3    0.91    0.09
  -5  -4  -3    1.18    0.13
  -6  -4  -3    9.77    0.38
  -6  -4  -3    9.29    0.34
  -9   5   3    3.56    0.31
  -8   5   3    7.71    0.20
  -8   5   3    6.95    0.20
  -8   5   3    8.00    0.41
  -7   5   3    9.38    0.24
  -7   5   3   10.11    0.44
  -7   5   3   10.12    0.24
  -6   5   3    1.79    0.08
  -6   5   3    1.78    0.08
  -6   5   3    1.73    0.09
  -6   5   3    1.86    0.17
  -5   5   3   43.77    0.89
  -5   5   3   42.63    0.90
  -5   5   3   40.63    1.29
  -5   5   3   42.64    0.97
  -5   5   3   43.32    0.91
  -4   5   3   -0.03    0.07
  -4   5   3    0.07    0.04
  -4   5   3    0.08    0.05
  -4   5   3    0.05    0.04
  -4   5   3    0.03    0.03
  -4   5   3    0.02    0.03
   3  -5  -3    1.62    0.08
   3  -5  -3    1.47    0.08
   3  -5  -3    1.48    0.07
  -3   5   3    1.53    0.08
  -3   5   3    1.39    0.08
  -3   5   3    1.50    0.09
  -3   5   3    1.41    0.09
  -3   5   3    1.63    0.13
   2  -5  -3   22.90    0.52
   2  -5  -3   23.02    0.56
   2  -5  -3   23.20    0.71
   2  -5  -3   22.57    0.69
  -2   5   3   23.48    0.52
  -2   5   3   23.20    0.54
  -2   5   3   22.86    0.53
  -2   5   3   23.11    0.57
   1  -5  -3   31.97    0.77
   1  -5  -3   32.30    0.70
   1  -5  -3   32.90    0.72
   1  -5  -3   31.01    0.94
  -1   5   3   32.17    0.71
  -1   5   3   32.60    0.72
  -1   5   3   33.00    0.73
   0  -5  -3   95.65    1.97
   0  -5  -3   93.65    2.59
   0  -5  -3   92.78    1.92
   0  -5  -3   95.03    2.10
   0   5   3   91.51    1.96
   0   5   3   92.76    1.93
   0   5   3   95.20    1.98
  -1  -5  -3   58.14    1.24
  -1  -5  -3   59.56    1.28
  -1  -5  -3   58.32    1.36
   1   5   3   58.26    1.24
   1   5   3   59.47    1.28
  -2  -5  -3   40.79    0.99
  -2  -5  -3   40.58    0.90
  -2  -5  -3   40.67    0.93
   2   5   3   40.59    0.93
  -3  -5  -3    9.81    0.30
  -3  -5  -3    9.69    0.33
  -3  -5  -3    9.63    0.31
   3   5   3    9.52    0.32
   3   5   3    9.58    0.31
  -4  -5  -3    1.95    0.18
  -4  -5  -3    2.30    0.15
  -4  -5  -3    1.96    0.17
   4   5   3    2.09    0.16
  -5  -5  -3    0.10    0.08
  -5  -5  -3    0.12    0.09
  -8   6   3    7.71    0.21
  -8   6   3    7.34    0.21
  -7   6   3   20.80    0.76
  -7   6   3   21.78    0.48
  -7   6   3   21.36    0.49
  -6   6   3   15.36    0.57
  -6   6   3   16.09    0.38
  -6   6   3   16.31    0.39
  -5   6   3    7.71    0.22
  -5   6   3    7.82    0.23
  -5   6   3    7.46    0.29
  -5   6   3    7.76    0.22
   4  -6  -3    0.83    0.06
   4  -6  -3    0.92    0.06
  -4   6   3    0.91    0.08
  -4   6   3    0.83    0.08
  -4   6   3    1.18    0.13
  -4   6   3    0.78    0.08
  -4   6   3    0.88    0.08
   3  -6  -3    0.39    0.06
   3  -6  -3    0.58    0.06
  -3   6   3    0.43    0.09
  -3   6   3    0.41    0.06
  -3   6   3    0.45    0.06
  -3   6   3    0.45    0.06
  -3   6   3    0.34    0.06
   2  -6  -3    9.13    0.27
   2  -6  -3    8.65    0.25
   2  -6  -3    7.68    0.30
  -2   6   3    8.47    0.25
  -2   6   3    9.24    0.27
  -2   6   3    9.03    0.25
   1  -6  -3   24.29    0.74
   1  -6  -3   24.71    0.62
   1  -6  -3   25.35    0.59
  -1   6   3   24.53    0.60
  -1   6   3   24.40    0.58
  -1   6   3   24.82    0.58
   0  -6  -3   10.63    0.29
   0  -6  -3   10.23    0.34
   0  -6  -3   10.72    0.33
   0  -6  -3   10.61    0.31
   0   6   3   10.57    0.32
   0   6   3   10.33    0.30
  -1  -6  -3   57.81    1.26
  -1  -6  -3   55.97    1.59
  -1  -6  -3   57.17    1.35
   1   6   3   58.22    1.27
   1   6   3   56.56    1.23
  -2  -6  -3   23.39    0.62
  -2  -6  -3   22.06    0.55
  -2  -6  -3   21.56    0.57
   2   6   3   21.95    0.57
  -3  -6  -3   18.94    0.53
  -3  -6  -3   19.82    0.56
   3   6   3   18.37    0.51
  -4  -6  -3    1.71    0.17
  -4  -6  -3    1.84    0.16
  -5  -6  -3    0.14    0.09
  -5  -6  -3    0.18    0.10
  -8   7   3    0.48    0.06
  -8   7   3    0.33    0.06
  -7   7   3    5.40    0.19
  -7   7   3    5.47    0.19
  -6   7   3   20.44    0.50
  -6   7   3   19.59    0.65
  -6   7   3   20.10    0.48
  -5   7   3   11.37    0.32
  -5   7   3   11.70    0.31
   4  -7  -3   22.97    0.53
   4  -7  -3   22.37    0.55
  -4   7   3   23.33    0.56
  -4   7   3   23.04    0.54
   3  -7  -3    0.22    0.06
   3  -7  -3    0.25    0.05
   3  -7  -3    0.34    0.06
  -3   7   3    0.26    0.06
  -3   7   3    0.22    0.05
  -3   7   3    0.20    0.06
   2  -7  -3   10.23    0.32
   2  -7  -3   10.38    0.29
  -2   7   3   10.21    0.32
  -2   7   3   10.17    0.30
  -2   7   3    9.99    0.30
   1  -7  -3    1.51    0.11
   1  -7  -3    1.40    0.13
   1  -7  -3    1.21    0.12
  -1   7   3    1.11    0.11
  -1   7   3    1.15    0.11
   0  -7  -3    8.07    0.28
   0  -7  -3    8.01    0.29
   0   7   3    7.80    0.29
  -1  -7  -3   14.45    0.45
  -1  -7  -3   14.27    0.42
   1   7   3   14.51    0.43
  -2  -7  -3   10.55    0.35
  -2  -7  -3   10.38    0.38
   2   7   3   10.04    0.35
  -3  -7  -3   10.63    0.39
  -3  -7  -3   10.06    0.37
  -4  -7  -3    8.05    0.36
  -4  -7  -3    7.64    0.33
  -8   8   3    1.59    0.12
  -8   8   3    1.73    0.13
  -7   8   3    2.95    0.16
  -7   8   3    2.71    0.15
  -6   8   3    8.40    0.28
  -6   8   3    8.17    0.26
  -5   8   3   12.19    0.36
  -5   8   3   11.75    0.34
  -4   8   3   17.22    0.46
  -4   8   3   16.85    0.44
   3  -8  -3   24.31    0.62
  -3   8   3   24.28    0.62
  -3   8   3   24.57    0.60
   2  -8  -3    0.83    0.10
   2  -8  -3    0.94    0.10
  -2   8   3    0.88    0.10
   1  -8  -3    1.06    0.11
   1  -8  -3    0.84    0.09
  -1   8   3    1.05    0.12
   0  -8  -3    0.70    0.11
   0  -8  -3    0.56    0.10
   0   8   3    0.70    0.11
  -1  -8  -3    1.40    0.15
  -1  -8  -3    1.22    0.13
   1   8   3    1.16    0.13
  -2  -8  -3   10.28    0.37
  -2  -8  -3   10.45    0.40
  -3  -8  -3    1.56    0.17
  -3  -8  -3    1.70    0.16
  -7   9   3   -0.06    0.06
  -7   9   3    0.05    0.06
  -6   9   3    2.89    0.18
  -6   9   3    2.74    0.16
  -5   9   3    6.01    0.25
  -4   9   3    6.63    0.27
  -3   9   3   14.65    0.44
   2  -9  -3    6.80    0.28
  -2   9   3    7.15    0.29
   1  -9  -3    5.45    0.24
   1  -9  -3    5.55    0.26
  -1   9   3    5.40    0.26
   0  -9  -3    1.57    0.16
   0  -9  -3    1.54    0.15
   0   9   3    1.30    0.14
  -1  -9  -3    0.20    0.08
  -1  -9  -3    0.34    0.11
   1   9   3    0.04    0.09
  -2  -9  -3    0.41    0.11
  -2  -9  -3    0.37    0.12
  -6  10   3    0.73    0.11
  -5  10   3    1.15    0.13
  -4  10   3    3.43    0.22
  -3  10   3    4.26    0.25
  -2  10   3   10.57    0.39
   1 -10  -3    4.96    0.26
  -1  10   3    4.00    0.25
   0 -10  -3    1.48    0.17
   0  10   3    1.33    0.15
  -3  11   3    2.17    0.22
  -1 -10   4    0.52    0.13
  -1 -10   4    0.45    0.11
   0  10  -4    1.89    0.18
   0 -10   4    2.10    0.22
   0 -10   4    2.17    0.20
  -1  10  -4    0.62    0.12
   1 -10   4    0.56    0.12
  -2  10  -4   17.62    0.53
   2 -10   4   16.68    0.54
  -3  10  -4    3.55    0.23
  -4  10  -4    6.30    0.30
  -5  10  -4    2.37    0.21
  -2  -9   4    0.40    0.11
  -2  -9   4    0.45    0.13
   1   9  -4    1.35    0.14
  -1  -9   4    1.71    0.18
  -1  -9   4    1.53    0.14
   0   9  -4    0.12    0.09
   0  -9   4    0.08    0.08
   0  -9   4    0.12    0.09
  -1   9  -4    7.66    0.32
   1  -9   4    8.01    0.30
   1  -9   4    8.11    0.33
  -2   9  -4    9.26    0.34
   2  -9   4    9.38    0.34
  -3   9  -4    8.93    0.33
   3  -9   4    8.69    0.32
  -4   9  -4    6.60    0.28
  -5   9  -4    4.85    0.24
  -6   9  -4    3.69    0.22
  -6   9  -4    4.01    0.29
  -4  -8   4    4.26    0.28
  -4  -8   4    4.27    0.26
  -3  -8   4   12.34    0.42
  -3  -8   4   12.34    0.45
  -2  -8   4   10.26    0.36
  -2  -8   4   10.59    0.40
   1   8  -4    5.92    0.26
  -1  -8   4    5.99    0.28
  -1  -8   4    5.85    0.26
   0   8  -4    0.00    0.07
   0  -8   4   -0.03    0.07
   0  -8   4   -0.04    0.07
  -1   8  -4    1.18    0.13
   1  -8   4    1.13    0.11
   1  -8   4    1.08    0.12
  -2   8  -4    0.53    0.10
   2  -8   4    0.61    0.09
   2  -8   4    0.71    0.10
  -3   8  -4   19.00    0.65
  -3   8  -4   19.62    0.53
   3  -8   4   19.47    0.54
  -4   8  -4   12.19    0.38
  -5   8  -4   13.03    0.39
  -5   8  -4   12.35    0.51
  -6   8  -4    5.58    0.25
  -6   8  -4    5.36    0.33
  -7   8  -4    5.07    0.24
  -7   8  -4    4.96    0.34
  -5  -7   4    3.96    0.27
  -5  -7   4    4.05    0.25
  -4  -7   4   14.90    0.50
  -4  -7   4   14.54    0.46
  -3  -7   4   10.83    0.37
  -3  -7   4   11.38    0.41
   2   7  -4   20.03    0.54
  -2  -7   4   20.34    0.59
  -2  -7   4   20.33    0.54
   1   7  -4   21.73    0.57
  -1  -7   4   21.80    0.56
  -1  -7   4   22.22    0.61
   0   7  -4   22.33    0.57
   0  -7   4   21.95    0.56
   0  -7   4   22.28    0.56
   0  -7   4   23.31    0.62
  -1   7  -4    0.39    0.07
  -1   7  -4    0.61    0.07
  -1   7  -4    0.28    0.08
   1  -7   4    0.39    0.07
   1  -7   4    0.32    0.08
   1  -7   4    0.42    0.09
  -2   7  -4   -0.01    0.04
  -2   7  -4   -0.16    0.05
   2  -7   4   -0.08    0.05
   2  -7   4    0.01    0.05
  -3   7  -4    1.53    0.12
  -3   7  -4    1.40    0.11
  -3   7  -4    1.41    0.13
   3  -7   4    1.35    0.12
  -4   7  -4    9.63    0.31
  -4   7  -4    9.38    0.40
  -4   7  -4    8.99    0.28
   4  -7   4    9.30    0.29
  -5   7  -4   12.06    0.50
  -5   7  -4   11.96    0.34
  -5   7  -4   12.49    0.37
  -6   7  -4    7.87    0.41
  -6   7  -4    7.89    0.28
  -6   7  -4    7.64    0.26
  -7   7  -4    4.98    0.23
  -7   7  -4    4.89    0.21
  -7   7  -4    5.25    0.36
  -5  -6   4    0.09    0.08
  -5  -6   4    0.12    0.09
  -4  -6   4    1.10    0.11
  -4  -6   4    0.99    0.11
  -4  -6   4    1.30    0.15
   3   6  -4   11.49    0.35
  -3  -6   4   12.30    0.40
  -3  -6   4   11.91    0.36
  -3  -6   4   11.94    0.37
   2   6  -4   27.40    0.67
  -2  -6   4   27.10    0.67
  -2  -6   4   27.15    0.65
  -2  -6   4   28.55    0.73
   1   6  -4   39.00    0.89
  -1  -6   4   38.15    0.86
  -1  -6   4   38.64    0.88
  -1  -6   4   38.83    0.95
   0   6  -4   64.03    1.39
   0   6  -4   65.95    1.43
   0  -6   4   66.62    1.53
   0  -6   4   67.25    1.42
  -1   6  -4   45.16    1.01
  -1   6  -4   44.74    0.98
   1  -6   4   45.72    0.98
   1  -6   4   45.40    1.00
   1  -6   4   45.52    1.07
  -2   6  -4    0.17    0.06
  -2   6  -4    0.58    0.07
  -2   6  -4    0.25    0.05
   2  -6   4    0.42    0.06
   2  -6   4    0.22    0.06
   2  -6   4    0.36    0.05
  -3   6  -4    3.42    0.20
  -3   6  -4    3.03    0.15
  -3   6  -4    3.32    0.15
  -3   6  -4    3.18    0.14
   3  -6   4    3.16    0.15
  -4   6  -4    1.53    0.12
  -4   6  -4    1.41    0.17
  -4   6  -4    1.40    0.11
  -4   6  -4    1.47    0.10
   4  -6   4    1.46    0.11
  -5   6  -4    0.59    0.07
  -5   6  -4    0.64    0.13
  -5   6  -4    0.40    0.07
  -6   6  -4   15.44    0.42
  -6   6  -4   16.10    0.44
  -6   6  -4   16.74    0.67
  -7   6  -4    5.66    0.21
  -7   6  -4    5.79    0.38
  -7   6  -4    5.47    0.23
  -8   6  -4    6.38    0.24
  -8   6  -4    6.70    0.27
  -8   6  -4    6.95    0.45
  -6  -5   4    2.89    0.22
  -6  -5   4    3.00    0.18
  -6  -5   4    2.95    0.20
  -5  -5   4    0.32    0.10
  -5  -5   4    0.16    0.08
  -5  -5   4    0.22    0.07
  -4  -5   4   -0.04    0.07
  -4  -5   4   -0.08    0.06
  -4  -5   4   -0.02    0.05
   3   5  -4    5.55    0.21
  -3  -5   4    6.05    0.24
  -3  -5   4    5.56    0.21
  -3  -5   4    5.55    0.21
  -3  -5   4    5.74    0.22
   2   5  -4   34.35    0.78
  -2  -5   4   33.82    0.77
  -2  -5   4   33.35    0.78
  -2  -5   4   34.64    0.84
  -2  -5   4   33.85    0.78
   1   5  -4   91.30    1.90
   1   5  -4   92.21    1.86
  -1  -5   4   88.96    1.86
  -1  -5   4   90.16    1.90
  -1  -5   4   87.76    1.90
  -1  -5   4   90.83    2.03
   0   5  -4   52.32    1.14
   0   5  -4   52.83    1.11
   0  -5   4   53.20    1.22
   0  -5   4   52.03    1.13
  -1   5  -4  101.60    2.10
  -1   5  -4  102.16    2.11
  -1   5  -4  101.78    2.06
   1  -5   4  101.11    2.06
   1  -5   4   99.62    2.10
   1  -5   4   99.40    2.25
  -2   5  -4   50.04    1.11
  -2   5  -4   51.77    1.09
  -2   5  -4   52.32    1.53
  -2   5  -4   50.45    1.11
   2  -5   4   51.87    1.08
   2  -5   4   51.32    1.18
  -3   5  -4    8.99    0.25
  -3   5  -4    9.01    0.27
  -3   5  -4    8.39    0.36
  -3   5  -4    9.03    0.26
  -3   5  -4    8.95    0.25
   3  -5   4    8.85    0.26
  -4   5  -4    1.65    0.11
  -4   5  -4    1.70    0.10
  -4   5  -4    1.66    0.18
  -4   5  -4    1.76    0.10
  -4   5  -4    1.72    0.11
   4  -5   4    1.66    0.10
  -5   5  -4    7.78    0.39
  -5   5  -4    7.18    0.24
  -5   5  -4    7.26    0.23
  -6   5  -4    0.46    0.06
  -6   5  -4    0.55    0.08
  -6   5  -4    0.66    0.16
  -7   5  -4    5.19    0.20
  -7   5  -4    5.45    0.37
  -7   5  -4    5.40    0.23
  -8   5  -4    2.46    0.17
  -8   5  -4    2.57    0.15
  -8   5  -4    2.50    0.30
  -7  -4   4    5.35    0.24
  -7  -4   4    6.08    0.26
  -7  -4   4    5.85    0.28
  -6  -4   4    8.87    0.33
  -6  -4   4    9.02    0.30
  -6  -4   4    8.59    0.29
  -5  -4   4   11.55    0.35
  -5  -4   4   12.27    0.38
  -5  -4   4   11.84    0.34
   4   4  -4    4.77    0.18
  -4  -4   4    5.91    0.21
  -4  -4   4    5.89    0.23
  -4  -4   4    6.17    0.21
   3   4  -4   -0.07    0.04
  -3  -4   4    0.18    0.05
  -3  -4   4    0.09    0.04
  -3  -4   4    0.04    0.04
  -3  -4   4    0.03    0.05
   2   4  -4   12.47    0.32
  -2  -4   4   12.14    0.31
  -2  -4   4   11.96    0.32
  -2  -4   4   12.28    0.32
  -2  -4   4   12.24    0.35
   1   4  -4    3.01    0.12
   1   4  -4    3.19    0.11
   1   4  -4    2.89    0.13
  -1  -4   4    3.08    0.12
  -1  -4   4    3.00    0.13
  -1  -4   4    3.02    0.13
   0   4  -4   78.80    1.60
   0   4  -4   76.04    1.60
   0   4  -4   76.21    1.56
   0  -4   4   77.99    1.60
   0  -4   4   70.80    1.56
   0  -4   4   77.70    1.71
   0  -4   4   75.96    1.60
  -1   4  -4  140.78    3.15
  -1   4  -4  140.67    2.89
  -1   4  -4  147.04    2.95
  -1   4  -4  145.23    2.96
   1  -4   4  143.10    4.10
   1  -4   4  141.43    2.95
   1  -4   4  146.28    3.15
   1  -4   4  146.37    2.89
   1  -4   4  142.76    2.95
  -2   4  -4  106.42    2.35
  -2   4  -4  108.56    2.21
  -2   4  -4   99.55    3.05
  -2   4  -4  108.71    2.20
  -2   4  -4  106.52    2.16
   2  -4   4  105.34    2.34
   2  -4   4  108.76    2.15
  -3   4  -4   81.78    1.81
  -3   4  -4   82.15    1.70
  -3   4  -4   82.79    2.39
  -3   4  -4   80.42    1.70
  -3   4  -4   79.98    1.66
   3  -4   4   78.38    1.80
  -4   4  -4   14.59    0.57
  -4   4  -4   14.98    0.37
  -4   4  -4   14.42    0.39
  -4   4  -4   14.56    0.36
  -4   4  -4   14.60    0.37
   4  -4   4   14.33    0.37
  -5   4  -4    2.70    0.14
  -5   4  -4    2.45    0.13
  -5   4  -4    2.52    0.12
  -5   4  -4    2.32    0.22
   5  -4   4    2.36    0.10
  -6   4  -4    0.06    0.10
  -6   4  -4    0.09    0.05
  -6   4  -4    0.07    0.04
  -6   4  -4    0.07    0.06
  -7   4  -4    2.62    0.27
  -7   4  -4    2.33    0.16
  -7   4  -4    2.62    0.14
  -7   4  -4    2.57    0.16
  -8   4  -4    2.63    0.15
  -8   4  -4    2.57    0.29
  -8   4  -4    2.42    0.17
  -8   4  -4    2.63    0.17
  -7  -3   4   10.23    0.36
  -7  -3   4   10.47    0.33
  -7  -3   4   10.76    0.33
  -6  -3   4   22.24    0.55
  -6  -3   4   22.88    0.56
  -6  -3   4   22.50    0.60
  -5  -3   4   17.05    0.57
  -5  -3   4   18.22    0.48
  -5  -3   4   17.57    0.43
  -5  -3   4   17.47    0.44
   4   3  -4   34.26    0.75
  -4  -3   4   34.70    0.77
  -4  -3   4   35.39    0.83
  -4  -3   4   33.81    0.78
  -4  -3   4   35.14    0.76
  -4  -3   4   34.10    1.01
  -3  -3   4   16.64    0.43
  -3  -3   4   16.58    0.41
  -3  -3   4   16.88    0.40
  -3  -3   4   16.14    0.40
   2   3  -4    8.97    0.29
   2   3  -4    9.01    0.24
  -2  -3   4    9.33    0.25
  -2  -3   4    9.01    0.26
  -2  -3   4    8.78    0.24
  -2  -3   4    8.86    0.24
   1   3  -4   61.38    1.27
   1   3  -4   62.35    1.24
   1   3  -4   59.74    1.27
  -1  -3   4   58.68    1.27
  -1  -3   4   61.40    1.28
  -1  -3   4   59.68    1.25
  -1  -3   4   60.52    1.36
   0   3  -4   62.30    1.38
   0   3  -4   61.74    1.29
   0   3  -4   61.04    1.29
   0   3  -4   62.86    1.27
   0  -3   4   59.56    1.38
   0  -3   4   61.11    1.78
   0  -3   4   61.02    1.27
   0  -3   4   61.63    1.30
   0  -3   4   63.54    1.29
  -1   3  -4   56.08    1.15
  -1   3  -4   56.49    1.18
  -1   3  -4   55.37    1.25
  -1   3  -4   55.37    1.17
  -1   3  -4   56.91    1.63
   1  -3   4   55.02    1.18
   1  -3   4   54.74    1.25
   1  -3   4   53.99    1.15
   1  -3   4   58.77    1.66
  -2   3  -4  168.83    3.30
  -2   3  -4  161.26    4.60
  -2   3  -4  166.72    3.23
  -2   3  -4  162.90    3.30
  -2   3  -4  163.42    3.51
   2  -3   4  163.37    3.22
   2  -3   4  159.60    3.51
   2  -3   4  143.85    4.60
   2  -3   4  161.68    3.29
  -3   3  -4   78.27    1.65
  -3   3  -4   79.27    1.62
  -3   3  -4   81.38    1.78
  -3   3  -4   78.67    2.33
  -3   3  -4   77.35    1.76
   3  -3   4   79.07    1.75
  -4   3  -4   80.40    2.37
  -4   3  -4   77.58    1.80
  -4   3  -4   80.16    1.78
  -4   3  -4   80.44    1.64
  -4   3  -4   81.23    1.68
   4  -3   4   78.51    1.76
  -5   3  -4   27.13    0.91
  -5   3  -4   26.77    0.66
  -5   3  -4   26.30    0.60
  -5   3  -4   26.58    0.63
  -5   3  -4   26.59    0.68
   5  -3   4   25.73    0.61
  -6   3  -4    1.28    0.12
  -6   3  -4    1.51    0.20
  -6   3  -4    1.42    0.10
  -6   3  -4    1.40    0.13
  -7   3  -4    0.26    0.06
  -7   3  -4    0.30    0.13
  -7   3  -4    0.20    0.07
  -7   3  -4    0.30    0.08
  -8   3  -4    0.22    0.07
  -8   3  -4    0.15    0.06
  -8   3  -4    0.22    0.14
  -8   3  -4    0.18    0.08
  -8  -2   4    2.02    0.15
  -8  -2   4    2.09    0.15
  -8  -2   4    2.17    0.17
  -7  -2   4    1.19    0.11
  -7  -2   4    1.29    0.12
  -7  -2   4    1.34    0.12
  -6  -2   4   11.10    0.30
  -6  -2   4   10.61    0.30
  -6  -2   4   10.98    0.33
  -5  -2   4   47.11    1.01
  -5  -2   4   46.64    1.02
  -5  -2   4   46.68    1.09
  -5  -2   4   46.41    1.38
  -5  -2   4   47.99    1.00
   4   2  -4   52.58    1.11
  -4  -2   4   53.02    1.13
  -4  -2   4   54.74    1.11
  -4  -2   4   53.61    1.53
  -4  -2   4   53.33    1.21
  -4  -2   4   52.05    1.13
   3   2  -4   68.69    1.45
  -3  -2   4   71.27    1.96
  -3  -2   4   70.78    1.43
  -3  -2   4   68.21    1.46
  -3  -2   4   70.39    1.56
  -3  -2   4   70.87    1.46
   2   2  -4   77.38    1.70
   2   2  -4   78.24    1.59
   2   2  -4   77.17    2.15
  -2  -2   4   78.11    1.60
  -2  -2   4   76.45    1.57
  -2  -2   4   77.01    1.71
  -2  -2   4   76.15    1.59
   1   2  -4   28.41    0.66
   1   2  -4   28.67    0.62
   1   2  -4   29.08    0.60
   1   2  -4   29.37    0.62
  -1  -2   4   27.57    0.66
  -1  -2   4   28.46    0.62
  -1  -2   4   28.54    0.62
  -1  -2   4   28.88    0.61
   0   2  -4   42.28    0.88
   0   2  -4   40.85    0.86
   0   2  -4   42.50    0.94
   0   2  -4   42.27    0.88
   0  -2   4   40.78    0.88
   0  -2   4   40.90    0.94
   0  -2   4   41.08    0.86
   0  -2   4   42.19    1.22
   0  -2   4   42.28    0.89
  -1   2  -4   32.35    1.03
  -1   2  -4   34.61    0.74
  -1   2  -4   34.39    0.72
  -1   2  -4   34.52    0.74
   1  -2   4   35.19    0.74
   1  -2   4   34.57    0.79
   1  -2   4   33.71    0.78
   1  -2   4   34.53    1.05
   1  -2   4   33.98    0.72
  -2   2  -4  121.93    2.69
  -2   2  -4  124.93    2.48
  -2   2  -4  121.93    3.54
  -2   2  -4  123.09    2.71
  -2   2  -4  126.36    2.53
   2  -2   4  126.77    2.53
   2  -2   4  116.06    3.53
   2  -2   4  123.43    2.71
   2  -2   4  126.56    2.47
   2  -2   4  121.85    2.69
  -3   2  -4   54.94    1.17
  -3   2  -4   55.94    1.64
  -3   2  -4   54.48    1.13
  -3   2  -4   53.47    1.25
  -3   2  -4   53.85    1.23
   3  -2   4   55.00    1.22
  -4   2  -4   46.32    1.01
  -4   2  -4   46.17    1.07
  -4   2  -4   45.57    1.41
  -4   2  -4   45.71    0.96
  -4   2  -4   44.77    1.06
   4  -2   4   44.92    1.03
  -5   2  -4   39.59    0.97
  -5   2  -4   40.21    0.87
  -5   2  -4   40.50    0.91
  -5   2  -4   40.34    1.28
  -5   2  -4   39.09    0.96
   5  -2   4   39.58    0.85
   5  -2   4   39.49    0.89
  -6   2  -4   13.57    0.37
  -6   2  -4   13.49    0.39
  -6   2  -4   13.70    0.57
  -6   2  -4   13.47    0.41
  -7   2  -4    2.43    0.15
  -7   2  -4    2.21    0.17
  -7   2  -4    2.27    0.26
  -7   2  -4    2.35    0.15
  -8   2  -4    0.07    0.13
  -8   2  -4   -0.02    0.05
  -8   2  -4    0.03    0.07
  -8  -1   4   -0.01    0.05
  -8  -1   4   -0.01    0.05
  -8  -1   4   -0.01    0.05
  -7  -1   4    2.05    0.12
  -7  -1   4    1.97    0.13
  -7  -1   4    1.97    0.12
  -6  -1   4    9.49    0.25
  -6  -1   4    9.43    0.26
  -6  -1   4    9.46    0.28
  -5  -1   4   27.30    0.60
  -5  -1   4   27.58    0.61
  -5  -1   4   27.34    0.59
  -5  -1   4   27.24    0.86
  -5  -1   4   27.17    0.65
  -4  -1   4   41.92    0.89
  -4  -1   4   42.47    0.96
  -4  -1   4   42.72    0.90
  -4  -1   4   42.24    0.88
  -4  -1   4   42.86    1.24
   3   1  -4  156.28    3.22
   3   1  -4  164.37    3.24
   3   1  -4  160.84    3.44
   3   1  -4  157.78    4.40
  -3  -1   4  160.95    3.23
  -3  -1   4  159.44    3.17
  -3  -1   4  158.71    4.38
  -3  -1   4  154.26    3.23
  -3  -1   4  160.24    3.45
   2   1  -4  140.07    2.88
   2   1  -4  142.34    3.90
   2   1  -4  139.17    2.84
   2   1  -4  143.38    3.08
   2   1  -4  143.03    2.91
  -2  -1   4  143.09    2.88
  -2  -1   4  141.94    2.87
  -2  -1   4  141.97    2.82
  -2  -1   4  140.02    3.07
   1   1  -4  159.36    3.50
   1   1  -4  162.35    3.29
   1   1  -4  163.84    3.18
   1   1  -4  163.98    3.25
  -1  -1   4  159.08    3.56
  -1  -1   4  156.42    3.29
  -1  -1   4  162.22    3.26
  -1  -1   4  153.32    3.26
   0   1  -4  147.11    3.03
   0   1  -4  145.86    3.23
   0   1  -4  147.58    4.34
   0   1  -4  150.13    3.03
   0  -1   4  148.09    3.25
   0  -1   4  147.05    2.98
   0  -1   4  149.14    3.03
   0  -1   4  155.46    4.27
   0  -1   4  152.03    3.30
  -1   1  -4    3.45    0.13
  -1   1  -4    3.55    0.12
  -1   1  -4    3.36    0.12
  -1   1  -4    3.73    0.11
   1  -1   4    3.44    0.12
   1  -1   4    3.64    0.13
   1  -1   4    3.59    0.11
   1  -1   4    3.84    0.12
   1  -1   4    3.27    0.17
  -2   1  -4   23.93    0.52
  -2   1  -4   24.41    0.55
  -2   1  -4   24.19    0.58
  -2   1  -4   24.25    0.59
  -2   1  -4   23.01    0.75
   2  -1   4   24.36    0.54
   2  -1   4   25.67    0.52
   2  -1   4   23.20    0.76
   2  -1   4   22.85    0.57
   2  -1   4   24.05    0.57
  -3   1  -4   62.25    1.39
  -3   1  -4   59.40    1.26
  -3   1  -4   59.71    1.31
  -3   1  -4   60.11    1.39
  -3   1  -4   61.47    1.81
   3  -1   4   63.47    1.37
  -4   1  -4   68.73    1.44
  -4   1  -4   68.66    1.48
  -4   1  -4   69.56    1.57
  -4   1  -4   67.95    1.57
  -4   1  -4   67.72    2.06
   4  -1   4   71.07    1.54
  -5   1  -4   41.92    1.00
  -5   1  -4   41.51    1.00
  -5   1  -4   42.40    1.34
  -5   1  -4   42.23    0.92
  -5   1  -4   40.47    0.94
   5  -1   4   41.98    0.89
  -6   1  -4   21.46    0.59
  -6   1  -4   21.17    0.55
  -6   1  -4   22.22    0.81
  -7   1  -4    9.97    0.51
  -7   1  -4   10.12    0.33
  -7   1  -4   10.01    0.35
  -8   1  -4    2.08    0.18
  -8   1  -4    1.79    0.26
  -8   1  -4    1.83    0.16
  -8   0   4    1.25    0.10
  -8   0   4    1.20    0.09
  -8   0   4    1.19    0.10
  -7   0   4    0.21    0.05
  -7   0   4    0.17    0.05
  -7   0   4    0.15    0.04
  -6   0   4    1.02    0.07
  -6   0   4    0.94    0.07
  -6   0   4    1.04    0.08
  -6   0   4    1.09    0.07
  -5   0   4   25.48    0.55
  -5   0   4   25.99    0.56
  -5   0   4   26.01    0.83
  -5   0   4   25.87    0.59
  -5   0   4   25.72    0.54
  -4   0   4   57.88    1.18
  -4   0   4   55.15    1.17
  -4   0   4   58.32    1.14
  -4   0   4   56.72    1.65
  -4   0   4   57.61    1.25
   3   0  -4  125.88    3.51
  -3   0   4  126.89    3.49
  -3   0   4  122.19    2.52
  -3   0   4  126.96    2.55
  -3   0   4  127.53    2.57
  -3   0   4  127.02    2.74
   2   0  -4   87.06    1.91
   2   0  -4   85.88    1.78
   2   0  -4   86.36    2.44
   2   0  -4   85.19    1.79
  -2   0   4   91.36    1.79
  -2   0   4   88.22    1.76
  -2   0   4   89.94    1.91
  -2   0   4   89.29    2.43
  -2   0   4   87.19    1.79
   1   0  -4  172.10    3.99
   1   0  -4  190.21    3.75
  -1   0   4  180.78    3.67
  -1   0   4  173.11    3.96
  -1   0   4  181.10    3.77
  -1   0   4  184.51    4.00
   0   0  -4  153.73    3.09
   0   0  -4  149.81    4.32
   0   0  -4  154.83    3.21
   0   0  -4  158.50    3.39
   0   0  -4  150.13    3.39
   0   0   4  146.07    3.36
   0   0   4  154.94    3.36
   0   0   4  157.01    3.13
   0   0   4  157.28    4.48
  -1   0  -4   48.93    1.12
  -1   0  -4   49.49    1.03
  -1   0  -4   49.10    1.05
  -1   0  -4   50.49    1.44
  -1   0  -4   50.09    1.11
   1   0   4   47.32    1.02
   1   0   4   48.82    1.11
   1   0   4   50.18    1.05
   1   0   4   47.81    1.11
   1   0   4   51.07    1.45
  -2   0  -4   27.45    0.63
  -2   0  -4   28.28    0.86
  -2   0  -4   26.69    0.67
  -2   0  -4   27.52    0.66
  -2   0  -4   29.32    0.62
   2   0   4   27.78    0.65
   2   0   4   28.47    0.60
   2   0   4   28.45    0.59
   2   0   4   27.86    0.63
   2   0   4   27.52    0.67
  -3   0  -4  101.57    2.16
  -3   0  -4  105.14    2.29
  -3   0  -4  103.28    2.30
  -3   0  -4  107.60    2.12
   3   0   4  100.66    2.29
  -4   0  -4   11.12    0.43
  -4   0  -4   10.06    0.31
  -4   0  -4   10.22    0.31
  -4   0  -4   10.68    0.30
   4   0   4   10.55    0.27
   4   0   4   10.60    0.30
  -5   0  -4   17.78    0.50
  -5   0  -4   17.54    0.46
  -5   0  -4   17.97    0.48
  -5   0  -4   18.18    0.68
   5   0   4   18.21    0.45
   5   0   4   17.68    0.42
  -6   0  -4   16.82    0.49
  -6   0  -4   17.19    0.47
  -6   0  -4   17.56    0.69
  -7   0  -4    8.59    0.30
  -7   0  -4    8.54    0.47
  -7   0  -4    7.95    0.31
  -8   1   4   14.28    0.33
  -8   1   4   13.66    0.36
  -8   1   4   14.27    0.33
  -7   1   4    3.50    0.11
  -7   1   4    3.37    0.12
  -7   1   4    3.54    0.11
  -6   1   4    3.08    0.10
  -6   1   4    3.01    0.10
  -6   1   4    3.16    0.10
  -5   1   4   -0.02    0.02
  -5   1   4   -0.01    0.02
  -5   1   4   -0.06    0.07
  -5   1   4    0.05    0.02
  -4   1   4   51.10    1.49
  -3   1   4    1.33    0.05
  -3   1   4    1.42    0.04
  -3   1   4    1.44    0.05
  -3   1   4    1.34    0.11
   2  -1  -4  207.61    5.90
   2  -1  -4  209.49    4.28
   2  -1  -4  212.78    4.28
  -2   1   4  211.52    5.80
  -2   1   4  207.15    4.62
  -2   1   4  216.19    4.34
  -2   1   4  213.28    4.64
   1  -1  -4  235.66    5.28
  -1   1   4  243.35    5.33
  -1   1   4  243.78    6.82
  -1   1   4  230.27    5.34
  -1   1   4  249.40    4.97
   0  -1  -4  237.25    5.42
   0  -1  -4  244.36    7.00
   0  -1  -4  255.84    5.11
   0   1   4  241.17    6.93
   0   1   4  243.28    5.41
   0   1   4  240.39    5.05
  -1  -1  -4   74.26    2.15
  -1  -1  -4   76.29    1.56
  -1  -1  -4   74.02    1.66
  -1  -1  -4   73.58    1.66
   1   1   4   75.17    1.67
   1   1   4   74.35    1.52
   1   1   4   74.74    1.66
   1   1   4   75.46    1.56
   1   1   4   77.26    1.54
  -2  -1  -4   66.83    2.01
  -2  -1  -4   68.99    1.46
  -2  -1  -4   71.31    1.42
  -2  -1  -4   67.56    1.54
   2   1   4   68.38    1.41
   2   1   4   69.18    1.43
   2   1   4   70.58    1.46
   2   1   4   69.23    1.56
  -3  -1  -4   60.78    1.39
  -3  -1  -4   61.12    1.31
  -3  -1  -4   61.24    1.82
  -3  -1  -4   61.75    1.27
   3   1   4   60.83    1.29
   3   1   4   60.75    1.40
  -4  -1  -4   13.14    0.36
  -4  -1  -4   13.47    0.34
  -4  -1  -4   13.21    0.38
  -4  -1  -4   14.09    0.53
   4   1   4   12.92    0.38
  -5  -1  -4    5.90    0.20
  -5  -1  -4    5.90    0.34
  -5  -1  -4    5.96    0.22
  -5  -1  -4    5.82    0.23
   5   1   4    5.26    0.20
  -6  -1  -4   12.87    0.39
  -6  -1  -4   12.82    0.36
  -6  -1  -4   12.96    0.58
  -6  -1  -4   13.13    0.41
  -7  -1  -4    7.57    0.29
  -7  -1  -4    7.33    0.46
  -7  -1  -4    7.74    0.31
  -9   2   4    8.93    0.24
  -9   2   4    9.55    0.51
  -8   2   4    2.89    0.10
  -8   2   4    2.94    0.11
  -8   2   4    2.68    0.26
  -4   2   4    0.38    0.08
   3  -2  -4   78.67    2.23
  -3   2   4   80.75    1.60
  -3   2   4   76.93    1.71
  -3   2   4   78.53    2.22
   2  -2  -4   84.03    2.37
   2  -2  -4   85.36    1.72
  -2   2   4   85.40    2.36
  -2   2   4   83.85    1.85
  -2   2   4   84.96    1.73
   1  -2  -4  131.50    2.95
   1  -2  -4  136.51    2.73
  -1   2   4  134.89    2.92
  -1   2   4  135.26    2.74
   0  -2  -4  124.42    2.78
   0  -2  -4  127.06    3.58
   0  -2  -4  126.19    2.60
   0   2   4  129.22    2.56
   0   2   4  127.09    2.78
   0   2   4  130.12    2.60
  -1  -2  -4  131.59    2.62
  -1  -2  -4  132.49    2.85
  -1  -2  -4  128.89    2.68
   1   2   4  131.38    2.85
   1   2   4  132.69    2.68
   1   2   4  129.05    2.85
   1   2   4  126.50    2.62
  -2  -2  -4   11.42    0.32
  -2  -2  -4   11.49    0.31
  -2  -2  -4   11.46    0.29
   2   2   4   11.69    0.30
   2   2   4   11.93    0.30
   2   2   4   11.70    0.29
   2   2   4   12.00    0.33
  -3  -2  -4   29.24    0.73
  -3  -2  -4   29.82    0.66
  -3  -2  -4   29.89    0.69
   3   2   4   29.47    0.68
   3   2   4   30.94    0.74
  -4  -2  -4    6.07    0.20
  -4  -2  -4    6.12    0.22
  -4  -2  -4    6.33    0.23
   4   2   4    6.24    0.24
   4   2   4    5.88    0.20
  -5  -2  -4    1.60    0.12
  -5  -2  -4    1.44    0.14
  -5  -2  -4    1.70    0.22
  -5  -2  -4    1.64    0.14
  -6  -2  -4    4.23    0.21
  -6  -2  -4    4.28    0.19
  -6  -2  -4    4.54    0.34
  -6  -2  -4    4.29    0.23
  -7  -2  -4    2.70    0.21
  -7  -2  -4    2.30    0.19
  -7  -2  -4    2.42    0.16
  -7  -2  -4    2.13    0.29
  -9   3   4    1.25    0.21
  -8   3   4   10.37    0.49
  -7   3   4   13.35    0.54
  -6   3   4   13.61    0.52
  -5   3   4   37.52    1.15
  -4   3   4   32.37    0.67
  -4   3   4   31.58    0.72
  -4   3   4   32.55    0.67
  -4   3   4   32.69    0.99
  -4   3   4   32.77    0.97
   3  -3  -4    3.67    0.19
  -3   3   4    3.80    0.12
  -3   3   4    4.21    0.11
  -3   3   4    3.86    0.15
  -3   3   4    3.83    0.18
   2  -3  -4    0.12    0.05
   2  -3  -4    0.12    0.03
   2  -3  -4    0.07    0.02
  -2   3   4    0.05    0.02
  -2   3   4    0.11    0.03
  -2   3   4    0.07    0.02
   1  -3  -4   34.23    0.79
   1  -3  -4   34.69    0.74
   1  -3  -4   35.93    1.00
  -1   3   4   34.56    0.73
  -1   3   4   35.45    0.75
  -1   3   4   34.43    0.75
  -1   3   4   33.63    0.79
   0  -3  -4   31.35    0.67
   0  -3  -4   31.17    0.73
   0  -3  -4   31.58    0.69
   0   3   4   31.28    0.69
   0   3   4   31.13    0.67
   0   3   4   31.66    0.74
   0   3   4   31.54    0.69
  -1  -3  -4  224.04    4.82
  -1  -3  -4  220.01    4.43
  -1  -3  -4  218.82    4.52
   1   3   4  223.17    4.52
   1   3   4  221.35    4.52
   1   3   4  223.21    4.43
  -2  -3  -4  109.58    2.32
  -2  -3  -4  111.45    2.48
  -2  -3  -4  110.74    2.27
   2   3   4  112.23    2.32
   2   3   4  113.49    2.27
   2   3   4  111.34    2.47
  -3  -3  -4   31.40    0.77
  -3  -3  -4   31.56    0.73
  -3  -3  -4   30.78    0.70
   3   3   4   30.86    0.71
   3   3   4   30.59    0.77
  -4  -3  -4   15.64    0.43
  -4  -3  -4   15.46    0.45
  -4  -3  -4   16.00    0.41
   4   3   4   15.39    0.41
   4   3   4   15.41    0.45
  -5  -3  -4    2.84    0.19
  -5  -3  -4    2.76    0.16
  -5  -3  -4    2.70    0.18
  -6  -3  -4    2.06    0.28
  -6  -3  -4    1.88    0.19
  -6  -3  -4    2.01    0.15
  -6  -3  -4    1.95    0.18
  -9   4   4    1.85    0.08
  -9   4   4    1.77    0.24
  -8   4   4    5.10    0.32
  -7   4   4   27.50    0.94
  -6   4   4   67.92    1.39
  -6   4   4   68.97    2.03
  -6   4   4   67.41    1.49
  -6   4   4   67.88    1.39
  -5   4   4    2.70    0.16
  -5   4   4    2.48    0.09
  -5   4   4    2.41    0.09
  -5   4   4    2.55    0.08
  -5   4   4    2.47    0.07
  -4   4   4   35.09    0.74
  -4   4   4   33.77    1.04
  -4   4   4   35.82    0.75
  -4   4   4   35.01    0.79
  -4   4   4   36.08    1.07
  -4   4   4   34.85    0.72
   3  -4  -4    5.80    0.26
   3  -4  -4    5.92    0.15
  -3   4   4    6.07    0.17
  -3   4   4    5.71    0.16
  -3   4   4    5.87    0.18
  -3   4   4    5.86    0.16
  -3   4   4    6.06    0.25
  -3   4   4    6.04    0.19
   2  -4  -4    2.05    0.09
   2  -4  -4    2.12    0.13
  -2   4   4    1.97    0.09
  -2   4   4    2.23    0.09
  -2   4   4    1.99    0.10
  -2   4   4    2.42    0.10
   1  -4  -4    0.79    0.06
   1  -4  -4    0.70    0.07
   1  -4  -4    1.08    0.08
   1  -4  -4    0.75    0.08
  -1   4   4    0.69    0.07
  -1   4   4    0.71    0.07
  -1   4   4    0.73    0.07
  -1   4   4    0.87    0.07
   0  -4  -4   82.18    1.84
   0  -4  -4   84.04    1.69
   0  -4  -4   82.33    1.73
   0   4   4   83.01    1.74
   0   4   4   81.49    1.70
   0   4   4   82.05    1.73
  -1  -4  -4   42.64    0.93
  -1  -4  -4   41.66    0.91
   1   4   4   42.46    0.91
   1   4   4   42.20    0.94
  -2  -4  -4   28.82    0.68
  -2  -4  -4   29.48    0.72
  -2  -4  -4   28.48    0.66
   2   4   4   28.96    0.68
   2   4   4   28.63    0.72
  -3  -4  -4   28.46    0.69
  -3  -4  -4   29.19    0.73
  -3  -4  -4   28.10    0.66
   3   4   4   28.26    0.68
   3   4   4   28.14    0.72
  -4  -4  -4   24.01    0.61
  -4  -4  -4   24.51    0.65
  -4  -4  -4   23.45    0.58
   4   4   4   23.58    0.64
  -5  -4  -4    3.32    0.22
  -5  -4  -4    3.35    0.19
  -5  -4  -4    3.53    0.21
  -6  -4  -4    0.82    0.12
  -6  -4  -4    0.95    0.14
  -8   5   4    0.61    0.06
  -8   5   4    0.89    0.16
  -7   5   4    2.54    0.09
  -7   5   4    2.74    0.21
  -7   5   4    2.56    0.09
  -6   5   4   11.19    0.44
  -6   5   4   11.01    0.26
  -6   5   4   11.39    0.28
  -6   5   4   11.40    0.27
  -5   5   4   47.66    1.00
  -5   5   4   47.61    1.07
  -5   5   4   48.45    1.01
  -5   5   4   46.09    1.42
  -5   5   4   47.76    0.98
  -4   5   4   50.09    1.07
  -4   5   4   50.34    1.15
  -4   5   4   53.20    1.50
  -4   5   4   50.18    1.08
  -4   5   4   50.35    1.45
  -4   5   4   50.59    1.05
   3  -5  -4   55.23    1.26
   3  -5  -4   56.60    1.18
   3  -5  -4   56.96    1.66
  -3   5   4   56.08    1.28
  -3   5   4   57.02    1.21
  -3   5   4   58.63    1.64
  -3   5   4   56.08    1.20
  -3   5   4   57.22    1.18
   2  -5  -4    9.23    0.25
   2  -5  -4    9.79    0.29
   2  -5  -4    9.38    0.34
   2  -5  -4    9.26    0.26
  -2   5   4    9.32    0.26
  -2   5   4    8.88    0.27
  -2   5   4    9.37    0.25
  -2   5   4    9.28    0.25
   1  -5  -4    9.61    0.25
   1  -5  -4    9.41    0.28
   1  -5  -4    9.57    0.26
   1  -5  -4    9.54    0.33
  -1   5   4    9.58    0.26
  -1   5   4    9.31    0.27
  -1   5   4    9.33    0.26
   0  -5  -4    0.14    0.04
   0  -5  -4    0.19    0.05
   0  -5  -4    0.11    0.04
   0  -5  -4    0.12    0.05
   0   5   4    0.18    0.05
   0   5   4    0.15    0.05
   0   5   4    0.15    0.04
  -1  -5  -4    3.29    0.16
  -1  -5  -4    3.18    0.17
   1   5   4    3.18    0.14
   1   5   4    3.40    0.16
  -2  -5  -4   48.32    1.08
  -2  -5  -4   49.92    1.11
  -2  -5  -4   50.05    1.18
   2   5   4   50.14    1.11
  -3  -5  -4   22.28    0.56
  -3  -5  -4   22.71    0.59
  -3  -5  -4   22.55    0.62
   3   5   4   22.85    0.61
   3   5   4   22.56    0.58
  -4  -5  -4   12.13    0.39
  -4  -5  -4   12.70    0.42
   4   5   4   12.28    0.40
  -5  -5  -4   15.72    0.51
  -5  -5  -4   14.96    0.47
  -8   6   4    0.06    0.03
  -8   6   4    0.07    0.04
  -7   6   4    0.74    0.06
  -7   6   4    0.70    0.07
  -7   6   4    0.91    0.14
  -6   6   4    6.84    0.20
  -6   6   4    6.85    0.21
  -6   6   4    6.78    0.30
  -5   6   4   64.26    1.38
  -5   6   4   66.66    1.35
  -5   6   4   64.72    1.37
  -5   6   4   63.50    1.86
   4  -6  -4   22.18    0.48
   4  -6  -4   21.36    0.51
  -4   6   4   21.87    0.51
  -4   6   4   21.38    0.50
  -4   6   4   22.51    0.73
  -4   6   4   21.99    0.52
  -4   6   4   21.05    0.54
   3  -6  -4   40.65    0.95
   3  -6  -4   40.09    1.17
  -3   6   4   40.99    0.90
  -3   6   4   41.60    0.92
  -3   6   4   41.12    0.97
  -3   6   4   42.27    0.89
   2  -6  -4   39.35    0.86
   2  -6  -4   39.63    0.92
   2  -6  -4   38.10    1.14
   2  -6  -4   38.82    1.16
  -2   6   4   40.16    0.88
  -2   6   4   37.68    0.86
  -2   6   4   39.03    0.86
   1  -6  -4    5.40    0.19
   1  -6  -4    5.36    0.21
   1  -6  -4    5.60    0.18
   1  -6  -4    5.17    0.22
  -1   6   4    5.49    0.21
  -1   6   4    5.40    0.19
  -1   6   4    5.35    0.19
   0  -6  -4    9.67    0.31
   0  -6  -4    9.19    0.32
   0  -6  -4    9.09    0.27
   0  -6  -4    9.36    0.29
   0   6   4    9.59    0.30
   0   6   4    9.39    0.28
  -1  -6  -4    7.99    0.28
  -1  -6  -4    7.97    0.29
  -1  -6  -4    7.99    0.28
   1   6   4    8.36    0.29
  -2  -6  -4    0.10    0.07
  -2  -6  -4    0.09    0.06
   2   6   4    0.14    0.07
  -3  -6  -4    8.12    0.33
  -3  -6  -4    8.06    0.31
   3   6   4    7.86    0.31
   3   6   4    8.21    0.31
  -4  -6  -4    7.35    0.32
  -4  -6  -4    7.07    0.30
  -5  -6  -4    4.12    0.25
  -5  -6  -4    4.07    0.27
  -8   7   4    0.47    0.06
  -8   7   4    0.52    0.06
  -7   7   4    1.63    0.11
  -7   7   4    1.75    0.11
  -6   7   4    0.10    0.05
  -6   7   4    0.02    0.05
  -5   7   4    0.13    0.06
  -5   7   4    0.19    0.05
   4  -7  -4   18.66    0.46
  -4   7   4   18.76    0.46
  -4   7   4   18.36    0.48
   3  -7  -4   27.91    0.83
   3  -7  -4   28.25    0.69
   3  -7  -4   28.80    0.65
  -3   7   4   28.31    0.66
  -3   7   4   27.70    0.66
  -3   7   4   29.64    0.69
   2  -7  -4   37.73    0.89
   2  -7  -4   37.10    0.83
   2  -7  -4   33.91    1.08
  -2   7   4   37.40    0.83
  -2   7   4   36.98    0.85
  -2   7   4   35.91    0.83
   1  -7  -4   34.93    0.80
   1  -7  -4   33.66    1.02
   1  -7  -4   35.43    0.85
  -1   7   4   34.54    0.82
  -1   7   4   33.11    0.78
   0  -7  -4   14.85    0.41
   0  -7  -4   14.96    0.44
   0  -7  -4   13.92    0.46
   0   7   4   14.57    0.43
  -1  -7  -4    3.08    0.20
  -1  -7  -4    2.94    0.18
   1   7   4    2.88    0.19
  -2  -7  -4    0.17    0.08
  -2  -7  -4    0.11    0.08
   2   7   4    0.20    0.08
  -3  -7  -4    0.82    0.14
  -3  -7  -4    0.63    0.11
   3   7   4    0.91    0.13
  -4  -7  -4    0.69    0.13
  -4  -7  -4    0.78    0.14
  -8   8   4    4.14    0.18
  -8   8   4    4.32    0.18
  -7   8   4    0.01    0.05
  -7   8   4    0.00    0.05
  -6   8   4    1.16    0.11
  -6   8   4    1.03    0.10
  -5   8   4    0.25    0.06
  -5   8   4    0.09    0.06
  -4   8   4    4.92    0.22
  -4   8   4    5.20    0.20
   3  -8  -4    7.20    0.25
  -3   8   4    7.16    0.27
  -3   8   4    6.85    0.25
   2  -8  -4   25.75    0.67
   2  -8  -4   25.59    0.63
  -2   8   4   26.54    0.66
   1  -8  -4   14.40    0.44
   1  -8  -4   14.69    0.42
  -1   8   4   14.75    0.44
   0  -8  -4    9.88    0.35
   0  -8  -4    9.98    0.34
   0   8   4    9.77    0.34
  -1  -8  -4   11.73    0.41
  -1  -8  -4   11.72    0.39
   1   8   4   11.09    0.39
  -2  -8  -4    1.37    0.15
  -2  -8  -4    1.56    0.17
  -3  -8  -4    0.26    0.11
  -3  -8  -4    0.31    0.12
  -7   9   4    8.42    0.28
  -7   9   4    8.89    0.30
  -6   9   4    1.70    0.16
  -6   9   4    1.86    0.14
  -5   9   4    1.55    0.14
  -4   9   4   -0.07    0.07
  -3   9   4    1.97    0.18
   2  -9  -4    0.74    0.10
  -2   9   4    0.66    0.11
   1  -9  -4   12.95    0.43
  -1   9   4   13.01    0.42
   0  -9  -4   10.06    0.36
   0  -9  -4   10.40    0.38
   0   9   4   10.32    0.38
  -1  -9  -4    5.43    0.29
  -1  -9  -4    5.51    0.28
   1   9   4    5.26    0.28
  -2  -9  -4    3.83    0.27
  -2  -9  -4    4.22    0.26
  -6  10   4    4.23    0.23
  -5  10   4    3.89    0.23
  -4  10   4    0.83    0.12
  -3  10   4    0.03    0.09
  -2  10   4    0.50    0.11
   1 -10  -4    2.71    0.21
  -1  10   4    2.40    0.22
   0 -10  -4    2.90    0.23
   0  10   4    2.74    0.23
  -1 -10   5    5.75    0.33
  -1 -10   5    5.46    0.29
   0  10  -5    3.09    0.24
   0 -10   5    3.58    0.26
   0 -10   5    3.14    0.22
  -1  10  -5    3.23    0.24
   1 -10   5    3.45    0.24
  -2  10  -5    0.03    0.09
   2 -10   5    0.06    0.09
  -3  10  -5    0.01    0.08
  -4  10  -5    5.16    0.28
  -5  10  -5    2.42    0.21
  -2  -9   5    9.63    0.37
  -2  -9   5   10.18    0.41
   1   9  -5    6.31    0.32
  -1  -9   5    6.63    0.32
  -1  -9   5    6.21    0.28
   0   9  -5   11.70    0.41
   0  -9   5   12.45    0.44
   0  -9   5   12.37    0.40
  -1   9  -5    3.79    0.23
   1  -9   5    4.01    0.24
   1  -9   5    3.91    0.22
  -2   9  -5    0.40    0.10
   2  -9   5    0.41    0.10
  -3   9  -5    0.40    0.10
   3  -9   5    0.43    0.10
  -4   9  -5    0.01    0.07
  -5   9  -5    3.74    0.23
  -6   9  -5    1.87    0.18
  -6   9  -5    1.66    0.23
  -3  -8   5    1.26    0.14
  -3  -8   5    1.63    0.17
  -2  -8   5    4.29    0.24
  -2  -8   5    4.30    0.27
   1   8  -5   14.93    0.45
  -1  -8   5   15.33    0.49
  -1  -8   5   14.74    0.44
   0   8  -5   19.71    0.55
   0  -8   5   20.63    0.54
   0  -8   5   20.77    0.59
  -1   8  -5   11.02    0.36
   1  -8   5   10.84    0.37
   1  -8   5   10.90    0.34
  -2   8  -5   30.80    0.76
   2  -8   5   30.92    0.74
   2  -8   5   31.41    0.81
  -3   8  -5    4.66    0.23
   3  -8   5    4.71    0.22
  -4   8  -5    1.85    0.17
  -5   8  -5    0.23    0.11
  -5   8  -5    0.26    0.08
  -6   8  -5    1.80    0.16
  -6   8  -5    1.83    0.23
  -7   8  -5    0.16    0.13
  -7   8  -5    0.05    0.07
  -4  -7   5   -0.11    0.07
  -4  -7   5    0.09    0.09
  -3  -7   5    0.05    0.09
  -3  -7   5   -0.07    0.08
   2   7  -5    1.29    0.12
  -2  -7   5    1.37    0.15
  -2  -7   5    1.47    0.13
   1   7  -5   10.48    0.34
  -1  -7   5   10.95    0.37
  -1  -7   5   10.19    0.33
   0   7  -5   14.71    0.42
   0  -7   5   15.44    0.42
   0  -7   5   15.25    0.46
  -1   7  -5   90.33    1.96
   1  -7   5   92.11    1.95
   1  -7   5   92.24    2.09
  -2   7  -5   11.44    0.33
  -2   7  -5   12.18    0.36
   2  -7   5   12.02    0.34
   2  -7   5   12.54    0.38
  -3   7  -5    4.80    0.19
  -3   7  -5    5.30    0.22
   3  -7   5    5.11    0.21
  -4   7  -5    7.21    0.35
  -4   7  -5    7.20    0.24
  -4   7  -5    7.61    0.27
   4  -7   5    7.84    0.26
  -5   7  -5    2.25    0.14
  -5   7  -5    2.29    0.16
  -5   7  -5    2.51    0.23
  -6   7  -5    0.58    0.15
  -7   7  -5    1.40    0.21
  -7   7  -5    1.37    0.13
  -5  -6   5    3.93    0.23
  -5  -6   5    4.07    0.25
  -4  -6   5   10.16    0.38
  -4  -6   5   10.74    0.35
  -4  -6   5    9.74    0.33
   3   6  -5   16.69    0.48
  -3  -6   5   16.58    0.46
  -3  -6   5   17.37    0.51
  -3  -6   5   16.21    0.45
   2   6  -5    0.75    0.09
  -2  -6   5    0.75    0.10
  -2  -6   5    0.63    0.08
  -2  -6   5    0.72    0.09
   1   6  -5    0.22    0.06
  -1  -6   5    0.26    0.05
  -1  -6   5    0.14    0.06
  -1  -6   5    0.14    0.07
   0   6  -5   13.97    0.37
   0   6  -5   13.99    0.39
   0  -6   5   13.75    0.41
   0  -6   5   14.50    0.38
  -1   6  -5    5.84    0.20
  -1   6  -5    5.76    0.21
   1  -6   5    5.83    0.23
   1  -6   5    5.74    0.20
   1  -6   5    5.67    0.20
  -2   6  -5   95.40    2.01
  -2   6  -5   98.02    2.05
  -2   6  -5   97.82    2.06
   2  -6   5   97.37    2.00
   2  -6   5   97.59    2.19
  -3   6  -5   57.08    1.26
  -3   6  -5   57.35    1.23
  -3   6  -5   57.26    1.74
  -3   6  -5   58.53    1.27
   3  -6   5   58.27    1.34
  -4   6  -5   19.57    0.50
  -4   6  -5   18.59    0.69
  -4   6  -5   19.35    0.47
   4  -6   5   18.81    0.50
  -5   6  -5   10.92    0.34
  -5   6  -5   11.13    0.32
  -5   6  -5   11.22    0.49
  -6   6  -5    4.73    0.21
  -6   6  -5    4.82    0.34
  -6   6  -5    4.64    0.19
  -7   6  -5    0.04    0.12
  -7   6  -5    0.04    0.06
  -7   6  -5   -0.04    0.05
  -6  -5   5    6.67    0.28
  -6  -5   5    6.70    0.27
  -6  -5   5    6.74    0.31
  -5  -5   5   20.60    0.59
  -5  -5   5   19.58    0.52
  -5  -5   5   20.23    0.54
  -4  -5   5   20.95    0.53
  -4  -5   5   21.23    0.55
  -4  -5   5   21.58    0.59
   3   5  -5   10.70    0.31
  -3  -5   5   10.71    0.35
  -3  -5   5   10.79    0.31
  -3  -5   5   10.72    0.33
  -3  -5   5   10.41    0.32
   2   5  -5   19.98    0.49
  -2  -5   5   19.59    0.50
  -2  -5   5   19.93    0.49
  -2  -5   5   19.44    0.49
  -2  -5   5   19.98    0.54
   1   5  -5   -0.01    0.05
   1   5  -5   -0.01    0.03
  -1  -5   5    0.01    0.04
  -1  -5   5    0.01    0.03
  -1  -5   5    0.04    0.05
  -1  -5   5    0.01    0.05
   0   5  -5    0.19    0.04
   0   5  -5    0.34    0.05
   0  -5   5    0.08    0.03
   0  -5   5    0.20    0.06
   0  -5   5    0.33    0.06
  -1   5  -5   18.50    0.44
  -1   5  -5   18.57    0.45
  -1   5  -5   18.50    0.46
   1  -5   5   19.10    0.49
   1  -5   5   18.10    0.44
   1  -5   5   18.35    0.45
  -2   5  -5   10.73    0.30
  -2   5  -5   10.52    0.29
  -2   5  -5   10.54    0.40
  -2   5  -5   10.65    0.28
   2  -5   5   10.46    0.31
   2  -5   5   10.45    0.28
  -3   5  -5   74.59    2.30
  -3   5  -5   78.45    1.62
  -3   5  -5   78.94    1.65
  -3   5  -5   79.67    1.66
   3  -5   5   77.09    1.75
  -4   5  -5   50.64    1.10
  -4   5  -5   51.70    1.60
  -4   5  -5   51.78    1.13
  -4   5  -5   52.01    1.13
   4  -5   5   50.67    1.18
  -5   5  -5   18.67    0.72
  -5   5  -5   18.47    0.48
  -5   5  -5   18.39    0.46
  -6   5  -5    3.19    0.15
  -6   5  -5    3.12    0.29
  -6   5  -5    3.07    0.17
  -7   5  -5    4.51    0.35
  -7   5  -5    4.17    0.19
  -7   5  -5    4.33    0.21
  -8   5  -5    0.13    0.14
  -8   5  -5   -0.03    0.05
  -7  -4   5    0.43    0.10
  -7  -4   5    0.29    0.08
  -7  -4   5    0.41    0.09
  -6  -4   5    5.33    0.25
  -6  -4   5    4.87    0.21
  -6  -4   5    5.13    0.23
  -5  -4   5    8.53    0.27
  -5  -4   5    8.63    0.28
  -5  -4   5    8.64    0.31
   4   4  -5   38.43    0.87
  -4  -4   5   38.21    0.88
  -4  -4   5   40.48    0.96
  -4  -4   5   40.18    0.88
   3   4  -5   42.30    0.93
  -3  -4   5   41.94    0.94
  -3  -4   5   41.93    0.94
  -3  -4   5   42.77    1.01
  -3  -4   5   42.61    0.92
   2   4  -5   46.42    1.01
   2   4  -5   45.53    1.30
  -2  -4   5   46.89    0.99
  -2  -4   5   46.02    1.08
  -2  -4   5   46.30    1.01
  -2  -4   5   46.13    1.01
   1   4  -5   86.40    1.81
   1   4  -5   86.38    1.77
  -1  -4   5   85.28    1.78
  -1  -4   5   88.70    1.94
  -1  -4   5   87.21    1.82
  -1  -4   5   84.80    1.81
   0   4  -5   15.50    0.37
   0   4  -5   15.35    0.38
   0   4  -5   15.91    0.38
   0  -4   5   15.18    0.37
   0  -4   5   15.34    0.38
   0  -4   5   15.33    0.38
   0  -4   5   15.67    0.41
  -1   4  -5    0.24    0.05
  -1   4  -5    0.14    0.03
  -1   4  -5    0.16    0.03
   1  -4   5    0.18    0.04
   1  -4   5    0.15    0.04
   1  -4   5    0.13    0.04
  -2   4  -5   12.93    0.32
  -2   4  -5   13.10    0.34
  -2   4  -5   12.38    0.47
  -2   4  -5   13.04    0.33
  -2   4  -5   13.41    0.36
   2  -4   5   13.18    0.32
   2  -4   5   13.20    0.36
  -3   4  -5   20.65    0.50
  -3   4  -5   21.09    0.50
  -3   4  -5   21.36    0.72
  -3   4  -5   20.47    0.53
  -3   4  -5   20.94    0.48
   3  -4   5   20.76    0.52
  -4   4  -5   25.63    0.61
  -4   4  -5   25.92    0.58
  -4   4  -5   25.40    0.64
  -4   4  -5   25.68    0.60
  -4   4  -5   25.89    0.89
   4  -4   5   25.11    0.62
  -5   4  -5   39.65    0.87
  -5   4  -5   40.62    1.31
  -5   4  -5   40.20    0.91
   5  -4   5   38.37    0.91
  -6   4  -5   33.52    0.76
  -6   4  -5   33.74    1.16
  -6   4  -5   33.68    0.81
  -6   4  -5   33.42    0.86
  -7   4  -5    3.64    0.21
  -7   4  -5    3.64    0.17
  -7   4  -5    4.16    0.33
  -7   4  -5    4.18    0.21
  -8   4  -5    2.05    0.16
  -8   4  -5    2.07    0.28
  -8   4  -5    1.79    0.15
  -8   4  -5    1.55    0.16
  -7  -3   5    2.50    0.17
  -7  -3   5    2.30    0.18
  -7  -3   5    2.61    0.16
  -6  -3   5    0.06    0.06
  -6  -3   5    0.02    0.05
  -6  -3   5    0.02    0.06
  -5  -3   5   12.59    0.44
  -5  -3   5   13.00    0.38
  -5  -3   5   12.75    0.34
  -5  -3   5   12.40    0.34
   4   3  -5   16.40    0.39
  -4  -3   5   16.47    0.44
  -4  -3   5   16.73    0.40
  -4  -3   5   16.09    0.41
  -4  -3   5   16.08    0.41
  -3  -3   5   78.57    1.63
  -3  -3   5   78.47    1.65
  -3  -3   5   78.44    1.66
  -3  -3   5   80.19    1.77
   2   3  -5   92.55    2.58
   2   3  -5   94.20    1.93
  -2  -3   5   93.23    1.94
  -2  -3   5   94.72    2.07
  -2  -3   5   93.47    1.90
  -2  -3   5   91.31    1.93
   1   3  -5  167.34    3.36
   1   3  -5  167.95    3.43
   1   3  -5  168.16    3.42
  -1  -3   5  166.62    3.66
  -1  -3   5  169.31    3.37
  -1  -3   5  169.93    3.43
  -1  -3   5  164.46    3.42
   0   3  -5   15.59    0.37
   0   3  -5   15.83    0.36
   0   3  -5   15.54    0.37
   0   3  -5   16.06    0.40
   0  -3   5   15.33    0.36
   0  -3   5   15.66    0.50
   0  -3   5   14.99    0.40
   0  -3   5   15.21    0.37
   0  -3   5   15.45    0.37
  -1   3  -5   20.26    0.47
  -1   3  -5   20.98    0.47
  -1   3  -5   19.60    0.45
  -1   3  -5   19.65    0.50
   1  -3   5   20.23    0.50
   1  -3   5   20.67    0.67
   1  -3   5   20.50    0.46
  -2   3  -5    0.92    0.07
  -2   3  -5    0.99    0.12
  -2   3  -5    0.85    0.07
  -2   3  -5    1.05    0.08
   2  -3   5    0.87    0.06
   2  -3   5    0.94    0.07
  -3   3  -5    6.11    0.20
  -3   3  -5    6.36    0.30
  -3   3  -5    5.77    0.20
  -3   3  -5    6.13    0.18
  -3   3  -5    6.41    0.22
   3  -3   5    6.01    0.19
  -4   3  -5   23.48    0.81
  -4   3  -5   23.75    0.54
  -4   3  -5   23.16    0.61
  -4   3  -5   24.13    0.56
  -4   3  -5   22.85    0.59
   4  -3   5   23.59    0.57
  -5   3  -5   17.48    0.49
  -5   3  -5   17.88    0.46
  -5   3  -5   17.42    0.43
  -5   3  -5   17.74    0.67
  -5   3  -5   18.16    0.50
   5  -3   5   16.07    0.43
  -6   3  -5   18.62    0.72
  -6   3  -5   18.34    0.50
  -6   3  -5   18.17    0.52
  -6   3  -5   18.04    0.46
  -7   3  -5   10.20    0.33
  -7   3  -5   11.27    0.36
  -7   3  -5   10.86    0.53
  -7   3  -5   10.39    0.37
  -8   3  -5    6.29    0.42
  -8   3  -5    5.64    0.27
  -8   3  -5    5.88    0.27
  -8   3  -5    5.57    0.25
  -8  -2   5    2.73    0.18
  -8  -2   5    2.76    0.16
  -8  -2   5    2.95    0.17
  -7  -2   5    4.85    0.19
  -7  -2   5    5.31    0.22
  -7  -2   5    5.14    0.20
  -6  -2   5    0.13    0.07
  -6  -2   5    0.00    0.05
  -6  -2   5    0.05    0.04
  -5  -2   5    0.31    0.05
  -5  -2   5    0.36    0.06
  -5  -2   5    0.29    0.06
  -5  -2   5    0.35    0.05
  -5  -2   5    0.43    0.09
   4   2  -5   16.42    0.36
  -4  -2   5   16.19    0.52
  -4  -2   5   16.17    0.38
  -4  -2   5   15.88    0.42
  -4  -2   5   15.59    0.38
  -4  -2   5   16.37    0.39
   3   2  -5   23.38    0.72
   3   2  -5   23.36    0.52
  -3  -2   5   22.92    0.52
  -3  -2   5   23.72    0.57
  -3  -2   5   23.40    0.52
  -3  -2   5   24.22    0.53
   2   2  -5   95.35    2.16
   2   2  -5  107.09    2.91
   2   2  -5  107.36    2.16
  -2  -2   5  108.29    2.17
  -2  -2   5  105.35    2.16
  -2  -2   5  107.06    2.12
  -2  -2   5  105.95    2.31
   1   2  -5   36.42    0.78
   1   2  -5   36.67    0.83
   1   2  -5   36.95    0.76
   1   2  -5   36.31    0.78
  -1  -2   5   36.19    0.79
  -1  -2   5   36.82    0.78
  -1  -2   5   36.63    0.77
  -1  -2   5   35.76    0.84
   0   2  -5  409.06    8.21
   0   2  -5  403.08    8.20
   0   2  -5  401.22    8.73
   0   2  -5  397.11    7.99
   0  -2   5  384.85   11.29
   0  -2   5  392.68    8.72
   0  -2   5  392.52    8.02
   0  -2   5  395.71    8.17
  -1   2  -5  106.26    3.30
  -1   2  -5  115.69    2.33
  -1   2  -5  113.85    2.53
  -1   2  -5  114.14    2.37
   1  -2   5  117.92    2.54
   1  -2   5  122.78    3.33
   1  -2   5  116.99    2.37
   1  -2   5  115.29    2.53
   1  -2   5  116.42    2.33
  -2   2  -5   25.03    0.80
  -2   2  -5   25.03    0.54
  -2   2  -5   23.41    0.59
  -2   2  -5   24.84    0.56
  -2   2  -5   24.04    0.60
   2  -2   5   25.25    0.53
   2  -2   5   24.66    0.59
   2  -2   5   25.37    0.55
   2  -2   5   22.12    0.79
  -3   2  -5    7.96    0.24
  -3   2  -5    8.28    0.22
  -3   2  -5    7.92    0.26
  -3   2  -5    7.92    0.24
  -3   2  -5    7.89    0.34
   3  -2   5    8.18    0.24
  -4   2  -5    4.99    0.17
  -4   2  -5    5.18    0.21
  -4   2  -5    5.26    0.19
  -4   2  -5    5.10    0.28
  -4   2  -5    4.98    0.19
   4  -2   5    5.23    0.17
  -5   2  -5    9.94    0.32
  -5   2  -5    9.59    0.32
  -5   2  -5    9.92    0.44
  -5   2  -5    9.59    0.28
  -5   2  -5    9.74    0.31
   5  -2   5    9.77    0.27
  -6   2  -5    4.36    0.20
  -6   2  -5    4.21    0.30
  -6   2  -5    4.48    0.19
  -6   2  -5    4.53    0.22
  -7   2  -5   14.35    0.46
  -7   2  -5   13.81    0.42
  -7   2  -5   14.42    0.64
  -7   2  -5   13.96    0.41
  -8   2  -5    3.12    0.33
  -8   2  -5    2.50    0.20
  -8   2  -5    2.54    0.18
  -8  -1   5    5.94    0.21
  -8  -1   5    5.81    0.22
  -8  -1   5    6.07    0.21
  -7  -1   5   15.80    0.39
  -7  -1   5   15.75    0.39
  -7  -1   5   15.71    0.42
  -6  -1   5    7.57    0.24
  -6  -1   5    7.75    0.22
  -6  -1   5    7.71    0.21
  -5  -1   5    1.07    0.08
  -5  -1   5    1.14    0.07
  -5  -1   5    0.96    0.08
  -5  -1   5    1.06    0.12
  -4  -1   5   -0.03    0.03
  -4  -1   5    0.01    0.03
  -4  -1   5    0.00    0.05
  -4  -1   5    0.02    0.02
  -4  -1   5    0.02    0.03
   3   1  -5   32.47    0.68
   3   1  -5   33.28    0.68
   3   1  -5   33.37    0.73
   3   1  -5   32.19    0.96
  -3  -1   5   32.34    0.70
  -3  -1   5   32.06    0.68
  -3  -1   5   32.70    0.94
  -3  -1   5   31.51    0.69
  -3  -1   5   31.86    0.74
   2   1  -5   44.80    0.92
   2   1  -5   44.59    1.27
   2   1  -5   44.53    0.93
   2   1  -5   44.37    0.99
  -2  -1   5   44.35    0.94
  -2  -1   5   43.77    1.00
  -2  -1   5   45.05    0.92
  -2  -1   5   44.14    0.93
   1   1  -5  109.56    2.44
   1   1  -5  113.20    2.29
   1   1  -5  111.44    2.30
   1   1  -5  113.95    2.25
  -1  -1   5  111.13    2.45
  -1  -1   5  113.01    2.26
  -1  -1   5  112.93    2.30
   0   1  -5  117.61    2.53
   0   1  -5  119.59    2.38
   0   1  -5  113.10    2.33
   0   1  -5  105.50    3.28
   0  -1   5  118.60    2.53
   0  -1   5  118.60    2.33
   0  -1   5  116.89    3.29
   0  -1   5  117.04    2.54
   0  -1   5  115.11    2.38
  -1   1  -5  188.61    3.78
  -1   1  -5  184.69    5.30
  -1   1  -5  183.56    4.06
  -1   1  -5  194.53    3.82
  -1   1  -5  180.52    4.07
   1  -1   5  188.22    4.08
   1  -1   5  174.16    5.29
   1  -1   5  193.95    3.79
   1  -1   5  187.74    4.13
   1  -1   5  193.69    3.82
  -2   1  -5  145.31    3.22
  -2   1  -5  144.35    3.23
  -2   1  -5  148.68    2.95
  -2   1  -5  143.61    3.02
  -2   1  -5  145.73    4.19
   2  -1   5  150.95    2.95
   2  -1   5  148.53    3.02
   2  -1   5  148.24    3.21
   2  -1   5  146.28    4.20
  -3   1  -5   63.49    1.45
  -3   1  -5   62.85    1.32
  -3   1  -5   64.10    1.45
  -3   1  -5   62.28    1.88
  -3   1  -5   63.97    1.37
   3  -1   5   63.01    1.43
  -4   1  -5    2.44    0.19
  -4   1  -5    2.62    0.12
  -4   1  -5    2.58    0.14
  -4   1  -5    2.48    0.13
  -4   1  -5    2.55    0.14
   4  -1   5    2.58    0.12
  -5   1  -5    0.54    0.08
  -5   1  -5    0.43    0.08
  -5   1  -5    0.31    0.10
  -5   1  -5    0.44    0.06
  -5   1  -5    0.45    0.08
   5  -1   5    0.39    0.05
   5  -1   5    0.31    0.05
  -6   1  -5    5.61    0.24
  -6   1  -5    6.53    0.26
  -6   1  -5    6.30    0.37
  -7   1  -5    2.78    0.29
  -7   1  -5    2.69    0.20
  -7   1  -5    2.71    0.18
  -8   0   5    5.85    0.18
  -8   0   5    5.47    0.19
  -8   0   5    5.67    0.18
  -7   0   5   14.43    0.34
  -7   0   5   14.09    0.37
  -7   0   5   14.70    0.35
  -6   0   5   25.77    0.56
  -6   0   5   25.34    0.60
  -6   0   5   25.68    0.56
  -6   0   5   25.56    0.55
  -5   0   5   30.94    0.66
  -5   0   5   31.27    0.97
  -5   0   5   31.55    0.71
  -5   0   5   30.93    0.64
  -5   0   5   31.22    0.67
  -4   0   5   18.68    0.44
  -4   0   5   18.77    0.42
  -4   0   5   19.35    0.61
  -4   0   5   18.85    0.41
  -4   0   5   19.50    0.40
   3   0  -5   18.15    0.59
  -3   0   5   18.94    0.41
  -3   0   5   18.90    0.44
  -3   0   5   18.27    0.40
  -3   0   5   19.00    0.58
  -3   0   5   18.76    0.40
   2   0  -5    4.65    0.19
   2   0  -5    4.35    0.13
   2   0  -5    4.35    0.12
   2   0  -5    4.61    0.11
  -2   0   5    4.61    0.14
  -2   0   5    4.67    0.13
  -2   0   5    4.40    0.12
   1   0  -5  127.25    2.65
   1   0  -5  125.56    2.82
  -1   0   5  132.31    2.82
  -1   0   5  134.29    2.60
  -1   0   5  127.49    2.82
  -1   0   5  129.61    2.65
  -1   0   5  130.33    3.64
   0   0  -5   72.86    2.09
   0   0  -5   73.93    1.62
   0   0  -5   72.45    1.62
   0   0  -5   73.33    1.52
   0   0   5   74.10    1.63
   0   0   5   72.70    1.53
   0   0   5   72.24    1.49
   0   0   5   73.67    2.10
   0   0   5   71.63    1.62
  -1   0  -5  130.40    2.85
  -1   0  -5  135.15    2.62
  -1   0  -5  127.67    2.67
  -1   0  -5  135.29    3.69
  -1   0  -5  132.77    2.85
   1   0   5  127.75    2.61
   1   0   5  121.80    2.84
   1   0   5  131.84    2.67
   1   0   5  126.04    3.69
   1   0   5  127.14    2.85
  -2   0  -5   75.29    1.60
  -2   0  -5   76.64    1.56
  -2   0  -5   74.67    1.70
  -2   0  -5   75.38    1.69
  -2   0  -5   73.65    2.19
   2   0   5   74.51    1.55
   2   0   5   74.78    1.70
   2   0   5   77.32    1.54
   2   0   5   77.12    1.60
  -3   0  -5   44.44    1.04
  -3   0  -5   45.99    1.36
  -3   0  -5   43.06    0.98
  -3   0  -5   44.75    1.04
   3   0   5   43.33    1.04
  -4   0  -5   35.74    1.12
  -4   0  -5   34.78    0.84
  -4   0  -5   34.43    0.85
  -4   0  -5   34.29    0.80
   4   0   5   33.82    0.83
  -5   0  -5    3.16    0.25
  -5   0  -5    3.06    0.16
  -5   0  -5    3.10    0.17
   5   0   5    3.27    0.14
   5   0   5    3.20    0.14
  -6   0  -5    0.10    0.11
  -6   0  -5    0.10    0.06
  -6   0  -5    0.07    0.07
  -7   0  -5    0.96    0.13
  -7   0  -5    1.10    0.12
  -7   0  -5    1.17    0.21
  -8   1   5    4.11    0.13
  -8   1   5    4.13    0.13
  -8   1   5    3.81    0.14
  -7   1   5   12.49    0.31
  -7   1   5   12.81    0.28
  -7   1   5   12.88    0.29
  -6   1   5   32.33    0.67
  -6   1   5   31.50    0.66
  -6   1   5   31.59    0.71
  -5   1   5   46.13    1.02
  -5   1   5   46.21    0.95
  -5   1   5   46.67    0.96
  -5   1   5   46.99    1.39
   4  -1  -5   48.42    1.47
  -4   1   5   49.50    1.46
  -4   1   5   50.19    1.10
  -4   1   5   52.06    1.03
  -4   1   5   49.73    1.02
   3  -1  -5  172.37    4.72
  -3   1   5  167.54    3.72
  -3   1   5  173.83    4.70
  -3   1   5  168.60    3.48
   2  -1  -5    5.56    0.14
   2  -1  -5    5.30    0.22
   2  -1  -5    5.74    0.14
  -2   1   5    5.37    0.16
  -2   1   5    5.70    0.16
  -2   1   5    5.52    0.15
   1  -1  -5    2.84    0.11
   1  -1  -5    2.75    0.09
  -1   1   5    2.85    0.10
  -1   1   5    2.82    0.10
  -1   1   5    2.89    0.12
  -1   1   5    2.68    0.11
   0  -1  -5   74.12    1.70
   0  -1  -5   80.50    2.19
   0  -1  -5   76.08    1.70
   0  -1  -5   75.36    1.59
   0   1   5   76.20    2.19
   0   1   5   77.51    1.70
   0   1   5   77.60    1.59
   0   1   5   75.42    1.70
  -1  -1  -5   59.68    1.75
  -1  -1  -5   60.67    1.28
  -1  -1  -5   58.63    1.36
  -1  -1  -5   57.83    1.36
   1   1   5   60.74    1.36
   1   1   5   62.53    1.26
   1   1   5   60.59    1.25
   1   1   5   63.40    1.37
   1   1   5   60.58    1.28
  -2  -1  -5  146.56    4.17
  -2  -1  -5  139.45    3.02
  -2  -1  -5  142.37    3.22
  -2  -1  -5  144.69    3.21
   2   1   5  151.18    2.96
   2   1   5  147.92    2.94
   2   1   5  146.04    3.23
   2   1   5  153.11    3.03
  -3  -1  -5   27.75    0.89
  -3  -1  -5   26.86    0.65
  -3  -1  -5   26.84    0.67
   3   1   5   27.47    0.63
   3   1   5   28.34    0.69
  -4  -1  -5   95.57    2.78
  -4  -1  -5   93.28    2.11
  -4  -1  -5   93.32    2.00
   4   1   5   94.69    2.12
   4   1   5   92.46    1.96
  -5  -1  -5   16.02    0.62
  -5  -1  -5   15.41    0.43
  -5  -1  -5   15.05    0.45
   5   1   5   14.23    0.43
  -6  -1  -5    2.16    0.16
  -6  -1  -5    2.32    0.18
  -6  -1  -5    2.51    0.27
  -7  -1  -5    0.33    0.09
  -7  -1  -5    0.34    0.15
  -7  -1  -5    0.29    0.09
  -9   2   5    0.27    0.15
  -9   2   5    0.15    0.03
  -8   2   5    3.79    0.30
   4  -2  -5   70.75    2.10
  -4   2   5   73.03    1.58
  -4   2   5   73.18    1.48
  -4   2   5   73.91    2.08
   3  -2  -5   74.75    2.18
  -3   2   5   74.40    1.68
  -3   2   5   78.30    1.57
  -3   2   5   80.11    2.17
   2  -2  -5   12.86    0.32
   2  -2  -5   13.46    0.44
   2  -2  -5   13.64    0.30
  -2   2   5   13.17    0.39
  -2   2   5   13.67    0.33
  -2   2   5   13.40    0.30
   1  -2  -5    3.19    0.10
   1  -2  -5    3.30    0.11
   1  -2  -5    2.61    0.10
  -1   2   5    3.09    0.10
  -1   2   5    3.17    0.11
   0  -2  -5    0.53    0.06
   0  -2  -5    0.51    0.05
   0  -2  -5    0.46    0.05
   0   2   5    0.48    0.05
   0   2   5    0.50    0.05
  -1  -2  -5   59.15    1.24
  -1  -2  -5   57.81    1.69
  -1  -2  -5   57.02    1.31
   1   2   5   57.41    1.24
   1   2   5   59.38    1.21
  -2  -2  -5   29.84    0.96
  -2  -2  -5   31.43    0.68
  -2  -2  -5   30.49    0.70
  -2  -2  -5   30.07    0.74
   2   2   5   30.84    0.75
   2   2   5   31.53    0.67
   2   2   5   30.20    0.69
   2   2   5   31.09    0.69
  -3  -2  -5   95.24    2.18
  -3  -2  -5   99.12    2.00
  -3  -2  -5   96.22    2.05
  -3  -2  -5   99.06    2.85
   3   2   5   97.30    2.19
   3   2   5   95.87    2.03
  -4  -2  -5    2.07    0.12
  -4  -2  -5    1.99    0.14
  -4  -2  -5    1.93    0.20
  -4  -2  -5    1.90    0.14
   4   2   5    1.94    0.14
   4   2   5    1.86    0.12
  -5  -2  -5   28.79    1.00
  -5  -2  -5   28.28    0.74
  -5  -2  -5   28.12    0.71
  -5  -2  -5   28.30    0.67
  -6  -2  -5    4.26    0.24
  -6  -2  -5    3.76    0.21
  -6  -2  -5    4.06    0.34
  -7  -2  -5    1.42    0.16
  -7  -2  -5    1.23    0.24
  -7  -2  -5    1.50    0.15
  -9   3   5    2.57    0.28
  -8   3   5    2.38    0.25
  -7   3   5    1.07    0.16
  -6   3   5   19.58    0.68
  -5   3   5   30.08    0.66
   4  -3  -5   68.28    2.06
  -4   3   5   73.16    1.46
  -4   3   5   70.69    1.56
  -4   3   5   73.11    2.05
   3  -3  -5   68.56    1.37
   3  -3  -5   66.07    1.95
  -3   3   5   67.91    1.93
  -3   3   5   66.84    1.49
  -3   3   5   68.82    1.40
  -3   3   5   68.58    1.92
   2  -3  -5  210.44    5.67
   2  -3  -5  187.59    4.21
   2  -3  -5  208.49    4.45
  -2   3   5  210.93    4.17
  -2   3   5  212.20    4.15
  -2   3   5  205.24    4.46
   1  -3  -5   57.76    1.61
   1  -3  -5   57.34    1.20
   1  -3  -5   55.64    1.28
  -1   3   5   58.07    1.18
  -1   3   5   57.55    1.20
  -1   3   5   56.20    1.28
   0  -3  -5   39.24    1.15
   0  -3  -5   39.36    0.91
   0  -3  -5   40.08    0.86
   0   3   5   39.83    0.86
   0   3   5   39.01    0.84
   0   3   5   39.01    0.92
  -1  -3  -5    4.51    0.17
  -1  -3  -5    4.67    0.17
  -1  -3  -5    4.83    0.16
   1   3   5    4.54    0.17
   1   3   5    4.71    0.16
   1   3   5    4.58    0.17
   1   3   5    4.53    0.15
  -2  -3  -5   14.94    0.39
  -2  -3  -5   13.07    0.36
  -2  -3  -5   12.96    0.34
   2   3   5   13.21    0.35
   2   3   5   13.09    0.34
   2   3   5   12.80    0.37
  -3  -3  -5   20.57    0.50
  -3  -3  -5   20.48    0.52
  -3  -3  -5   20.42    0.55
   3   3   5   20.04    0.51
   3   3   5   20.74    0.55
  -4  -3  -5   36.21    0.85
  -4  -3  -5   35.46    0.89
  -4  -3  -5   36.07    0.81
   4   3   5   34.94    0.82
   4   3   5   35.71    0.90
  -5  -3  -5    9.68    0.34
  -5  -3  -5   10.00    0.36
  -5  -3  -5    9.67    0.48
  -5  -3  -5    9.28    0.30
  -6  -3  -5   13.33    0.44
  -6  -3  -5   14.06    0.47
  -6  -3  -5   13.47    0.64
  -9   4   5    1.97    0.25
  -8   4   5    0.70    0.15
  -7   4   5    1.24    0.17
  -6   4   5    0.11    0.07
  -5   4   5   45.34    0.94
  -5   4   5   44.22    1.00
  -5   4   5   45.62    1.35
  -5   4   5   45.32    0.94
   4  -4  -5   31.99    1.04
  -4   4   5   34.58    1.02
  -4   4   5   33.93    0.71
  -4   4   5   33.33    0.71
  -4   4   5   32.19    0.98
  -4   4   5   34.54    0.70
  -4   4   5   32.55    0.76
   3  -4  -5   88.37    2.50
   3  -4  -5   87.12    1.79
  -3   4   5   88.32    1.78
  -3   4   5   88.76    1.81
  -3   4   5   84.50    1.93
  -3   4   5   89.86    2.47
  -3   4   5   86.72    1.81
   2  -4  -5   65.68    1.82
   2  -4  -5   63.62    1.42
   2  -4  -5   58.45    1.33
  -2   4   5   65.63    1.32
  -2   4   5   65.95    1.34
  -2   4   5   63.04    1.43
  -2   4   5   63.89    1.34
   1  -4  -5   94.80    2.59
   1  -4  -5   92.47    1.92
   1  -4  -5   92.09    2.05
  -1   4   5   92.19    1.93
  -1   4   5   90.10    1.92
  -1   4   5   93.74    1.89
  -1   4   5   91.23    2.05
   0  -4  -5    3.20    0.14
   0  -4  -5    3.22    0.13
   0   4   5    3.19    0.14
   0   4   5    3.24    0.13
   0   4   5    3.45    0.13
  -1  -4  -5    3.59    0.15
  -1  -4  -5    3.68    0.16
  -1  -4  -5    3.36    0.14
   1   4   5    3.57    0.14
   1   4   5    3.74    0.16
  -2  -4  -5    3.19    0.17
  -2  -4  -5    3.37    0.16
  -2  -4  -5    3.46    0.15
   2   4   5    3.25    0.16
   2   4   5    3.27    0.17
  -3  -4  -5    0.21    0.06
  -3  -4  -5    0.22    0.07
  -3  -4  -5    0.16    0.05
   3   4   5    0.30    0.07
   3   4   5    0.19    0.06
  -4  -4  -5    8.15    0.30
  -4  -4  -5    8.19    0.31
  -4  -4  -5    7.69    0.27
   4   4   5    7.68    0.30
  -5  -4  -5    7.38    0.32
  -5  -4  -5    7.27    0.30
  -6  -4  -5    7.16    0.32
  -6  -4  -5    7.13    0.34
  -6  -4  -5    7.39    0.46
  -8   5   5    5.29    0.14
  -8   5   5    5.61    0.33
  -7   5   5    2.32    0.09
  -7   5   5    2.38    0.20
  -7   5   5    2.39    0.08
  -6   5   5    8.66    0.22
  -6   5   5    8.98    0.36
  -6   5   5    8.89    0.23
  -6   5   5    9.15    0.22
  -5   5   5   25.23    0.55
  -5   5   5   24.88    0.54
  -5   5   5   25.41    0.78
  -5   5   5   24.34    0.59
  -5   5   5   25.04    0.56
   4  -5  -5   39.24    0.79
  -4   5   5   39.09    0.84
  -4   5   5   37.39    0.88
  -4   5   5   37.13    0.82
  -4   5   5   39.07    1.16
  -4   5   5   37.91    0.81
   3  -5  -5   29.97    0.70
   3  -5  -5   30.47    0.94
   3  -5  -5   30.89    0.66
  -3   5   5   30.32    0.66
  -3   5   5   30.20    0.68
  -3   5   5   29.88    0.72
  -3   5   5   29.77    0.67
   2  -5  -5   72.06    1.63
   2  -5  -5   72.31    1.53
   2  -5  -5   72.82    2.08
  -2   5   5   74.16    1.55
  -2   5   5   72.57    1.64
  -2   5   5   72.48    1.54
  -2   5   5   74.72    1.51
   1  -5  -5   60.98    1.72
   1  -5  -5   60.49    1.29
   1  -5  -5   60.29    1.37
  -1   5   5   58.94    1.27
  -1   5   5   59.34    1.30
  -1   5   5   61.21    1.29
   0  -5  -5   70.12    1.42
   0  -5  -5   69.00    1.56
   0  -5  -5   67.24    1.46
   0   5   5   65.09    1.43
   0   5   5   68.30    1.47
  -1  -5  -5   59.72    1.31
  -1  -5  -5   61.60    1.40
   1   5   5   59.40    1.31
   1   5   5   58.68    1.28
  -2  -5  -5    9.95    0.34
  -2  -5  -5    9.99    0.30
  -2  -5  -5   10.00    0.32
   2   5   5    9.78    0.32
   2   5   5   10.21    0.33
  -3  -5  -5    0.11    0.07
  -3  -5  -5    0.09    0.08
   3   5   5    0.06    0.06
   3   5   5    0.04    0.06
  -4  -5  -5    0.02    0.08
  -4  -5  -5    0.06    0.07
   4   5   5    0.03    0.08
  -5  -5  -5    2.75    0.22
  -5  -5  -5    2.62    0.23
  -8   6   5    6.36    0.18
  -8   6   5    6.77    0.19
  -7   6   5    8.82    0.24
  -7   6   5    8.83    0.23
  -6   6   5    5.66    0.25
  -6   6   5    5.45    0.18
  -6   6   5    5.24    0.17
  -5   6   5    1.14    0.08
  -5   6   5    0.95    0.08
  -5   6   5    1.03    0.09
  -5   6   5    0.94    0.08
   4  -6  -5    7.03    0.20
   4  -6  -5    6.96    0.18
  -4   6   5    6.68    0.20
  -4   6   5    6.85    0.21
  -4   6   5    6.70    0.22
  -4   6   5    6.84    0.22
   3  -6  -5    5.26    0.26
   3  -6  -5    5.23    0.18
  -3   6   5    5.19    0.19
  -3   6   5    5.48    0.18
  -3   6   5    5.06    0.18
  -3   6   5    5.05    0.19
   2  -6  -5   18.62    0.62
   2  -6  -5   19.27    0.46
   2  -6  -5   18.99    0.49
  -2   6   5   18.84    0.47
  -2   6   5   18.48    0.46
  -2   6   5   19.41    0.48
   1  -6  -5   37.12    0.90
   1  -6  -5   36.09    1.10
   1  -6  -5   39.72    0.83
   1  -6  -5   37.37    0.85
  -1   6   5   37.44    0.85
  -1   6   5   36.62    0.86
  -1   6   5   37.08    0.83
   0  -6  -5   51.31    1.50
   0  -6  -5   53.21    1.16
   0  -6  -5   53.38    1.24
   0  -6  -5   53.03    1.13
   0   6   5   50.91    1.14
   0   6   5   52.51    1.17
  -1  -6  -5   17.43    0.51
  -1  -6  -5   18.29    0.49
   1   6   5   18.07    0.49
  -2  -6  -5    5.18    0.23
  -2  -6  -5    5.24    0.25
   2   6   5    4.91    0.23
  -3  -6  -5    7.59    0.30
  -3  -6  -5    7.86    0.32
   3   6   5    7.29    0.30
  -4  -6  -5    0.50    0.12
  -4  -6  -5    0.40    0.11
  -8   7   5    4.16    0.16
  -8   7   5    4.29    0.15
  -7   7   5    7.30    0.22
  -7   7   5    7.34    0.23
  -6   7   5    5.23    0.19
  -6   7   5    5.47    0.19
  -5   7   5   19.61    0.48
  -5   7   5   19.80    0.49
  -4   7   5   13.55    0.37
  -4   7   5   13.09    0.36
   3  -7  -5    0.59    0.07
   3  -7  -5    0.66    0.07
  -3   7   5    0.62    0.08
  -3   7   5    0.48    0.07
   2  -7  -5    0.07    0.06
   2  -7  -5    0.02    0.05
   2  -7  -5    0.02    0.05
  -2   7   5    0.03    0.06
  -2   7   5   -0.02    0.05
  -2   7   5    0.02    0.05
   1  -7  -5    8.10    0.27
   1  -7  -5    8.39    0.29
   1  -7  -5    7.79    0.31
  -1   7   5    8.03    0.29
   0  -7  -5   18.61    0.49
   0  -7  -5   18.68    0.53
   0  -7  -5   17.26    0.57
   0   7   5   18.43    0.51
  -1  -7  -5   13.38    0.41
  -1  -7  -5   13.70    0.44
   1   7   5   13.45    0.42
  -2  -7  -5   25.33    0.67
  -2  -7  -5   25.66    0.71
   2   7   5   24.72    0.67
  -3  -7  -5    7.06    0.33
  -3  -7  -5    6.82    0.31
   3   7   5    6.66    0.31
  -4  -7  -5    1.67    0.17
  -4  -7  -5    2.78    0.24
  -7   8   5    8.79    0.27
  -7   8   5    8.88    0.28
  -6   8   5    6.20    0.23
  -6   8   5    6.06    0.22
  -5   8   5   11.41    0.34
  -5   8   5   11.98    0.35
  -4   8   5    3.78    0.18
  -4   8   5    3.61    0.19
   3  -8  -5    5.53    0.22
  -3   8   5    5.65    0.24
  -3   8   5    5.51    0.23
   2  -8  -5   -0.03    0.06
   2  -8  -5   -0.09    0.05
  -2   8   5    0.02    0.07
   1  -8  -5   -0.04    0.06
   1  -8  -5    0.00    0.06
   1  -8  -5    0.01    0.05
  -1   8   5   -0.02    0.07
   0  -8  -5    1.93    0.17
   0  -8  -5    1.95    0.18
   0   8   5    1.95    0.18
  -1  -8  -5    7.93    0.33
  -1  -8  -5    7.58    0.31
   1   8   5    7.92    0.32
  -2  -8  -5    6.20    0.30
  -2  -8  -5    5.25    0.28
  -3  -8  -5    4.11    0.26
  -3  -8  -5    4.37    0.28
  -7   9   5    0.01    0.06
  -7   9   5    0.00    0.05
  -6   9   5    8.82    0.31
  -6   9   5    8.68    0.31
  -5   9   5    3.57    0.20
  -4   9   5   12.55    0.40
  -3   9   5    7.43    0.30
   2  -9  -5    6.61    0.27
  -2   9   5    6.28    0.28
   1  -9  -5    1.17    0.14
  -1   9   5    1.02    0.14
   0  -9  -5   -0.08    0.08
   0  -9  -5   -0.05    0.08
   0   9   5   -0.14    0.07
  -1  -9  -5    2.19    0.21
  -1  -9  -5    2.36    0.22
   1   9   5    2.11    0.21
  -5  10   5    2.30    0.19
  -4  10   5    4.34    0.25
  -3  10   5    6.62    0.30
  -2  10   5    4.57    0.26
   1 -10  -5    0.97    0.13
  -1  10   5    0.96    0.14
   0 -10  -5    0.87    0.14
   0  10   5    0.80    0.14
   0  10  -6    2.97    0.24
   0 -10   6    2.97    0.22
   0 -10   6    3.30    0.25
  -1  10  -6    7.53    0.33
   1 -10   6    7.44    0.34
  -2  10  -6    7.97    0.34
   2 -10   6    8.03    0.34
  -3  10  -6    2.18    0.21
  -4  10  -6    6.47    0.31
  -2  -9   6    0.17    0.10
  -2  -9   6    0.16    0.10
  -1  -9   6    0.30    0.10
  -1  -9   6    0.26    0.10
   0   9  -6    3.73    0.23
   0  -9   6    4.32    0.26
   0  -9   6    3.73    0.23
  -1   9  -6    6.79    0.29
   1  -9   6    6.49    0.30
   1  -9   6    6.93    0.28
  -2   9  -6    6.39    0.28
   2  -9   6    6.56    0.29
  -3   9  -6   12.44    0.41
   3  -9   6   12.73    0.43
  -4   9  -6    2.09    0.19
  -5   9  -6    3.84    0.23
  -3  -8   6    3.55    0.23
  -3  -8   6    4.01    0.26
  -2  -8   6    6.65    0.29
  -2  -8   6    6.83    0.32
   1   8  -6    1.47    0.14
  -1  -8   6    1.83    0.18
  -1  -8   6    2.22    0.21
   0   8  -6    0.02    0.08
   0  -8   6    0.03    0.08
   0  -8   6    0.02    0.07
  -1   8  -6   -0.11    0.06
   1  -8   6    0.00    0.07
   1  -8   6   -0.01    0.06
  -2   8  -6   23.92    0.63
   2  -8   6   23.82    0.66
  -3   8  -6   15.58    0.46
   3  -8   6   15.57    0.47
  -4   8  -6   17.87    0.51
  -5   8  -6    6.63    0.37
  -5   8  -6    6.99    0.28
  -6   8  -6    3.42    0.29
  -6   8  -6    3.44    0.21
  -4  -7   6    2.10    0.21
  -4  -7   6    1.90    0.19
  -3  -7   6   14.21    0.44
  -3  -7   6   14.91    0.48
   2   7  -6    7.39    0.28
  -2  -7   6    7.61    0.31
  -2  -7   6    7.85    0.29
   1   7  -6   14.40    0.42
  -1  -7   6   14.22    0.41
  -1  -7   6   14.71    0.46
   0   7  -6    2.01    0.16
   0  -7   6    1.86    0.15
   0  -7   6    2.28    0.17
  -1   7  -6    0.42    0.08
   1  -7   6    0.52    0.09
   1  -7   6    0.42    0.08
  -2   7  -6    2.02    0.15
   2  -7   6    1.82    0.15
  -3   7  -6    5.92    0.24
   3  -7   6    5.98    0.24
  -4   7  -6   12.92    0.39
  -4   7  -6   12.15    0.51
   4  -7   6   12.62    0.38
  -5   7  -6   11.96    0.38
  -5   7  -6   12.11    0.53
  -6   7  -6    6.81    0.28
  -6   7  -6    7.15    0.40
  -7   7  -6    4.22    0.34
  -7   7  -6    3.90    0.22
  -5  -6   6    0.03    0.08
  -5  -6   6    0.04    0.09
  -4  -6   6    8.57    0.32
  -4  -6   6    9.18    0.35
  -3  -6   6   28.17    0.70
  -3  -6   6   30.08    0.77
  -3  -6   6   28.70    0.71
   2   6  -6   30.37    0.73
  -2  -6   6   31.70    0.80
  -2  -6   6   30.72    0.73
  -2  -6   6   29.89    0.72
   1   6  -6   25.12    0.61
  -1  -6   6   24.25    0.60
  -1  -6   6   24.07    0.59
  -1  -6   6   25.08    0.66
   0   6  -6   32.49    0.74
   0   6  -6   32.51    0.77
   0  -6   6   32.83    0.76
   0  -6   6   32.99    0.82
  -1   6  -6    1.99    0.14
  -1   6  -6    2.01    0.12
   1  -6   6    2.09    0.12
   1  -6   6    2.26    0.13
   1  -6   6    2.12    0.14
  -2   6  -6   30.64    0.73
  -2   6  -6   30.69    0.71
   2  -6   6   31.17    0.70
   2  -6   6   30.80    0.77
  -3   6  -6    4.28    0.20
  -3   6  -6    4.45    0.18
  -3   6  -6    4.69    0.18
  -3   6  -6    4.36    0.26
   3  -6   6    4.42    0.19
  -4   6  -6   15.48    0.60
  -4   6  -6   15.93    0.41
  -4   6  -6   16.13    0.44
   4  -6   6   15.01    0.43
  -5   6  -6   15.16    0.62
  -5   6  -6   14.70    0.41
  -5   6  -6   15.51    0.43
  -6   6  -6   11.18    0.34
  -6   6  -6   11.80    0.55
  -6   6  -6   11.15    0.36
  -7   6  -6    6.08    0.27
  -7   6  -6    6.62    0.42
  -6  -5   6    0.92    0.12
  -6  -5   6    0.81    0.13
  -6  -5   6    0.66    0.09
  -5  -5   6    0.33    0.09
  -5  -5   6    0.41    0.08
  -5  -5   6    0.31    0.10
  -4  -5   6   15.20    0.46
  -4  -5   6   14.59    0.41
  -4  -5   6   14.64    0.42
   3   5  -6    8.57    0.27
  -3  -5   6    8.37    0.28
  -3  -5   6    8.50    0.27
  -3  -5   6    9.10    0.31
   2   5  -6   36.24    0.83
  -2  -5   6   35.81    0.82
  -2  -5   6   36.35    0.83
  -2  -5   6   37.14    0.90
  -2  -5   6   35.98    0.84
   1   5  -6   43.88    0.96
   1   5  -6   44.35    1.22
   1   5  -6   42.53    0.97
  -1  -5   6   44.40    1.00
  -1  -5   6   43.39    0.95
  -1  -5   6   43.48    1.04
  -1  -5   6   43.19    0.97
   0   5  -6   57.50    1.21
   0   5  -6   56.39    1.24
   0  -5   6   56.33    1.23
   0  -5   6   57.60    1.33
  -1   5  -6   38.17    0.84
  -1   5  -6   38.30    0.87
   1  -5   6   38.68    0.84
   1  -5   6   38.73    0.93
  -2   5  -6    0.18    0.07
  -2   5  -6    0.16    0.04
  -2   5  -6    0.06    0.04
  -2   5  -6    0.07    0.04
   2  -5   6    0.11    0.05
   2  -5   6    0.08    0.03
  -3   5  -6    6.80    0.22
  -3   5  -6    6.59    0.23
  -3   5  -6    6.92    0.33
  -3   5  -6    6.50    0.23
   3  -5   6    6.61    0.23
  -4   5  -6    0.40    0.07
  -4   5  -6    0.57    0.07
  -4   5  -6    0.45    0.12
  -4   5  -6    0.32    0.05
   4  -5   6    0.41    0.07
  -5   5  -6    6.05    0.36
  -5   5  -6    5.94    0.21
  -5   5  -6    5.74    0.23
  -6   5  -6    7.30    0.42
  -6   5  -6    6.81    0.24
  -6   5  -6    7.50    0.28
  -7   5  -6    4.26    0.36
  -7   5  -6    4.43    0.23
  -7  -4   6    4.64    0.23
  -7  -4   6    4.71    0.25
  -7  -4   6    4.56    0.22
  -6  -4   6    2.17    0.18
  -6  -4   6    2.16    0.16
  -6  -4   6    2.22    0.15
  -5  -4   6    4.70    0.23
  -5  -4   6    4.81    0.20
  -5  -4   6    4.74    0.20
  -4  -4   6    1.93    0.14
  -4  -4   6    2.20    0.13
  -4  -4   6    2.23    0.16
   3   4  -6    2.93    0.13
  -3  -4   6    2.70    0.14
  -3  -4   6    2.85    0.16
  -3  -4   6    2.59    0.14
  -3  -4   6    2.83    0.14
   2   4  -6   26.36    0.78
   2   4  -6   26.93    0.62
  -2  -4   6   26.43    0.61
  -2  -4   6   26.83    0.63
  -2  -4   6   27.18    0.67
  -2  -4   6   26.67    0.62
   1   4  -6   54.19    1.17
   1   4  -6   54.71    1.14
  -1  -4   6   54.03    1.17
  -1  -4   6   53.90    1.16
  -1  -4   6   54.84    1.15
  -1  -4   6   53.13    1.25
   0   4  -6  112.30    2.25
   0   4  -6  110.02    2.30
   0  -4   6  111.54    2.46
   0  -4   6  112.45    2.30
   0  -4   6  107.63    2.29
   0  -4   6  109.65    2.26
  -1   4  -6  129.89    2.66
  -1   4  -6  126.52    2.66
  -1   4  -6  130.02    2.61
   1  -4   6  128.47    2.60
   1  -4   6  127.04    2.84
  -2   4  -6   48.88    1.03
  -2   4  -6   46.33    1.47
  -2   4  -6   49.21    1.06
  -2   4  -6   48.91    1.06
   2  -4   6   49.39    1.03
   2  -4   6   48.36    1.13
  -3   4  -6   19.34    0.68
  -3   4  -6   19.17    0.48
  -3   4  -6   19.05    0.46
  -3   4  -6   19.11    0.48
   3  -4   6   18.67    0.49
  -4   4  -6    1.81    0.11
  -4   4  -6    1.79    0.20
  -4   4  -6    1.70    0.12
   4  -4   6    1.66    0.11
  -5   4  -6    2.47    0.25
  -5   4  -6    2.44    0.16
  -5   4  -6    2.48    0.13
  -5   4  -6    2.33    0.15
   5  -4   6    2.37    0.13
  -6   4  -6    4.07    0.18
  -6   4  -6    4.52    0.33
  -6   4  -6    4.18    0.22
  -6   4  -6    4.26    0.21
  -7   4  -6    6.68    0.29
  -7   4  -6    6.88    0.25
  -7   4  -6    7.23    0.44
  -7   4  -6    7.11    0.28
  -7  -3   6   14.45    0.41
  -7  -3   6   14.83    0.44
  -7  -3   6   14.08    0.40
  -6  -3   6    7.56    0.25
  -6  -3   6    7.62    0.26
  -6  -3   6    7.67    0.28
  -5  -3   6    5.30    0.19
  -5  -3   6    5.21    0.20
  -5  -3   6    5.34    0.22
   4   3  -6    5.96    0.18
  -4  -3   6    5.90    0.20
  -4  -3   6    5.93    0.20
  -4  -3   6    6.04    0.22
  -4  -3   6    6.11    0.20
   3   3  -6    0.35    0.06
  -3  -3   6    0.20    0.04
  -3  -3   6    0.20    0.04
  -3  -3   6    0.17    0.04
  -3  -3   6    0.30    0.06
   2   3  -6    9.84    0.26
   2   3  -6    9.86    0.32
  -2  -3   6    9.48    0.28
  -2  -3   6    9.66    0.26
  -2  -3   6    9.81    0.27
  -2  -3   6    9.50    0.26
   1   3  -6   92.15    1.89
   1   3  -6   92.84    1.84
  -1  -3   6   89.69    1.89
  -1  -3   6   87.39    2.01
  -1  -3   6   91.40    1.85
  -1  -3   6   89.61    1.88
   0   3  -6   10.44    0.27
   0   3  -6   10.34    0.27
   0   3  -6    9.98    0.26
   0  -3   6    9.66    0.26
   0  -3   6   10.16    0.27
   0  -3   6    9.64    0.29
  -1   3  -6  104.27    2.13
  -1   3  -6  104.44    2.18
  -1   3  -6  109.11    2.18
  -1   3  -6   99.90    3.02
   1  -3   6  106.15    2.13
   1  -3   6  102.97    2.32
   1  -3   6  107.39    2.18
  -2   3  -6  104.55    2.10
  -2   3  -6  103.10    2.99
  -2   3  -6  105.86    2.15
  -2   3  -6  100.68    2.28
   2  -3   6  101.18    2.28
   2  -3   6  102.52    2.09
  -3   3  -6   51.98    1.14
  -3   3  -6   53.78    1.62
  -3   3  -6   51.66    1.20
  -3   3  -6   51.69    1.11
  -3   3  -6   52.24    1.23
   3  -3   6   51.92    1.20
  -4   3  -6   31.88    0.81
  -4   3  -6   32.99    0.77
  -4   3  -6   33.67    1.10
  -4   3  -6   33.80    0.74
  -4   3  -6   32.72    0.83
   4  -3   6   33.30    0.79
  -5   3  -6    0.43    0.06
  -5   3  -6    0.55    0.14
  -5   3  -6    0.67    0.09
  -5   3  -6    0.41    0.08
   5  -3   6    0.64    0.07
  -6   3  -6    1.33    0.13
  -6   3  -6    1.33    0.12
  -6   3  -6    1.20    0.19
  -6   3  -6    1.37    0.14
  -7   3  -6    0.15    0.06
  -7   3  -6    0.04    0.07
  -7   3  -6    0.02    0.05
  -7   3  -6    0.07    0.12
  -7  -2   6    0.91    0.09
  -7  -2   6    0.99    0.10
  -7  -2   6    1.08    0.11
  -6  -2   6   48.17    1.04
  -6  -2   6   48.19    1.05
  -6  -2   6   48.37    1.13
  -5  -2   6   29.67    0.68
  -5  -2   6   30.49    0.92
  -5  -2   6   30.85    0.67
  -5  -2   6   30.22    0.73
  -5  -2   6   30.25    0.68
   4   2  -6   36.72    0.76
  -4  -2   6   35.06    0.78
  -4  -2   6   35.78    0.84
  -4  -2   6   34.95    0.76
  -4  -2   6   34.77    0.78
   3   2  -6   13.06    0.44
   3   2  -6   13.18    0.31
  -3  -2   6   12.99    0.32
  -3  -2   6   13.04    0.33
  -3  -2   6   13.17    0.32
  -3  -2   6   13.72    0.35
   2   2  -6    5.17    0.16
   2   2  -6    5.39    0.21
  -2  -2   6    5.29    0.16
  -2  -2   6    5.14    0.17
  -2  -2   6    5.12    0.16
  -2  -2   6    5.22    0.16
   1   2  -6    2.61    0.11
   1   2  -6    2.76    0.10
   1   2  -6    2.76    0.10
  -1  -2   6    2.68    0.10
  -1  -2   6    2.67    0.10
  -1  -2   6    2.68    0.11
  -1  -2   6    2.68    0.13
   0   2  -6   59.42    1.22
   0   2  -6   58.28    1.33
   0   2  -6   59.96    1.25
   0   2  -6   59.62    1.25
   0  -2   6   58.74    1.22
   0  -2   6   59.83    1.72
   0  -2   6   58.26    1.33
   0  -2   6   57.85    1.25
   0  -2   6   59.34    1.33
  -1   2  -6   43.70    0.94
  -1   2  -6   44.66    1.34
  -1   2  -6   43.64    1.02
  -1   2  -6   44.17    0.96
   1  -2   6   45.09    1.03
   1  -2   6   45.07    0.94
   1  -2   6   45.08    0.96
  -2   2  -6  113.12    2.33
  -2   2  -6  113.37    2.54
  -2   2  -6  113.26    2.39
  -2   2  -6  113.32    2.56
  -2   2  -6  116.62    3.34
   2  -2   6  118.41    2.33
   2  -2   6  117.47    2.54
  -3   2  -6   76.09    1.63
  -3   2  -6   77.68    1.75
  -3   2  -6   76.74    2.28
  -3   2  -6   74.24    1.58
  -3   2  -6   77.12    1.73
   3  -2   6   77.73    1.72
  -4   2  -6   35.94    0.88
  -4   2  -6   34.17    0.86
  -4   2  -6   35.13    1.14
  -4   2  -6   34.71    0.78
  -4   2  -6   35.37    0.82
   4  -2   6   35.32    0.83
  -5   2  -6   31.62    1.07
  -5   2  -6   31.72    0.82
  -5   2  -6   31.30    0.73
  -5   2  -6   31.99    0.77
   5  -2   6   32.19    0.76
  -6   2  -6    1.85    0.15
  -6   2  -6    1.65    0.13
  -6   2  -6    1.61    0.22
  -6   2  -6    1.90    0.17
  -7   2  -6   -0.02    0.12
  -7   2  -6    0.01    0.08
  -7   2  -6    0.09    0.06
  -8  -1   6    1.23    0.11
  -8  -1   6    1.16    0.11
  -8  -1   6    1.19    0.12
  -7  -1   6    9.81    0.27
  -7  -1   6   10.07    0.28
  -7  -1   6   10.19    0.30
  -6  -1   6    8.75    0.23
  -6  -1   6    8.59    0.24
  -6  -1   6    8.64    0.26
  -5  -1   6   50.62    1.06
  -5  -1   6   49.31    1.03
  -5  -1   6   49.77    1.05
  -5  -1   6   49.82    1.46
  -5  -1   6   49.65    1.13
   4   1  -6   80.44    2.32
  -4  -1   6   80.58    1.68
  -4  -1   6   80.77    1.79
  -4  -1   6   81.26    1.68
  -4  -1   6   82.54    1.65
  -4  -1   6   81.50    2.29
   3   1  -6   78.82    1.71
   3   1  -6   77.34    2.21
   3   1  -6   77.75    1.60
   3   1  -6   80.14    1.61
  -3  -1   6   76.13    1.62
  -3  -1   6   77.20    1.72
  -3  -1   6   78.13    1.61
  -3  -1   6   78.94    1.59
   2   1  -6   44.49    1.02
   2   1  -6   45.54    0.95
   2   1  -6   46.01    1.30
  -2  -1   6   46.08    0.96
  -2  -1   6   46.27    0.95
  -2  -1   6   44.48    0.95
  -2  -1   6   44.63    1.03
   1   1  -6    1.56    0.08
   1   1  -6    1.55    0.07
   1   1  -6    1.55    0.07
   1   1  -6    1.58    0.07
  -1  -1   6    1.44    0.09
  -1  -1   6    1.52    0.07
  -1  -1   6    1.49    0.07
  -1  -1   6    1.50    0.08
   0   1  -6   44.80    1.00
   0   1  -6   43.22    0.99
   0   1  -6   43.60    0.93
   0   1  -6   42.70    0.91
   0   1  -6   38.63    1.27
   0  -1   6   43.21    1.00
   0  -1   6   43.90    0.92
   0  -1   6   43.94    0.94
   0  -1   6   45.26    1.29
   0  -1   6   43.81    0.99
  -1   1  -6   10.76    0.27
  -1   1  -6   10.91    0.29
  -1   1  -6   10.68    0.30
  -1   1  -6   11.32    0.40
   1  -1   6   11.14    0.31
   1  -1   6   10.64    0.27
   1  -1   6   10.96    0.31
   1  -1   6   10.59    0.40
   1  -1   6   11.12    0.29
  -2   1  -6   37.02    0.90
  -2   1  -6   37.28    0.82
  -2   1  -6   38.62    0.86
  -2   1  -6   38.92    1.18
  -2   1  -6   38.70    0.92
   2  -1   6   38.12    0.90
   2  -1   6   38.23    0.85
   2  -1   6   39.06    0.82
  -3   1  -6   60.64    1.40
  -3   1  -6   59.18    1.31
  -3   1  -6   60.96    1.81
  -3   1  -6   60.58    1.39
  -3   1  -6   60.17    1.28
   3  -1   6   60.22    1.38
  -4   1  -6   44.23    1.07
  -4   1  -6   45.49    1.01
  -4   1  -6   45.05    0.98
  -4   1  -6   42.85    1.06
  -4   1  -6   43.90    1.39
   4  -1   6   44.65    1.04
  -5   1  -6   33.76    0.83
  -5   1  -6   35.89    1.16
  -5   1  -6   34.92    0.81
  -5   1  -6   34.47    0.88
   5  -1   6   35.21    0.84
  -6   1  -6   10.27    0.35
  -6   1  -6   10.96    0.51
  -6   1  -6   10.68    0.38
  -7   1  -6    2.20    0.29
  -7   1  -6    2.27    0.19
  -7   1  -6    1.85    0.16
  -8   0   6    0.00    0.04
  -8   0   6    0.04    0.04
  -8   0   6   -0.02    0.04
  -7   0   6    0.35    0.05
  -7   0   6    0.28    0.04
  -7   0   6    0.42    0.06
  -6   0   6    3.75    0.14
  -6   0   6    3.68    0.12
  -6   0   6    3.93    0.13
  -6   0   6    3.97    0.13
  -5   0   6   33.86    0.72
  -5   0   6   34.55    1.04
  -5   0   6   33.36    0.72
  -5   0   6   33.49    0.77
  -5   0   6   33.92    0.70
   4   0  -6   45.65    1.39
  -4   0   6   47.49    1.36
  -4   0   6   47.05    0.97
  -4   0   6   46.17    1.04
  -4   0   6   46.89    0.98
  -4   0   6   46.85    0.96
   3   0  -6  159.71    3.29
   3   0  -6  160.38    4.50
   3   0  -6  164.29    3.30
  -3   0   6  166.95    3.30
  -3   0   6  157.09    3.26
  -3   0   6  166.32    3.52
  -3   0   6  162.01    3.31
   2   0  -6  157.40    3.63
   2   0  -6  166.57    4.60
   2   0  -6  168.24    3.38
   2   0  -6  167.53    3.39
  -2   0   6  166.87    3.62
  -2   0   6  171.41    3.33
  -2   0   6  165.26    3.61
  -2   0   6  170.37    3.40
   1   0  -6   64.57    1.35
   1   0  -6   64.33    1.43
  -1   0   6   65.21    1.32
  -1   0   6   64.61    1.43
  -1   0   6   63.41    1.44
  -1   0   6   63.15    1.83
  -1   0   6   63.18    1.35
   0   0  -6   27.26    0.66
   0   0  -6   27.25    0.65
   0   0  -6   27.60    0.62
   0   0  -6   26.94    0.83
   0   0   6   27.95    0.66
   0   0   6   26.80    0.66
   0   0   6   27.68    0.84
   0   0   6   26.59    0.60
   0   0   6   27.06    0.62
  -1   0  -6    1.03    0.08
  -1   0  -6    0.87    0.08
  -1   0  -6    0.95    0.09
   1   0   6    0.82    0.06
   1   0   6    0.94    0.09
   1   0   6    0.97    0.07
   1   0   6    0.89    0.07
  -2   0  -6   26.49    0.66
  -2   0  -6   27.08    0.66
  -2   0  -6   26.31    0.84
  -2   0  -6   27.01    0.63
   2   0   6   25.97    0.66
   2   0   6   27.42    0.59
   2   0   6   25.68    0.60
  -3   0  -6   19.78    0.50
  -3   0  -6   20.41    0.53
  -3   0  -6   20.29    0.68
  -3   0  -6   19.93    0.53
   3   0   6   19.20    0.52
  -4   0  -6   16.60    0.60
  -4   0  -6   15.71    0.45
  -4   0  -6   15.82    0.44
   4   0   6   15.09    0.44
  -5   0  -6   21.83    0.59
  -5   0  -6   22.17    0.79
  -5   0  -6   20.95    0.56
   5   0   6   20.11    0.55
  -6   0  -6   13.87    0.61
  -6   0  -6   13.91    0.45
  -6   0  -6   13.72    0.42
  -7   0  -6    5.99    0.29
  -7   0  -6    6.02    0.27
  -7   0  -6    5.70    0.41
  -8   1   6    2.25    0.09
  -8   1   6    2.26    0.10
  -8   1   6    2.35    0.10
  -7   1   6    0.09    0.04
  -7   1   6   -0.04    0.03
  -7   1   6    0.08    0.03
  -7   1   6    0.06    0.03
  -6   1   6    0.56    0.05
  -6   1   6    0.64    0.05
  -6   1   6    0.71    0.05
  -5   1   6   13.10    0.31
  -5   1   6   13.11    0.29
  -5   1   6   13.04    0.29
   4  -1  -6   35.29    1.11
  -4   1   6   37.15    1.09
  -4   1   6   35.56    0.82
  -4   1   6   37.76    0.77
   3  -1  -6   62.04    1.81
  -3   1   6   63.50    1.40
  -3   1   6   63.06    1.39
  -3   1   6   64.26    1.32
   2  -1  -6  279.77    5.54
   2  -1  -6  267.98    7.61
  -2   1   6  266.24    5.58
  -2   1   6  268.19    5.99
  -2   1   6  267.15    5.83
   1  -1  -6  172.11    3.52
   1  -1  -6  166.76    3.76
  -1   1   6  174.06    4.81
  -1   1   6  173.33    3.72
  -1   1   6  171.62    3.49
  -1   1   6  168.85    3.73
   0  -1  -6  148.38    3.06
   0  -1  -6  150.03    3.27
   0  -1  -6  153.30    4.22
   0  -1  -6  145.19    3.26
   0   1   6  146.12    4.22
   0   1   6  146.78    3.27
   0   1   6  148.48    3.27
   0   1   6  154.99    3.01
   0   1   6  150.16    3.06
  -1  -1  -6   12.72    0.34
  -1  -1  -6   12.24    0.42
  -1  -1  -6   11.85    0.34
  -1  -1  -6   12.38    0.33
   1   1   6   12.50    0.33
   1   1   6   12.61    0.35
   1   1   6   13.36    0.32
   1   1   6   12.79    0.31
  -2  -1  -6   15.21    0.45
  -2  -1  -6   15.57    0.42
  -2  -1  -6   14.87    0.40
   2   1   6   16.15    0.44
   2   1   6   15.77    0.38
   2   1   6   16.39    0.39
  -3  -1  -6   10.47    0.33
  -3  -1  -6   10.45    0.32
  -3  -1  -6   10.84    0.43
   3   1   6   11.29    0.34
  -4  -1  -6   31.90    0.76
  -4  -1  -6   31.43    0.79
  -4  -1  -6   32.38    1.05
   4   1   6   30.51    0.72
   4   1   6   31.01    0.79
  -5  -1  -6    8.37    0.31
  -5  -1  -6    8.75    0.31
  -5  -1  -6    8.89    0.44
  -6  -1  -6   13.60    0.42
  -6  -1  -6   13.00    0.44
  -6  -1  -6   13.43    0.60
  -7  -1  -6    5.99    0.28
  -7  -1  -6    6.17    0.30
  -7  -1  -6    6.78    0.44
  -5   2   6    0.12    0.02
  -5   2   6    0.12    0.02
   4  -2  -6   27.29    0.89
  -4   2   6   29.21    0.60
  -4   2   6   27.80    0.64
  -4   2   6   28.29    0.64
  -4   2   6   28.73    0.87
   3  -2  -6   71.15    2.02
  -3   2   6   71.20    1.45
  -3   2   6   69.60    1.56
  -3   2   6   69.98    1.55
   2  -2  -6   12.00    0.41
   2  -2  -6   12.28    0.28
   2  -2  -6   12.11    0.31
  -2   2   6   11.98    0.29
  -2   2   6   11.87    0.31
  -2   2   6   12.43    0.36
  -2   2   6   12.74    0.32
   1  -2  -6  146.23    4.82
   1  -2  -6  176.28    3.70
   1  -2  -6  182.52    3.47
  -1   2   6  172.78    3.46
  -1   2   6  170.58    3.70
  -1   2   6  172.76    3.70
  -1   2   6  167.96    4.78
   0  -2  -6  113.98    3.16
   0  -2  -6  115.78    2.31
   0  -2  -6  108.84    2.45
   0   2   6  110.57    2.30
   0   2   6  110.24    2.26
   0   2   6  109.83    2.46
   0   2   6  110.36    2.45
  -1  -2  -6   67.12    1.55
  -1  -2  -6   68.28    1.99
  -1  -2  -6   68.65    1.46
   1   2   6   69.62    1.46
   1   2   6   69.45    1.42
   1   2   6   68.32    1.55
  -2  -2  -6   13.75    0.37
  -2  -2  -6   13.51    0.38
  -2  -2  -6   13.86    0.49
   2   2   6   13.37    0.39
   2   2   6   14.38    0.36
   2   2   6   13.64    0.34
  -3  -2  -6    3.76    0.17
  -3  -2  -6    3.81    0.23
  -3  -2  -6    3.77    0.18
   3   2   6    3.82    0.19
   3   2   6    3.66    0.16
  -4  -2  -6    0.85    0.11
  -4  -2  -6    0.89    0.10
  -4  -2  -6    0.66    0.14
   4   2   6    0.84    0.09
   4   2   6    0.86    0.11
  -5  -2  -6    3.11    0.20
  -5  -2  -6    3.52    0.22
  -5  -2  -6    3.05    0.28
  -6  -2  -6    2.47    0.29
  -6  -2  -6    2.45    0.19
  -6  -2  -6    2.35    0.21
  -9   3   6    1.79    0.25
  -8   3   6   12.22    0.54
  -7   3   6   11.85    0.49
  -5   3   6   14.08    0.34
  -5   3   6   14.58    0.32
   4  -3  -6    0.57    0.11
  -4   3   6    0.71    0.05
  -4   3   6    0.53    0.09
  -4   3   6    0.64    0.05
   3  -3  -6    0.67    0.04
   3  -3  -6    0.54    0.03
   3  -3  -6    0.33    0.07
  -3   3   6    0.54    0.05
  -3   3   6    0.64    0.05
   2  -3  -6   86.01    2.40
   2  -3  -6   84.69    1.88
  -2   3   6   85.70    1.76
  -2   3   6   82.97    1.88
   1  -3  -6  113.43    2.31
   1  -3  -6  111.05    2.47
   1  -3  -6  115.60    3.17
  -1   3   6  108.88    2.47
  -1   3   6  112.30    2.31
  -1   3   6  111.78    2.28
   0  -3  -6  110.48    2.23
   0  -3  -6  104.37    2.37
   0  -3  -6  107.85    3.04
   0   3   6  108.54    2.38
   0   3   6  108.42    2.19
   0   3   6  104.38    2.23
  -1  -3  -6   77.71    2.24
  -1  -3  -6   79.22    1.75
  -1  -3  -6   77.63    1.65
   1   3   6   77.40    1.65
   1   3   6   77.46    1.61
   1   3   6   75.15    1.75
  -2  -3  -6   57.91    1.34
  -2  -3  -6   57.89    1.73
  -2  -3  -6   58.62    1.27
  -2  -3  -6   57.33    1.22
   2   3   6   57.10    1.22
   2   3   6   57.61    1.26
   2   3   6   56.72    1.34
  -3  -3  -6   20.06    0.70
  -3  -3  -6   19.60    0.49
  -3  -3  -6   19.17    0.51
  -3  -3  -6   19.49    0.54
   3   3   6   19.35    0.54
   3   3   6   19.41    0.50
  -4  -3  -6    6.35    0.26
  -4  -3  -6    6.46    0.24
  -4  -3  -6    6.58    0.36
  -4  -3  -6    6.75    0.28
   4   3   6    6.51    0.27
   4   3   6    6.42    0.25
  -5  -3  -6    0.67    0.10
  -5  -3  -6    0.55    0.16
  -5  -3  -6    0.83    0.12
  -6  -3  -6    2.26    0.22
  -6  -3  -6    1.60    0.16
  -6  -3  -6    1.82    0.26
  -8   4   6    2.25    0.22
  -7   4   6   11.64    0.47
  -6   4   6    6.20    0.28
  -6   4   6    6.15    0.15
  -6   4   6    6.14    0.16
  -6   4   6    5.91    0.16
  -5   4   6   34.07    1.03
  -5   4   6   35.38    0.73
  -5   4   6   34.21    0.73
  -5   4   6   33.00    0.77
   4  -4  -6   22.29    0.76
  -4   4   6   23.10    0.68
  -4   4   6   22.63    0.54
  -4   4   6   22.65    0.73
  -4   4   6   23.58    0.51
   3  -4  -6    0.04    0.02
   3  -4  -6    0.07    0.06
  -3   4   6    0.06    0.03
  -3   4   6    0.05    0.03
  -3   4   6    0.07    0.03
   2  -4  -6    5.37    0.16
   2  -4  -6    5.25    0.17
   2  -4  -6    5.08    0.23
  -2   4   6    5.17    0.16
  -2   4   6    5.11    0.18
  -2   4   6    5.20    0.16
   1  -4  -6   15.51    0.50
   1  -4  -6   14.79    0.45
   1  -4  -6   15.28    0.37
   1  -4  -6   15.00    0.40
  -1   4   6   14.67    0.40
  -1   4   6   15.06    0.37
  -1   4   6   14.83    0.37
  -1   4   6   15.24    0.38
   0  -4  -6   41.72    0.93
   0  -4  -6   42.38    1.23
   0  -4  -6   42.44    0.99
   0   4   6   41.84    0.93
   0   4   6   41.42    0.92
   0   4   6   41.10    0.91
  -1  -4  -6   52.53    1.15
  -1  -4  -6   52.27    1.22
   1   4   6   52.66    1.22
   1   4   6   51.26    1.12
   1   4   6   51.47    1.15
  -2  -4  -6   17.46    0.44
  -2  -4  -6   16.79    0.46
  -2  -4  -6   16.99    0.48
   2   4   6   16.82    0.48
   2   4   6   17.24    0.46
  -3  -4  -6   24.74    0.63
  -3  -4  -6   24.10    0.59
  -3  -4  -6   24.43    0.66
   3   4   6   23.75    0.65
   3   4   6   24.48    0.61
  -4  -4  -6    5.87    0.36
  -4  -4  -6    5.97    0.26
  -4  -4  -6    6.17    0.28
   4   4   6    5.95    0.27
  -5  -4  -6    1.84    0.17
  -5  -4  -6    2.19    0.21
  -5  -4  -6    1.88    0.26
  -7   5   6   10.17    0.23
  -7   5   6   10.01    0.41
  -7   5   6    9.97    0.24
  -6   5   6   24.17    0.54
  -6   5   6   25.09    0.54
  -6   5   6   24.66    0.53
  -6   5   6   24.09    0.78
  -5   5   6    8.03    0.21
  -5   5   6    7.81    0.21
  -5   5   6    7.86    0.23
  -5   5   6    7.94    0.28
  -5   5   6    7.91    0.22
   4  -5  -6   59.90    1.79
   4  -5  -6   62.55    1.23
  -4   5   6   59.79    1.25
  -4   5   6   59.81    1.28
  -4   5   6   60.51    1.27
  -4   5   6   57.93    1.35
   3  -5  -6   30.23    0.95
   3  -5  -6   30.26    0.71
   3  -5  -6   30.47    0.66
  -3   5   6   30.50    0.67
  -3   5   6   30.50    0.69
  -3   5   6   30.66    0.68
  -3   5   6   29.62    0.73
   2  -5  -6   10.74    0.28
   2  -5  -6   10.93    0.40
   2  -5  -6   10.69    0.30
  -2   5   6   10.35    0.29
  -2   5   6   10.57    0.29
  -2   5   6   10.76    0.30
  -2   5   6   10.19    0.31
   1  -5  -6    0.79    0.07
   1  -5  -6    0.61    0.06
   1  -5  -6    0.50    0.08
   1  -5  -6    0.53    0.07
  -1   5   6    0.52    0.06
  -1   5   6    0.56    0.07
  -1   5   6    0.44    0.05
   0  -5  -6    2.31    0.14
   0  -5  -6    2.13    0.13
   0   5   6    1.99    0.12
   0   5   6    1.98    0.14
  -1  -5  -6   45.39    1.03
  -1  -5  -6   46.12    1.09
   1   5   6   43.47    0.99
   1   5   6   45.84    1.03
  -2  -5  -6   52.00    1.17
  -2  -5  -6   51.70    1.24
  -2  -5  -6   51.23    1.13
   2   5   6   50.45    1.17
   2   5   6   52.23    1.24
  -3  -5  -6   12.85    0.41
  -3  -5  -6   13.11    0.43
   3   5   6   12.84    0.42
   3   5   6   12.25    0.39
  -4  -5  -6   10.93    0.40
  -4  -5  -6   10.68    0.38
  -5  -5  -6    3.82    0.25
  -5  -5  -6    4.24    0.27
  -5  -5  -6    3.64    0.33
  -8   6   6    0.98    0.07
  -8   6   6    0.94    0.07
  -7   6   6    2.62    0.11
  -7   6   6    2.57    0.11
  -6   6   6   26.88    0.61
  -6   6   6   26.89    0.60
  -5   6   6   12.88    0.33
  -5   6   6   12.12    0.32
   4  -6  -6    1.90    0.08
   4  -6  -6    1.68    0.18
   4  -6  -6    2.05    0.09
  -4   6   6    1.63    0.11
  -4   6   6    1.93    0.12
  -4   6   6    2.20    0.11
  -4   6   6    2.01    0.11
   3  -6  -6   29.68    0.94
   3  -6  -6   29.78    0.71
  -3   6   6   29.35    0.69
  -3   6   6   29.68    0.67
  -3   6   6   29.14    0.73
  -3   6   6   29.35    0.68
   2  -6  -6   17.14    0.58
   2  -6  -6   17.45    0.46
   2  -6  -6   17.34    0.43
  -2   6   6   17.43    0.43
  -2   6   6   17.03    0.45
  -2   6   6   17.18    0.44
   1  -6  -6    5.66    0.22
   1  -6  -6    5.74    0.21
   1  -6  -6    5.64    0.25
  -1   6   6    5.74    0.21
  -1   6   6    5.79    0.23
   0  -6  -6    3.98    0.17
   0  -6  -6    3.73    0.19
   0  -6  -6    3.96    0.20
   0  -6  -6    3.73    0.19
   0   6   6    3.67    0.19
   0   6   6    4.09    0.20
  -1  -6  -6    0.83    0.11
  -1  -6  -6    0.76    0.10
   1   6   6    0.58    0.09
  -2  -6  -6    1.88    0.17
  -2  -6  -6    1.82    0.18
   2   6   6    1.36    0.13
   2   6   6    1.76    0.17
  -3  -6  -6   10.99    0.40
  -3  -6  -6   10.58    0.38
   3   6   6   10.93    0.39
  -4  -6  -6    8.25    0.34
  -4  -6  -6    8.07    0.36
  -8   7   6    0.18    0.05
  -8   7   6    0.17    0.05
  -7   7   6   -0.01    0.04
  -7   7   6    0.03    0.05
  -6   7   6    0.04    0.05
  -6   7   6    0.02    0.04
  -5   7   6   14.83    0.40
  -5   7   6   14.50    0.38
  -4   7   6   38.89    0.89
  -4   7   6   38.25    0.86
   3  -7  -6   19.74    0.51
   3  -7  -6   19.70    0.48
   3  -7  -6   19.16    0.67
  -3   7   6   19.99    0.51
  -3   7   6   19.51    0.49
   2  -7  -6   11.99    0.46
   2  -7  -6   12.46    0.37
   2  -7  -6   12.88    0.35
  -2   7   6   12.92    0.36
  -2   7   6   12.66    0.38
   1  -7  -6   18.46    0.51
   1  -7  -6   17.38    0.60
   1  -7  -6   18.23    0.48
  -1   7   6   18.22    0.50
   0  -7  -6    4.30    0.22
   0  -7  -6    3.76    0.20
   0  -7  -6    3.75    0.20
   0   7   6    4.00    0.21
  -1  -7  -6    2.98    0.20
  -1  -7  -6    2.95    0.21
   1   7   6    2.88    0.20
  -2  -7  -6    4.03    0.24
  -2  -7  -6    4.15    0.25
   2   7   6    4.08    0.24
   2   7   6    4.58    0.26
  -3  -7  -6    3.48    0.25
  -3  -7  -6    3.62    0.24
   3   7   6    3.61    0.23
  -7   8   6   -0.02    0.04
  -7   8   6    0.07    0.05
  -6   8   6   -0.01    0.05
  -6   8   6   -0.02    0.05
  -5   8   6    9.07    0.30
  -5   8   6    9.12    0.29
  -4   8   6    1.16    0.10
  -4   8   6    1.12    0.11
  -3   8   6    9.14    0.32
   2  -8  -6   20.87    0.71
   2  -8  -6   21.45    0.58
  -2   8   6   21.40    0.57
   1  -8  -6    3.53    0.19
   1  -8  -6    3.07    0.19
   1  -8  -6    3.45    0.20
  -1   8   6    3.12    0.20
   0  -8  -6   11.86    0.41
   0  -8  -6   11.63    0.38
   0   8   6   11.67    0.40
  -1  -8  -6    0.16    0.09
  -1  -8  -6    0.30    0.10
   1   8   6    0.19    0.10
  -2  -8  -6    0.42    0.11
  -2  -8  -6    0.19    0.09
   2   8   6    0.34    0.12
  -7   9   6    1.28    0.12
  -7   9   6    1.32    0.12
  -6   9   6    0.05    0.07
  -5   9   6    1.85    0.16
  -4   9   6    2.64    0.19
  -3   9   6    2.96    0.20
   2  -9  -6    6.73    0.30
  -2   9   6    6.99    0.30
   1  -9  -6   14.89    0.47
  -1   9   6   14.25    0.47
   0  -9  -6    5.10    0.27
   0   9   6    4.65    0.27
  -1  -9  -6    3.61    0.25
  -1  -9  -6    3.34    0.24
   1   9   6    3.13    0.23
  -5  10   6    0.53    0.11
  -4  10   6   -0.04    0.08
  -3  10   6    0.36    0.10
  -2  10   6    1.21    0.14
  -1  10   6    2.30    0.22
   0 -10   7    0.71    0.14
   0 -10   7    0.80    0.14
  -1  10  -7   -0.13    0.08
   1 -10   7   -0.07    0.09
  -2  10  -7    0.25    0.10
   2 -10   7    0.35    0.11
  -3  10  -7    2.45    0.21
  -4  10  -7    2.46    0.22
  -2  -9   7    9.39    0.40
  -2  -9   7    9.03    0.36
  -1  -9   7    0.71    0.12
  -1  -9   7    1.20    0.16
   0   9  -7   10.25    0.38
   0  -9   7   10.88    0.41
   0  -9   7   10.99    0.38
  -1   9  -7    0.75    0.12
   1  -9   7    0.72    0.11
   1  -9   7    0.82    0.12
  -2   9  -7    0.59    0.11
   2  -9   7    0.47    0.10
  -3   9  -7    0.45    0.11
  -4   9  -7    4.02    0.24
  -5   9  -7    1.05    0.13
  -3  -8   7    1.67    0.15
  -3  -8   7    2.11    0.22
  -2  -8   7    7.23    0.30
  -2  -8   7    7.36    0.34
   1   8  -7   19.44    0.56
  -1  -8   7   20.07    0.55
  -1  -8   7   20.97    0.61
   0   8  -7    8.54    0.32
   0  -8   7    9.23    0.35
   0  -8   7    8.73    0.31
  -1   8  -7   18.10    0.52
   1  -8   7   19.27    0.56
   1  -8   7   19.08    0.52
  -2   8  -7    2.61    0.19
   2  -8   7    2.46    0.18
  -3   8  -7    3.53    0.21
   3  -8   7    3.50    0.20
  -4   8  -7    0.43    0.09
  -5   8  -7    2.83    0.20
  -5   8  -7    3.04    0.27
  -6   8  -7    4.69    0.34
  -6   8  -7    4.91    0.25
  -4  -7   7    0.31    0.10
  -4  -7   7    0.27    0.11
  -3  -7   7    3.78    0.25
  -3  -7   7    3.54    0.22
   2   7  -7    5.62    0.24
  -2  -7   7    6.05    0.25
  -2  -7   7    6.02    0.28
   1   7  -7   13.79    0.41
  -1  -7   7   14.34    0.45
  -1  -7   7   14.06    0.41
   0   7  -7   18.23    0.50
   0  -7   7   19.34    0.55
   0  -7   7   18.72    0.50
  -1   7  -7   24.11    0.62
   1  -7   7   24.72    0.67
   1  -7   7   24.86    0.61
  -2   7  -7    0.59    0.09
   2  -7   7    0.70    0.10
  -3   7  -7   15.78    0.45
   3  -7   7   15.38    0.46
  -4   7  -7    3.63    0.21
  -4   7  -7    3.85    0.27
   4  -7   7    3.85    0.20
  -5   7  -7    0.23    0.12
  -5   7  -7    0.03    0.06
  -6   7  -7    0.43    0.09
  -6   7  -7    0.49    0.16
  -5  -6   7    4.74    0.27
  -5  -6   7    4.31    0.24
  -4  -6   7   12.26    0.39
  -4  -6   7   12.26    0.43
  -3  -6   7   -0.05    0.06
  -3  -6   7    0.04    0.06
  -3  -6   7    0.04    0.07
   2   6  -7    1.21    0.11
  -2  -6   7    1.15    0.11
  -2  -6   7    1.54    0.16
  -2  -6   7    1.42    0.13
   1   6  -7   15.14    0.42
   1   6  -7   14.78    0.44
  -1  -6   7   14.87    0.40
  -1  -6   7   15.19    0.45
  -1  -6   7   14.70    0.41
   0   6  -7   28.60    0.69
   0   6  -7   28.17    0.66
   0  -6   7   28.38    0.74
   0  -6   7   28.64    0.68
  -1   6  -7   17.07    0.44
  -1   6  -7   17.45    0.46
   1  -6   7   17.03    0.49
   1  -6   7   17.10    0.44
  -2   6  -7  119.39    2.51
  -2   6  -7  126.33    2.58
   2  -6   7  120.30    2.51
   2  -6   7  122.34    2.74
  -3   6  -7    2.05    0.15
  -3   6  -7    1.86    0.13
   3  -6   7    2.14    0.15
  -4   6  -7   17.69    0.67
  -4   6  -7   17.76    0.49
  -4   6  -7   17.61    0.46
   4  -6   7   17.37    0.49
  -5   6  -7    1.29    0.19
  -5   6  -7    1.10    0.12
  -6   6  -7    0.22    0.08
  -6   6  -7    0.21    0.13
  -7   6  -7    0.24    0.08
  -7   6  -7    0.26    0.15
  -6  -5   7    8.61    0.31
  -6  -5   7    9.14    0.36
  -6  -5   7    9.31    0.33
  -5  -5   7   14.80    0.46
  -5  -5   7   14.16    0.42
  -5  -5   7   14.14    0.41
  -4  -5   7    0.30    0.07
  -4  -5   7    0.23    0.08
  -4  -5   7    0.25    0.08
   3   5  -7    9.63    0.29
  -3  -5   7    9.47    0.30
  -3  -5   7   10.24    0.34
  -3  -5   7    9.68    0.30
   2   5  -7    3.27    0.16
   2   5  -7    3.47    0.15
  -2  -5   7    3.45    0.19
  -2  -5   7    3.40    0.16
  -2  -5   7    3.09    0.16
  -2  -5   7    3.13    0.16
   1   5  -7    0.20    0.05
  -1  -5   7    0.24    0.05
  -1  -5   7    0.18    0.05
  -1  -5   7    0.28    0.07
   0   5  -7   16.88    0.42
   0   5  -7   16.93    0.44
   0  -5   7   17.34    0.47
   0  -5   7   16.55    0.43
  -1   5  -7   49.54    1.09
  -1   5  -7   49.13    1.06
   1  -5   7   49.23    1.06
   1  -5   7   49.09    1.16
  -2   5  -7   26.96    0.64
  -2   5  -7   26.84    0.64
  -2   5  -7   25.64    0.88
  -2   5  -7   26.20    0.61
   2  -5   7   26.63    0.68
   2  -5   7   27.07    0.61
  -3   5  -7   25.60    0.88
  -3   5  -7   26.27    0.63
  -3   5  -7   25.50    0.60
  -3   5  -7   25.50    0.63
   3  -5   7   25.50    0.65
  -4   5  -7    9.71    0.29
  -4   5  -7    9.84    0.31
  -4   5  -7   10.19    0.45
   4  -5   7    9.61    0.31
  -5   5  -7   17.21    0.45
  -5   5  -7   18.02    0.70
  -5   5  -7   16.82    0.48
  -6   5  -7    1.27    0.22
  -6   5  -7    0.86    0.11
  -7   5  -7    1.43    0.14
  -7   5  -7    1.30    0.23
  -6  -4   7    8.34    0.29
  -6  -4   7    8.10    0.28
  -6  -4   7    8.16    0.32
  -5  -4   7   10.57    0.35
  -5  -4   7   10.44    0.32
  -5  -4   7   10.21    0.31
  -4  -4   7   37.76    0.92
  -4  -4   7   36.49    0.85
  -4  -4   7   37.62    0.84
   3   4  -7   60.58    1.74
   3   4  -7   62.57    1.32
  -3  -4   7   61.19    1.30
  -3  -4   7   62.20    1.42
  -3  -4   7   60.01    1.33
  -3  -4   7   60.73    1.32
   2   4  -7   14.30    0.46
   2   4  -7   14.80    0.38
  -2  -4   7   14.57    0.39
  -2  -4   7   15.08    0.38
  -2  -4   7   14.23    0.38
  -2  -4   7   14.93    0.42
   1   4  -7    9.10    0.26
   1   4  -7    9.02    0.25
  -1  -4   7    9.02    0.26
  -1  -4   7    8.49    0.26
  -1  -4   7    8.94    0.27
  -1  -4   7    9.35    0.29
   0   4  -7    0.00    0.03
   0   4  -7   -0.02    0.03
   0  -4   7    0.05    0.05
   0  -4   7   -0.01    0.03
   0  -4   7    0.05    0.04
  -1   4  -7    6.05    0.19
  -1   4  -7    6.34    0.21
  -1   4  -7    6.28    0.21
   1  -4   7    6.27    0.20
   1  -4   7    6.41    0.22
  -2   4  -7   22.08    0.53
  -2   4  -7   21.56    0.51
  -2   4  -7   21.77    0.53
  -2   4  -7   21.29    0.74
   2  -4   7   21.83    0.56
   2  -4   7   22.03    0.51
  -3   4  -7   99.64    2.05
  -3   4  -7  101.32    2.93
  -3   4  -7   98.45    2.10
  -3   4  -7   98.40    2.10
   3  -4   7   99.03    2.23
  -4   4  -7   34.54    0.78
  -4   4  -7   34.25    0.82
  -4   4  -7   35.69    1.17
   4  -4   7   35.06    0.84
  -5   4  -7   18.99    0.74
  -5   4  -7   18.35    0.51
  -5   4  -7   18.57    0.55
  -5   4  -7   18.90    0.48
  -6   4  -7    9.86    0.50
  -6   4  -7   10.04    0.35
  -6   4  -7    9.46    0.36
  -6   4  -7    9.13    0.30
  -7   4  -7    0.99    0.21
  -7   4  -7    0.89    0.13
  -7   4  -7    1.02    0.12
  -7  -3   7    0.77    0.11
  -7  -3   7    0.74    0.09
  -7  -3   7    0.79    0.09
  -6  -3   7    0.68    0.10
  -6  -3   7    0.69    0.08
  -6  -3   7    0.68    0.08
  -5  -3   7   37.24    0.89
  -5  -3   7   36.03    0.82
  -5  -3   7   36.04    0.81
   4   3  -7   29.79    0.67
  -4  -3   7   31.05    0.68
  -4  -3   7   30.00    0.70
  -4  -3   7   30.12    0.75
  -4  -3   7   30.07    0.69
   3   3  -7   30.71    0.90
  -3  -3   7   30.17    0.74
  -3  -3   7   29.35    0.68
  -3  -3   7   30.08    0.67
  -3  -3   7   29.77    0.69
   2   3  -7   59.63    1.65
   2   3  -7   57.61    1.24
  -2  -3   7   57.72    1.22
  -2  -3   7   57.35    1.33
  -2  -3   7   58.06    1.24
  -2  -3   7   58.87    1.25
   1   3  -7   27.47    0.63
   1   3  -7   28.48    0.61
  -1  -3   7   27.76    0.62
  -1  -3   7   27.54    0.63
  -1  -3   7   28.06    0.68
  -1  -3   7   27.00    0.63
   0   3  -7    4.03    0.15
   0   3  -7    4.24    0.15
   0   3  -7    4.12    0.14
   0  -3   7    3.87    0.15
   0  -3   7    4.17    0.17
   0  -3   7    4.16    0.15
  -1   3  -7    0.13    0.04
  -1   3  -7    0.00    0.05
  -1   3  -7    0.04    0.03
  -1   3  -7    0.23    0.05
   1  -3   7    0.03    0.03
   1  -3   7    0.00    0.04
  -2   3  -7    1.19    0.13
  -2   3  -7    1.24    0.10
  -2   3  -7    1.20    0.08
   2  -3   7    1.07    0.09
   2  -3   7    1.19    0.08
  -3   3  -7   18.10    0.44
  -3   3  -7   18.75    0.47
  -3   3  -7   18.27    0.51
  -3   3  -7   18.63    0.67
   3  -3   7   18.07    0.48
  -4   3  -7   30.59    0.71
  -4   3  -7   31.59    1.05
  -4   3  -7   29.93    0.74
  -4   3  -7   31.40    0.80
   4  -3   7   31.27    0.76
  -5   3  -7   20.05    0.76
  -5   3  -7   19.23    0.54
  -5   3  -7   19.20    0.50
  -5   3  -7   20.81    0.57
  -6   3  -7   11.86    0.40
  -6   3  -7   11.19    0.35
  -6   3  -7   11.22    0.54
  -6   3  -7   11.43    0.38
  -7   3  -7    4.38    0.25
  -7   3  -7    5.09    0.24
  -7   3  -7    4.47    0.36
  -7  -2   7    0.90    0.08
  -7  -2   7    0.97    0.10
  -7  -2   7    0.94    0.09
  -6  -2   7    0.11    0.06
  -6  -2   7    0.15    0.05
  -6  -2   7    0.07    0.06
  -5  -2   7    0.06    0.04
  -5  -2   7    0.00    0.05
  -5  -2   7    0.03    0.04
   4   2  -7   65.34    1.34
   4   2  -7   64.35    1.86
  -4  -2   7   64.17    1.46
  -4  -2   7   64.24    1.34
  -4  -2   7   63.14    1.36
  -4  -2   7   64.65    1.37
   3   2  -7   51.86    1.50
   3   2  -7   53.15    1.10
  -3  -2   7   51.63    1.10
  -3  -2   7   50.77    1.18
  -3  -2   7   52.48    1.09
  -3  -2   7   51.27    1.11
   2   2  -7  135.05    3.59
   2   2  -7  129.19    2.66
  -2  -2   7  129.32    2.62
  -2  -2   7  126.73    2.67
  -2  -2   7  128.02    2.84
  -2  -2   7  128.05    2.66
   1   2  -7  142.33    2.93
   1   2  -7  143.36    2.86
   1   2  -7  143.50    2.92
  -1  -2   7  134.08    4.03
  -1  -2   7  145.90    2.93
  -1  -2   7  146.96    2.88
  -1  -2   7  140.91    3.13
   0   2  -7  189.43    5.60
   0   2  -7  202.32    4.01
   0   2  -7  199.94    3.93
   0   2  -7  198.40    4.01
   0  -2   7  195.77    3.93
   0  -2   7  183.05    4.26
   0  -2   7  193.75    4.28
   0  -2   7  200.07    4.01
   0  -2   7  201.99    5.55
  -1   2  -7    1.09    0.09
  -1   2  -7    1.21    0.07
   1  -2   7    1.13    0.09
   1  -2   7    1.14    0.08
   1  -2   7    1.05    0.08
  -2   2  -7    0.02    0.03
  -2   2  -7    0.04    0.06
  -2   2  -7    0.08    0.04
  -2   2  -7    0.05    0.04
   2  -2   7    0.03    0.04
   2  -2   7    0.00    0.03
  -3   2  -7    0.32    0.06
  -3   2  -7    0.40    0.05
  -3   2  -7    0.55    0.07
  -3   2  -7    0.51    0.10
   3  -2   7    0.50    0.07
  -4   2  -7   12.28    0.38
  -4   2  -7   11.65    0.35
  -4   2  -7   10.93    0.32
  -4   2  -7   11.21    0.48
   4  -2   7   11.71    0.34
  -5   2  -7   10.11    0.35
  -5   2  -7    9.72    0.33
  -5   2  -7    9.88    0.46
  -5   2  -7    9.51    0.30
   5  -2   7   10.04    0.31
  -6   2  -7   23.64    0.62
  -6   2  -7   24.80    0.65
  -6   2  -7   25.16    0.70
  -6   2  -7   25.18    0.93
  -7   2  -7    8.38    0.48
  -7   2  -7    8.14    0.35
  -7   2  -7    8.09    0.32
  -8  -1   7    4.42    0.19
  -8  -1   7    4.43    0.17
  -8  -1   7    4.37    0.17
  -7  -1   7    2.23    0.12
  -7  -1   7    2.16    0.13
  -7  -1   7    2.23    0.12
  -6  -1   7    0.16    0.05
  -6  -1   7    0.19    0.04
  -6  -1   7    0.15    0.04
  -5  -1   7    0.26    0.05
  -5  -1   7    0.16    0.04
  -5  -1   7    0.16    0.07
  -5  -1   7    0.17    0.05
  -5  -1   7    0.15    0.04
   4   1  -7    0.14    0.07
  -4  -1   7    0.08    0.03
  -4  -1   7    0.12    0.03
  -4  -1   7    0.04    0.03
  -4  -1   7    0.06    0.04
   3   1  -7   47.41    0.99
   3   1  -7   45.96    1.36
  -3  -1   7   45.92    0.99
  -3  -1   7   46.47    0.97
  -3  -1   7   46.30    1.06
  -3  -1   7   46.53    0.98
   2   1  -7   99.49    2.00
   2   1  -7   98.82    2.71
  -2  -1   7   95.26    2.01
  -2  -1   7   95.38    1.97
  -2  -1   7   96.13    2.15
   1   1  -7  205.66    3.95
   1   1  -7  200.11    4.01
   1   1  -7  201.05    4.03
  -1  -1   7  195.16    4.29
  -1  -1   7  193.12    5.55
  -1  -1   7  195.29    3.95
  -1  -1   7  191.80    4.28
  -1  -1   7  195.45    4.03
   0   1  -7   25.51    0.85
   0   1  -7   28.07    0.61
   0   1  -7   27.07    0.63
   0   1  -7   27.88    0.67
   0  -1   7   28.86    0.87
   0  -1   7   27.69    0.67
   0  -1   7   28.41    0.67
   0  -1   7   27.98    0.63
   0  -1   7   27.01    0.61
  -1   1  -7  175.31    3.56
  -1   1  -7  167.50    3.79
  -1   1  -7  167.01    3.48
  -1   1  -7  178.39    3.82
  -1   1  -7  185.46    4.93
   1  -1   7  166.47    3.55
   1  -1   7  166.48    3.79
   1  -1   7  171.43    3.48
   1  -1   7  178.16    4.93
  -2   1  -7   10.07    0.29
  -2   1  -7   10.27    0.31
  -2   1  -7    9.61    0.27
   2  -1   7    9.18    0.30
   2  -1   7    9.67    0.27
  -3   1  -7    2.56    0.19
  -3   1  -7    2.66    0.13
  -3   1  -7    2.70    0.15
  -3   1  -7    2.83    0.16
   3  -1   7    2.41    0.14
  -4   1  -7    1.12    0.16
  -4   1  -7    0.81    0.10
  -4   1  -7    1.07    0.10
  -4   1  -7    0.87    0.08
   4  -1   7    0.97    0.10
  -5   1  -7    8.29    0.42
  -5   1  -7    8.32    0.30
  -5   1  -7    8.43    0.32
   5  -1   7    8.29    0.29
  -6   1  -7    2.50    0.18
  -6   1  -7    2.65    0.20
  -6   1  -7    2.67    0.27
  -7   1  -7    5.70    0.29
  -7   1  -7    6.06    0.41
  -7   1  -7    5.45    0.26
  -8   0   7    6.63    0.20
  -8   0   7    6.26    0.21
  -8   0   7    6.76    0.19
  -7   0   7   11.53    0.31
  -7   0   7   11.43    0.28
  -7   0   7   11.25    0.28
  -6   0   7   22.89    0.52
  -6   0   7   23.59    0.56
  -6   0   7   23.72    0.52
  -6   0   7   23.26    0.51
  -5   0   7    1.87    0.08
  -5   0   7    1.99    0.09
  -5   0   7    1.94    0.09
  -5   0   7    2.11    0.08
   4   0  -7    0.12    0.07
  -4   0   7    0.14    0.03
  -4   0   7    0.15    0.03
  -4   0   7    0.13    0.03
  -4   0   7    0.26    0.03
   3   0  -7    1.97    0.07
   3   0  -7    2.42    0.15
   3   0  -7    2.01    0.07
  -3   0   7    1.89    0.09
  -3   0   7    1.96    0.08
  -3   0   7    2.13    0.10
   2   0  -7   12.28    0.42
   2   0  -7   13.08    0.30
   2   0  -7   12.55    0.32
  -2   0   7   12.31    0.32
  -2   0   7   12.52    0.33
  -2   0   7   12.83    0.31
  -2   0   7   12.51    0.31
   1   0  -7   65.25    1.38
   1   0  -7   64.38    1.46
   1   0  -7   65.00    1.46
  -1   0   7   64.60    1.38
  -1   0   7   66.35    1.35
  -1   0   7   65.78    1.87
  -1   0   7   63.78    1.47
  -1   0   7   65.48    1.47
   0   0  -7  220.38    4.83
   0   0  -7  225.95    4.53
   0   0  -7  220.69    6.39
   0   0  -7  214.04    4.82
   0   0   7  227.07    6.26
   0   0   7  219.41    4.83
   0   0   7  221.85    4.44
   0   0   7  218.85    4.53
   0   0   7  226.47    4.83
  -1   0  -7  145.99    4.03
  -1   0  -7  141.86    3.12
  -1   0  -7  143.95    2.93
   1   0   7  137.28    3.11
   1   0   7  144.31    2.92
   1   0   7  140.89    2.86
   1   0   7  133.28    4.03
  -2   0  -7   78.68    2.29
  -2   0  -7   76.83    1.77
  -2   0  -7   79.72    1.67
   2   0   7   77.18    1.77
   2   0   7   78.01    1.62
   2   0   7   77.29    1.62
  -3   0  -7   34.65    0.81
  -3   0  -7   34.43    0.86
  -3   0  -7   35.56    1.11
   3   0   7   34.11    0.85
  -4   0  -7    1.43    0.14
  -4   0  -7    1.37    0.13
  -4   0  -7    1.57    0.19
   4   0   7    1.23    0.12
  -5   0  -7    0.10    0.07
  -5   0  -7    0.00    0.10
  -5   0  -7    0.12    0.07
  -6   0  -7    0.36    0.09
  -6   0  -7    0.57    0.16
  -6   0  -7    0.40    0.10
  -7   0  -7    3.81    0.25
  -7   0  -7    3.70    0.23
  -7   0  -7    3.55    0.35
  -8   1   7    3.11    0.11
  -8   1   7    3.25    0.13
  -8   1   7    3.11    0.10
  -7   1   7   22.74    0.48
  -7   1   7   22.50    0.49
  -7   1   7   22.56    0.53
  -6   1   7   16.69    0.36
  -6   1   7   15.98    0.35
  -6   1   7   16.33    0.39
  -6   1   7   16.48    0.37
   5  -1  -7   23.87    0.82
  -5   1   7   25.26    0.57
  -5   1   7   24.44    0.53
   4  -1  -7   23.23    0.76
  -4   1   7   23.69    0.52
  -4   1   7   23.29    0.54
  -4   1   7   22.82    0.55
   3  -1  -7    1.90    0.06
   3  -1  -7    1.96    0.14
   3  -1  -7    2.00    0.06
  -3   1   7    2.05    0.09
  -3   1   7    1.94    0.09
  -3   1   7    1.80    0.08
   2  -1  -7    3.59    0.12
   2  -1  -7    3.66    0.18
  -2   1   7    3.24    0.13
  -2   1   7    3.40    0.14
  -2   1   7    3.56    0.13
  -2   1   7    3.53    0.13
   1  -1  -7    5.37    0.17
   1  -1  -7    5.21    0.18
   1  -1  -7    5.09    0.18
   1  -1  -7    4.96    0.19
  -1   1   7    5.10    0.18
  -1   1   7    5.49    0.21
  -1   1   7    4.92    0.18
  -1   1   7    5.57    0.17
   0  -1  -7  124.36    2.60
   0  -1  -7  131.91    3.58
   0  -1  -7  129.03    2.78
   0   1   7  119.69    3.57
   0   1   7  128.71    2.56
   0   1   7  121.25    2.78
   0   1   7  124.72    2.60
  -1  -1  -7   64.75    1.91
  -1  -1  -7   64.81    1.49
  -1  -1  -7   65.05    1.40
   1   1   7   65.59    1.50
   1   1   7   64.93    1.37
   1   1   7   65.75    1.37
   1   1   7   65.38    1.40
  -2  -1  -7   98.77    2.88
  -2  -1  -7   95.31    2.10
  -2  -1  -7   97.22    2.23
   2   1   7  100.56    2.04
   2   1   7  103.07    2.05
   2   1   7  101.08    2.24
  -3  -1  -7   41.81    1.29
  -3  -1  -7   40.72    0.95
  -3  -1  -7   39.25    0.99
   3   1   7   42.37    1.00
  -4  -1  -7   33.48    0.83
  -4  -1  -7   34.14    0.86
  -4  -1  -7   34.66    1.13
   4   1   7   34.76    0.86
   4   1   7   34.03    0.80
  -5  -1  -7    0.53    0.10
  -5  -1  -7    0.32    0.13
  -5  -1  -7    0.40    0.09
  -6  -1  -7    0.09    0.08
  -6  -1  -7    0.05    0.08
  -6  -1  -7   -0.03    0.12
  -6   2   7   31.88    0.70
  -6   2   7   31.15    0.66
  -6   2   7   31.40    0.70
   5  -2  -7   34.23    1.10
  -5   2   7   34.92    0.78
  -5   2   7   34.12    0.73
  -5   2   7   34.79    0.78
   4  -2  -7   46.65    1.42
  -4   2   7   47.95    1.39
  -4   2   7   47.05    1.07
  -4   2   7   47.24    1.06
  -4   2   7   48.02    1.00
   3  -2  -7   31.17    0.65
   3  -2  -7   30.66    0.96
   3  -2  -7   32.67    0.65
  -3   2   7   30.56    0.72
  -3   2   7   31.17    0.73
  -3   2   7   31.20    0.68
   2  -2  -7    1.60    0.09
  -2   2   7    1.58    0.09
  -2   2   7    1.65    0.09
  -2   2   7    1.67    0.08
   1  -2  -7    2.67    0.11
   1  -2  -7    2.50    0.12
   1  -2  -7    2.34    0.11
  -1   2   7    2.53    0.11
  -1   2   7    2.36    0.12
  -1   2   7    2.54    0.11
  -1   2   7    2.46    0.11
   0  -2  -7    3.40    0.15
   0  -2  -7    3.50    0.14
   0  -2  -7    3.58    0.16
   0   2   7    3.57    0.14
   0   2   7    3.26    0.15
   0   2   7    3.22    0.14
  -1  -2  -7   45.88    1.02
  -1  -2  -7   45.74    1.37
  -1  -2  -7   45.67    1.07
   1   2   7   46.78    1.03
   1   2   7   46.11    0.99
   1   2   7   45.33    0.99
   1   2   7   45.70    1.08
  -2  -2  -7   53.47    1.62
  -2  -2  -7   53.61    1.26
  -2  -2  -7   53.39    1.20
   2   2   7   54.22    1.28
   2   2   7   55.76    1.17
   2   2   7   54.18    1.15
  -3  -2  -7   24.45    0.64
  -3  -2  -7   23.72    0.61
  -3  -2  -7   24.37    0.83
   3   2   7   24.96    0.66
   3   2   7   24.50    0.60
  -4  -2  -7   13.11    0.55
  -4  -2  -7   13.43    0.42
  -4  -2  -7   13.21    0.41
   4   2   7   12.72    0.38
   4   2   7   13.74    0.42
  -5  -2  -7   23.92    0.65
  -5  -2  -7   24.64    0.91
  -5  -2  -7   24.69    0.69
  -6  -2  -7    0.68    0.19
  -6  -2  -7    0.63    0.12
  -6  -2  -7    0.70    0.13
  -8   3   7    2.21    0.23
  -6   3   7   11.37    0.26
  -6   3   7   11.37    0.27
  -6   3   7   11.08    0.28
   5  -3  -7   33.09    1.07
  -5   3   7   33.14    0.76
  -5   3   7   34.04    0.71
  -5   3   7   32.88    0.75
   4  -3  -7   35.82    1.13
  -4   3   7   36.11    0.83
  -4   3   7   37.21    0.78
   3  -3  -7  123.76    3.48
   3  -3  -7  125.99    2.52
  -3   3   7  122.06    2.72
  -3   3   7  123.92    2.54
   2  -3  -7   59.37    1.66
   2  -3  -7   57.01    1.29
  -2   3   7   56.01    1.21
  -2   3   7   55.80    1.29
   1  -3  -7    3.24    0.14
   1  -3  -7    3.29    0.13
   1  -3  -7    3.80    0.14
  -1   3   7    3.46    0.13
  -1   3   7    3.43    0.13
  -1   3   7    3.52    0.15
  -1   3   7    3.14    0.14
   0  -3  -7    0.31    0.06
   0  -3  -7    0.35    0.05
   0  -3  -7    0.30    0.05
   0   3   7    0.33    0.05
   0   3   7    0.48    0.06
  -1  -3  -7    6.14    0.26
  -1  -3  -7    6.10    0.22
  -1  -3  -7    6.01    0.22
   1   3   7    6.17    0.20
   1   3   7    5.76    0.22
  -2  -3  -7   26.92    0.69
  -2  -3  -7   26.85    0.87
  -2  -3  -7   26.25    0.65
   2   3   7   26.70    0.65
   2   3   7   26.56    0.63
   2   3   7   26.13    0.69
  -3  -3  -7   30.77    0.78
  -3  -3  -7   29.23    0.74
  -3  -3  -7   30.14    1.00
   3   3   7   29.80    0.72
   3   3   7   29.63    0.78
  -4  -3  -7   28.87    0.74
  -4  -3  -7   29.27    0.78
  -4  -3  -7   29.67    1.01
   4   3   7   28.88    0.78
  -5  -3  -7    6.02    0.28
  -5  -3  -7    5.71    0.37
  -5  -3  -7    6.49    0.30
  -6  -3  -7    6.80    0.33
  -6  -3  -7    6.18    0.43
  -6  -3  -7    6.21    0.31
  -8   4   7    0.16    0.10
  -7   4   7    0.84    0.13
  -6   4   7    6.90    0.18
  -6   4   7    6.69    0.30
  -6   4   7    7.03    0.18
   5  -4  -7   27.21    0.94
  -5   4   7   28.71    0.86
  -5   4   7   29.23    0.62
  -5   4   7   27.69    0.66
   4  -4  -7   12.29    0.48
  -4   4   7   12.81    0.30
  -4   4   7   12.12    0.33
   3  -4  -7   47.89    1.01
   3  -4  -7   48.39    1.44
   3  -4  -7   49.12    1.10
  -3   4   7   49.25    1.02
  -3   4   7   47.69    1.03
  -3   4   7   46.97    1.10
   2  -4  -7   19.91    0.51
   2  -4  -7   20.83    0.48
   2  -4  -7   20.63    0.67
  -2   4   7   20.77    0.48
  -2   4   7   20.08    0.52
  -2   4   7   21.03    0.48
   1  -4  -7   49.37    1.42
   1  -4  -7   50.12    1.08
   1  -4  -7   49.13    1.15
  -1   4   7   49.56    1.06
  -1   4   7   49.56    1.08
   0  -4  -7   19.08    0.48
   0  -4  -7   19.07    0.51
   0  -4  -7   18.63    0.60
   0   4   7   18.93    0.51
   0   4   7   19.24    0.47
   0   4   7   19.67    0.48
   0   4   7   19.29    0.49
  -1  -4  -7    0.04    0.05
  -1  -4  -7    0.09    0.06
  -1  -4  -7    0.13    0.07
   1   4   7    0.09    0.05
   1   4   7    0.05    0.06
   1   4   7    0.08    0.05
  -2  -4  -7    0.47    0.11
  -2  -4  -7    0.70    0.10
  -2  -4  -7    0.43    0.08
   2   4   7    0.43    0.08
   2   4   7    0.48    0.09
  -3  -4  -7   11.25    0.38
  -3  -4  -7   11.01    0.36
  -3  -4  -7   10.97    0.47
   3   4   7   11.04    0.35
   3   4   7   10.65    0.37
  -4  -4  -7    3.61    0.22
  -4  -4  -7    3.58    0.23
  -4  -4  -7    3.33    0.28
   4   4   7    3.48    0.21
  -5  -4  -7    8.42    0.36
  -5  -4  -7    7.76    0.45
  -5  -4  -7    7.73    0.34
  -7   5   7    0.43    0.04
  -7   5   7    0.49    0.04
  -6   5   7    0.37    0.05
  -6   5   7    0.47    0.08
  -6   5   7    0.36    0.05
  -6   5   7    0.23    0.04
   5  -5  -7    7.94    0.39
  -5   5   7    8.25    0.22
  -5   5   7    8.18    0.22
  -5   5   7    7.94    0.23
   4  -5  -7   47.80    1.45
   4  -5  -7   42.56    1.04
   4  -5  -7   49.45    0.98
  -4   5   7   49.00    1.01
  -4   5   7   47.09    1.09
  -4   5   7   47.95    1.03
  -4   5   7   48.30    1.02
   3  -5  -7    5.25    0.16
   3  -5  -7    5.41    0.18
   3  -5  -7    5.13    0.26
  -3   5   7    5.07    0.19
  -3   5   7    5.34    0.19
  -3   5   7    5.21    0.18
  -3   5   7    5.68    0.18
   2  -5  -7  100.96    2.28
   2  -5  -7  104.82    2.91
   2  -5  -7  103.73    2.14
  -2   5   7  101.83    2.14
  -2   5   7  101.60    2.16
  -2   5   7  103.34    2.12
   1  -5  -7   31.61    0.78
   1  -5  -7   32.26    0.74
   1  -5  -7   31.38    0.93
   1  -5  -7   33.81    0.98
  -1   5   7   31.80    0.73
  -1   5   7   31.96    0.75
  -1   5   7   30.50    0.72
   0  -5  -7   34.50    1.05
   0  -5  -7   35.77    0.87
   0  -5  -7   35.67    0.82
   0   5   7   35.33    0.82
   0   5   7   34.31    0.80
  -1  -5  -7    6.93    0.26
  -1  -5  -7    7.02    0.31
  -1  -5  -7    6.95    0.27
   1   5   7    6.80    0.26
   1   5   7    7.23    0.27
  -2  -5  -7    2.27    0.20
  -2  -5  -7    2.22    0.18
  -2  -5  -7    2.42    0.18
   2   5   7    2.49    0.17
   2   5   7    2.13    0.17
  -3  -5  -7    2.06    0.19
  -3  -5  -7    2.11    0.22
  -3  -5  -7    1.91    0.19
   3   5   7    2.01    0.17
   3   5   7    2.02    0.18
  -4  -5  -7    3.79    0.31
  -4  -5  -7    3.43    0.24
  -4  -5  -7    3.89    0.26
  -5  -5  -7    3.62    0.27
  -5  -5  -7    3.04    0.24
  -5  -5  -7    2.90    0.32
  -8   6   7    0.88    0.07
  -8   6   7    0.79    0.06
  -7   6   7    3.88    0.14
  -7   6   7    3.84    0.14
  -6   6   7    0.61    0.07
  -6   6   7    0.57    0.06
  -5   6   7    0.37    0.06
  -5   6   7    0.33    0.05
   4  -6  -7    7.74    0.21
   4  -6  -7    7.51    0.36
   4  -6  -7    8.01    0.23
  -4   6   7    7.69    0.25
  -4   6   7    7.57    0.23
   3  -6  -7   21.35    0.72
   3  -6  -7   21.06    0.53
  -3   6   7   21.35    0.53
  -3   6   7   20.89    0.51
  -3   6   7   20.94    0.51
   2  -6  -7    7.25    0.32
   2  -6  -7    7.34    0.23
   2  -6  -7    7.27    0.25
  -2   6   7    7.28    0.24
  -2   6   7    7.26    0.24
  -2   6   7    7.12    0.25
   1  -6  -7   36.57    0.88
   1  -6  -7   36.16    0.83
   1  -6  -7   34.63    1.04
   1  -6  -7   36.24    1.09
  -1   6   7   35.25    0.81
  -1   6   7   35.36    0.84
   0  -6  -7    9.66    0.37
   0  -6  -7    9.38    0.31
   0  -6  -7    9.59    0.33
   0   6   7    9.49    0.32
  -1  -6  -7   11.94    0.40
  -1  -6  -7   12.55    0.38
   1   6   7   12.05    0.38
   1   6   7   12.03    0.40
  -2  -6  -7    2.83    0.20
  -2  -6  -7    2.85    0.20
   2   6   7    3.00    0.20
   2   6   7    2.84    0.20
  -3  -6  -7    6.44    0.37
  -3  -6  -7    6.69    0.32
  -3  -6  -7    6.79    0.31
   3   6   7    6.76    0.31
  -4  -6  -7    0.50    0.12
  -4  -6  -7    0.56    0.13
  -4  -6  -7    0.63    0.16
  -8   7   7    5.83    0.19
  -8   7   7    5.98    0.19
  -7   7   7    4.73    0.17
  -7   7   7    4.72    0.18
  -6   7   7    7.89    0.24
  -6   7   7    8.19    0.26
  -5   7   7   10.72    0.32
  -5   7   7   10.87    0.31
   4  -7  -7    0.62    0.13
  -4   7   7    0.28    0.07
  -4   7   7    0.38    0.06
   3  -7  -7    7.85    0.26
   3  -7  -7    7.48    0.35
  -3   7   7    7.90    0.28
  -3   7   7    7.91    0.26
   2  -7  -7    8.61    0.27
   2  -7  -7    8.35    0.36
   2  -7  -7    8.56    0.29
  -2   7   7    8.56    0.28
  -2   7   7    8.26    0.30
   1  -7  -7   14.34    0.43
   1  -7  -7   14.69    0.41
   1  -7  -7   13.79    0.45
   1  -7  -7   13.65    0.50
  -1   7   7   14.25    0.43
   0  -7  -7   15.87    0.46
   0  -7  -7   15.08    0.53
   0  -7  -7   16.04    0.48
   0   7   7   15.65    0.47
  -1  -7  -7   26.75    0.74
  -1  -7  -7   27.34    0.71
   1   7   7   27.02    0.74
   1   7   7   25.95    0.70
  -2  -7  -7    8.19    0.35
  -2  -7  -7    7.89    0.33
   2   7   7    8.35    0.35
   2   7   7    7.76    0.33
  -3  -7  -7    0.22    0.12
  -3  -7  -7    0.31    0.11
  -3  -7  -7    0.32    0.12
   3   7   7    0.39    0.12
  -7   8   7    6.51    0.23
  -7   8   7    6.41    0.23
  -6   8   7    4.20    0.18
  -6   8   7    4.33    0.20
  -5   8   7    0.06    0.05
  -5   8   7    0.02    0.06
  -4   8   7    4.47    0.20
  -4   8   7    4.49    0.21
   3  -8  -7    2.32    0.20
  -3   8   7    2.65    0.18
   2  -8  -7    0.56    0.09
   2  -8  -7    0.58    0.11
  -2   8   7    0.49    0.10
   1  -8  -7    2.90    0.19
   1  -8  -7    2.79    0.21
   1  -8  -7    3.01    0.19
  -1   8   7    2.88    0.20
   0  -8  -7    9.76    0.37
   0  -8  -7   10.10    0.36
   0   8   7   10.11    0.37
  -1  -8  -7    2.54    0.21
  -1  -8  -7    2.24    0.20
   1   8   7    2.29    0.21
  -2  -8  -7    3.82    0.26
  -2  -8  -7    4.34    0.27
   2   8   7    4.33    0.28
  -6   9   7    8.33    0.30
  -5   9   7    6.18    0.26
  -4   9   7   11.63    0.39
  -3   9   7    1.02    0.13
  -2   9   7    0.22    0.09
   1  -9  -7    0.17    0.08
  -1   9   7    0.22    0.10
   0  -9  -7    2.41    0.21
   0   9   7    2.25    0.22
  -1  -9  -7    2.59    0.23
  -5  10   7    8.10    0.33
  -4  10   7    0.62    0.12
  -3  10   7    5.07    0.27
  -2  10   7    0.97    0.13
  -1  10  -8    6.49    0.31
   1 -10   8    6.90    0.33
  -2  10  -8    4.71    0.27
  -3  10  -8    0.72    0.13
  -2  -9   8    0.28    0.12
  -2  -9   8   -0.02    0.08
  -1  -9   8    1.58    0.16
  -1  -9   8    1.47    0.18
   0   9  -8    5.63    0.28
   0  -9   8    6.33    0.28
   0  -9   8    6.46    0.32
  -1   9  -8    4.06    0.24
   1  -9   8    4.43    0.26
  -2   9  -8    8.58    0.34
   2  -9   8    8.77    0.35
  -3   9  -8    6.58    0.30
  -4   9  -8    0.84    0.13
  -5   9  -8    2.76    0.22
  -3  -8   8    2.68    0.22
  -3  -8   8    2.64    0.24
  -2  -8   8    0.58    0.12
  -2  -8   8    0.58    0.11
   1   8  -8   -0.06    0.08
  -1  -8   8   -0.01    0.09
  -1  -8   8   -0.12    0.08
   0   8  -8    7.37    0.29
   0  -8   8    7.62    0.29
   0  -8   8    7.84    0.33
  -1   8  -8    9.35    0.34
   1  -8   8    9.68    0.36
  -2   8  -8   10.32    0.36
   2  -8   8   10.23    0.37
  -3   8  -8   10.43    0.37
   3  -8   8   10.75    0.37
  -4   8  -8    9.05    0.34
  -5   8  -8    6.27    0.29
  -5   8  -8    6.28    0.38
  -6   8  -8    0.71    0.12
  -6   8  -8    0.93    0.19
  -4  -7   8    5.36    0.29
  -4  -7   8    4.75    0.25
  -3  -7   8   12.44    0.41
  -3  -7   8   13.05    0.45
  -2  -7   8    3.79    0.23
  -2  -7   8    3.97    0.21
   1   7  -8    0.85    0.11
  -1  -7   8    0.81    0.12
  -1  -7   8    0.57    0.09
   0   7  -8    0.02    0.06
   0  -7   8    0.21    0.07
   0  -7   8    0.05    0.06
  -1   7  -8    3.14    0.19
   1  -7   8    3.38    0.20
  -2   7  -8    7.40    0.28
   2  -7   8    8.07    0.30
  -3   7  -8   18.04    0.51
   3  -7   8   17.99    0.52
  -4   7  -8    4.12    0.22
  -4   7  -8    4.50    0.29
  -5   7  -8    5.89    0.27
  -5   7  -8    6.04    0.37
  -6   7  -8    7.32    0.43
  -6   7  -8    6.98    0.31
  -5  -6   8    3.35    0.24
  -5  -6   8    3.59    0.22
  -4  -6   8   21.09    0.57
  -4  -6   8   21.30    0.62
  -3  -6   8    5.91    0.25
  -3  -6   8    6.17    0.28
   2   6  -8   37.90    0.90
  -2  -6   8   39.49    0.98
  -2  -6   8   38.43    0.89
  -2  -6   8   38.61    0.90
   1   6  -8   15.95    0.44
   1   6  -8   16.80    0.50
  -1  -6   8   16.15    0.49
  -1  -6   8   15.69    0.44
  -1  -6   8   15.99    0.43
   0   6  -8    7.42    0.27
   0  -6   8    7.83    0.27
   0  -6   8    7.89    0.30
  -1   6  -8    0.26    0.07
   1  -6   8    0.14    0.06
  -2   6  -8    2.56    0.17
   2  -6   8    2.25    0.16
  -3   6  -8   29.07    0.71
  -3   6  -8   27.61    0.96
   3  -6   8   28.80    0.74
  -4   6  -8   23.42    0.61
  -4   6  -8   23.90    0.85
   4  -6   8   22.74    0.62
  -5   6  -8    6.43    0.37
  -5   6  -8    5.98    0.26
  -6   6  -8    7.12    0.42
  -6   6  -8    6.56    0.29
  -6  -5   8   -0.01    0.07
  -6  -5   8    0.16    0.09
  -5  -5   8    5.61    0.27
  -5  -5   8    4.80    0.22
  -5  -5   8    5.13    0.23
  -4  -5   8    4.50    0.23
  -4  -5   8    4.04    0.20
  -4  -5   8    4.13    0.19
   3   5  -8   18.99    0.49
  -3  -5   8   18.20    0.49
  -3  -5   8   18.49    0.48
  -3  -5   8   18.59    0.53
   2   5  -8   17.45    0.46
   2   5  -8   17.13    0.54
  -2  -5   8   17.58    0.46
  -2  -5   8   17.90    0.51
  -2  -5   8   17.87    0.46
   1   5  -8   39.45    0.91
  -1  -5   8   40.18    0.90
  -1  -5   8   40.27    0.91
  -1  -5   8   40.35    0.98
   0   5  -8   26.58    0.64
   0   5  -8   27.37    0.61
   0  -5   8   23.45    0.61
   0  -5   8   27.21    0.68
  -1   5  -8   11.58    0.34
  -1   5  -8   11.69    0.32
   1  -5   8   11.64    0.32
   1  -5   8   11.90    0.37
  -2   5  -8    2.32    0.16
  -2   5  -8    2.26    0.20
  -2   5  -8    2.26    0.13
   2  -5   8    2.30    0.16
   2  -5   8    2.48    0.13
  -3   5  -8   19.16    0.51
  -3   5  -8   18.60    0.51
  -3   5  -8   19.67    0.49
  -3   5  -8   19.49    0.70
   3  -5   8   19.36    0.53
  -4   5  -8   18.06    0.47
  -4   5  -8   18.32    0.50
  -4   5  -8   18.73    0.70
   4  -5   8   17.63    0.50
  -5   5  -8   11.34    0.37
  -5   5  -8   11.64    0.53
  -6   5  -8    6.60    0.42
  -6   5  -8    6.42    0.28
  -7   5  -8    5.09    0.26
  -7   5  -8    5.12    0.40
  -6  -4   8    1.24    0.12
  -6  -4   8    1.20    0.13
  -6  -4   8    1.56    0.13
  -5  -4   8    0.98    0.10
  -5  -4   8    0.77    0.09
  -5  -4   8    1.00    0.12
  -4  -4   8    0.27    0.07
  -4  -4   8    0.29    0.07
  -4  -4   8    0.38    0.09
   3   4  -8   58.65    1.25
   3   4  -8   56.86    1.65
  -3  -4   8   58.14    1.24
  -3  -4   8   56.76    1.25
  -3  -4   8   59.25    1.36
  -3  -4   8   56.47    1.26
   2   4  -8   39.86    0.89
   2   4  -8   40.94    1.16
  -2  -4   8   38.88    0.88
  -2  -4   8   39.70    0.90
  -2  -4   8   38.47    0.88
  -2  -4   8   39.71    0.96
   1   4  -8   60.07    1.30
  -1  -4   8   59.91    1.31
  -1  -4   8   59.27    1.29
  -1  -4   8   61.08    1.28
  -1  -4   8   59.53    1.39
   0   4  -8   62.01    1.33
   0   4  -8   61.93    1.30
   0  -4   8   60.74    1.42
   0  -4   8   61.31    1.31
  -1   4  -8   38.70    0.86
  -1   4  -8   37.09    1.19
  -1   4  -8   38.30    0.83
   1  -4   8   37.87    0.92
   1  -4   8   37.11    0.84
  -2   4  -8   65.24    2.03
  -2   4  -8   66.84    1.47
  -2   4  -8   68.28    1.43
  -2   4  -8   69.28    1.47
   2  -4   8   68.59    1.57
   2  -4   8   69.19    1.43
  -3   4  -8    3.15    0.17
  -3   4  -8    2.97    0.14
  -3   4  -8    3.09    0.24
  -3   4  -8    2.58    0.15
   3  -4   8    3.02    0.16
  -4   4  -8    0.12    0.05
  -4   4  -8    0.11    0.06
  -4   4  -8    0.45    0.13
   4  -4   8    0.13    0.06
  -5   4  -8    8.64    0.45
  -5   4  -8    8.24    0.30
  -5   4  -8    8.19    0.27
  -6   4  -8    6.30    0.29
  -6   4  -8    6.38    0.41
  -6   4  -8    5.95    0.27
  -7   4  -8    6.69    0.31
  -7   4  -8    6.62    0.29
  -7   4  -8    6.50    0.45
  -7  -3   8    5.76    0.23
  -7  -3   8    6.12    0.23
  -7  -3   8    6.26    0.26
  -6  -3   8    1.81    0.14
  -6  -3   8    1.98    0.16
  -6  -3   8    1.81    0.13
  -5  -3   8    5.37    0.21
  -5  -3   8    5.56    0.23
  -5  -3   8    5.45    0.20
   4   3  -8    3.04    0.12
   4   3  -8    2.95    0.18
  -4  -3   8    2.93    0.16
  -4  -3   8    3.03    0.14
  -4  -3   8    2.93    0.14
   3   3  -8    0.77    0.10
  -3  -3   8    0.56    0.08
  -3  -3   8    0.64    0.07
  -3  -3   8    0.51    0.07
  -3  -3   8    0.59    0.07
   2   3  -8   17.40    0.42
   2   3  -8   18.49    0.56
  -2  -3   8   16.86    0.43
  -2  -3   8   17.14    0.42
  -2  -3   8   16.50    0.42
  -2  -3   8   16.97    0.46
   1   3  -8   40.27    0.84
   1   3  -8   39.31    0.87
  -1  -3   8   38.89    0.85
  -1  -3   8   38.06    0.87
  -1  -3   8   38.56    0.93
   0   3  -8   92.69    1.92
   0   3  -8   91.88    1.97
   0  -3   8   94.62    1.98
   0  -3   8   95.68    1.94
   0  -3   8   94.04    2.11
  -1   3  -8   74.79    2.27
  -1   3  -8   75.27    1.60
  -1   3  -8   78.72    1.65
  -1   3  -8   78.81    1.65
   1  -3   8   77.74    1.76
   1  -3   8   77.85    1.61
  -2   3  -8   21.80    0.55
  -2   3  -8   21.55    0.52
  -2   3  -8   22.75    0.76
   2  -3   8   22.27    0.58
   2  -3   8   22.42    0.52
  -3   3  -8   13.87    0.37
  -3   3  -8   14.06    0.40
  -3   3  -8   15.31    0.58
  -3   3  -8   14.56    0.44
   3  -3   8   14.20    0.41
  -4   3  -8   11.64    0.36
  -4   3  -8   12.05    0.52
  -4   3  -8   11.83    0.34
  -4   3  -8   12.17    0.39
   4  -3   8   11.70    0.36
  -5   3  -8    0.06    0.07
  -5   3  -8    0.05    0.06
  -5   3  -8    0.01    0.05
  -5   3  -8    0.07    0.10
  -6   3  -8    0.32    0.08
  -6   3  -8    0.16    0.09
  -6   3  -8    0.19    0.14
  -7   3  -8    1.75    0.17
  -7   3  -8    1.65    0.24
  -7   3  -8    1.48    0.16
  -7  -2   8    8.46    0.26
  -7  -2   8    8.02    0.26
  -7  -2   8    8.04    0.28
  -6  -2   8   23.30    0.59
  -6  -2   8   21.63    0.54
  -6  -2   8   22.93    0.54
  -5  -2   8    2.80    0.15
  -5  -2   8    2.92    0.13
  -5  -2   8    2.65    0.13
   4   2  -8   36.93    0.78
   4   2  -8   35.74    1.10
  -4  -2   8   35.49    0.86
  -4  -2   8   35.43    0.79
  -4  -2   8   36.08    0.79
  -4  -2   8   35.73    0.80
   3   2  -8    5.02    0.23
   3   2  -8    5.01    0.16
  -3  -2   8    4.92    0.17
  -3  -2   8    4.86    0.17
  -3  -2   8    4.97    0.17
  -3  -2   8    4.95    0.18
   2   2  -8    5.08    0.22
   2   2  -8    4.95    0.16
  -2  -2   8    4.88    0.18
  -2  -2   8    5.04    0.17
  -2  -2   8    4.78    0.17
   1   2  -8   24.96    0.56
   1   2  -8   25.31    0.58
  -1  -2   8   24.23    0.62
  -1  -2   8   24.31    0.60
  -1  -2   8   24.67    0.58
  -1  -2   8   25.33    0.57
   0   2  -8   61.31    1.30
   0   2  -8   57.59    1.83
   0   2  -8   63.80    1.33
   0   2  -8   61.76    1.33
   0  -2   8   63.43    1.34
   0  -2   8   63.68    1.31
   0  -2   8   63.44    1.43
  -1   2  -8  135.38    2.79
  -1   2  -8  142.12    3.95
  -1   2  -8  136.29    2.86
   1  -2   8  138.70    3.05
   1  -2   8  136.26    2.80
  -2   2  -8   91.90    2.66
  -2   2  -8   87.24    1.87
  -2   2  -8   92.49    2.06
  -2   2  -8   88.81    1.92
   2  -2   8   92.27    1.87
   2  -2   8   89.60    2.04
  -3   2  -8   46.77    1.08
  -3   2  -8   48.02    1.50
  -3   2  -8   48.82    1.15
  -3   2  -8   46.70    1.04
   3  -2   8   47.45    1.13
  -4   2  -8   10.17    0.35
  -4   2  -8   10.16    0.33
  -4   2  -8   10.37    0.46
  -4   2  -8   10.23    0.31
   4  -2   8    9.90    0.32
  -5   2  -8   11.09    0.38
  -5   2  -8   10.74    0.36
  -5   2  -8   10.20    0.49
  -5   2  -8   10.41    0.33
  -6   2  -8    1.18    0.14
  -6   2  -8    0.96    0.18
  -6   2  -8    1.07    0.12
  -7   2  -8    0.23    0.15
  -7   2  -8    0.18    0.09
  -7   2  -8    0.19    0.08
  -8  -1   8    1.35    0.11
  -8  -1   8    1.41    0.13
  -8  -1   8    1.57    0.11
  -7  -1   8    8.30    0.27
  -7  -1   8    8.19    0.24
  -7  -1   8    8.37    0.24
  -6  -1   8   12.79    0.36
  -6  -1   8   13.12    0.33
  -6  -1   8   12.98    0.33
  -5  -1   8   35.56    0.76
  -5  -1   8   34.69    0.82
  -5  -1   8   35.52    0.77
  -5  -1   8   33.91    0.77
   4   1  -8    6.23    0.16
   4   1  -8    6.07    0.29
  -4  -1   8    6.25    0.20
  -4  -1   8    5.98    0.19
  -4  -1   8    6.21    0.19
  -4  -1   8    6.52    0.19
   3   1  -8   24.35    0.54
   3   1  -8   23.91    0.75
  -3  -1   8   23.81    0.59
  -3  -1   8   23.03    0.54
  -3  -1   8   23.93    0.54
   2   1  -8    6.29    0.19
  -2  -1   8    6.21    0.24
  -2  -1   8    6.32    0.21
  -2  -1   8    5.96    0.19
  -2  -1   8    6.35    0.20
  -2  -1   8    6.26    0.19
   1   1  -8    5.48    0.18
   1   1  -8    5.43    0.17
  -1  -1   8    5.54    0.22
  -1  -1   8    5.17    0.18
  -1  -1   8    5.52    0.20
  -1  -1   8    5.33    0.17
  -1  -1   8    5.66    0.18
   0  -1   8    0.89    0.10
  -1   1  -8   11.84    0.34
  -1   1  -8   11.75    0.32
  -1   1  -8   13.07    0.46
  -1   1  -8   13.30    0.37
   1  -1   8   11.80    0.33
   1  -1   8   11.93    0.36
   1  -1   8   11.68    0.32
  -2   1  -8   73.00    1.56
  -2   1  -8   73.95    1.61
  -2   1  -8   76.57    2.22
  -2   1  -8   76.86    1.72
   2  -1   8   72.31    1.70
   2  -1   8   73.77    1.56
  -3   1  -8   72.82    2.18
  -3   1  -8   73.60    1.69
  -3   1  -8   73.22    1.54
  -3   1  -8   73.31    1.59
   3  -1   8   69.57    1.67
  -4   1  -8   31.45    0.81
  -4   1  -8   30.37    0.73
  -4   1  -8   31.89    0.77
  -4   1  -8   31.59    1.05
   4  -1   8   29.71    0.78
  -5   1  -8    5.92    0.25
  -5   1  -8    5.79    0.27
  -5   1  -8    5.77    0.36
  -6   1  -8    4.34    0.34
  -6   1  -8    4.32    0.25
  -6   1  -8    4.42    0.24
  -7   1  -8    0.39    0.11
  -7   1  -8    0.17    0.15
  -7   1  -8    0.39    0.09
  -8   0   8    0.27    0.06
  -8   0   8    0.24    0.05
  -8   0   8    0.25    0.05
  -7   0   8    1.22    0.09
  -7   0   8    1.12    0.08
  -7   0   8    1.23    0.09
  -6   0   8   23.40    0.57
  -6   0   8   23.58    0.53
  -6   0   8   24.18    0.52
  -6   0   8   23.51    0.54
   5   0  -8   53.26    1.64
  -5   0   8   53.98    1.15
  -5   0   8   55.62    1.15
  -5   0   8   54.50    1.23
  -5   0   8   55.17    1.13
   4   0  -8   69.69    2.05
  -4   0   8   72.89    1.58
  -4   0   8   70.57    1.48
  -4   0   8   68.92    1.45
   3   0  -8   36.79    0.82
   3   0  -8   39.34    1.16
  -3   0   8   39.09    0.83
  -3   0   8   37.36    0.88
  -3   0   8   39.83    0.90
  -3   0   8   39.30    0.84
  -2   0   8   23.47    0.72
  -2   0   8   23.66    0.58
  -2   0   8   24.56    0.54
  -2   0   8   23.37    0.55
  -2   0   8   23.66    0.59
   1   0  -8   37.50    0.91
   1   0  -8   40.22    0.87
  -1   0   8   39.92    1.16
  -1   0   8   37.86    0.92
  -1   0   8   38.07    0.92
  -1   0   8   39.98    0.85
  -1   0   8   39.29    0.87
   0   0  -8    0.05    0.04
   0   0  -8    0.09    0.05
   0   0  -8    0.06    0.03
   0   0   8   -0.01    0.03
   0   0   8    0.16    0.05
   0   0   8    0.09    0.04
   0   0   8    0.07    0.04
  -1   0  -8   27.49    0.87
  -1   0  -8   26.95    0.68
  -1   0  -8   27.68    0.65
   1   0   8   25.85    0.62
   1   0   8   27.36    0.64
   1   0   8   26.29    0.68
  -2   0  -8   15.76    0.45
  -2   0  -8   15.81    0.42
  -2   0  -8   15.71    0.56
   2   0   8   15.79    0.40
   2   0   8   15.06    0.39
   2   0   8   15.61    0.45
  -3   0  -8   32.55    1.05
  -3   0  -8   31.91    0.82
  -3   0  -8   31.31    0.77
   3   0   8   32.55    0.81
  -4   0  -8   31.30    0.82
  -4   0  -8   31.96    1.06
  -4   0  -8   31.68    0.78
   4   0   8   30.63    0.80
  -5   0  -8   22.10    0.61
  -5   0  -8   22.20    0.64
  -5   0  -8   22.91    0.84
  -6   0  -8    8.15    0.33
  -6   0  -8    8.60    0.36
  -6   0  -8    9.51    0.49
  -8   1   8    0.08    0.03
  -7   1   8    2.16    0.10
  -7   1   8    2.17    0.09
  -6   1   8    2.73    0.11
  -6   1   8    2.79    0.10
  -6   1   8    2.93    0.10
   5  -1  -8   12.72    0.52
  -5   1   8   13.50    0.31
  -5   1   8   13.76    0.35
  -5   1   8   13.94    0.32
  -5   1   8   13.39    0.33
   4  -1  -8   65.79    1.91
  -4   1   8   64.34    1.44
  -4   1   8   64.75    1.37
  -4   1   8   65.04    1.46
   3  -1  -8   80.03    2.29
   3  -1  -8   83.62    1.64
  -3   1   8   76.50    1.77
  -3   1   8   78.18    1.78
  -3   1   8   81.37    1.68
  -2   1   8  130.07    2.85
  -2   1   8  129.41    2.85
  -2   1   8  126.46    3.64
  -2   1   8  127.21    2.61
  -2   1   8  133.26    2.67
   1  -1  -8   10.85    0.41
   1  -1  -8   12.53    0.33
   1  -1  -8   13.44    0.36
  -1   1   8   13.78    0.44
  -1   1   8   12.84    0.33
  -1   1   8   13.88    0.35
  -1   1   8   13.41    0.36
  -1   1   8   12.65    0.36
   0  -1  -8    4.17    0.17
   0  -1  -8    5.34    0.22
   0  -1  -8    4.51    0.18
   0   1   8    4.26    0.18
   0   1   8    4.15    0.20
   0   1   8    4.64    0.17
  -1  -1  -8    6.47    0.23
  -1  -1  -8    7.03    0.29
   1   1   8    6.69    0.21
   1   1   8    6.33    0.29
   1   1   8    6.83    0.24
   1   1   8    6.44    0.21
  -2  -1  -8    3.26    0.20
  -2  -1  -8    3.38    0.17
  -2  -1  -8    3.22    0.16
   2   1   8    3.64    0.18
   2   1   8    3.39    0.15
   2   1   8    3.32    0.15
  -3  -1  -8   20.31    0.55
  -3  -1  -8   20.68    0.57
  -3  -1  -8   20.71    0.73
   3   1   8   21.31    0.58
  -4  -1  -8    8.61    0.41
  -4  -1  -8    7.93    0.30
  -4  -1  -8    7.68    0.31
   4   1   8    7.93    0.28
   4   1   8    8.27    0.31
  -5  -1  -8   18.11    0.55
  -5  -1  -8   17.45    0.52
  -5  -1  -8   18.19    0.72
  -6  -1  -8    8.66    0.37
  -6  -1  -8    8.39    0.48
  -6  -1  -8    8.70    0.35
  -6   2   8    0.08    0.03
  -6   2   8    0.09    0.03
   5  -2  -8    8.31    0.39
  -5   2   8    8.67    0.24
  -5   2   8    8.52    0.22
  -5   2   8    8.57    0.24
   4  -2  -8   23.44    0.79
  -4   2   8   23.62    0.57
  -4   2   8   23.99    0.57
  -4   2   8   24.04    0.54
   3  -2  -8   42.94    0.87
   3  -2  -8   41.09    1.25
  -3   2   8   41.32    0.96
  -3   2   8   41.80    0.96
  -3   2   8   41.81    0.90
  -3   2   8   40.47    1.19
   2  -2  -8   94.94    2.12
   2  -2  -8   97.34    2.71
  -2   2   8   99.11    2.72
  -2   2   8   92.35    2.13
  -2   2   8   96.27    2.13
  -2   2   8   95.28    2.00
   1  -2  -8  111.24    3.22
   1  -2  -8  117.14    2.54
   1  -2  -8  115.94    2.37
  -1   2   8  116.35    2.53
  -1   2   8  112.79    2.53
  -1   2   8  110.59    3.23
  -1   2   8  114.43    2.37
   0  -2  -8   34.04    0.78
   0  -2  -8   34.33    0.83
   0  -2  -8   35.02    1.04
   0   2   8   34.51    0.78
   0   2   8   33.84    0.77
   0   2   8   34.40    0.83
  -1  -2  -8   28.91    0.89
  -1  -2  -8   28.14    0.68
  -1  -2  -8   27.37    0.71
   1   2   8   27.54    0.66
   1   2   8   29.70    0.73
   1   2   8   29.27    0.66
  -2  -2  -8    0.11    0.07
  -2  -2  -8    0.27    0.07
  -2  -2  -8    0.07    0.05
   2   2   8    0.02    0.05
   2   2   8    0.00    0.04
   2   2   8    0.14    0.05
  -3  -2  -8    0.27    0.08
  -3  -2  -8    0.52    0.12
  -3  -2  -8    0.37    0.08
   3   2   8    0.27    0.07
   3   2   8    0.42    0.08
  -4  -2  -8   12.70    0.42
  -4  -2  -8   12.56    0.41
  -4  -2  -8   12.88    0.55
   4   2   8   13.34    0.42
  -5  -2  -8    1.18    0.15
  -5  -2  -8    1.08    0.18
  -5  -2  -8    1.00    0.13
  -6  -2  -8    6.55    0.33
  -6  -2  -8    6.32    0.30
  -6  -2  -8    6.08    0.42
  -8   3   8    5.20    0.32
  -6   3   8    0.53    0.05
  -6   3   8    0.57    0.05
   5  -3  -8    0.59    0.12
  -5   3   8    0.54    0.05
  -5   3   8    0.51    0.05
  -5   3   8    0.48    0.05
   4  -3  -8    5.29    0.28
  -4   3   8    5.11    0.17
  -4   3   8    5.31    0.16
  -4   3   8    5.21    0.17
   3  -3  -8   39.31    1.20
   3  -3  -8   40.13    0.83
  -3   3   8   39.61    0.86
  -3   3   8   39.51    0.91
  -3   3   8   38.58    0.92
   2  -3  -8   42.08    0.97
   2  -3  -8   42.65    1.25
   2  -3  -8   42.23    0.90
  -2   3   8   39.54    0.96
  -2   3   8   41.07    0.90
  -2   3   8   41.16    0.97
   1  -3  -8   79.68    2.15
   1  -3  -8   74.07    1.71
   1  -3  -8   79.27    1.60
  -1   3   8   74.26    1.60
  -1   3   8   72.78    1.70
  -1   3   8   72.73    1.57
   0  -3  -8   92.33    2.08
   0  -3  -8   94.73    1.96
   0  -3  -8   91.69    2.64
   0   3   8   92.11    2.08
   0   3   8   92.96    1.92
   0   3   8   90.37    1.95
  -1  -3  -8   22.39    0.56
  -1  -3  -8   21.41    0.58
  -1  -3  -8   21.72    0.71
   1   3   8   22.13    0.59
   1   3   8   21.99    0.53
  -2  -3  -8   23.32    0.60
  -2  -3  -8   23.79    0.63
  -2  -3  -8   23.35    0.78
   2   3   8   22.93    0.58
   2   3   8   23.14    0.63
   2   3   8   23.79    0.59
  -3  -3  -8    1.19    0.16
  -3  -3  -8    0.93    0.10
  -3  -3  -8    1.04    0.12
   3   3   8    1.32    0.14
   3   3   8    1.23    0.12
  -4  -3  -8    0.34    0.10
  -4  -3  -8    0.25    0.09
  -4  -3  -8    0.32    0.12
   4   3   8    0.32    0.09
  -5  -3  -8    6.29    0.40
  -5  -3  -8    6.20    0.31
  -5  -3  -8    5.82    0.29
  -7   4   8   13.61    0.52
  -6   4   8   12.35    0.44
  -6   4   8   12.02    0.31
  -6   4   8   12.16    0.29
   5  -4  -8   12.09    0.50
  -5   4   8   11.85    0.40
  -5   4   8   11.65    0.31
  -5   4   8   12.16    0.30
   4  -4  -8    1.29    0.15
  -4   4   8    1.11    0.09
  -4   4   8    1.17    0.08
   3  -4  -8   10.64    0.43
   3  -4  -8   10.94    0.27
   3  -4  -8   11.26    0.30
  -3   4   8   11.00    0.29
  -3   4   8   11.11    0.30
  -3   4   8   10.85    0.31
   2  -4  -8    2.88    0.12
   2  -4  -8    2.69    0.18
   2  -4  -8    2.54    0.13
  -2   4   8    2.63    0.12
  -2   4   8    2.54    0.12
  -2   4   8    2.62    0.13
   1  -4  -8   26.78    0.78
   1  -4  -8   25.43    0.65
   1  -4  -8   26.44    0.61
  -1   4   8   25.61    0.65
  -1   4   8   25.89    0.61
  -1   4   8   26.27    0.61
   0  -4  -8   44.74    0.98
   0  -4  -8   44.24    1.04
   0  -4  -8   41.97    1.28
   0   4   8   42.82    0.96
   0   4   8   42.62    1.04
  -1  -4  -8   34.10    1.06
  -1  -4  -8   34.48    0.86
  -1  -4  -8   33.53    0.81
   1   4   8   34.15    0.86
   1   4   8   33.98    0.78
   1   4   8   34.48    0.81
  -2  -4  -8   19.55    0.55
  -2  -4  -8   19.13    0.67
  -2  -4  -8   18.55    0.52
   2   4   8   18.63    0.55
   2   4   8   18.64    0.51
  -3  -4  -8    7.22    0.31
  -3  -4  -8    7.66    0.30
  -3  -4  -8    7.39    0.37
   3   4   8    7.29    0.30
   3   4   8    7.02    0.28
  -4  -4  -8    3.27    0.29
  -4  -4  -8    3.12    0.22
  -4  -4  -8    3.48    0.24
  -5  -4  -8    0.38    0.11
  -5  -4  -8    0.30    0.15
  -5  -4  -8    0.55    0.13
  -8   5   8   11.77    0.27
  -7   5   8    7.27    0.20
  -7   5   8    7.74    0.20
  -6   5   8   19.71    0.46
  -6   5   8   20.17    0.46
   5  -5  -8   14.47    0.58
  -5   5   8   15.11    0.37
  -5   5   8   14.87    0.36
  -5   5   8   14.49    0.37
   4  -5  -8   31.89    0.78
   4  -5  -8   34.00    1.11
   4  -5  -8   35.83    0.73
  -4   5   8   35.37    0.77
  -4   5   8   35.82    0.77
  -4   5   8   35.46    0.78
  -4   5   8   33.84    0.82
   3  -5  -8    0.08    0.03
   3  -5  -8    0.11    0.05
   3  -5  -8    0.06    0.07
  -3   5   8    0.11    0.04
  -3   5   8    0.17    0.05
  -3   5   8    0.11    0.05
  -3   5   8    0.05    0.04
   2  -5  -8    7.20    0.25
   2  -5  -8    7.44    0.33
   2  -5  -8    8.06    0.24
  -2   5   8    7.80    0.26
  -2   5   8    7.60    0.24
  -2   5   8    7.76    0.24
   1  -5  -8   20.10    0.50
   1  -5  -8   19.74    0.52
   1  -5  -8   19.47    0.65
   1  -5  -8   18.91    0.58
  -1   5   8   19.82    0.49
  -1   5   8   19.07    0.49
  -1   5   8   18.87    0.50
   0  -5  -8   20.19    0.55
   0  -5  -8   21.00    0.53
   0  -5  -8   19.57    0.64
   0   5   8   20.22    0.56
   0   5   8   20.16    0.53
   0   5   8   19.77    0.51
  -1  -5  -8   26.17    0.70
  -1  -5  -8   26.36    0.66
  -1  -5  -8   25.27    0.84
   1   5   8   26.37    0.70
   1   5   8   26.39    0.67
  -2  -5  -8   20.96    0.57
  -2  -5  -8   21.24    0.60
  -2  -5  -8   20.11    0.73
   2   5   8   20.53    0.57
   2   5   8   21.16    0.60
  -3  -5  -8    9.46    0.37
  -3  -5  -8    8.98    0.44
  -3  -5  -8    9.43    0.36
   3   5   8    9.13    0.36
  -4  -5  -8    6.11    0.31
  -4  -5  -8    5.66    0.30
  -4  -5  -8    5.79    0.37
  -8   6   8    0.14    0.04
  -8   6   8    0.19    0.04
  -7   6   8    3.30    0.13
  -7   6   8    3.17    0.13
  -6   6   8    8.38    0.24
  -6   6   8    8.20    0.24
   5  -6  -8   16.52    0.65
  -5   6   8   16.76    0.41
  -5   6   8   16.56    0.42
   4  -6  -8    8.33    0.38
  -4   6   8    7.87    0.26
  -4   6   8    8.00    0.25
   3  -6  -8   37.22    1.17
   3  -6  -8   36.60    0.89
  -3   6   8   37.32    0.86
  -3   6   8   37.41    0.84
   2  -6  -8    0.32    0.06
   2  -6  -8    0.32    0.09
   2  -6  -8    0.30    0.07
  -2   6   8    0.28    0.07
  -2   6   8    0.29    0.06
  -2   6   8    0.34    0.06
   1  -6  -8    1.37    0.09
   1  -6  -8    1.33    0.13
   1  -6  -8    1.50    0.14
   1  -6  -8    1.34    0.14
  -1   6   8    0.93    0.10
  -1   6   8    1.77    0.15
   0  -6  -8    3.64    0.20
   0  -6  -8    3.60    0.19
   0  -6  -8    3.33    0.18
   0   6   8    3.69    0.21
   0   6   8    3.43    0.20
  -1  -6  -8    6.23    0.28
  -1  -6  -8    5.88    0.29
  -1  -6  -8    6.52    0.27
   1   6   8    6.21    0.27
   1   6   8    6.46    0.29
  -2  -6  -8    7.37    0.37
  -2  -6  -8    7.96    0.33
  -2  -6  -8    7.18    0.31
   2   6   8    8.07    0.33
   2   6   8    7.55    0.31
  -3  -6  -8    8.82    0.36
  -3  -6  -8    8.48    0.44
  -3  -6  -8    9.31    0.38
   3   6   8    9.02    0.37
  -4  -6  -8    3.69    0.27
  -4  -6  -8    3.34    0.26
  -4  -6  -8    3.20    0.30
  -8   7   8   -0.02    0.04
  -8   7   8   -0.01    0.04
  -7   7   8    3.70    0.15
  -7   7   8    3.70    0.16
  -6   7   8    5.72    0.21
  -6   7   8    5.57    0.20
  -5   7   8   14.79    0.39
  -5   7   8   14.38    0.40
   4  -7  -8   17.88    0.67
  -4   7   8   18.13    0.48
  -4   7   8   18.15    0.47
   3  -7  -8   10.34    0.32
   3  -7  -8   10.09    0.44
  -3   7   8   10.50    0.34
  -3   7   8   10.50    0.32
   2  -7  -8   22.53    0.56
   2  -7  -8   21.45    0.74
   2  -7  -8   22.00    0.59
  -2   7   8   21.60    0.58
   1  -7  -8    0.47    0.10
   1  -7  -8    0.59    0.10
   1  -7  -8    0.43    0.08
  -1   7   8    0.77    0.11
   0  -7  -8    0.53    0.10
   0  -7  -8    0.51    0.09
   0  -7  -8    0.47    0.09
   0  -7  -8    0.53    0.10
   0   7   8    0.49    0.10
  -1  -7  -8    4.42    0.26
  -1  -7  -8    4.77    0.25
  -1  -7  -8    4.70    0.26
   1   7   8    4.45    0.25
   1   7   8    4.92    0.28
  -2  -7  -8    4.59    0.30
  -2  -7  -8    5.62    0.29
  -2  -7  -8    4.97    0.27
   2   7   8    5.23    0.28
  -3  -7  -8    4.18    0.32
  -3  -7  -8    4.53    0.28
  -3  -7  -8    4.62    0.29
  -7   8   8    0.57    0.08
  -7   8   8    0.40    0.07
  -6   8   8    3.61    0.18
  -6   8   8    3.55    0.17
  -5   8   8    1.49    0.13
  -5   8   8    1.64    0.15
   4  -8  -8    3.44    0.26
  -4   8   8    3.45    0.20
   3  -8  -8    8.40    0.39
  -3   8   8    8.29    0.31
   2  -8  -8   12.02    0.39
   2  -8  -8   11.68    0.47
  -2   8   8   11.83    0.40
   1  -8  -8    5.10    0.25
  -1   8   8    4.75    0.26
   0  -8  -8    1.29    0.13
   0  -8  -8    1.74    0.18
   0   8   8    1.25    0.14
  -1  -8  -8    0.04    0.09
  -1  -8  -8    0.09    0.09
   1   8   8    0.06    0.09
   1   8   8    0.06    0.10
  -2  -8  -8    0.11    0.09
  -2  -8  -8    0.12    0.10
   2   8   8    0.01    0.10
  -6   9   8    1.68    0.16
  -5   9   8    1.04    0.12
  -4   9   8   10.03    0.36
  -3   9   8    5.44    0.27
  -2   9   8    4.42    0.25
   1  -9  -8    8.47    0.35
  -1   9   8    8.47    0.36
   0  -9  -8    1.31    0.15
   0   9   8    1.41    0.16
  -4  10   8    0.08    0.08
  -3  10   8    0.66    0.13
  -2  10   8    3.46    0.25
  -1  -9   9    3.80    0.25
  -1  -9   9    4.45    0.28
   0   9  -9    2.32    0.20
   0  -9   9    2.82    0.21
   0  -9   9    2.48    0.23
  -1   9  -9    0.26    0.09
   1  -9   9    0.42    0.11
  -2   9  -9    0.13    0.09
   2  -9   9    0.10    0.09
  -3   9  -9    1.56    0.16
  -4   9  -9    3.95    0.25
  -3  -8   9    5.37    0.31
  -3  -8   9    4.99    0.27
  -2  -8   9    9.37    0.39
  -2  -8   9    9.98    0.36
  -1  -8   9   12.06    0.40
  -1  -8   9   12.11    0.44
   0   8  -9    4.00    0.23
   0  -8   9    4.50    0.26
   0  -8   9    4.03    0.22
  -1   8  -9    7.75    0.31
   1  -8   9    7.91    0.33
  -2   8  -9    0.05    0.08
   2  -8   9   -0.03    0.07
  -3   8  -9    0.49    0.10
   3  -8   9    0.87    0.12
  -4   8  -9    1.66    0.16
  -5   8  -9    7.86    0.33
  -5   8  -9    7.55    0.43
  -4  -7   9    0.78    0.14
  -4  -7   9    0.47    0.10
  -3  -7   9    3.23    0.23
  -3  -7   9    2.66    0.20
  -2  -7   9    9.26    0.36
  -2  -7   9    8.98    0.32
   1   7  -9    7.57    0.28
  -1  -7   9    7.33    0.28
  -1  -7   9    7.60    0.32
   0   7  -9   21.45    0.58
   0  -7   9   22.13    0.63
  -1   7  -9   11.43    0.37
   1  -7   9   11.91    0.40
  -2   7  -9   11.01    0.36
   2  -7   9   10.99    0.38
  -3   7  -9    1.62    0.15
   3  -7   9    1.64    0.16
  -4   7  -9    0.79    0.11
  -4   7  -9    0.59    0.15
  -5   7  -9    0.55    0.11
  -5   7  -9    0.66    0.16
  -6   7  -9    1.90    0.25
  -6   7  -9    1.13    0.14
  -5  -6   9    1.54    0.17
  -5  -6   9    1.43    0.15
  -4  -6   9   -0.02    0.08
  -4  -6   9   -0.04    0.07
  -3  -6   9    1.87    0.18
  -3  -6   9    1.79    0.16
   2   6  -9    5.39    0.23
  -2  -6   9    5.34    0.26
  -2  -6   9    5.27    0.23
   1   6  -9   20.57    0.54
  -1  -6   9   20.25    0.53
  -1  -6   9   20.16    0.58
   0   6  -9   25.68    0.65
   0  -6   9   26.46    0.71
  -1   6  -9   33.79    0.82
   1  -6   9   34.90    0.88
  -2   6  -9   14.21    0.42
   2  -6   9   14.66    0.45
  -3   6  -9    8.62    0.31
  -3   6  -9    8.93    0.42
   3  -6   9    8.90    0.32
  -4   6  -9    6.45    0.28
  -4   6  -9    6.98    0.38
   4  -6   9    6.86    0.27
  -5   6  -9    1.06    0.13
  -5   6  -9    1.21    0.19
  -6   6  -9    2.91    0.30
  -6   6  -9    3.03    0.22
  -6  -5   9    5.80    0.29
  -6  -5   9    5.90    0.26
  -5  -5   9    2.95    0.17
  -5  -5   9    2.98    0.19
  -5  -5   9    3.06    0.21
  -4  -5   9    4.60    0.21
  -4  -5   9    5.26    0.25
  -4  -5   9    4.81    0.22
   3   5  -9    2.08    0.14
  -3  -5   9    2.21    0.14
  -3  -5   9    2.17    0.15
  -3  -5   9    2.22    0.18
   2   5  -9    2.92    0.15
   2   5  -9    3.00    0.16
  -2  -5   9    2.76    0.16
  -2  -5   9    2.99    0.18
  -2  -5   9    2.92    0.16
   1   5  -9    6.83    0.24
  -1  -5   9    6.87    0.27
  -1  -5   9    6.42    0.24
  -1  -5   9    6.98    0.24
   0   5  -9   12.56    0.36
   0   5  -9   11.82    0.33
   0  -5   9   11.00    0.33
   0  -5   9   12.23    0.38
  -1   5  -9   28.51    0.68
  -1   5  -9   29.62    0.71
   1  -5   9   30.18    0.76
   1  -5   9   29.33    0.69
  -2   5  -9   16.29    0.44
  -2   5  -9   17.56    0.47
  -2   5  -9   16.61    0.63
   2  -5   9   17.63    0.45
   2  -5   9   17.08    0.49
  -3   5  -9   27.68    0.95
  -3   5  -9   27.00    0.69
   3  -5   9   28.08    0.72
  -4   5  -9    9.95    0.34
  -4   5  -9    9.93    0.47
   4  -5   9   10.22    0.34
  -5   5  -9   13.87    0.60
  -5   5  -9   13.33    0.43
  -6   5  -9   -0.07    0.13
  -6   5  -9    0.06    0.07
  -6  -4   9    7.40    0.30
  -6  -4   9    7.48    0.27
  -6  -4   9    6.86    0.26
  -5  -4   9   12.82    0.41
  -5  -4   9   12.03    0.36
  -5  -4   9   12.01    0.36
  -4  -4   9   31.74    0.74
  -4  -4   9   30.86    0.74
  -4  -4   9   32.21    0.81
   3   4  -9    5.06    0.23
   3   4  -9    4.89    0.18
  -3  -4   9    4.62    0.20
  -3  -4   9    5.12    0.22
  -3  -4   9    4.58    0.19
   2   4  -9    5.23    0.20
   2   4  -9    5.50    0.23
  -2  -4   9    5.32    0.21
  -2  -4   9    5.24    0.20
  -2  -4   9    5.52    0.23
  -2  -4   9    5.44    0.20
   1   4  -9    1.99    0.13
  -1  -4   9    1.90    0.12
  -1  -4   9    1.87    0.14
  -1  -4   9    2.05    0.13
   0   4  -9   17.04    0.43
   0   4  -9   18.33    0.46
   0  -4   9   17.17    0.49
   0  -4   9   17.34    0.44
  -1   4  -9   13.14    0.37
  -1   4  -9   12.37    0.34
   1  -4   9   13.28    0.35
   1  -4   9   13.17    0.39
  -2   4  -9   92.05    1.94
  -2   4  -9   93.94    2.76
  -2   4  -9   93.20    2.00
   2  -4   9   94.17    1.95
   2  -4   9   93.79    2.13
  -3   4  -9   35.09    0.80
  -3   4  -9   35.69    1.15
  -3   4  -9   34.06    0.84
   3  -4   9   35.57    0.88
  -4   4  -9    9.79    0.46
  -4   4  -9    9.53    0.33
  -4   4  -9    9.39    0.30
   4  -4   9    9.36    0.32
  -5   4  -9    3.97    0.33
  -5   4  -9    3.71    0.21
  -6   4  -9    6.64    0.32
  -6   4  -9    6.79    0.30
  -6   4  -9    7.40    0.45
  -7   4  -9    0.23    0.16
  -7   4  -9    0.20    0.08
  -7   4  -9    0.01    0.09
  -7  -3   9    0.81    0.11
  -7  -3   9    0.60    0.09
  -7  -3   9    0.77    0.09
  -6  -3   9    9.61    0.30
  -6  -3   9    9.38    0.30
  -6  -3   9   10.01    0.33
  -5  -3   9   24.80    0.60
  -5  -3   9   24.61    0.60
  -5  -3   9   25.74    0.66
   4   3  -9    0.49    0.10
  -4  -3   9    0.43    0.08
  -4  -3   9    0.70    0.07
  -4  -3   9    0.40    0.07
   3   3  -9   24.00    0.61
   3   3  -9   27.69    0.84
  -3  -3   9   27.04    0.63
  -3  -3   9   27.67    0.69
  -3  -3   9   27.10    0.62
  -3  -3   9   27.28    0.64
   2   3  -9   39.13    1.13
   2   3  -9   37.20    0.85
  -2  -3   9   37.85    0.84
  -2  -3   9   37.37    0.91
  -2  -3   9   37.30    0.86
   1   3  -9   17.20    0.44
  -1  -3   9   17.73    0.48
  -1  -3   9   17.56    0.44
  -1  -3   9   16.75    0.44
   0   3  -9   -0.01    0.04
   0   3  -9    0.06    0.03
   0  -3   9    0.01    0.05
   0  -3   9   -0.02    0.03
  -1   3  -9    5.17    0.20
  -1   3  -9    5.07    0.18
   1  -3   9    5.23    0.19
   1  -3   9    5.15    0.21
  -2   3  -9   14.99    0.55
  -2   3  -9   13.91    0.38
  -2   3  -9   14.19    0.40
   2  -3   9   14.73    0.43
   2  -3   9   14.92    0.38
  -3   3  -9    6.74    0.28
  -3   3  -9    6.83    0.23
  -3   3  -9    6.55    0.25
  -3   3  -9    7.12    0.36
   3  -3   9    7.14    0.26
  -4   3  -9   40.17    0.97
  -4   3  -9   40.55    1.34
  -4   3  -9   41.57    1.03
  -4   3  -9   39.14    0.92
   4  -3   9   41.31    1.00
  -5   3  -9   17.00    0.51
  -5   3  -9   17.50    0.54
  -5   3  -9   17.59    0.72
  -6   3  -9    3.59    0.33
  -6   3  -9    3.60    0.24
  -6   3  -9    3.87    0.22
  -7   3  -9    4.78    0.25
  -7   3  -9    3.92    0.26
  -7   3  -9    3.97    0.38
  -7  -2   9    1.01    0.09
  -7  -2   9    1.09    0.10
  -7  -2   9    1.03    0.11
  -6  -2   9    0.83    0.08
  -6  -2   9    1.09    0.10
  -6  -2   9    1.06    0.10
  -5  -2   9   18.74    0.50
  -5  -2   9   18.92    0.46
  -5  -2   9   18.34    0.45
   4   2  -9   65.22    1.36
   4   2  -9   63.85    1.87
  -4  -2   9   64.95    1.35
  -4  -2   9   64.46    1.47
  -4  -2   9   63.38    1.37
  -4  -2   9   62.10    1.37
   3   2  -9   79.59    2.23
   3   2  -9   74.36    1.64
  -3  -2   9   79.47    1.62
  -3  -2   9   78.04    1.65
  -3  -2   9   78.13    1.77
   2   2  -9   33.22    0.73
  -2  -2   9   32.88    0.73
  -2  -2   9   32.80    0.79
  -2  -2   9   30.68    0.77
  -2  -2   9   32.02    0.74
   1   2  -9   28.76    0.67
  -1  -2   9   29.17    0.72
  -1  -2   9   29.50    0.66
  -1  -2   9   28.28    0.67
   0   2  -9   22.97    0.53
   0   2  -9   20.87    0.74
   0   2  -9   22.90    0.55
   0  -2   9   22.36    0.55
   0  -2   9   23.14    0.54
   0  -2   9   23.50    0.59
  -1   2  -9    0.15    0.04
  -1   2  -9    0.15    0.05
  -1   2  -9    0.19    0.07
   1  -2   9    0.28    0.06
   1  -2   9    0.20    0.05
  -2   2  -9    2.16    0.14
  -2   2  -9    2.08    0.18
  -2   2  -9    1.86    0.14
  -2   2  -9    1.72    0.11
   2  -2   9    1.78    0.13
   2  -2   9    1.88    0.11
  -3   2  -9   46.92    1.11
  -3   2  -9   48.72    1.53
  -3   2  -9   50.98    1.18
  -3   2  -9   47.76    1.07
   3  -2   9   47.35    1.16
  -4   2  -9   16.20    0.49
  -4   2  -9   14.58    0.42
  -4   2  -9   16.06    0.63
  -4   2  -9   15.13    0.45
   4  -2   9   15.54    0.46
  -5   2  -9   14.78    0.45
  -5   2  -9   13.96    0.62
  -5   2  -9   14.43    0.47
  -6   2  -9   12.76    0.43
  -6   2  -9   13.55    0.46
  -6   2  -9   12.72    0.60
  -7   2  -9    2.04    0.19
  -7   2  -9    1.46    0.17
  -7   2  -9    1.71    0.27
  -8  -1   9    2.97    0.15
  -8  -1   9    2.84    0.15
  -8  -1   9    2.93    0.16
  -7  -1   9    0.50    0.07
  -7  -1   9    0.48    0.07
  -7  -1   9    0.48    0.06
  -6  -1   9    0.12    0.04
  -6  -1   9    0.07    0.05
  -6  -1   9    0.16    0.05
   5   1  -9    0.77    0.12
  -5  -1   9    0.69    0.08
  -5  -1   9    0.59    0.07
  -5  -1   9    0.49    0.06
  -5  -1   9    0.65    0.06
   4   1  -9   41.67    1.28
   4   1  -9   41.41    0.89
  -4  -1   9   42.30    0.92
  -4  -1   9   42.11    0.99
  -4  -1   9   43.13    0.91
   3   1  -9   33.12    1.02
   3   1  -9   33.29    0.74
  -3  -1   9   33.14    0.78
  -3  -1   9   32.92    0.80
  -3  -1   9   33.74    0.73
  -3  -1   9   32.00    0.74
   2   1  -9   60.60    1.25
  -2  -1   9   58.72    1.26
  -2  -1   9   56.87    1.23
  -2  -1   9   55.53    1.32
  -2  -1   9   58.54    1.34
   1   1  -9   57.62    1.24
  -1  -1   9   56.73    1.24
  -1  -1   9   56.38    1.21
  -1  -1   9   56.39    1.30
  -1  -1   9   57.03    1.32
   0   1  -9   36.20    1.09
   0   1  -9   34.46    0.86
   0   1  -9   37.57    0.82
   0   1  -9   36.21    0.78
   0  -1   9   33.46    0.78
   0  -1   9   35.13    0.86
   0  -1   9   33.57    0.81
  -1   1  -9   26.46    0.62
  -1   1  -9   26.68    0.65
  -1   1  -9   27.14    0.69
  -1   1  -9   28.25    0.87
   1  -1   9   27.03    0.69
   1  -1   9   25.61    0.62
  -2   1  -9    1.49    0.13
  -2   1  -9    1.41    0.12
  -2   1  -9    1.36    0.16
  -2   1  -9    1.88    0.11
   2  -1   9    1.23    0.12
   2  -1   9    1.35    0.10
  -3   1  -9    0.93    0.09
  -3   1  -9    1.09    0.15
  -3   1  -9    1.38    0.14
  -3   1  -9    1.01    0.10
   3  -1   9    1.23    0.12
  -4   1  -9    6.20    0.27
  -4   1  -9    6.22    0.26
  -4   1  -9    6.14    0.35
   4  -1   9    5.83    0.25
  -5   1  -9    8.31    0.32
  -5   1  -9    8.34    0.34
  -5   1  -9    7.99    0.44
  -6   1  -9    4.38    0.35
  -6   1  -9    4.68    0.25
  -6   1  -9    4.13    0.26
  -8   0   9    4.05    0.16
  -8   0   9    4.06    0.16
  -7   0   9    7.41    0.21
  -7   0   9    7.25    0.23
  -6   0   9    2.49    0.11
  -6   0   9    2.28    0.12
   5   0  -9    0.08    0.08
  -5   0   9    0.16    0.05
  -5   0   9    0.10    0.04
  -5   0   9    0.12    0.04
   4   0  -9    2.71    0.20
  -4   0   9    2.79    0.12
  -4   0   9    2.87    0.13
  -4   0   9    2.87    0.12
  -4   0   9    2.91    0.12
   3   0  -9   39.19    1.16
   3   0  -9   36.46    0.82
  -3   0   9   37.63    0.90
  -3   0   9   37.14    0.88
  -3   0   9   38.54    0.84
  -3   0   9   38.49    0.82
   2   0  -9  108.83    2.22
  -2   0   9  105.96    2.37
  -2   0   9  109.74    2.18
  -2   0   9  103.39    2.36
  -2   0   9  103.93    3.03
  -2   0   9  106.63    2.23
   1   0  -9  129.78    2.60
   1   0  -9  120.61    2.76
  -1   0   9  122.84    2.77
  -1   0   9  126.00    2.60
  -1   0   9  124.50    3.57
  -1   0   9  123.07    2.77
  -1   0   9  127.28    2.55
   0   0  -9  128.71    2.64
   0   0  -9  123.44    2.81
   0   0  -9  127.21    3.61
   0   0   9  124.99    2.81
   0   0   9  123.42    2.58
   0   0   9  127.00    2.64
   0   0   9  128.59    3.63
  -1   0  -9   31.46    0.98
  -1   0  -9   30.67    0.73
  -1   0  -9   31.73    0.78
   1   0   9   30.90    0.77
   1   0   9   28.91    0.70
  -2   0  -9    8.61    0.28
  -2   0  -9    8.58    0.37
  -2   0  -9    8.26    0.30
   2   0   9    8.56    0.30
   2   0   9    8.19    0.26
   2   0   9    8.07    0.26
  -3   0  -9    2.66    0.22
  -3   0  -9    2.72    0.18
  -3   0  -9    3.20    0.17
   3   0   9    2.77    0.17
  -4   0  -9    0.00    0.09
  -4   0  -9    0.11    0.06
  -4   0  -9   -0.02    0.07
   4   0   9    0.02    0.06
  -5   0  -9    0.81    0.12
  -5   0  -9    0.74    0.17
  -5   0  -9    0.59    0.12
  -6   0  -9    7.60    0.36
  -6   0  -9    8.33    0.47
  -6   0  -9    7.67    0.33
  -8   1   9    5.30    0.16
  -7   1   9    9.14    0.23
  -7   1   9    8.85    0.25
  -6   1   9    2.25    0.10
  -6   1   9    2.48    0.11
  -6   1   9    2.42    0.10
   5  -1  -9    9.24    0.42
  -5   1   9    9.74    0.28
  -5   1   9    9.67    0.26
  -5   1   9    9.20    0.26
  -5   1   9   10.28    0.25
   4  -1  -9    5.15    0.27
  -4   1   9    4.88    0.17
  -4   1   9    4.78    0.18
  -4   1   9    5.02    0.16
  -4   1   9    4.89    0.17
   3  -1  -9    1.80    0.15
   3  -1  -9    1.83    0.08
  -3   1   9    1.65    0.09
  -3   1   9    1.75    0.10
  -3   1   9    1.71    0.11
  -3   1   9    1.62    0.10
  -3   1   9    1.83    0.10
   2  -1  -9   12.23    0.34
  -2   1   9   14.50    0.35
  -2   1   9   14.75    0.39
  -2   1   9   13.94    0.45
  -2   1   9   14.19    0.39
  -2   1   9   14.46    0.37
   1  -1  -9   84.48    1.82
   1  -1  -9   77.49    2.47
   1  -1  -9   88.77    1.95
  -1   1   9   88.22    1.79
  -1   1   9   91.38    2.49
  -1   1   9   85.39    1.95
  -1   1   9   86.27    1.95
  -1   1   9   88.59    1.83
   0  -1  -9   36.32    1.07
   0  -1  -9   35.58    0.86
   0  -1  -9   34.97    0.81
   0   1   9   35.56    0.79
   0   1   9   32.96    1.08
   0   1   9   35.01    0.81
  -1  -1  -9   80.23    1.68
  -1  -1  -9   78.86    2.29
  -1  -1  -9   78.56    1.79
   1   1   9   73.45    1.63
   1   1   9   75.23    1.64
   1   1   9   80.25    1.79
  -2  -1  -9   43.14    1.36
  -2  -1  -9   42.91    1.07
  -2  -1  -9   44.37    1.02
   2   1   9   42.70    0.98
   2   1   9   45.74    1.08
   2   1   9   46.02    0.98
  -3  -1  -9   14.27    0.45
  -3  -1  -9   14.54    0.43
  -3  -1  -9   14.15    0.56
   3   1   9   14.59    0.44
  -4  -1  -9    2.74    0.25
  -4  -1  -9    2.35    0.19
  -4  -1  -9    2.40    0.18
   4   1   9    2.45    0.17
  -5  -1  -9    0.84    0.17
  -5  -1  -9    0.69    0.12
  -5  -1  -9    0.94    0.14
  -6  -1  -9    0.18    0.09
  -6  -1  -9    0.21    0.15
  -6  -1  -9    0.08    0.10
  -8   2   9    4.59    0.14
  -7   2   9   11.14    0.27
  -7   2   9   11.24    0.29
  -6   2   9   52.62    1.11
  -6   2   9   52.29    1.18
   5  -2  -9    9.79    0.43
  -5   2   9   10.29    0.29
  -5   2   9    9.85    0.28
  -5   2   9    9.82    0.27
   4  -2  -9   14.60    0.55
  -4   2   9   14.94    0.37
  -4   2   9   14.71    0.39
  -4   2   9   14.61    0.39
   3  -2  -9    2.51    0.18
   3  -2  -9    2.55    0.10
  -3   2   9    2.50    0.12
  -3   2   9    2.34    0.11
  -3   2   9    2.61    0.13
  -3   2   9    2.53    0.12
   2  -2  -9    3.24    0.13
   2  -2  -9    2.97    0.13
  -2   2   9    2.92    0.14
  -2   2   9    3.03    0.14
  -2   2   9    2.92    0.13
  -2   2   9    2.85    0.14
   1  -2  -9    0.30    0.05
   1  -2  -9    0.30    0.05
   1  -2  -9    0.42    0.07
  -1   2   9    0.21    0.05
  -1   2   9    0.10    0.05
  -1   2   9    0.38    0.06
   0  -2  -9   68.32    1.48
   0  -2  -9   70.91    2.00
   0  -2  -9   67.94    1.58
   0   2   9   68.70    1.58
   0   2   9   68.51    1.45
   0   2   9   68.28    1.48
   0   2   9   65.87    1.45
  -1  -2  -9   61.00    1.84
  -1  -2  -9   62.84    1.37
  -1  -2  -9   62.70    1.45
   1   2   9   61.33    1.33
   1   2   9   62.12    1.46
   1   2   9   62.89    1.34
  -2  -2  -9   31.14    1.02
  -2  -2  -9   32.35    0.82
  -2  -2  -9   31.21    0.77
   2   2   9   32.67    0.74
   2   2   9   31.61    0.82
  -3  -2  -9   24.13    0.65
  -3  -2  -9   24.96    0.68
  -3  -2  -9   25.00    0.86
   3   2   9   25.62    0.69
  -4  -2  -9   11.44    0.41
  -4  -2  -9   11.76    0.52
  -4  -2  -9   11.26    0.39
   4   2   9   12.00    0.40
  -5  -2  -9    2.69    0.21
  -5  -2  -9    2.58    0.23
  -5  -2  -9    2.95    0.30
  -6  -2  -9    0.04    0.08
  -6  -2  -9    0.01    0.10
  -6  -2  -9    0.02    0.13
  -7   3   9    7.01    0.20
   6  -3  -9   11.51    0.52
  -6   3   9   11.81    0.30
  -6   3   9   12.06    0.32
   5  -3  -9   42.49    1.33
  -5   3   9   43.21    0.91
  -5   3   9   42.03    0.97
  -5   3   9   40.40    0.97
   4  -3  -9   35.37    1.12
  -4   3   9   34.45    1.01
  -4   3   9   35.98    0.78
  -4   3   9   36.27    0.83
  -4   3   9   34.23    0.83
   3  -3  -9   20.90    0.70
   3  -3  -9   19.42    0.50
   3  -3  -9   21.20    0.46
  -3   3   9   20.06    0.48
  -3   3   9   19.89    0.51
  -3   3   9   21.16    0.60
  -3   3   9   20.04    0.52
   2  -3  -9    2.38    0.17
   2  -3  -9    2.61    0.12
  -2   3   9    2.61    0.13
  -2   3   9    2.40    0.13
  -2   3   9    2.57    0.12
   1  -3  -9    1.28    0.11
   1  -3  -9    1.42    0.09
   1  -3  -9    1.22    0.10
  -1   3   9    1.14    0.10
  -1   3   9    1.28    0.10
  -1   3   9    1.25    0.11
   0  -3  -9    7.93    0.26
   0  -3  -9    7.64    0.27
   0  -3  -9    7.55    0.30
   0   3   9    7.75    0.27
   0   3   9    7.20    0.24
  -1  -3  -9   13.74    0.41
  -1  -3  -9   13.51    0.39
  -1  -3  -9   13.39    0.48
   1   3   9   13.64    0.42
   1   3   9   13.27    0.37
   1   3   9   13.25    0.37
  -2  -3  -9   31.18    0.81
  -2  -3  -9   31.41    1.01
  -2  -3  -9   31.21    0.77
   2   3   9   30.17    0.81
  -3  -3  -9   21.08    0.59
  -3  -3  -9   21.70    0.62
  -3  -3  -9   21.16    0.76
   3   3   9   21.68    0.62
   3   3   9   20.69    0.57
  -4  -3  -9    8.95    0.35
  -4  -3  -9    8.73    0.36
  -4  -3  -9    9.05    0.45
   4   3   9    8.86    0.34
  -5  -3  -9    6.55    0.41
  -5  -3  -9    5.71    0.30
  -5  -3  -9    6.33    0.32
  -7   4   9    2.16    0.09
  -7   4   9    2.22    0.11
   6  -4  -9    4.54    0.30
  -6   4   9    4.30    0.21
  -6   4   9    4.40    0.16
   5  -4  -9   19.42    0.71
  -5   4   9   19.01    0.45
  -5   4   9   18.67    0.59
  -5   4   9   19.73    0.48
   4  -4  -9   36.90    1.19
   4  -4  -9   38.55    0.78
  -4   4   9   37.34    0.88
  -4   4   9   36.98    0.89
  -4   4   9   37.53    0.83
   3  -4  -9   49.31    1.04
   3  -4  -9   50.29    1.12
   3  -4  -9   47.98    1.47
  -3   4   9   47.52    1.13
  -3   4   9   48.69    1.06
  -3   4   9   47.56    1.14
   2  -4  -9   30.74    0.69
   2  -4  -9   31.12    0.96
   2  -4  -9   29.41    0.74
  -2   4   9   29.23    0.74
  -2   4   9   29.44    0.69
  -2   4   9   29.07    0.69
   1  -4  -9    5.19    0.19
   1  -4  -9    4.46    0.20
   1  -4  -9    4.68    0.19
  -1   4   9    4.29    0.18
  -1   4   9    4.61    0.18
   0  -4  -9    1.22    0.10
   0  -4  -9    0.92    0.10
   0  -4  -9    1.14    0.12
   0   4   9    0.80    0.09
   0   4   9    0.73    0.08
  -1  -4  -9    2.26    0.17
  -1  -4  -9    2.32    0.16
  -1  -4  -9    2.46    0.17
   1   4   9    2.23    0.16
   1   4   9    2.27    0.17
  -2  -4  -9    9.69    0.41
  -2  -4  -9    9.68    0.34
  -2  -4  -9    9.79    0.36
   2   4   9    9.86    0.36
   2   4   9    9.84    0.34
  -3  -4  -9    6.41    0.30
  -3  -4  -9    6.61    0.29
  -3  -4  -9    6.28    0.35
   3   4   9    6.07    0.28
   3   4   9    6.30    0.27
  -4  -4  -9    7.65    0.42
  -4  -4  -9    8.00    0.36
  -4  -4  -9    8.22    0.34
  -5  -4  -9    6.34    0.34
  -5  -4  -9    5.82    0.32
  -5  -4  -9    5.75    0.40
  -8   5   9    0.26    0.04
  -7   5   9    0.27    0.05
  -7   5   9    0.14    0.05
  -6   5   9    2.68    0.12
  -6   5   9    2.81    0.13
  -6   5   9    2.56    0.12
   5  -5  -9    8.56    0.42
  -5   5   9    8.75    0.26
  -5   5   9    8.67    0.25
   4  -5  -9    9.14    0.42
   4  -5  -9    9.25    0.23
  -4   5   9    9.06    0.27
   3  -5  -9   41.27    1.28
   3  -5  -9   41.27    0.97
   3  -5  -9   40.96    0.90
  -3   5   9   41.22    0.92
  -3   5   9   41.20    0.91
  -3   5   9   40.30    0.99
   2  -5  -9   61.46    1.44
   2  -5  -9   63.94    1.35
   2  -5  -9   63.73    1.84
  -2   5   9   63.21    1.37
  -2   5   9   61.15    1.34
  -2   5   9   59.54    1.35
   1  -5  -9    8.68    0.28
   1  -5  -9    8.17    0.36
   1  -5  -9    8.53    0.29
   1  -5  -9    8.29    0.28
  -1   5   9    8.08    0.29
  -1   5   9    8.38    0.30
  -1   5   9    8.31    0.27
   0  -5  -9    6.00    0.24
   0  -5  -9    5.26    0.24
   0  -5  -9    5.95    0.25
   0   5   9    5.83    0.24
   0   5   9    5.58    0.25
  -1  -5  -9    0.28    0.08
  -1  -5  -9    0.30    0.08
  -1  -5  -9    0.27    0.08
   1   5   9    0.23    0.08
   1   5   9    0.29    0.08
  -2  -5  -9    0.73    0.11
  -2  -5  -9    0.69    0.13
  -2  -5  -9    0.80    0.12
   2   5   9    0.70    0.11
   2   5   9    0.65    0.12
  -3  -5  -9    5.46    0.29
  -3  -5  -9    5.74    0.28
  -3  -5  -9    5.50    0.34
   3   5   9    5.72    0.29
  -4  -5  -9    5.76    0.32
  -4  -5  -9    5.48    0.31
  -4  -5  -9    5.04    0.35
  -8   6   9    0.12    0.04
  -8   6   9    0.11    0.04
  -7   6   9    2.01    0.11
  -7   6   9    1.97    0.11
  -6   6   9   -0.01    0.04
  -6   6   9    0.01    0.04
   5  -6  -9    1.66    0.22
  -5   6   9    1.55    0.11
  -5   6   9    1.57    0.12
   4  -6  -9    9.40    0.43
  -4   6   9    9.52    0.30
  -4   6   9    9.34    0.28
   3  -6  -9    3.85    0.17
   3  -6  -9    4.07    0.25
  -3   6   9    3.82    0.17
  -3   6   9    3.82    0.19
   2  -6  -9    7.85    0.36
   2  -6  -9    7.79    0.28
   2  -6  -9    7.88    0.26
  -2   6   9    7.58    0.26
  -2   6   9    7.63    0.28
   1  -6  -9   43.34    1.00
   1  -6  -9   41.57    1.25
   1  -6  -9   42.98    1.33
   1  -6  -9   43.59    1.06
  -1   6   9   43.36    1.01
  -1   6   9   44.27    1.07
   0  -6  -9   11.91    0.38
   0  -6  -9   11.48    0.42
   0  -6  -9   12.02    0.40
   0   6   9   12.25    0.41
   0   6   9   12.15    0.39
  -1  -6  -9    5.53    0.28
  -1  -6  -9    5.68    0.27
  -1  -6  -9    5.64    0.27
   1   6   9    5.38    0.27
   1   6   9    6.15    0.28
  -2  -6  -9    0.92    0.15
  -2  -6  -9    1.06    0.15
  -2  -6  -9    0.90    0.12
   2   6   9    0.78    0.13
   2   6   9    1.17    0.14
  -3  -6  -9    0.01    0.11
  -3  -6  -9    0.03    0.08
  -3  -6  -9   -0.04    0.09
   3   6   9    0.00    0.08
  -7   7   9    0.88    0.09
  -7   7   9    0.73    0.08
  -6   7   9    0.78    0.08
  -6   7   9    0.79    0.09
   5  -7  -9    0.34    0.13
  -5   7   9    0.33    0.07
  -5   7   9    0.29    0.06
   4  -7  -9    2.18    0.22
  -4   7   9    2.29    0.16
  -4   7   9    2.43    0.15
   3  -7  -9    8.47    0.40
  -3   7   9    8.60    0.31
   2  -7  -9    9.44    0.33
   2  -7  -9    9.57    0.42
  -2   7   9    9.83    0.34
   1  -7  -9   10.95    0.45
   1  -7  -9   11.21    0.36
   1  -7  -9   11.40    0.38
  -1   7   9   11.34    0.38
   0  -7  -9   14.81    0.47
   0  -7  -9   13.66    0.54
   0  -7  -9   14.45    0.45
   0   7   9   15.52    0.49
   0   7   9   14.32    0.46
  -1  -7  -9    4.98    0.27
  -1  -7  -9    5.19    0.28
   1   7   9    5.12    0.27
   1   7   9    5.51    0.29
  -2  -7  -9    2.57    0.23
  -2  -7  -9    2.30    0.22
   2   7   9    2.84    0.24
  -7   8   9    2.15    0.14
  -7   8   9    2.03    0.14
  -6   8   9    1.72    0.15
  -6   8   9    1.95    0.14
  -5   8   9    2.51    0.18
   4  -8  -9    0.72    0.15
  -4   8   9    0.64    0.10
   3  -8  -9    0.02    0.08
  -3   8   9   -0.03    0.07
   2  -8  -9    2.77    0.22
  -2   8   9    2.72    0.21
   1  -8  -9    3.68    0.23
  -1   8   9    3.76    0.24
   0  -8  -9    4.17    0.25
   0   8   9    4.04    0.26
   0   8   9    4.23    0.27
  -1  -8  -9    4.97    0.29
   1   8   9    4.26    0.27
   1   8   9    4.84    0.30
  -6   9   9    2.78    0.19
  -5   9   9    3.18    0.21
  -4   9   9    2.52    0.21
  -3   9   9    0.06    0.09
  -2   9   9    0.01    0.08
  -1   9   9    1.11    0.16
  -1  -9  10    5.85    0.32
  -1  -9  10    5.51    0.28
   0  -9  10    3.52    0.25
  -1   9 -10    7.96    0.33
   1  -9  10    8.19    0.36
  -2   9 -10    5.98    0.29
   2  -9  10    5.71    0.30
  -3   9 -10    1.05    0.14
  -2  -8  10    0.66    0.13
  -2  -8  10    0.47    0.10
  -1  -8  10    1.59    0.15
  -1  -8  10    1.67    0.17
   0   8 -10    6.11    0.28
   0  -8  10    6.53    0.31
  -1   8 -10    4.81    0.25
   1  -8  10    5.02    0.27
  -2   8 -10   14.26    0.45
   2  -8  10   14.31    0.48
  -3   8 -10    6.24    0.29
   3  -8  10    5.97    0.28
  -4   8 -10    4.87    0.27
  -5   8 -10    0.17    0.09
  -5   8 -10    0.12    0.14
  -4  -7  10    4.55    0.25
  -4  -7  10    4.65    0.28
  -3  -7  10    2.65    0.21
  -3  -7  10    2.86    0.23
  -2  -7  10    0.08    0.09
  -2  -7  10   -0.05    0.08
   1   7 -10    0.17    0.08
  -1  -7  10    0.23    0.10
  -1  -7  10    0.22    0.08
   0   7 -10    1.99    0.17
   0  -7  10    2.14    0.19
  -1   7 -10    7.45    0.29
   1  -7  10    7.40    0.31
  -2   7 -10    5.72    0.26
   2  -7  10    6.19    0.28
  -3   7 -10   11.94    0.40
   3  -7  10   11.77    0.41
  -4   7 -10    6.20    0.37
  -4   7 -10    6.02    0.28
  -5   7 -10    7.11    0.42
  -5   7 -10    6.87    0.32
  -5  -6  10    6.32    0.31
  -5  -6  10    5.58    0.27
  -4  -6  10    8.98    0.36
  -4  -6  10    8.77    0.32
  -3  -6  10    9.86    0.37
  -3  -6  10    9.44    0.33
  -2  -6  10   13.94    0.41
  -2  -6  10   14.00    0.46
   1   6 -10    0.38    0.08
  -1  -6  10    0.35    0.10
   0   6 -10    0.41    0.08
   0  -6  10    0.39    0.09
  -1   6 -10    4.48    0.22
   1  -6  10    4.09    0.23
  -2   6 -10    4.34    0.22
   2  -6  10    4.55    0.23
  -3   6 -10   20.09    0.56
  -3   6 -10   19.98    0.75
   3  -6  10   20.73    0.59
  -4   6 -10    3.99    0.30
  -4   6 -10    4.21    0.23
  -5   6 -10   12.49    0.43
  -5   6 -10   12.51    0.57
  -6   6 -10    2.48    0.21
  -6   6 -10    2.50    0.29
  -5  -5  10    4.24    0.22
  -5  -5  10    4.49    0.25
  -5  -5  10    4.71    0.23
  -4  -5  10   10.09    0.33
  -4  -5  10    9.97    0.33
  -4  -5  10   10.66    0.38
   3   5 -10   15.31    0.52
  -3  -5  10   15.50    0.48
  -3  -5  10   15.52    0.43
  -3  -5  10   15.87    0.44
   2   5 -10   18.71    0.61
   2   5 -10   19.02    0.49
  -2  -5  10   18.82    0.49
  -2  -5  10   18.46    0.54
  -2  -5  10   18.64    0.50
   1   5 -10   18.23    0.49
  -1  -5  10   18.96    0.54
  -1  -5  10   18.06    0.48
   0   5 -10    8.95    0.30
   0  -5  10    8.50    0.28
   0  -5  10    9.83    0.33
  -1   5 -10    0.78    0.10
   1  -5  10    0.66    0.10
  -2   5 -10    0.50    0.08
  -2   5 -10    0.60    0.12
   2  -5  10    0.70    0.11
  -3   5 -10    2.81    0.19
  -3   5 -10    2.64    0.23
   3  -5  10    2.68    0.18
  -4   5 -10   19.76    0.76
  -4   5 -10   19.62    0.56
   4  -5  10   20.21    0.57
  -5   5 -10    0.89    0.17
  -5   5 -10    0.81    0.12
  -6   5 -10   11.34    0.42
  -6   5 -10   11.35    0.58
  -6  -4  10    1.68    0.18
  -6  -4  10    1.72    0.16
  -6  -4  10    1.84    0.15
  -5  -4  10    1.65    0.16
  -5  -4  10    1.23    0.11
  -5  -4  10    1.31    0.13
   4   4 -10   19.49    0.67
  -4  -4  10   19.82    0.52
  -4  -4  10   20.68    0.52
  -4  -4  10   20.64    0.57
   3   4 -10   14.00    0.39
   3   4 -10   14.51    0.50
  -3  -4  10   14.13    0.39
  -3  -4  10   14.44    0.44
  -3  -4  10   14.20    0.39
   2   4 -10   40.11    1.15
   2   4 -10   37.89    0.87
  -2  -4  10   37.25    0.86
  -2  -4  10   37.46    0.88
  -2  -4  10   37.52    0.95
   1   4 -10   39.60    0.92
  -1  -4  10   40.29    0.91
  -1  -4  10   41.32    1.00
   0   4 -10   27.92    0.68
   0   4 -10   27.05    0.64
   0  -4  10   27.62    0.66
   0  -4  10   28.79    0.73
  -1   4 -10   11.64    0.33
  -1   4 -10   11.90    0.36
   1  -4  10   12.32    0.39
   1  -4  10   12.39    0.35
  -2   4 -10    0.06    0.05
  -2   4 -10    0.14    0.09
  -2   4 -10    0.05    0.06
   2  -4  10    0.16    0.07
   2  -4  10    0.06    0.04
  -3   4 -10    3.76    0.20
  -3   4 -10    3.93    0.27
   3  -4  10    4.16    0.21
  -4   4 -10    4.21    0.30
  -4   4 -10    3.75    0.21
   4  -4  10    3.90    0.21
  -5   4 -10   13.51    0.60
  -5   4 -10   12.27    0.42
  -6   4 -10    1.47    0.24
  -6   4 -10    1.26    0.14
  -7  -3  10    2.24    0.15
  -7  -3  10    2.34    0.18
  -7  -3  10    2.41    0.16
  -6  -3  10    1.80    0.14
  -6  -3  10    1.69    0.16
  -6  -3  10    1.62    0.14
  -5  -3  10    0.17    0.07
  -5  -3  10    0.18    0.06
  -5  -3  10    0.21    0.06
   4   3 -10    2.17    0.18
  -4  -3  10    2.11    0.15
  -4  -3  10    2.20    0.13
  -4  -3  10    2.12    0.14
   3   3 -10    7.43    0.32
   3   3 -10    7.43    0.23
  -3  -3  10    7.39    0.24
  -3  -3  10    7.06    0.25
  -3  -3  10    7.53    0.27
   2   3 -10   27.26    0.65
  -2  -3  10   27.51    0.70
  -2  -3  10   28.01    0.65
  -2  -3  10   26.20    0.65
   1   3 -10   39.78    0.91
  -1  -3  10   40.29    0.90
  -1  -3  10   40.15    0.92
  -1  -3  10   39.96    0.98
   0   3 -10   47.94    1.08
   0   3 -10   47.14    1.04
   0  -3  10   49.07    1.16
   0  -3  10   49.10    1.06
  -1   3 -10   33.84    0.78
  -1   3 -10   34.80    1.11
  -1   3 -10   33.92    0.81
   1  -3  10   35.30    0.79
   1  -3  10   34.99    0.87
  -2   3 -10    4.12    0.25
  -2   3 -10    3.88    0.20
  -2   3 -10    4.21    0.17
   2  -3  10    3.97    0.20
   2  -3  10    3.99    0.18
  -3   3 -10   34.51    0.85
  -3   3 -10   33.48    0.80
  -3   3 -10   35.98    1.16
  -3   3 -10   35.60    0.91
   3  -3  10   34.39    0.89
  -4   3 -10   -0.02    0.06
  -4   3 -10   -0.02    0.11
  -4   3 -10   -0.02    0.06
   4  -3  10    0.00    0.06
  -5   3 -10    2.54    0.19
  -5   3 -10    1.94    0.26
  -5   3 -10    2.41    0.20
  -6   3 -10    5.45    0.27
  -6   3 -10    5.38    0.40
  -6   3 -10    5.48    0.29
  -7  -2  10    5.03    0.20
  -7  -2  10    4.90    0.22
  -7  -2  10    5.24    0.20
  -6  -2  10    8.14    0.29
  -6  -2  10    8.21    0.26
  -6  -2  10    7.84    0.25
   5   2 -10    3.23    0.23
  -5  -2  10    3.45    0.15
  -5  -2  10    3.40    0.17
  -5  -2  10    3.24    0.16
   4   2 -10   27.59    0.64
   4   2 -10   27.09    0.89
  -4  -2  10   27.14    0.69
  -4  -2  10   27.36    0.64
   3   2 -10   70.23    2.04
  -3  -2  10   68.50    1.51
  -3  -2  10   70.55    1.62
  -3  -2  10   72.03    1.49
   2   2 -10   17.92    0.45
  -2  -2  10   17.66    0.45
  -2  -2  10   17.28    0.49
  -2  -2  10   17.68    0.45
   1   2 -10   53.11    1.17
  -1  -2  10   52.68    1.18
  -1  -2  10   53.36    1.15
  -1  -2  10   54.07    1.26
   0   2 -10   46.77    1.05
   0   2 -10   45.25    1.02
   0   2 -10   46.31    1.43
   0  -2  10   47.17    1.03
   0  -2  10   48.66    1.13
  -1   2 -10   60.70    1.77
  -1   2 -10   57.74    1.30
  -1   2 -10   57.88    1.26
   1  -2  10   58.64    1.27
   1  -2  10   58.76    1.39
  -2   2 -10   64.91    1.49
  -2   2 -10   65.53    1.90
  -2   2 -10   60.30    1.35
  -2   2 -10   63.05    1.40
   2  -2  10   61.23    1.35
   2  -2  10   60.29    1.47
  -3   2 -10    0.62    0.08
  -3   2 -10    0.76    0.14
  -3   2 -10    0.52    0.08
  -3   2 -10    0.63    0.11
   3  -2  10    0.50    0.09
  -4   2 -10    2.23    0.17
  -4   2 -10    2.14    0.24
  -4   2 -10    2.67    0.19
   4  -2  10    2.18    0.16
  -5   2 -10    0.19    0.08
  -5   2 -10   -0.01    0.08
  -5   2 -10    0.10    0.12
  -6   2 -10    0.29    0.10
  -6   2 -10    0.48    0.10
  -6   2 -10    0.38    0.16
  -7  -1  10    6.88    0.22
  -7  -1  10    6.74    0.24
  -7  -1  10    6.57    0.22
  -6  -1  10   14.06    0.36
  -6  -1  10   13.77    0.39
   5   1 -10   12.00    0.49
  -5  -1  10   11.66    0.32
  -5  -1  10   11.98    0.35
   4   1 -10    0.07    0.07
   4   1 -10    0.14    0.03
  -4  -1  10    0.14    0.05
  -4  -1  10    0.04    0.04
  -4  -1  10    0.05    0.04
   3   1 -10   76.09    1.57
   3   1 -10   76.60    2.16
  -3  -1  10   70.46    1.67
  -3  -1  10   73.10    1.56
  -3  -1  10   74.17    1.59
  -3  -1  10   74.82    1.69
   2   1 -10    0.42    0.06
  -2  -1  10    0.49    0.06
  -2  -1  10    0.52    0.07
  -2  -1  10    0.58    0.07
  -2  -1  10    0.60    0.08
   1   1 -10   10.46    0.30
  -1  -1  10   10.06    0.29
  -1  -1  10   10.00    0.30
  -1  -1  10   10.18    0.32
   0   1 -10   60.94    1.77
   0   1 -10   58.94    1.39
   0   1 -10   58.53    1.30
   0   1 -10   60.03    1.27
   0  -1  10   59.71    1.39
   0  -1  10   59.02    1.27
   0  -1  10   57.86    1.30
  -1   1 -10   30.08    0.74
  -1   1 -10   32.43    1.00
  -1   1 -10   31.63    0.79
  -1   1 -10   30.80    0.72
   1  -1  10   30.05    0.72
   1  -1  10   30.85    0.79
  -2   1 -10   63.53    1.45
  -2   1 -10   59.84    1.32
  -2   1 -10   61.75    1.36
  -2   1 -10   61.82    1.86
   2  -1  10   61.44    1.45
   2  -1  10   58.26    1.32
  -3   1 -10   11.46    0.39
  -3   1 -10   11.37    0.37
  -3   1 -10   11.15    0.49
   3  -1  10   11.68    0.38
  -4   1 -10   25.29    0.66
  -4   1 -10   25.17    0.70
  -4   1 -10   24.78    0.90
   4  -1  10   23.54    0.67
  -5   1 -10    2.77    0.22
  -5   1 -10    2.78    0.29
  -5   1 -10    3.02    0.21
  -6   1 -10    0.31    0.15
  -6   1 -10    0.35    0.10
  -6   1 -10    0.34    0.11
  -8   0  10    3.58    0.16
  -8   0  10    3.56    0.15
  -7   0  10    7.54    0.24
  -7   0  10    7.52    0.22
  -6   0  10   15.70    0.42
  -6   0  10   16.04    0.39
   5   0 -10   29.53    1.00
  -5   0  10   30.86    0.74
  -5   0  10   29.87    0.68
  -5   0  10   30.59    0.69
   4   0 -10   23.15    0.51
   4   0 -10   22.93    0.79
  -4   0  10   23.54    0.58
  -4   0  10   23.93    0.56
  -4   0  10   24.04    0.60
  -4   0  10   23.52    0.55
   3   0 -10   27.58    0.63
   3   0 -10   28.95    0.90
  -3   0  10   27.09    0.68
  -3   0  10   27.59    0.70
  -3   0  10   26.55    0.65
  -3   0  10   29.02    0.64
   2   0 -10    5.60    0.19
  -2   0  10    5.55    0.19
  -2   0  10    5.38    0.20
  -2   0  10    5.27    0.20
  -2   0  10    5.18    0.22
  -2   0  10    5.36    0.21
   1   0 -10    0.35    0.06
   1   0 -10    0.12    0.04
  -1   0  10    0.07    0.04
  -1   0  10    0.03    0.04
  -1   0  10    0.08    0.05
  -1   0  10    0.10    0.05
   0   0 -10   17.89    0.58
   0   0 -10   16.70    0.45
   0   0 -10   16.98    0.48
   0   0  10   16.83    0.45
   0   0  10   16.36    0.48
   0   0  10   17.54    0.44
  -1   0 -10   60.98    1.76
  -1   0 -10   57.66    1.29
  -1   0 -10   56.46    1.37
   1   0  10   59.68    1.38
   1   0  10   56.02    1.25
  -2   0 -10   17.12    0.63
  -2   0 -10   17.39    0.48
  -2   0 -10   17.35    0.51
   2   0  10   17.67    0.50
   2   0  10   16.37    0.46
   2   0  10   17.62    0.45
  -3   0 -10   56.86    1.80
  -3   0 -10   58.74    1.32
  -3   0 -10   58.30    1.41
   3   0  10   58.83    1.40
  -4   0 -10    7.34    0.32
  -4   0 -10    7.74    0.30
  -4   0 -10    7.43    0.40
   4   0  10    7.34    0.30
  -5   0 -10   10.23    0.41
  -5   0 -10   11.46    0.40
  -5   0 -10   10.91    0.53
  -6   0 -10    0.71    0.19
  -6   0 -10    0.65    0.12
  -6   0 -10    0.59    0.13
  -8   1  10    0.07    0.04
  -7   1  10    1.44    0.09
  -7   1  10    1.40    0.10
   6  -1 -10    6.85    0.38
  -6   1  10    7.14    0.21
  -6   1  10    7.04    0.22
   5  -1 -10   20.68    0.75
  -5   1  10   20.30    0.49
  -5   1  10   21.28    0.48
  -5   1  10   20.51    0.53
   4  -1 -10   40.59    1.28
  -4   1  10   43.00    0.89
  -4   1  10   39.66    0.96
  -4   1  10   40.93    0.91
  -4   1  10   41.06    0.97
   3  -1 -10   24.23    0.79
   3  -1 -10   23.08    0.54
  -3   1  10   22.74    0.72
  -3   1  10   24.18    0.61
  -3   1  10   24.88    0.57
  -3   1  10   23.78    0.55
  -3   1  10   23.70    0.60
   2  -1 -10   36.40    0.84
  -2   1  10   38.39    0.84
  -2   1  10   37.18    1.13
  -2   1  10   37.51    0.91
  -2   1  10   38.68    0.86
  -2   1  10   38.28    0.91
   1  -1 -10    5.03    0.20
   1  -1 -10    4.55    0.21
   1  -1 -10    5.06    0.19
  -1   1  10    5.09    0.19
  -1   1  10    5.27    0.19
  -1   1  10    5.14    0.21
  -1   1  10    5.08    0.23
   0  -1 -10   22.89    0.61
   0  -1 -10   23.89    0.74
   0  -1 -10   22.80    0.57
   0   1  10   22.87    0.61
   0   1  10   23.58    0.56
   0   1  10   22.16    0.57
  -1  -1 -10    1.41    0.13
  -1  -1 -10    1.42    0.15
  -1  -1 -10    1.99    0.14
   1   1  10    1.32    0.13
   1   1  10    1.29    0.11
   1   1  10    1.33    0.11
  -2  -1 -10   17.12    0.48
  -2  -1 -10   16.70    0.51
  -2  -1 -10   16.41    0.62
   2   1  10   17.85    0.51
   2   1  10   17.14    0.45
  -3  -1 -10   21.66    0.63
  -3  -1 -10   22.26    0.79
  -3  -1 -10   21.95    0.60
   3   1  10   22.36    0.62
  -4  -1 -10   15.43    0.51
  -4  -1 -10   14.96    0.48
  -4  -1 -10   15.73    0.64
   4   1  10   15.73    0.49
  -5  -1 -10    8.58    0.35
  -5  -1 -10    8.91    0.48
  -5  -1 -10    8.63    0.37
  -6  -1 -10    3.75    0.35
  -6  -1 -10    3.68    0.28
  -6  -1 -10    3.50    0.25
  -8   2  10    0.47    0.05
  -7   2  10    0.08    0.03
  -7   2  10    0.05    0.04
   6  -2 -10    2.22    0.23
  -6   2  10    2.21    0.10
  -6   2  10    2.19    0.12
   5  -2 -10   24.81    0.87
  -5   2  10   25.54    0.62
  -5   2  10   24.82    0.58
   4  -2 -10   34.86    1.12
  -4   2  10   35.63    0.84
  -4   2  10   36.24    0.80
  -4   2  10   35.62    0.85
  -4   2  10   33.63    1.03
   3  -2 -10   41.48    0.87
   3  -2 -10   40.11    1.25
  -3   2  10   38.24    1.18
  -3   2  10   41.25    0.96
  -3   2  10   41.29    0.91
  -3   2  10   39.30    0.96
   2  -2 -10   59.83    1.27
   2  -2 -10   60.23    1.35
  -2   2  10   58.15    1.36
  -2   2  10   60.24    1.71
  -2   2  10   57.05    1.36
  -2   2  10   57.37    1.28
   1  -2 -10   41.64    0.97
   1  -2 -10   40.75    1.18
   1  -2 -10   39.24    0.90
  -1   2  10   39.80    0.91
  -1   2  10   39.28    1.20
  -1   2  10   39.35    0.97
  -1   2  10   39.58    0.88
   0  -2 -10    5.01    0.20
   0  -2 -10    5.15    0.22
   0  -2 -10    5.09    0.24
   0   2  10    5.04    0.19
   0   2  10    5.04    0.22
   0   2  10    5.26    0.20
  -1  -2 -10    1.18    0.14
  -1  -2 -10    1.51    0.13
  -1  -2 -10    1.12    0.12
   1   2  10    1.47    0.11
   1   2  10    1.57    0.14
   1   2  10    1.32    0.11
  -2  -2 -10    2.10    0.16
  -2  -2 -10    2.13    0.18
  -2  -2 -10    2.56    0.20
   2   2  10    2.07    0.17
  -3  -2 -10    2.57    0.23
  -3  -2 -10    2.36    0.20
  -3  -2 -10    2.23    0.18
   3   2  10    2.12    0.18
  -4  -2 -10   11.67    0.41
  -4  -2 -10   12.19    0.54
  -4  -2 -10   12.21    0.44
   4   2  10   11.77    0.41
  -5  -2 -10    2.98    0.23
  -5  -2 -10    3.48    0.32
  -5  -2 -10    3.35    0.26
  -8   3  10    0.98    0.07
  -7   3  10    0.26    0.05
   6  -3 -10    0.47    0.13
  -6   3  10    0.43    0.06
   5  -3 -10    1.88    0.21
  -5   3  10    1.86    0.12
  -5   3  10    2.08    0.11
   4  -3 -10   15.14    0.32
  -4   3  10   15.17    0.41
  -4   3  10   14.09    0.40
  -4   3  10   14.37    0.45
  -4   3  10   14.91    0.38
   3  -3 -10   29.20    0.63
   3  -3 -10   28.61    0.93
   3  -3 -10   27.17    0.67
  -3   3  10   26.72    0.70
  -3   3  10   28.46    0.70
  -3   3  10   27.52    0.65
  -3   3  10   28.76    0.82
   2  -3 -10   49.95    1.15
   2  -3 -10   47.05    1.48
   2  -3 -10   51.13    1.08
  -2   3  10   47.76    1.08
  -2   3  10   49.17    1.16
   1  -3 -10   62.55    1.71
   1  -3 -10   60.20    1.29
   1  -3 -10   57.47    1.38
  -1   3  10   57.19    1.29
  -1   3  10   58.44    1.38
  -1   3  10   57.27    1.27
   0  -3 -10   11.47    0.37
   0  -3 -10   11.77    0.35
   0  -3 -10   11.36    0.41
   0   3  10   11.04    0.33
   0   3  10   11.73    0.37
  -1  -3 -10   14.93    0.44
  -1  -3 -10   14.62    0.53
  -1  -3 -10   15.51    0.46
   1   3  10   14.74    0.41
   1   3  10   14.97    0.46
  -2  -3 -10    4.02    0.23
  -2  -3 -10    3.93    0.25
  -2  -3 -10    3.83    0.21
   2   3  10    3.71    0.22
  -3  -3 -10    1.35    0.14
  -3  -3 -10    1.63    0.21
  -3  -3 -10    1.74    0.19
   3   3  10    1.34    0.15
   3   3  10    1.42    0.14
  -4  -3 -10    0.64    0.16
  -4  -3 -10    0.43    0.10
  -4  -3 -10    0.69    0.14
  -5  -3 -10    5.88    0.40
  -5  -3 -10    5.32    0.30
  -5  -3 -10    5.93    0.33
  -7   4  10    4.64    0.17
   6  -4 -10    2.37    0.24
  -6   4  10    2.40    0.12
   5  -4 -10    1.15    0.17
  -5   4  10    1.26    0.10
   4  -4 -10    0.25    0.03
   4  -4 -10    0.24    0.09
  -4   4  10    0.16    0.05
  -4   4  10    0.23    0.06
   3  -4 -10    3.43    0.23
   3  -4 -10    3.49    0.14
   3  -4 -10    3.69    0.16
  -3   4  10    3.24    0.16
  -3   4  10    3.48    0.15
  -3   4  10    3.49    0.17
   2  -4 -10   20.38    0.54
   2  -4 -10   20.78    0.71
   2  -4 -10   21.15    0.50
  -2   4  10   19.62    0.54
  -2   4  10   19.56    0.51
  -2   4  10   19.88    0.51
   1  -4 -10   34.02    0.95
   1  -4 -10   31.19    0.81
   1  -4 -10   32.20    0.76
  -1   4  10   31.39    0.76
  -1   4  10   31.87    0.81
  -1   4  10   31.79    0.75
   0  -4 -10   42.33    1.02
   0  -4 -10   39.90    1.24
   0  -4 -10   41.40    0.96
   0   4  10   41.43    1.02
   0   4  10   41.08    0.95
  -1  -4 -10   20.86    0.57
  -1  -4 -10   21.64    0.60
  -1  -4 -10   20.25    0.70
   1   4  10   21.14    0.58
   1   4  10   21.17    0.60
  -2  -4 -10    4.45    0.27
  -2  -4 -10    4.67    0.25
  -2  -4 -10    4.13    0.23
   2   4  10    4.54    0.24
   2   4  10    4.47    0.25
  -3  -4 -10    3.82    0.24
  -3  -4 -10    3.61    0.28
  -3  -4 -10    3.97    0.25
   3   4  10    3.93    0.24
  -4  -4 -10    0.09    0.09
  -4  -4 -10    0.17    0.13
  -4  -4 -10    0.15    0.11
  -7   5  10    4.34    0.17
  -7   5  10    4.20    0.15
   6  -5 -10    7.06    0.40
  -6   5  10    7.37    0.24
  -6   5  10    7.29    0.23
   5  -5 -10    1.21    0.18
  -5   5  10    1.17    0.11
  -5   5  10    1.16    0.10
   4  -5 -10    0.83    0.15
  -4   5  10    0.81    0.09
  -4   5  10    0.79    0.08
   3  -5 -10    7.84    0.38
   3  -5 -10    8.00    0.27
  -3   5  10    7.66    0.26
  -3   5  10    7.98    0.28
   2  -5 -10    0.39    0.10
   2  -5 -10    0.69    0.08
   2  -5 -10    0.48    0.08
  -2   5  10    0.52    0.08
  -2   5  10    0.34    0.08
  -2   5  10    0.37    0.07
   1  -5 -10   16.22    0.49
   1  -5 -10   15.52    0.44
   1  -5 -10   15.68    0.46
  -1   5  10   15.19    0.47
  -1   5  10   15.84    0.46
  -1   5  10   16.19    0.46
   0  -5 -10   22.02    0.61
   0  -5 -10   22.66    0.58
   0  -5 -10   20.87    0.70
   0   5  10   22.05    0.62
   0   5  10   21.80    0.59
  -1  -5 -10   12.42    0.47
  -1  -5 -10   12.56    0.41
  -1  -5 -10   12.79    0.43
   1   5  10   12.32    0.41
   1   5  10   13.13    0.44
  -2  -5 -10   11.05    0.47
  -2  -5 -10   12.03    0.43
  -2  -5 -10   11.76    0.41
   2   5  10   11.18    0.40
   2   5  10   11.31    0.42
  -3  -5 -10    4.62    0.28
  -3  -5 -10    4.05    0.30
  -3  -5 -10    4.26    0.27
   3   5  10    4.40    0.27
  -4  -5 -10    0.42    0.12
  -4  -5 -10    0.48    0.14
  -4  -5 -10    0.32    0.14
  -8   6  10    1.75    0.10
  -8   6  10    1.84    0.11
  -7   6  10    8.29    0.27
  -7   6  10    8.26    0.25
  -7   6  10    8.07    0.25
   6  -6 -10    5.75    0.37
  -6   6  10    5.73    0.21
  -6   6  10    6.08    0.22
  -6   6  10    5.90    0.21
   5  -6 -10   12.07    0.54
  -5   6  10   11.89    0.35
  -5   6  10   12.09    0.34
   4  -6 -10    3.81    0.27
  -4   6  10    3.63    0.17
  -4   6  10    3.82    0.19
   3  -6 -10    1.61    0.13
   3  -6 -10    1.48    0.18
  -3   6  10    1.48    0.14
  -3   6  10    1.30    0.12
   2  -6 -10    1.98    0.15
   2  -6 -10    1.74    0.14
   2  -6 -10    1.98    0.19
  -2   6  10    1.77    0.16
  -2   6  10    2.02    0.17
   1  -6 -10    0.39    0.09
   1  -6 -10    0.40    0.10
   1  -6 -10    0.31    0.08
  -1   6  10    0.32    0.10
  -1   6  10    0.42    0.09
   0  -6 -10   11.20    0.37
   0  -6 -10   10.30    0.39
   0  -6 -10   11.18    0.39
   0   6  10   11.24    0.40
   0   6  10   10.99    0.38
  -1  -6 -10    8.18    0.34
  -1  -6 -10    7.60    0.33
  -1  -6 -10    7.89    0.35
   1   6  10    8.20    0.35
   1   6  10    8.01    0.33
  -2  -6 -10    8.60    0.41
  -2  -6 -10    9.59    0.38
  -2  -6 -10    9.07    0.37
   2   6  10    9.21    0.39
   2   6  10    8.73    0.36
  -3  -6 -10    3.26    0.26
  -3  -6 -10    3.14    0.25
  -3  -6 -10    2.96    0.27
   3   6  10    2.77    0.25
  -7   7  10    4.60    0.19
  -7   7  10    4.61    0.19
  -6   7  10    5.99    0.23
  -6   7  10    6.20    0.23
   5  -7 -10    7.22    0.40
  -5   7  10    6.63    0.25
  -5   7  10    6.81    0.26
   4  -7 -10    8.99    0.44
  -4   7  10    9.13    0.32
  -4   7  10    8.97    0.30
   3  -7 -10    8.68    0.42
  -3   7  10    8.55    0.32
   2  -7 -10    0.70    0.10
   2  -7 -10    0.64    0.13
  -2   7  10    0.41    0.09
   1  -7 -10    4.18    0.26
   1  -7 -10    4.50    0.24
  -1   7  10    4.29    0.25
  -1   7  10    4.48    0.26
   0  -7 -10    0.05    0.07
   0  -7 -10    0.12    0.08
   0  -7 -10   -0.10    0.07
   0   7  10    0.02    0.10
   0   7  10   -0.02    0.08
  -1  -7 -10    4.18    0.25
  -1  -7 -10    4.45    0.27
   1   7  10    4.57    0.28
   1   7  10    4.24    0.27
  -2  -7 -10    3.68    0.26
  -2  -7 -10    3.61    0.26
   2   7  10    4.14    0.29
  -6   8  10    3.65    0.19
  -6   8  10    3.79    0.20
   5  -8 -10    4.62    0.33
  -5   8  10    4.02    0.22
   4  -8 -10    3.82    0.29
  -4   8  10    3.59    0.22
   3  -8 -10    7.69    0.39
  -3   8  10    7.35    0.31
   2  -8 -10    4.77    0.29
  -2   8  10    4.56    0.26
   1  -8 -10    3.67    0.23
  -1   8  10    3.32    0.24
  -1   8  10    3.43    0.25
   0  -8 -10    0.02    0.08
   0   8  10    0.05    0.09
   0   8  10   -0.03    0.10
  -1  -8 -10    0.05    0.09
   1   8  10    0.04    0.10
   1   8  10    0.09    0.10
  -5   9  10    5.21    0.26
   4  -9 -10    3.30    0.28
  -4   9  10    3.62    0.24
  -3   9  10    2.96    0.23
  -2   9  10    4.28    0.27
  -1   9  10    1.67    0.17
  -1   9  10    2.28    0.22
   0  -9  11    0.04    0.09
  -1   9 -11    1.10    0.14
   1  -9  11    1.54    0.17
  -2   9 -11    1.20    0.15
   2  -9  11    1.55    0.18
  -2  -8  11    5.06    0.27
  -2  -8  11    5.11    0.30
  -1  -8  11    2.27    0.22
   0   8 -11    2.01    0.19
   0  -8  11    2.08    0.21
  -1   8 -11    0.05    0.08
   1  -8  11   -0.04    0.07
  -2   8 -11    0.56    0.11
   2  -8  11    0.75    0.13
  -3   8 -11    0.45    0.10
  -4   8 -11    4.87    0.27
  -3  -7  11    7.23    0.34
  -3  -7  11    6.59    0.29
  -2  -7  11    8.07    0.35
  -2  -7  11    8.02    0.31
  -1  -7  11   15.07    0.50
   0   7 -11    6.14    0.27
   0  -7  11    6.38    0.30
  -1   7 -11    2.99    0.20
   1  -7  11    3.25    0.22
  -2   7 -11    0.48    0.10
   2  -7  11    0.56    0.12
  -3   7 -11    0.36    0.10
   3  -7  11    0.36    0.09
  -4   7 -11    0.84    0.12
  -4   7 -11    1.02    0.19
  -5   7 -11    1.24    0.21
  -5   7 -11    0.87    0.13
  -4  -6  11    0.69    0.11
  -4  -6  11    0.56    0.13
  -3  -6  11    5.29    0.28
  -3  -6  11    5.29    0.25
  -2  -6  11    6.27    0.29
   1   6 -11   27.16    0.69
  -1  -6  11   26.92    0.75
   0   6 -11   13.09    0.41
   0  -6  11   14.09    0.46
  -1   6 -11   15.84    0.48
   1  -6  11   17.13    0.52
  -2   6 -11    3.70    0.21
   2  -6  11    3.97    0.23
  -3   6 -11    0.35    0.13
  -3   6 -11    0.42    0.09
   3  -6  11    0.76    0.12
  -4   6 -11   -0.04    0.07
  -4   6 -11    0.05    0.11
  -5   6 -11    5.88    0.30
  -5   6 -11    6.43    0.40
  -5  -5  11    0.33    0.10
  -5  -5  11    0.16    0.08
  -4  -5  11    0.68    0.12
  -4  -5  11    0.44    0.09
   3   5 -11    0.24    0.07
  -3  -5  11    0.21    0.08
  -3  -5  11    0.23    0.07
  -3  -5  11    0.07    0.06
   2   5 -11   11.14    0.35
   2   5 -11   11.65    0.43
  -2  -5  11   11.22    0.35
  -2  -5  11   11.50    0.39
   1   5 -11    1.38    0.13
  -1  -5  11    1.55    0.15
   0   5 -11   35.31    0.86
   0  -5  11   36.31    0.93
  -1   5 -11   27.24    0.69
   1  -5  11   27.23    0.74
  -2   5 -11   28.38    0.73
  -2   5 -11   28.96    0.99
   2  -5  11   29.37    0.78
  -3   5 -11    4.55    0.29
  -3   5 -11    3.89    0.22
   3  -5  11    4.33    0.23
  -4   5 -11    5.85    0.28
  -4   5 -11    6.25    0.37
   4  -5  11    6.36    0.30
  -5   5 -11    0.15    0.13
  -5   5 -11    0.23    0.09
  -6   5 -11    0.96    0.14
  -6   5 -11    1.15    0.22
  -6  -4  11    4.25    0.21
  -6  -4  11    4.34    0.25
  -6  -4  11    4.44    0.22
  -5  -4  11    8.66    0.30
  -5  -4  11    9.19    0.31
  -5  -4  11    9.19    0.34
   4   4 -11    1.88    0.17
  -4  -4  11    1.97    0.14
  -4  -4  11    1.79    0.15
  -4  -4  11    1.96    0.17
   3   4 -11    2.65    0.18
  -3  -4  11    2.67    0.18
  -3  -4  11    2.36    0.15
   2   4 -11    1.66    0.15
   2   4 -11    1.40    0.12
  -2  -4  11    1.69    0.15
  -2  -4  11    1.60    0.12
   1   4 -11   14.03    0.40
  -1  -4  11   13.61    0.39
  -1  -4  11   14.35    0.44
   0   4 -11   18.96    0.51
   0  -4  11   19.60    0.56
   0  -4  11   19.11    0.50
  -1   4 -11   24.48    0.63
   1  -4  11   25.14    0.68
  -2   4 -11   21.16    0.57
  -2   4 -11   21.20    0.76
   2  -4  11   21.58    0.61
  -3   4 -11   22.64    0.81
  -3   4 -11   22.16    0.61
   3  -4  11   22.40    0.64
  -4   4 -11    1.81    0.18
  -4   4 -11    1.77    0.23
   4  -4  11    1.81    0.17
  -5   4 -11    6.55    0.41
  -5   4 -11    5.88    0.29
  -6   4 -11    0.51    0.18
  -6   4 -11    0.38    0.10
  -6  -3  11    4.08    0.20
  -6  -3  11    4.10    0.22
  -6  -3  11    4.10    0.19
   5   3 -11   10.34    0.45
  -5  -3  11   10.49    0.36
  -5  -3  11   10.89    0.33
  -5  -3  11   10.56    0.32
   4   3 -11   19.12    0.67
  -4  -3  11   19.32    0.50
  -4  -3  11   19.20    0.54
   3   3 -11   22.73    0.57
   3   3 -11   23.23    0.77
  -3  -3  11   23.23    0.63
  -3  -3  11   23.35    0.57
   2   3 -11    5.56    0.21
  -2  -3  11    5.52    0.21
  -2  -3  11    5.55    0.22
  -2  -3  11    5.77    0.24
   1   3 -11    0.11    0.05
  -1  -3  11    0.03    0.06
  -1  -3  11    0.00    0.04
   0   3 -11    1.21    0.10
   0   3 -11    1.40    0.12
   0  -3  11    1.32    0.11
   0  -3  11    1.07    0.11
  -1   3 -11   20.66    0.53
  -1   3 -11   22.42    0.75
  -1   3 -11   21.11    0.56
   1  -3  11   21.50    0.54
   1  -3  11   21.21    0.60
  -2   3 -11   12.85    0.51
  -2   3 -11   12.28    0.39
   2  -3  11   11.93    0.40
  -3   3 -11   32.56    0.83
  -3   3 -11   35.17    0.89
  -3   3 -11   33.25    1.11
   3  -3  11   32.36    0.87
  -4   3 -11   20.64    0.61
  -4   3 -11   19.45    0.57
  -4   3 -11   20.94    0.78
   4  -3  11   19.09    0.58
  -5   3 -11    7.24    0.33
  -5   3 -11    7.06    0.31
  -5   3 -11    7.28    0.44
  -6   3 -11    4.66    0.27
  -6   3 -11    4.70    0.29
  -6   3 -11    5.02    0.40
  -7  -2  11    3.63    0.20
  -7  -2  11    3.60    0.18
  -6  -2  11    7.02    0.27
  -6  -2  11    6.87    0.24
   5   2 -11   17.03    0.64
  -5  -2  11   17.46    0.49
  -5  -2  11   17.56    0.45
   4   2 -11   25.71    0.86
  -4  -2  11   26.36    0.62
  -4  -2  11   25.79    0.67
   3   2 -11   12.98    0.48
  -3  -2  11   12.51    0.36
  -3  -2  11   11.95    0.35
  -3  -2  11   12.50    0.38
   2   2 -11   37.84    0.86
  -2  -2  11   36.73    0.87
  -2  -2  11   37.48    0.85
  -2  -2  11   38.25    0.94
   1   2 -11    4.44    0.19
  -1  -2  11    4.26    0.18
  -1  -2  11    4.31    0.19
  -1  -2  11    4.39    0.21
   0   2 -11    0.06    0.05
   0  -2  11    0.04    0.05
   0  -2  11    0.03    0.05
  -1   2 -11    1.52    0.11
  -1   2 -11    2.02    0.17
  -1   2 -11    1.64    0.13
   1  -2  11    1.62    0.14
   1  -2  11    1.37    0.11
  -2   2 -11   37.71    0.91
  -2   2 -11   34.90    0.85
  -2   2 -11   36.29    1.14
  -2   2 -11   33.15    0.81
   2  -2  11   33.27    0.81
   2  -2  11   34.03    0.90
  -3   2 -11   27.00    0.72
  -3   2 -11   27.30    0.92
  -3   2 -11   24.97    0.67
   3  -2  11   23.80    0.70
  -4   2 -11    5.22    0.26
  -4   2 -11    5.62    0.28
  -4   2 -11    5.86    0.37
   4  -2  11    4.78    0.25
  -5   2 -11    4.51    0.36
  -5   2 -11    5.03    0.26
  -5   2 -11    4.71    0.27
  -6   2 -11    6.04    0.44
  -6   2 -11    6.04    0.30
  -6   2 -11    6.11    0.32
  -7  -1  11    0.07    0.06
  -7  -1  11    0.12    0.05
  -6  -1  11    2.82    0.16
  -6  -1  11    2.83    0.14
   5   1 -11    8.44    0.40
  -5  -1  11    8.37    0.28
  -5  -1  11    8.34    0.26
   4   1 -11   14.37    0.55
  -4  -1  11   14.87    0.42
  -4  -1  11   14.37    0.38
   3   1 -11    5.83    0.29
   3   1 -11    5.85    0.20
  -3  -1  11    5.64    0.23
  -3  -1  11    5.46    0.21
  -3  -1  11    5.54    0.20
  -3  -1  11    5.50    0.21
   2   1 -11   75.32    1.58
  -2  -1  11   74.84    1.56
  -2  -1  11   71.59    1.59
  -2  -1  11   72.75    1.70
   1   1 -11   64.49    1.39
  -1  -1  11   60.07    1.39
  -1  -1  11   63.95    1.49
  -1  -1  11   65.44    1.37
   0   1 -11   13.68    0.42
   0   1 -11   13.63    0.39
   0   1 -11   14.23    0.51
   0  -1  11   13.88    0.38
   0  -1  11   13.99    0.43
  -1   1 -11    3.64    0.22
  -1   1 -11    3.74    0.19
  -1   1 -11    3.66    0.18
   1  -1  11    3.69    0.20
   1  -1  11    3.34    0.16
  -2   1 -11    0.58    0.09
  -2   1 -11    0.55    0.09
  -2   1 -11    0.59    0.12
   2  -1  11    0.39    0.08
   2  -1  11    0.43    0.07
  -3   1 -11    0.48    0.13
  -3   1 -11    0.43    0.10
  -3   1 -11    0.43    0.09
   3  -1  11    0.29    0.09
  -4   1 -11   33.48    0.89
  -4   1 -11   32.82    1.14
  -4   1 -11   33.65    0.83
   4  -1  11   31.27    0.86
  -5   1 -11    9.72    0.52
  -5   1 -11    9.91    0.37
  -5   1 -11   10.15    0.40
  -6   1 -11    3.76    0.27
  -6   1 -11    4.05    0.25
  -6   1 -11    3.70    0.35
  -8   0  11    0.26    0.06
  -8   0  11    0.28    0.06
  -7   0  11    0.34    0.07
  -7   0  11    0.22    0.05
   6   0 -11   -0.06    0.09
  -6   0  11    0.10    0.04
  -6   0  11    0.09    0.05
   5   0 -11    2.55    0.22
  -5   0  11    2.54    0.13
  -5   0  11    2.50    0.14
   4   0 -11   18.35    0.66
   4   0 -11   17.37    0.41
  -4   0  11   17.83    0.46
  -4   0  11   17.92    0.49
  -4   0  11   18.43    0.45
   3   0 -11  129.02    3.60
   3   0 -11  128.63    2.63
  -3   0  11  124.31    2.65
  -3   0  11  130.09    2.60
  -3   0  11  118.87    2.81
  -3   0  11  129.37    2.83
   2   0 -11    2.78    0.14
  -2   0  11    2.88    0.14
  -2   0  11    2.68    0.14
  -2   0  11    3.07    0.17
   1   0 -11   34.27    0.80
   1   0 -11   33.86    0.85
  -1   0  11   34.01    0.80
  -1   0  11   34.06    0.86
  -1   0  11   35.00    0.78
   0   0 -11   41.28    0.95
   0   0 -11   40.58    1.01
   0   0 -11   41.54    1.26
   0   0  11   41.46    1.02
   0   0  11   41.62    0.93
  -1   0 -11   12.44    0.40
  -1   0 -11   12.73    0.38
  -1   0 -11   12.68    0.48
   1   0  11   12.66    0.36
   1   0  11   12.74    0.40
  -2   0 -11    5.87    0.26
  -2   0 -11    5.14    0.30
  -2   0 -11    5.66    0.24
   2   0  11    5.32    0.21
   2   0  11    5.77    0.26
  -3   0 -11    4.67    0.31
  -3   0 -11    4.70    0.25
  -3   0 -11    4.65    0.23
   3   0  11    5.01    0.25
  -4   0 -11    0.64    0.12
  -4   0 -11    0.69    0.11
  -4   0 -11    0.80    0.17
   4   0  11    0.83    0.12
  -5   0 -11    5.59    0.39
  -5   0 -11    5.58    0.31
  -5   0 -11    5.54    0.28
  -8   1  11    8.19    0.24
  -7   1  11    3.47    0.14
  -7   1  11    3.87    0.16
   6  -1 -11    3.45    0.28
  -6   1  11    3.25    0.14
  -6   1  11    3.54    0.16
   5  -1 -11    1.24    0.17
  -5   1  11    1.22    0.11
  -5   1  11    1.29    0.09
   4  -1 -11    2.23    0.08
   4  -1 -11    2.19    0.20
  -4   1  11    2.30    0.12
  -4   1  11    2.13    0.12
  -4   1  11    2.13    0.13
  -4   1  11    2.10    0.12
   3  -1 -11    3.26    0.22
   3  -1 -11    3.34    0.13
  -3   1  11    3.20    0.15
  -3   1  11    3.49    0.15
  -3   1  11    3.31    0.16
  -3   1  11    3.45    0.17
  -3   1  11    3.52    0.16
   2  -1 -11   39.40    0.90
  -2   1  11   39.82    0.91
  -2   1  11   40.89    0.89
  -2   1  11   40.35    0.97
  -2   1  11   38.90    1.20
   1  -1 -11   46.43    1.04
   1  -1 -11   47.36    1.11
  -1   1  11   46.97    1.40
  -1   1  11   46.00    1.12
  -1   1  11   45.78    1.02
  -1   1  11   46.72    1.05
   0  -1 -11   33.95    0.86
   0  -1 -11   34.78    1.06
   0  -1 -11   34.13    0.81
   0   1  11   34.55    0.79
   0   1  11   33.66    0.86
  -1  -1 -11   35.22    0.89
  -1  -1 -11   35.11    0.83
  -1  -1 -11   34.32    1.10
   1   1  11   34.95    0.80
   1   1  11   35.48    0.89
   1   1  11   33.34    0.81
  -2  -1 -11   22.95    0.81
  -2  -1 -11   23.55    0.61
  -2  -1 -11   22.20    0.65
   2   1  11   23.95    0.65
  -3  -1 -11    1.29    0.13
  -3  -1 -11    1.08    0.13
  -3  -1 -11    1.54    0.21
   3   1  11    1.53    0.16
  -4  -1 -11    0.47    0.11
  -4  -1 -11    0.47    0.14
  -4  -1 -11    0.70    0.12
   4   1  11    0.46    0.10
  -5  -1 -11    1.00    0.20
  -5  -1 -11    0.81    0.13
  -5  -1 -11    1.12    0.16
  -8   2  11    4.23    0.15
  -7   2  11    8.70    0.25
  -7   2  11    8.85    0.26
   6  -2 -11    5.51    0.34
  -6   2  11    5.22    0.20
  -6   2  11    5.50    0.18
   5  -2 -11    2.10    0.22
  -5   2  11    1.82    0.10
  -5   2  11    1.82    0.12
   4  -2 -11    0.84    0.13
   4  -2 -11    1.30    0.06
  -4   2  11    1.25    0.11
  -4   2  11    1.41    0.09
  -4   2  11    1.07    0.09
  -4   2  11    1.42    0.10
  -4   2  11    1.28    0.10
   3  -2 -11    0.30    0.09
   3  -2 -11    0.33    0.05
  -3   2  11    0.36    0.06
  -3   2  11    0.39    0.06
  -3   2  11    0.28    0.07
  -3   2  11    0.42    0.06
  -3   2  11    0.43    0.07
   2  -2 -11   22.28    0.56
   2  -2 -11   20.57    0.52
  -2   2  11   21.06    0.54
  -2   2  11   22.04    0.68
  -2   2  11   21.06    0.52
  -2   2  11   20.80    0.57
   1  -2 -11   22.48    0.58
   1  -2 -11   20.79    0.54
   1  -2 -11   22.60    0.68
  -1   2  11   21.25    0.55
  -1   2  11   20.90    0.59
  -1   2  11   21.57    0.53
  -1   2  11   21.27    0.70
   0  -2 -11   77.70    2.20
   0  -2 -11   75.43    1.75
   0  -2 -11   74.91    1.64
   0   2  11   72.88    1.61
   0   2  11   75.52    1.60
   0   2  11   74.55    1.75
  -1  -2 -11   12.20    0.47
  -1  -2 -11   12.51    0.39
  -1  -2 -11   12.70    0.41
   1   2  11   11.94    0.40
   1   2  11   12.23    0.36
  -2  -2 -11   11.36    0.47
  -2  -2 -11   11.35    0.40
  -2  -2 -11   11.31    0.38
   2   2  11   11.85    0.40
  -3  -2 -11   12.74    0.55
  -3  -2 -11   12.88    0.43
  -3  -2 -11   13.10    0.45
   3   2  11   13.49    0.45
  -4  -2 -11    1.50    0.22
  -4  -2 -11    1.39    0.17
  -4  -2 -11    1.48    0.16
   4   2  11    1.37    0.15
  -5  -2 -11    0.01    0.13
  -5  -2 -11    0.18    0.09
  -5  -2 -11    0.17    0.12
  -8   3  11    2.77    0.12
  -7   3  11    6.77    0.22
   6  -3 -11    8.99    0.46
  -6   3  11    9.37    0.29
   5  -3 -11   14.23    0.59
  -5   3  11   14.08    0.40
   4  -3 -11    8.03    0.21
   4  -3 -11    8.01    0.39
  -4   3  11    8.48    0.26
  -4   3  11    8.52    0.28
   3  -3 -11    3.53    0.16
   3  -3 -11    4.17    0.15
   3  -3 -11    3.88    0.25
  -3   3  11    3.84    0.16
  -3   3  11    4.28    0.17
  -3   3  11    3.89    0.18
  -3   3  11    3.82    0.18
   2  -3 -11    0.01    0.05
   2  -3 -11    0.10    0.05
  -2   3  11    0.05    0.05
  -2   3  11    0.13    0.05
  -2   3  11    0.05    0.06
   1  -3 -11    4.90    0.22
   1  -3 -11    5.16    0.21
   1  -3 -11    5.01    0.21
  -1   3  11    4.74    0.22
  -1   3  11    4.92    0.20
  -1   3  11    4.82    0.20
   0  -3 -11    2.02    0.15
   0  -3 -11    2.03    0.15
   0  -3 -11    2.00    0.16
   0   3  11    2.14    0.14
   0   3  11    1.88    0.13
   0   3  11    1.74    0.16
  -1  -3 -11   42.14    1.04
  -1  -3 -11   40.59    1.27
  -1  -3 -11   40.46    0.98
   1   3  11   40.81    1.04
  -2  -3 -11   17.16    0.63
  -2  -3 -11   16.44    0.53
  -2  -3 -11   16.46    0.50
   2   3  11   17.42    0.53
  -3  -3 -11   12.13    0.52
  -3  -3 -11   12.39    0.45
  -3  -3 -11   11.55    0.42
   3   3  11   11.47    0.41
   3   3  11   12.42    0.43
  -4  -3 -11    3.71    0.31
  -4  -3 -11    3.35    0.24
  -4  -3 -11    3.54    0.27
  -7   4  11    5.32    0.20
   6  -4 -11   24.00    0.89
  -6   4  11   23.77    0.61
   5  -4 -11   19.52    0.74
  -5   4  11   18.86    0.51
   4  -4 -11   11.42    0.50
  -4   4  11   11.49    0.35
   3  -4 -11    6.27    0.33
   3  -4 -11    6.38    0.20
   3  -4 -11    6.22    0.22
  -3   4  11    5.77    0.24
   2  -4 -11    3.01    0.17
   2  -4 -11    2.99    0.15
   2  -4 -11    2.98    0.22
  -2   4  11    2.81    0.15
  -2   4  11    2.90    0.18
  -2   4  11    2.95    0.16
   1  -4 -11    0.41    0.07
   1  -4 -11    0.60    0.07
   1  -4 -11    0.54    0.09
  -1   4  11    0.40    0.08
  -1   4  11    0.38    0.07
   0  -4 -11    2.10    0.16
   0  -4 -11    2.33    0.17
   0  -4 -11    2.23    0.15
   0   4  11    2.17    0.18
  -1  -4 -11    9.91    0.35
  -1  -4 -11    9.89    0.40
  -1  -4 -11   10.16    0.37
   1   4  11    9.92    0.37
  -2  -4 -11    8.10    0.33
  -2  -4 -11    9.64    0.37
  -2  -4 -11    8.52    0.40
   2   4  11    8.64    0.34
   2   4  11    8.67    0.36
  -3  -4 -11    7.87    0.36
  -3  -4 -11    7.55    0.40
  -3  -4 -11    7.19    0.33
   3   4  11    7.33    0.34
  -4  -4 -11    7.30    0.35
  -4  -4 -11    7.69    0.37
  -4  -4 -11    7.23    0.42
  -8   5  11    0.26    0.04
  -7   5  11    2.76    0.14
  -7   5  11    2.34    0.12
   6  -5 -11    3.05    0.28
  -6   5  11    3.15    0.16
   5  -5 -11   12.11    0.54
  -5   5  11   12.24    0.35
  -5   5  11   12.29    0.37
   4  -5 -11   25.83    0.91
  -4   5  11   26.40    0.67
  -4   5  11   25.33    0.62
   3  -5 -11   21.47    0.77
   3  -5 -11   21.29    0.56
  -3   5  11   21.05    0.58
  -3   5  11   20.73    0.54
   2  -5 -11    6.49    0.24
   2  -5 -11    6.65    0.26
   2  -5 -11    6.24    0.34
  -2   5  11    6.58    0.25
  -2   5  11    6.81    0.27
   1  -5 -11    1.31    0.12
   1  -5 -11    1.41    0.09
   1  -5 -11    1.34    0.14
  -1   5  11    1.28    0.14
   0  -5 -11    0.04    0.06
   0  -5 -11    0.04    0.07
   0  -5 -11    0.19    0.08
   0   5  11    0.04    0.09
   0   5  11   -0.01    0.07
  -1  -5 -11    0.03    0.07
  -1  -5 -11    0.08    0.08
  -1  -5 -11   -0.03    0.08
   1   5  11    0.04    0.08
   1   5  11   -0.03    0.08
  -2  -5 -11    4.16    0.26
  -2  -5 -11    3.77    0.26
  -2  -5 -11    3.65    0.25
   2   5  11    3.54    0.25
   2   5  11    3.66    0.24
  -3  -5 -11    5.27    0.30
  -3  -5 -11    5.44    0.34
  -3  -5 -11    5.85    0.32
   3   5  11    5.44    0.30
  -7   6  11    0.75    0.08
  -7   6  11    0.79    0.09
  -7   6  11    0.67    0.08
   6  -6 -11    1.33    0.21
  -6   6  11    1.03    0.10
  -6   6  11    1.18    0.13
  -6   6  11    1.13    0.11
   5  -6 -11    4.72    0.33
  -5   6  11    4.60    0.20
  -5   6  11    4.64    0.20
  -5   6  11    4.85    0.22
   4  -6 -11   11.80    0.52
  -4   6  11   11.20    0.36
  -4   6  11   11.89    0.38
  -4   6  11   11.09    0.35
   3  -6 -11    9.06    0.43
  -3   6  11    9.10    0.31
  -3   6  11    9.11    0.33
  -3   6  11    8.58    0.32
   2  -6 -11   31.25    0.81
   2  -6 -11   30.83    1.05
  -2   6  11   32.65    0.84
  -2   6  11   31.96    0.80
   1  -6 -11    5.92    0.26
   1  -6 -11    5.94    0.26
   1  -6 -11    5.26    0.31
  -1   6  11    5.83    0.27
  -1   6  11    5.49    0.27
   0  -6 -11    3.11    0.22
   0  -6 -11    2.81    0.21
   0   6  11    3.04    0.23
   0   6  11    2.82    0.22
  -1  -6 -11    1.03    0.14
  -1  -6 -11    1.05    0.14
   1   6  11    0.88    0.14
   1   6  11    0.94    0.15
  -2  -6 -11    0.56    0.13
  -2  -6 -11    0.40    0.11
   2   6  11    0.32    0.12
  -7   7  11    0.10    0.06
  -7   7  11    0.36    0.08
  -7   7  11    0.24    0.06
  -6   7  11    0.11    0.08
  -6   7  11    0.09    0.06
  -6   7  11    0.11    0.06
   5  -7 -11    1.16    0.19
  -5   7  11    0.85    0.10
  -5   7  11    0.69    0.09
  -5   7  11    0.71    0.10
   4  -7 -11    2.33    0.24
  -4   7  11    2.37    0.18
  -4   7  11    2.10    0.17
   3  -7 -11   10.11    0.48
  -3   7  11   10.33    0.36
  -3   7  11   10.37    0.37
   2  -7 -11    5.16    0.31
  -2   7  11    5.23    0.27
  -2   7  11    5.50    0.27
   1  -7 -11   13.94    0.46
   1  -7 -11   13.04    0.55
  -1   7  11   13.86    0.46
  -1   7  11   14.62    0.48
   0  -7 -11    2.95    0.22
   0  -7 -11    2.46    0.22
   0   7  11    2.78    0.23
   0   7  11    2.62    0.23
  -1  -7 -11    1.27    0.15
   1   7  11    1.03    0.15
   1   7  11    1.25    0.17
  -6   8  11    2.00    0.17
   5  -8 -11    0.19    0.12
  -5   8  11    0.09    0.08
   4  -8 -11    0.32    0.12
  -4   8  11    0.10    0.08
   3  -8 -11    1.12    0.17
  -3   8  11    1.07    0.13
  -3   8  11    1.15    0.14
   2  -8 -11    1.55    0.20
  -2   8  11    1.49    0.16
  -2   8  11    1.62    0.17
  -1   8  11    5.26    0.30
  -1   8  11    5.77    0.31
   0  -8 -11    8.15    0.36
   0   8  11    7.83    0.37
   0   8  11    7.87    0.37
   4  -9 -11    0.20    0.12
  -4   9  11    0.21    0.10
  -3   9  11    0.42    0.11
  -2   9  11    1.01    0.16
  -2   9  11    1.10    0.16
  -1  -8  12    3.31    0.25
   0  -8  12    8.15    0.37
  -1   8 -12    2.01    0.20
   1  -8  12    2.40    0.22
  -2   8 -12   12.92    0.45
   2  -8  12   13.85    0.49
  -3   8 -12    0.91    0.13
  -3  -7  12   -0.02    0.07
  -3  -7  12    0.07    0.10
  -2  -7  12    0.49    0.12
  -1  -7  12    1.94    0.20
   0   7 -12    4.31    0.24
   0  -7  12    4.71    0.27
  -1   7 -12   12.63    0.42
   1  -7  12   13.10    0.46
  -2   7 -12    6.11    0.29
   2  -7  12    6.49    0.31
  -3   7 -12   10.44    0.39
   3  -7  12   10.26    0.40
  -4   7 -12    2.65    0.22
  -4   7 -12    2.74    0.29
  -4  -6  12    4.77    0.28
  -4  -6  12    4.30    0.24
  -3  -6  12    4.40    0.26
  -2  -6  12    0.53    0.11
   1   6 -12    0.09    0.07
  -1  -6  12    0.09    0.08
   0   6 -12    0.00    0.07
   0  -6  12    0.02    0.08
  -1   6 -12    7.67    0.31
   1  -6  12    7.95    0.34
  -2   6 -12   11.16    0.39
   2  -6  12   12.22    0.43
  -3   6 -12    7.93    0.33
  -3   6 -12    8.40    0.44
   3  -6  12    8.39    0.35
  -4   6 -12    8.76    0.36
  -4   6 -12    8.28    0.45
  -5   6 -12    2.95    0.23
  -5   6 -12    3.24    0.31
  -5  -5  12    6.38    0.27
  -5  -5  12    6.31    0.31
  -4  -5  12    8.22    0.30
  -4  -5  12    8.33    0.35
  -3  -5  12   11.71    0.41
   2   5 -12    8.51    0.37
  -2  -5  12    8.83    0.35
   1   5 -12    4.97    0.23
  -1  -5  12    5.21    0.26
   0   5 -12    0.05    0.07
   0  -5  12    0.11    0.07
  -1   5 -12   -0.01    0.07
   1  -5  12    0.12    0.08
  -2   5 -12    4.74    0.31
  -2   5 -12    4.86    0.24
   2  -5  12    4.58    0.25
  -3   5 -12    9.16    0.44
  -3   5 -12    8.53    0.34
   3  -5  12    9.10    0.36
  -4   5 -12   11.39    0.53
  -4   5 -12   10.96    0.41
  -5   5 -12    2.86    0.22
  -5   5 -12    2.95    0.30
  -6  -4  12    2.44    0.17
  -6  -4  12    2.83    0.19
  -6  -4  12    2.44    0.21
  -5  -4  12    0.71    0.10
  -5  -4  12    0.96    0.11
  -5  -4  12    0.90    0.13
   4   4 -12   13.85    0.53
  -4  -4  12   13.76    0.41
  -4  -4  12   14.03    0.45
   3   4 -12   14.36    0.53
  -3  -4  12   14.23    0.41
  -3  -4  12   13.29    0.45
   2   4 -12   19.89    0.52
  -2  -4  12   19.50    0.52
  -2  -4  12   20.12    0.58
   1   4 -12   20.36    0.54
  -1  -4  12   21.33    0.60
  -1  -4  12   20.10    0.54
   0   4 -12    0.77    0.10
   0  -4  12    0.70    0.11
  -1   4 -12    0.11    0.07
   1  -4  12    0.06    0.07
  -2   4 -12    0.00    0.07
  -2   4 -12    0.07    0.09
   2  -4  12    0.00    0.07
  -3   4 -12    5.18    0.26
  -3   4 -12    5.89    0.34
   3  -4  12    5.75    0.27
  -4   4 -12    4.02    0.24
  -4   4 -12    4.30    0.31
   4  -4  12    4.18    0.25
  -5   4 -12    9.92    0.39
  -5   4 -12   10.77    0.53
  -6  -3  12    0.90    0.12
  -6  -3  12    0.81    0.10
   5   3 -12    2.82    0.23
  -5  -3  12    2.75    0.16
  -5  -3  12    2.73    0.19
   4   3 -12    4.47    0.27
  -4  -3  12    4.50    0.20
  -4  -3  12    4.46    0.23
   3   3 -12   12.49    0.49
  -3  -3  12   12.14    0.40
  -3  -3  12   12.31    0.37
   2   3 -12   22.86    0.58
  -2  -3  12   22.65    0.58
  -2  -3  12   23.15    0.64
   1   3 -12   27.07    0.67
  -1  -3  12   26.43    0.66
  -1  -3  12   26.50    0.72
   0   3 -12   44.23    1.02
   0  -3  12   44.34    1.10
   0  -3  12   43.27    1.00
  -1   3 -12   14.01    0.54
  -1   3 -12   13.07    0.41
   1  -3  12   13.94    0.45
  -2   3 -12    2.58    0.18
  -2   3 -12    3.20    0.23
   2  -3  12    2.78    0.20
  -3   3 -12    0.14    0.10
  -3   3 -12    0.39    0.10
   3  -3  12   -0.11    0.06
  -4   3 -12    2.32    0.26
  -4   3 -12    2.11    0.20
  -4   3 -12    2.51    0.19
   4  -3  12    2.26    0.19
  -5   3 -12    3.91    0.26
  -5   3 -12    3.88    0.35
  -5   3 -12    3.59    0.24
  -7  -2  12    2.46    0.18
  -7  -2  12    2.39    0.15
  -6  -2  12    0.17    0.07
  -6  -2  12    0.09    0.05
   5   2 -12    0.06    0.09
  -5  -2  12   -0.01    0.05
  -5  -2  12    0.02    0.06
   4   2 -12    5.29    0.29
  -4  -2  12    4.95    0.23
  -4  -2  12    4.68    0.20
   3   2 -12   17.38    0.62
  -3  -2  12   16.94    0.50
  -3  -2  12   16.41    0.45
   2   2 -12    8.31    0.28
  -2  -2  12    8.74    0.28
  -2  -2  12    8.75    0.32
  -2  -2  12    8.25    0.29
   1   2 -12   30.77    0.74
  -1  -2  12   29.81    0.72
  -1  -2  12   30.21    0.79
   0   2 -12   27.84    0.69
   0  -2  12   28.05    0.74
   0  -2  12   26.85    0.67
  -1   2 -12   23.73    0.63
  -1   2 -12   25.81    0.83
   1  -2  12   23.94    0.67
   1  -2  12   23.16    0.60
  -2   2 -12    6.34    0.27
  -2   2 -12    6.65    0.34
  -2   2 -12    6.59    0.29
   2  -2  12    6.04    0.28
  -3   2 -12    0.92    0.13
  -3   2 -12    0.81    0.11
  -3   2 -12    1.24    0.18
   3  -2  12    0.82    0.12
  -4   2 -12   -0.13    0.07
  -4   2 -12    0.00    0.07
  -4   2 -12    0.07    0.12
   4  -2  12   -0.13    0.05
  -5   2 -12    0.43    0.10
  -5   2 -12    0.41    0.12
  -5   2 -12    0.48    0.17
  -7  -1  12    5.52    0.23
  -7  -1  12    5.66    0.21
   6   1 -12    7.18    0.39
  -6  -1  12    6.77    0.24
  -6  -1  12    7.07    0.26
   5   1 -12    5.60    0.33
  -5  -1  12    5.33    0.23
  -5  -1  12    5.31    0.21
   4   1 -12    4.16    0.27
  -4  -1  12    4.55    0.21
  -4  -1  12    4.01    0.18
   3   1 -12    0.51    0.11
   3   1 -12    0.31    0.05
  -3  -1  12    0.33    0.06
  -3  -1  12    0.60    0.08
  -3  -1  12    0.64    0.09
   2   1 -12   38.79    0.87
  -2  -1  12   37.52    0.94
  -2  -1  12   38.15    0.86
  -2  -1  12   35.66    0.88
   1   1 -12    6.43    0.23
  -1  -1  12    6.28    0.23
  -1  -1  12    6.24    0.24
  -1  -1  12    6.26    0.26
   0   1 -12   37.44    1.14
   0   1 -12   35.99    0.86
   0  -1  12   36.23    0.92
   0  -1  12   35.13    0.84
  -1   1 -12   31.92    0.82
  -1   1 -12   32.19    1.02
  -1   1 -12   30.47    0.77
   1  -1  12   30.55    0.75
   1  -1  12   31.80    0.83
  -2   1 -12   17.30    0.49
  -2   1 -12   16.76    0.52
  -2   1 -12   16.63    0.63
   2  -1  12   16.84    0.52
  -3   1 -12   29.09    0.75
  -3   1 -12   28.45    1.01
  -3   1 -12   29.96    0.80
   3  -1  12   28.87    0.79
  -4   1 -12    6.16    0.39
  -4   1 -12    6.45    0.31
  -4   1 -12    6.02    0.28
   4  -1  12    6.04    0.28
  -5   1 -12   -0.01    0.09
  -5   1 -12    0.06    0.13
  -5   1 -12    0.07    0.08
  -7   0  12    6.53    0.24
  -7   0  12    6.27    0.22
   6   0 -12   10.16    0.49
  -6   0  12   10.88    0.33
  -6   0  12   10.48    0.31
   5   0 -12   11.47    0.51
  -5   0  12   11.42    0.33
  -5   0  12   11.55    0.36
   4   0 -12   18.83    0.68
  -4   0  12   17.83    0.51
  -4   0  12   18.17    0.46
   3   0 -12    2.46    0.21
   3   0 -12    2.59    0.13
  -3   0  12    2.39    0.15
  -3   0  12    2.56    0.17
  -3   0  12    2.65    0.14
  -3   0  12    2.40    0.14
   2   0 -12    0.69    0.08
  -2   0  12    0.60    0.09
  -2   0  12    0.67    0.09
  -2   0  12    0.70    0.08
   1   0 -12   21.79    0.55
  -1   0  12   21.40    0.56
  -1   0  12   21.47    0.60
  -1   0  12   21.42    0.54
   0   0 -12    7.48    0.28
   0   0 -12    7.39    0.27
   0   0 -12    8.01    0.33
   0   0  12    7.70    0.30
   0   0  12    7.35    0.26
  -1   0 -12   28.44    0.92
  -1   0 -12   28.18    0.75
  -1   0 -12   27.77    0.70
   1   0  12   28.79    0.76
   1   0  12   27.98    0.68
  -2   0 -12   30.54    0.77
  -2   0 -12   31.18    0.82
  -2   0 -12   30.54    1.03
   2   0  12   31.43    0.82
  -3   0 -12    8.78    0.35
  -3   0 -12    7.87    0.43
  -3   0 -12    9.06    0.33
   3   0  12    8.99    0.34
  -4   0 -12    0.44    0.10
  -4   0 -12    0.41    0.15
  -4   0 -12    0.42    0.11
   4   0  12    0.17    0.09
  -5   0 -12    5.48    0.29
  -5   0 -12    5.36    0.31
  -5   0 -12    5.27    0.39
  -7   1  12    4.25    0.18
  -7   1  12    3.92    0.16
   6  -1 -12   14.56    0.62
  -6   1  12   14.33    0.41
  -6   1  12   14.49    0.38
   5  -1 -12   15.23    0.62
  -5   1  12   15.10    0.44
  -5   1  12   15.19    0.39
   4  -1 -12    7.80    0.39
  -4   1  12    7.77    0.28
  -4   1  12    8.28    0.25
   3  -1 -12   35.75    0.85
   3  -1 -12   37.02    1.21
  -3   1  12   39.35    0.86
  -3   1  12   38.94    0.94
  -3   1  12   39.12    0.88
  -3   1  12   37.64    0.93
   2  -1 -12   35.01    0.80
  -2   1  12   34.41    0.81
  -2   1  12   35.11    0.87
  -2   1  12   34.09    0.79
   1  -1 -12    0.23    0.06
   1  -1 -12    0.23    0.06
  -1   1  12    0.22    0.07
  -1   1  12    0.16    0.05
  -1   1  12    0.17    0.06
   0  -1 -12    9.84    0.34
   0  -1 -12   10.48    0.39
   0  -1 -12   10.17    0.33
   0   1  12   10.30    0.36
   0   1  12   10.19    0.31
  -1  -1 -12    8.10    0.29
  -1  -1 -12    7.84    0.31
  -1  -1 -12    7.75    0.35
   1   1  12    8.23    0.29
   1   1  12    8.13    0.31
  -2  -1 -12   19.83    0.60
  -2  -1 -12   19.87    0.73
  -2  -1 -12   20.21    0.56
   2   1  12   20.38    0.59
  -3  -1 -12    6.77    0.38
  -3  -1 -12    7.04    0.33
  -3  -1 -12    7.33    0.31
   3   1  12    7.17    0.31
  -4  -1 -12   24.34    0.93
  -4  -1 -12   24.78    0.70
  -4  -1 -12   25.31    0.75
   4   1  12   25.42    0.76
  -5  -1 -12    1.60    0.17
  -5  -1 -12    1.64    0.23
  -5  -1 -12    1.67    0.19
  -8   2  12    0.87    0.08
  -7   2  12    1.88    0.11
  -7   2  12    1.90    0.12
   6  -2 -12    5.99    0.36
  -6   2  12    5.61    0.20
  -6   2  12    5.42    0.22
   5  -2 -12   28.01    0.98
  -5   2  12   28.01    0.65
  -5   2  12   27.83    0.71
   4  -2 -12   14.78    0.60
  -4   2  12   15.61    0.45
  -4   2  12   15.74    0.40
   3  -2 -12   32.68    1.11
   3  -2 -12   34.00    0.77
  -3   2  12   35.80    0.86
  -3   2  12   34.48    0.80
  -3   2  12   33.41    1.03
  -3   2  12   34.48    0.78
  -3   2  12   33.57    0.85
   2  -2 -12    2.42    0.13
   2  -2 -12    3.06    0.15
  -2   2  12    2.46    0.15
  -2   2  12    2.39    0.15
  -2   2  12    2.53    0.16
  -2   2  12    2.49    0.14
   1  -2 -12    9.44    0.31
   1  -2 -12   10.13    0.36
   1  -2 -12    9.94    0.33
  -1   2  12   10.11    0.32
  -1   2  12    9.77    0.38
  -1   2  12    9.42    0.34
  -1   2  12    9.43    0.30
   0  -2 -12    0.58    0.09
   0  -2 -12    0.74    0.10
   0  -2 -12    0.77    0.11
   0   2  12    0.56    0.10
   0   2  12    0.68    0.09
   0   2  12    0.49    0.08
  -1  -2 -12    2.86    0.21
  -1  -2 -12    3.20    0.22
  -1  -2 -12    3.26    0.20
   1   2  12    3.04    0.21
  -2  -2 -12    3.99    0.27
  -2  -2 -12    4.00    0.24
  -2  -2 -12    4.12    0.23
   2   2  12    4.31    0.24
  -3  -2 -12    9.44    0.37
  -3  -2 -12    9.95    0.40
  -3  -2 -12   10.07    0.48
   3   2  12    9.93    0.38
  -4  -2 -12    4.20    0.33
  -4  -2 -12    4.76    0.29
  -4  -2 -12    4.47    0.27
  -8   3  12    1.74    0.11
  -7   3  12    0.15    0.06
  -7   3  12    0.24    0.05
   6  -3 -12    0.45    0.13
  -6   3  12    0.34    0.07
   5  -3 -12    3.35    0.27
  -5   3  12    3.49    0.18
   4  -3 -12   40.90    1.35
  -4   3  12   42.77    1.02
   3  -3 -12   14.57    0.38
   3  -3 -12   14.05    0.57
   3  -3 -12   14.75    0.40
  -3   3  12   14.38    0.43
   2  -3 -12   33.95    0.82
   2  -3 -12   31.78    0.76
  -2   3  12   32.18    0.78
  -2   3  12   32.25    0.83
   1  -3 -12   14.56    0.44
   1  -3 -12   15.34    0.48
   1  -3 -12   13.62    0.41
  -1   3  12   13.95    0.41
  -1   3  12   14.25    0.45
  -1   3  12   13.88    0.40
   0  -3 -12   10.30    0.37
   0  -3 -12   10.63    0.39
   0  -3 -12   10.02    0.34
   0   3  12   10.09    0.33
   0   3  12   10.66    0.38
  -1  -3 -12    4.84    0.24
  -1  -3 -12    4.66    0.27
  -1  -3 -12    5.25    0.26
   1   3  12    5.04    0.26
  -2  -3 -12    0.33    0.09
  -2  -3 -12    0.33    0.10
  -2  -3 -12    0.22    0.10
   2   3  12    0.37    0.10
  -3  -3 -12    6.18    0.36
  -3  -3 -12    6.03    0.32
  -3  -3 -12    5.93    0.30
   3   3  12    6.23    0.31
  -4  -3 -12    1.36    0.17
  -4  -3 -12    1.40    0.18
  -4  -3 -12    1.44    0.22
  -7   4  12    1.80    0.13
   6  -4 -12    0.02    0.10
  -6   4  12    0.02    0.05
   5  -4 -12    1.88    0.22
  -5   4  12    1.77    0.14
   4  -4 -12    3.22    0.25
  -4   4  12    3.11    0.18
   3  -4 -12   21.91    0.55
   3  -4 -12   19.62    0.76
  -3   4  12   20.35    0.57
   2  -4 -12   24.69    0.64
   2  -4 -12   25.09    0.61
   2  -4 -12   21.98    0.83
  -2   4  12   23.41    0.60
  -2   4  12   25.41    0.66
   1  -4 -12   23.88    0.66
   1  -4 -12   25.05    0.74
   1  -4 -12   23.02    0.61
  -1   4  12   23.90    0.67
   0  -4 -12   11.06    0.39
   0  -4 -12   10.47    0.36
   0  -4 -12   10.62    0.40
   0   4  12   11.11    0.40
  -1  -4 -12    1.04    0.13
  -1  -4 -12    1.12    0.13
  -1  -4 -12    1.12    0.15
   1   4  12    1.10    0.15
  -2  -4 -12    1.29    0.16
  -2  -4 -12    1.46    0.19
  -2  -4 -12    1.53    0.16
   2   4  12    1.31    0.15
   2   4  12    1.58    0.17
  -3  -4 -12    0.39    0.14
  -3  -4 -12    0.31    0.12
  -3  -4 -12    0.38    0.11
   3   4  12    0.53    0.12
  -7   5  12    1.48    0.11
  -7   5  12    1.55    0.13
   6  -5 -12    3.51    0.31
  -6   5  12    3.19    0.17
   5  -5 -12    3.59    0.29
  -5   5  12    3.48    0.19
  -5   5  12    3.34    0.17
   4  -5 -12    0.12    0.09
  -4   5  12    0.07    0.05
  -4   5  12    0.10    0.07
   3  -5 -12    3.63    0.27
  -3   5  12    4.00    0.21
  -3   5  12    3.61    0.18
   2  -5 -12    8.81    0.31
   2  -5 -12    7.75    0.40
  -2   5  12    8.68    0.33
   1  -5 -12   23.73    0.66
   1  -5 -12   23.30    0.62
  -1   5  12   23.87    0.67
   0  -5 -12    6.49    0.29
   0  -5 -12    6.63    0.29
   0  -5 -12    7.04    0.31
   0   5  12    6.95    0.32
   0   5  12    6.95    0.31
  -1  -5 -12   11.49    0.41
  -1  -5 -12   10.82    0.45
  -1  -5 -12   10.98    0.42
   1   5  12   11.26    0.43
   1   5  12   11.55    0.42
  -2  -5 -12    3.69    0.26
  -2  -5 -12    3.62    0.26
  -2  -5 -12    4.27    0.28
   2   5  12    3.21    0.25
   2   5  12    3.96    0.27
  -3  -5 -12    0.26    0.13
  -3  -5 -12    0.06    0.10
  -3  -5 -12    0.36    0.13
   3   5  12    0.45    0.12
  -7   6  12    1.77    0.13
  -7   6  12    1.75    0.13
  -7   6  12    2.07    0.15
  -6   6  12    4.38    0.20
  -6   6  12    4.23    0.19
  -6   6  12    4.69    0.22
   5  -6 -12    2.02    0.24
  -5   6  12    1.90    0.16
  -5   6  12    1.83    0.15
  -5   6  12    1.86    0.14
   4  -6 -12    0.72    0.15
  -4   6  12    0.55    0.09
  -4   6  12    0.63    0.11
  -4   6  12    0.62    0.09
   3  -6 -12    0.14    0.10
  -3   6  12   -0.03    0.07
  -3   6  12    0.19    0.08
   2  -6 -12    2.09    0.17
   2  -6 -12    1.99    0.21
  -2   6  12    2.01    0.19
  -2   6  12    2.04    0.19
   1  -6 -12    1.31    0.18
   1  -6 -12    1.43    0.15
  -1   6  12    1.26    0.15
  -1   6  12    1.33    0.15
   0  -6 -12   19.70    0.61
   0  -6 -12   19.62    0.61
   0   6  12   20.52    0.63
   0   6  12   19.48    0.60
  -1  -6 -12    5.50    0.30
  -1  -6 -12    6.21    0.32
   1   6  12    5.56    0.31
   1   6  12    6.24    0.33
  -2  -6 -12    3.81    0.28
  -2  -6 -12    3.38    0.26
   2   6  12    3.68    0.28
  -6   7  12    2.33    0.18
  -6   7  12    2.03    0.15
  -6   7  12    2.03    0.16
   5  -7 -12    2.82    0.28
  -5   7  12    2.88    0.19
  -5   7  12    3.20    0.21
   4  -7 -12    5.00    0.35
  -4   7  12    5.64    0.27
  -4   7  12    5.08    0.25
   3  -7 -12    0.40    0.13
  -3   7  12    0.15    0.08
  -3   7  12    0.26    0.11
   2  -7 -12    0.11    0.09
  -2   7  12    0.08    0.08
  -2   7  12   -0.03    0.08
   1  -7 -12    0.53    0.13
   1  -7 -12    0.62    0.12
  -1   7  12    0.51    0.12
  -1   7  12    0.55    0.12
   0  -7 -12    0.58    0.14
   0  -7 -12    0.89    0.14
   0   7  12    0.62    0.12
   0   7  12    0.70    0.15
  -1  -7 -12    5.86    0.32
   1   7  12    5.80    0.34
   1   7  12    5.23    0.32
  -5   8  12    3.82    0.24
  -5   8  12    3.41    0.22
   4  -8 -12    3.48    0.30
  -4   8  12    3.34    0.23
  -4   8  12    3.93    0.24
   3  -8 -12    3.29    0.28
  -3   8  12    3.27    0.25
  -3   8  12    3.44    0.24
   2  -8 -12    1.78    0.21
  -2   8  12    1.48    0.17
  -2   8  12    2.15    0.21
  -1   8  12    0.15    0.11
  -1   8  12   -0.03    0.09
   0  -8  13    0.00    0.10
  -1   8 -13   -0.02    0.07
   1  -8  13   -0.16    0.08
  -2   8 -13    0.52    0.11
   2  -8  13    1.02    0.16
  -2  -7  13    1.38    0.17
  -1  -7  13    5.50    0.30
   0   7 -13    2.31    0.22
   0  -7  13    2.70    0.23
  -1   7 -13    0.47    0.10
   1  -7  13    0.82    0.13
  -2   7 -13    2.03    0.21
   2  -7  13    2.82    0.23
  -3   7 -13   -0.04    0.08
  -4  -6  13    0.44    0.12
  -3  -6  13    8.56    0.37
  -2  -6  13   10.77    0.42
  -1  -6  13    9.38    0.38
   0   6 -13    5.17    0.25
   0  -6  13    5.16    0.28
  -1   6 -13    2.36    0.20
   1  -6  13    2.48    0.21
  -2   6 -13    1.70    0.16
   2  -6  13    2.13    0.21
  -3   6 -13    0.11    0.08
  -3   6 -13    0.05    0.12
   3  -6  13    0.13    0.09
  -4   6 -13    0.98    0.18
  -4   6 -13    1.03    0.15
  -4  -5  13    0.30    0.10
  -3  -5  13    3.11    0.23
   2   5 -13    7.15    0.34
  -2  -5  13    7.15    0.32
   1   5 -13   15.02    0.45
  -1  -5  13   15.14    0.50
   0   5 -13   25.58    0.68
   0  -5  13   25.81    0.74
  -1   5 -13    5.11    0.25
   1  -5  13    5.23    0.28
  -2   5 -13    7.81    0.32
   2  -5  13    8.23    0.35
  -3   5 -13    0.88    0.13
  -3   5 -13    0.83    0.16
   3  -5  13    0.76    0.13
  -4   5 -13    0.39    0.14
  -4   5 -13    0.31    0.10
  -5   5 -13    1.54    0.23
  -5   5 -13    0.84    0.13
  -5  -4  13    0.97    0.13
  -5  -4  13    0.95    0.11
   4   4 -13    0.10    0.08
  -4  -4  13    0.00    0.05
  -4  -4  13    0.00    0.08
   3   4 -13    0.35    0.10
  -3  -4  13    0.17    0.09
  -3  -4  13    0.18    0.06
  -2  -4  13    3.98    0.24
   1   4 -13   11.80    0.38
  -1  -4  13   12.56    0.43
   0   4 -13    7.62    0.29
   0  -4  13    7.60    0.32
  -1   4 -13   30.28    0.78
   1  -4  13   30.79    0.84
  -2   4 -13    7.13    0.30
  -2   4 -13    7.31    0.38
   2  -4  13    7.22    0.32
  -3   4 -13    5.25    0.33
  -3   4 -13    4.63    0.26
   3  -4  13    4.82    0.26
  -4   4 -13    0.89    0.13
  -4   4 -13    1.14    0.18
  -5   4 -13    0.23    0.14
  -5   4 -13    0.25    0.10
  -6  -3  13    8.65    0.34
  -6  -3  13    8.31    0.30
   5   3 -13    8.31    0.41
  -5  -3  13    8.67    0.33
  -5  -3  13    8.15    0.29
   4   3 -13    4.31    0.28
  -4  -3  13    4.56    0.24
  -4  -3  13    4.58    0.21
   3   3 -13    1.59    0.17
  -3  -3  13    1.44    0.13
  -3  -3  13    1.57    0.16
   2   3 -13    1.22    0.12
  -2  -3  13    1.27    0.12
  -2  -3  13    1.24    0.14
   1   3 -13    0.69    0.09
  -1  -3  13    0.62    0.09
  -1  -3  13    0.74    0.12
   0   3 -13   11.54    0.37
   0  -3  13   11.17    0.40
  -1   3 -13   21.51    0.74
  -1   3 -13   19.92    0.56
   1  -3  13   19.42    0.60
  -2   3 -13   25.12    0.69
  -2   3 -13   26.33    0.90
   2  -3  13   25.32    0.73
  -3   3 -13    9.17    0.35
  -3   3 -13    9.48    0.44
   3  -3  13    8.29    0.35
  -4   3 -13    9.68    0.49
  -4   3 -13    9.30    0.39
  -4   3 -13    9.60    0.37
  -5   3 -13    1.31    0.23
  -5   3 -13    1.37    0.17
  -5   3 -13    0.95    0.13
   6   2 -13    4.06    0.30
  -6  -2  13    3.62    0.21
  -6  -2  13    3.79    0.19
   5   2 -13    9.77    0.46
  -5  -2  13    9.21    0.31
  -5  -2  13    9.74    0.35
   4   2 -13    8.71    0.41
  -4  -2  13    8.37    0.29
  -4  -2  13    8.66    0.32
   3   2 -13   20.01    0.73
  -3  -2  13   19.42    0.52
  -3  -2  13   20.87    0.59
   2   2 -13    0.29    0.07
  -2  -2  13    0.40    0.08
  -2  -2  13    0.13    0.08
   1   2 -13    1.44    0.14
  -1  -2  13    1.08    0.12
  -1  -2  13    1.56    0.13
   0   2 -13    6.11    0.25
   0  -2  13    5.41    0.23
   0  -2  13    5.63    0.27
  -1   2 -13    2.94    0.18
  -1   2 -13    3.47    0.23
   1  -2  13    2.84    0.20
  -2   2 -13    9.43    0.42
  -2   2 -13    9.66    0.36
  -2   2 -13    9.16    0.34
   2  -2  13    9.17    0.36
  -3   2 -13   13.74    0.45
  -3   2 -13   13.12    0.56
  -3   2 -13   13.92    0.47
   3  -2  13   13.66    0.47
  -4   2 -13    3.30    0.23
  -4   2 -13    3.33    0.30
  -4   2 -13    3.57    0.23
  -5   2 -13    6.10    0.32
  -5   2 -13    6.75    0.31
  -5   2 -13    6.54    0.43
  -7  -1  13    0.02    0.06
  -7  -1  13    0.00    0.05
   6   1 -13    3.39    0.28
  -6  -1  13    2.93    0.18
  -6  -1  13    2.84    0.16
   5   1 -13   14.23    0.58
  -5  -1  13   12.69    0.41
  -5  -1  13   12.59    0.38
   4   1 -13   27.49    0.94
  -4  -1  13   27.33    0.73
  -4  -1  13   26.65    0.66
   3   1 -13   15.14    0.60
  -3  -1  13   15.50    0.43
  -3  -1  13   15.87    0.48
   2   1 -13   62.11    1.33
  -2  -1  13   57.60    1.38
  -2  -1  13   61.03    1.45
  -2  -1  13   59.83    1.32
   1   1 -13    2.25    0.15
  -1  -1  13    2.34    0.18
  -1  -1  13    2.13    0.15
   0   1 -13    1.11    0.11
   0   1 -13    1.36    0.16
   0  -1  13    1.06    0.10
   0  -1  13    1.18    0.14
  -1   1 -13    4.31    0.25
  -1   1 -13    3.80    0.22
  -1   1 -13    3.95    0.21
   1  -1  13    4.00    0.23
  -2   1 -13    1.45    0.14
  -2   1 -13    1.71    0.20
  -2   1 -13    1.87    0.18
   2  -1  13    1.78    0.18
  -3   1 -13   17.65    0.55
  -3   1 -13   16.75    0.67
  -3   1 -13   16.85    0.51
   3  -1  13   16.65    0.54
  -4   1 -13   12.00    0.42
  -4   1 -13   12.01    0.57
  -4   1 -13   11.28    0.44
  -5   1 -13    5.50    0.29
  -5   1 -13    5.50    0.41
  -5   1 -13    5.29    0.31
  -7   0  13    0.29    0.06
  -7   0  13    0.43    0.08
   6   0 -13    1.98    0.24
  -6   0  13    1.83    0.13
  -6   0  13    2.11    0.15
   5   0 -13    5.16    0.33
  -5   0  13    4.57    0.22
  -5   0  13    4.91    0.20
   4   0 -13   23.30    0.83
  -4   0  13   22.92    0.63
  -4   0  13   23.00    0.57
   3   0 -13    9.93    0.47
  -3   0  13   11.38    0.33
  -3   0  13   11.87    0.38
   2   0 -13    8.51    0.28
  -2   0  13    8.24    0.29
  -2   0  13    8.75    0.32
  -2   0  13    8.78    0.28
   1   0 -13   47.57    1.08
  -1   0  13   47.57    1.07
  -1   0  13   47.91    1.17
   0   0 -13    4.21    0.21
   0   0 -13    4.47    0.24
   0   0 -13    4.42    0.20
   0   0  13    4.60    0.23
   0   0  13    4.23    0.19
  -1   0 -13    1.54    0.17
  -1   0 -13    1.44    0.16
  -1   0 -13    1.79    0.15
   1   0  13    1.55    0.16
  -2   0 -13    4.88    0.24
  -2   0 -13    4.58    0.29
  -2   0 -13    4.33    0.24
   2   0  13    4.72    0.25
  -3   0 -13    2.47    0.26
  -3   0 -13    2.19    0.20
  -3   0 -13    2.65    0.20
   3   0  13    2.36    0.20
  -4   0 -13    1.68    0.18
  -4   0 -13    1.93    0.27
  -4   0 -13    2.01    0.18
  -5   0 -13    2.12    0.21
  -5   0 -13    2.07    0.28
  -5   0 -13    2.03    0.21
  -7   1  13    1.19    0.11
  -7   1  13    1.47    0.12
   6  -1 -13    0.20    0.12
  -6   1  13    0.21    0.06
  -6   1  13    0.28    0.07
   5  -1 -13    1.17    0.18
  -5   1  13    0.92    0.09
  -5   1  13    1.19    0.12
   4  -1 -13    2.22    0.21
  -4   1  13    2.16    0.13
  -4   1  13    1.80    0.15
   3  -1 -13   10.74    0.32
   3  -1 -13   10.49    0.49
  -3   1  13   11.86    0.34
  -3   1  13   12.38    0.38
   2  -1 -13   53.92    1.21
  -2   1  13   54.55    1.20
  -2   1  13   54.99    1.24
  -2   1  13   55.43    1.32
   1  -1 -13   28.67    0.74
   1  -1 -13   28.69    0.70
  -1   1  13   27.14    0.68
  -1   1  13   28.98    0.76
   0  -1 -13   26.65    0.69
   0  -1 -13   27.69    0.88
   0  -1 -13   27.68    0.73
   0   1  13   27.19    0.74
   0   1  13   27.30    0.67
  -1  -1 -13   12.27    0.49
  -1  -1 -13   12.63    0.42
  -1  -1 -13   12.71    0.40
   1   1  13   13.13    0.43
  -2  -1 -13    1.69    0.17
  -2  -1 -13    1.55    0.16
  -2  -1 -13    1.52    0.19
   2   1  13    1.12    0.14
  -3  -1 -13    1.96    0.20
  -3  -1 -13    2.16    0.22
  -3  -1 -13    2.26    0.25
   3   1  13    2.08    0.20
  -4  -1 -13    4.11    0.28
  -4  -1 -13    4.05    0.34
  -4  -1 -13    4.36    0.26
  -7   2  13    2.81    0.14
  -7   2  13    2.70    0.15
   6  -2 -13    2.17    0.25
  -6   2  13    1.85    0.14
  -6   2  13    1.95    0.13
   5  -2 -13    1.57    0.22
  -5   2  13    1.40    0.11
  -5   2  13    1.21    0.13
   4  -2 -13    0.57    0.13
  -4   2  13    0.66    0.10
  -4   2  13    0.54    0.07
   3  -2 -13   30.03    1.11
  -3   2  13   36.45    0.87
  -3   2  13   34.48    0.79
   2  -2 -13    2.36    0.15
   2  -2 -13    2.00    0.13
  -2   2  13    2.13    0.14
  -2   2  13    2.18    0.17
   1  -2 -13   11.98    0.37
   1  -2 -13   12.17    0.38
  -1   2  13   11.60    0.36
  -1   2  13   11.93    0.40
   0  -2 -13   22.94    0.75
   0  -2 -13   21.96    0.63
   0  -2 -13   22.75    0.60
   0   2  13   23.58    0.65
  -1  -2 -13    8.50    0.32
  -1  -2 -13    8.39    0.34
  -1  -2 -13    7.96    0.37
   1   2  13    8.89    0.34
  -2  -2 -13   12.63    0.55
  -2  -2 -13   13.77    0.44
  -2  -2 -13   13.44    0.47
   2   2  13   13.50    0.46
  -3  -2 -13    0.01    0.11
  -3  -2 -13    0.09    0.08
  -3  -2 -13    0.05    0.09
   3   2  13   -0.04    0.08
  -4  -2 -13    0.07    0.10
  -4  -2 -13    0.05    0.12
  -4  -2 -13    0.17    0.10
  -7   3  13    4.53    0.20
  -7   3  13    4.61    0.18
   6  -3 -13    6.76    0.41
  -6   3  13    7.38    0.26
  -6   3  13    7.10    0.24
   5  -3 -13    3.72    0.30
  -5   3  13    3.71    0.17
  -5   3  13    4.05    0.20
   4  -3 -13    5.19    0.33
  -4   3  13    5.11    0.23
   3  -3 -13    1.71    0.13
   3  -3 -13    1.32    0.18
  -3   3  13    1.46    0.12
  -3   3  13    1.82    0.16
   2  -3 -13    5.03    0.22
   2  -3 -13    4.88    0.21
  -2   3  13    4.78    0.21
  -2   3  13    5.03    0.25
   1  -3 -13   17.63    0.51
   1  -3 -13   18.25    0.57
   1  -3 -13   16.56    0.48
  -1   3  13   16.99    0.53
  -1   3  13   16.92    0.47
   0  -3 -13   15.53    0.50
   0  -3 -13   15.46    0.55
   0  -3 -13   16.44    0.48
   0   3  13   16.33    0.51
  -1  -3 -13   17.97    0.56
  -1  -3 -13   17.17    0.64
  -1  -3 -13   17.74    0.53
   1   3  13   18.45    0.57
  -2  -3 -13    8.14    0.34
  -2  -3 -13    8.66    0.42
  -2  -3 -13    8.72    0.37
   2   3  13    8.58    0.36
  -3  -3 -13    4.23    0.27
  -3  -3 -13    4.53    0.32
  -3  -3 -13    4.73    0.29
   3   3  13    4.40    0.27
  -7   4  13    2.73    0.16
   6  -4 -13    4.47    0.34
  -6   4  13    4.57    0.21
   5  -4 -13    4.82    0.34
  -5   4  13    4.73    0.22
   4  -4 -13    0.94    0.16
  -4   4  13    0.72    0.10
   3  -4 -13    9.28    0.46
  -3   4  13   10.37    0.36
   2  -4 -13    0.43    0.08
   2  -4 -13    0.12    0.09
  -2   4  13    0.33    0.09
   1  -4 -13    0.65    0.11
   1  -4 -13    0.49    0.09
   1  -4 -13    0.66    0.09
  -1   4  13    0.43    0.10
   0  -4 -13    9.85    0.37
   0  -4 -13    9.11    0.34
   0  -4 -13    8.94    0.36
   0   4  13    9.80    0.38
  -1  -4 -13    6.88    0.32
  -1  -4 -13    6.38    0.32
  -1  -4 -13    5.86    0.29
   1   4  13    6.68    0.32
  -2  -4 -13    4.33    0.29
  -2  -4 -13    4.13    0.26
  -2  -4 -13    4.75    0.28
   2   4  13    4.22    0.27
   2   4  13    4.55    0.28
  -3  -4 -13    5.60    0.32
  -3  -4 -13    5.44    0.31
  -3  -4 -13    5.56    0.35
   3   4  13    5.22    0.30
  -7   5  13    4.20    0.20
  -6   5  13    1.64    0.15
   5  -5 -13   11.21    0.54
  -5   5  13   10.38    0.33
  -5   5  13   11.16    0.37
   4  -5 -13   10.27    0.51
  -4   5  13   10.12    0.33
  -4   5  13   10.74    0.37
   3  -5 -13    2.81    0.25
  -3   5  13    2.63    0.20
   2  -5 -13    2.84    0.18
   2  -5 -13    2.38    0.23
  -2   5  13    3.13    0.22
   1  -5 -13    0.54    0.10
  -1   5  13    0.50    0.12
   0  -5 -13    0.07    0.08
   0  -5 -13   -0.03    0.08
   0   5  13    0.02    0.09
   0   5  13    0.05    0.11
  -1  -5 -13    4.47    0.28
  -1  -5 -13    3.96    0.26
   1   5  13    4.50    0.28
   1   5  13    4.47    0.29
  -2  -5 -13    6.07    0.33
  -2  -5 -13    5.19    0.30
   2   5  13    5.98    0.33
  -7   6  13    0.18    0.08
  -7   6  13    0.25    0.07
  -7   6  13    0.13    0.06
  -6   6  13   10.20    0.35
  -6   6  13    9.01    0.31
  -6   6  13    9.67    0.32
   5  -6 -13    1.98    0.24
  -5   6  13    1.71    0.15
  -5   6  13    1.75    0.14
  -5   6  13    1.89    0.17
   4  -6 -13    5.89    0.37
  -4   6  13    5.81    0.28
  -4   6  13    5.71    0.26
   3  -6 -13    4.95    0.33
  -3   6  13    4.98    0.26
  -3   6  13    5.43    0.27
   2  -6 -13    7.06    0.40
  -2   6  13    8.56    0.35
  -2   6  13    7.59    0.33
   1  -6 -13    0.27    0.09
   1  -6 -13    0.24    0.10
  -1   6  13    0.20    0.11
  -1   6  13    0.22    0.10
   0  -6 -13    1.44    0.16
   0   6  13    1.42    0.17
   0   6  13    1.24    0.16
  -1  -6 -13    0.69    0.14
   1   6  13    0.35    0.12
   1   6  13    0.50    0.15
  -6   7  13    0.08    0.07
  -6   7  13    0.15    0.09
  -5   7  13    2.63    0.21
  -5   7  13    2.44    0.19
   4  -7 -13    3.72    0.32
  -4   7  13    3.59    0.23
  -4   7  13    4.21    0.25
   3  -7 -13    6.21    0.38
  -3   7  13    6.85    0.31
  -3   7  13    6.01    0.30
   2  -7 -13    3.12    0.27
  -2   7  13    3.44    0.25
  -2   7  13    3.17    0.24
   1  -7 -13    5.53    0.35
  -1   7  13    6.76    0.34
  -1   7  13    6.92    0.34
   0  -7 -13    0.05    0.09
   0   7  13    0.12    0.12
   0   7  13    0.12    0.10
  -4   8  13    1.02    0.13
  -4   8  13    1.03    0.15
   3  -8 -13    1.14    0.19
  -3   8  13    1.05    0.15
  -3   8  13    1.03    0.14
  -2   8  13    5.22    0.31
  -2   8  13    5.06    0.30
  -2  -7  14    1.09    0.16
  -1  -7  14    5.05    0.30
   0  -7  14    5.45    0.31
  -1   7 -14    8.18    0.35
   1  -7  14    8.33    0.38
  -2   7 -14    0.49    0.12
   2  -7  14    0.58    0.13
  -3  -6  14    0.23    0.10
  -2  -6  14   -0.01    0.08
  -1  -6  14    1.88    0.20
   0   6 -14    5.05    0.27
   0  -6  14    5.46    0.30
  -1   6 -14    4.51    0.26
   1  -6  14    4.97    0.29
  -2   6 -14   10.97    0.41
   2  -6  14   10.82    0.43
  -3   6 -14    6.38    0.32
   3  -6  14    6.06    0.33
  -4  -5  14    1.53    0.18
  -3  -5  14    1.71    0.18
   2   5 -14    3.62    0.25
  -2  -5  14    3.89    0.25
  -1  -5  14    0.06    0.09
   0   5 -14    0.08    0.08
   0  -5  14   -0.04    0.09
  -1   5 -14    5.93    0.28
   1  -5  14    6.35    0.32
  -2   5 -14   10.86    0.40
   2  -5  14   10.65    0.43
  -3   5 -14    5.17    0.33
  -3   5 -14    5.12    0.28
   3  -5  14    4.92    0.29
  -4   5 -14    6.09    0.32
  -4   5 -14    5.66    0.37
  -5  -4  14    3.44    0.24
  -4  -4  14   13.88    0.48
   3   4 -14    7.24    0.37
  -3  -4  14    7.63    0.33
  -2  -4  14    6.68    0.31
   1   4 -14    2.37    0.17
  -1  -4  14    2.32    0.21
   0   4 -14    0.21    0.08
   0  -4  14    0.21    0.09
  -1   4 -14    0.05    0.07
   1  -4  14    0.01    0.08
  -2   4 -14    3.31    0.26
  -2   4 -14    2.96    0.22
   2  -4  14    2.86    0.22
  -3   4 -14    5.32    0.34
  -3   4 -14    5.05    0.27
   3  -4  14    5.09    0.28
  -4   4 -14    6.42    0.39
  -4   4 -14    6.12    0.31
   5   3 -14    2.24    0.23
  -5  -3  14    1.88    0.19
  -5  -3  14    1.97    0.16
   4   3 -14    5.36    0.32
  -4  -3  14    5.15    0.23
  -4  -3  14    5.60    0.27
   3   3 -14   24.21    0.86
  -3  -3  14   24.06    0.63
  -3  -3  14   25.15    0.71
  -2  -3  14   14.10    0.46
  -2  -3  14   13.00    0.41
   1   3 -14   19.03    0.54
  -1  -3  14   20.07    0.60
   0   3 -14    4.17    0.22
   0  -3  14    3.92    0.24
  -1   3 -14    0.13    0.11
  -1   3 -14    0.12    0.08
   1  -3  14    0.07    0.09
  -2   3 -14    0.12    0.08
  -2   3 -14    0.01    0.10
   2  -3  14   -0.09    0.07
  -3   3 -14    2.01    0.19
  -3   3 -14    2.42    0.25
   3  -3  14    1.94    0.20
  -4   3 -14    5.27    0.36
  -4   3 -14    5.10    0.28
   6   2 -14    0.14    0.11
  -6  -2  14    0.08    0.08
  -6  -2  14    0.02    0.06
   5   2 -14    0.32    0.12
  -5  -2  14    0.21    0.09
  -5  -2  14    0.15    0.06
   4   2 -14    3.78    0.27
  -4  -2  14    3.63    0.22
  -4  -2  14    3.36    0.19
   3   2 -14    7.03    0.37
  -3  -2  14    6.88    0.30
  -3  -2  14    6.84    0.26
   2   2 -14   13.30    0.41
  -2  -2  14   12.93    0.39
  -2  -2  14   12.91    0.44
   1   2 -14   35.36    0.86
  -1  -2  14   35.19    0.85
  -1  -2  14   36.36    0.94
   0   2 -14    5.82    0.25
   0  -2  14    5.61    0.28
  -1   2 -14    6.24    0.27
  -1   2 -14    6.83    0.34
   1  -2  14    6.19    0.30
  -2   2 -14    2.07    0.18
  -2   2 -14    1.98    0.19
  -2   2 -14    2.20    0.22
   2  -2  14    1.73    0.18
  -3   2 -14    0.04    0.08
  -3   2 -14   -0.07    0.07
  -3   2 -14    0.04    0.10
   3  -2  14   -0.12    0.07
  -4   2 -14    0.27    0.09
  -4   2 -14    0.31    0.10
  -4   2 -14    0.34    0.15
   6   1 -14    6.33    0.39
  -6  -1  14    5.91    0.24
  -6  -1  14    6.11    0.27
   5   1 -14    0.00    0.09
  -5  -1  14   -0.03    0.05
  -5  -1  14    0.06    0.06
   4   1 -14    0.42    0.12
  -4  -1  14    0.21    0.06
  -4  -1  14    0.24    0.08
   3   1 -14    5.39    0.33
  -3  -1  14    5.93    0.24
  -3  -1  14    5.82    0.27
   2   1 -14    9.09    0.29
  -2  -1  14    8.70    0.30
  -2  -1  14    8.05    0.33
   1   1 -14    9.00    0.31
  -1  -1  14    9.12    0.35
  -1  -1  14    9.10    0.31
   0   1 -14   69.16    2.00
   0   1 -14   63.41    1.47
   0  -1  14   65.19    1.59
  -1   1 -14   17.75    0.64
  -1   1 -14   17.11    0.54
  -1   1 -14   16.86    0.50
   1  -1  14   18.06    0.55
  -2   1 -14    8.69    0.35
  -2   1 -14    8.01    0.40
  -2   1 -14    8.53    0.33
   2  -1  14    8.58    0.35
  -3   1 -14    0.66    0.11
  -3   1 -14    0.95    0.14
  -3   1 -14    0.73    0.15
   3  -1  14    0.75    0.13
  -4   1 -14    0.25    0.11
  -4   1 -14    0.41    0.10
  -4   1 -14    0.38    0.16
  -7   0  14    6.57    0.25
  -7   0  14    7.15    0.28
   6   0 -14    0.74    0.17
  -6   0  14    0.60    0.10
  -6   0  14    0.58    0.08
   5   0 -14    1.74    0.22
  -5   0  14    1.37    0.15
  -5   0  14    1.39    0.13
   4   0 -14    0.32    0.11
  -4   0  14    0.21    0.08
  -4   0  14    0.16    0.06
   3   0 -14    0.14    0.10
  -3   0  14    0.15    0.06
  -3   0  14    0.07    0.07
   2   0 -14   10.83    0.33
  -2   0  14   10.70    0.38
  -2   0  14   10.68    0.33
   1   0 -14    2.55    0.16
  -1   0  14    2.19    0.15
  -1   0  14    2.47    0.19
   0   0 -14    7.38    0.33
   0   0 -14    7.00    0.27
   0   0 -14    7.24    0.29
   0   0  14    7.19    0.31
  -1   0 -14   22.11    0.65
  -1   0 -14   22.36    0.78
  -1   0 -14   22.82    0.61
   1   0  14   23.16    0.66
  -2   0 -14    9.21    0.34
  -2   0 -14    8.72    0.42
  -2   0 -14    9.00    0.36
   2   0  14    9.07    0.37
  -3   0 -14    4.27    0.27
  -3   0 -14    4.65    0.26
  -3   0 -14    4.11    0.31
   3   0  14    4.22    0.26
  -4   0 -14    0.54    0.13
  -4   0 -14    0.69    0.13
  -4   0 -14    0.83    0.19
  -7   1  14    3.85    0.18
  -7   1  14    4.27    0.20
   6  -1 -14    9.20    0.49
  -6   1  14    8.67    0.28
  -6   1  14    8.51    0.31
   5  -1 -14   12.78    0.58
  -5   1  14   13.14    0.37
  -5   1  14   12.72    0.41
   4  -1 -14    8.35    0.44
  -4   1  14    8.95    0.33
  -4   1  14    8.93    0.29
   3  -1 -14    6.82    0.40
  -3   1  14    9.20    0.33
  -3   1  14    8.86    0.28
   2  -1 -14    0.16    0.06
  -2   1  14    0.08    0.05
  -2   1  14    0.17    0.08
   1  -1 -14   11.48    0.38
   1  -1 -14   12.10    0.37
  -1   1  14   11.29    0.35
  -1   1  14   11.39    0.40
   0  -1 -14    4.97    0.23
   0  -1 -14    4.80    0.24
   0  -1 -14    5.24    0.26
   0   1  14    5.21    0.26
  -1  -1 -14   10.82    0.44
  -1  -1 -14   10.99    0.37
  -1  -1 -14   10.69    0.39
   1   1  14   10.88    0.40
  -2  -1 -14    9.64    0.37
  -2  -1 -14    9.72    0.45
  -2  -1 -14   10.01    0.39
   2   1  14   10.05    0.39
  -3  -1 -14   19.27    0.62
  -3  -1 -14   18.88    0.76
  -3  -1 -14   19.73    0.59
   3   1  14   19.07    0.60
  -4  -1 -14    4.68    0.36
  -4  -1 -14    5.13    0.28
  -4  -1 -14    4.72    0.31
  -7   2  14    1.74    0.13
  -7   2  14    1.56    0.14
   6  -2 -14    4.93    0.36
  -6   2  14    4.79    0.20
  -6   2  14    4.46    0.22
   5  -2 -14    6.63    0.40
  -5   2  14    6.98    0.24
  -5   2  14    7.31    0.28
   4  -2 -14   12.46    0.57
  -4   2  14   13.48    0.38
  -4   2  14   13.49    0.42
   3  -2 -14    0.25    0.11
  -3   2  14    0.22    0.08
  -3   2  14    0.23    0.06
   2  -2 -14    4.69    0.21
   2  -2 -14    4.61    0.22
  -2   2  14    4.28    0.20
  -2   2  14    4.64    0.24
   1  -2 -14    1.42    0.14
   1  -2 -14    1.50    0.14
  -1   2  14    1.59    0.16
  -1   2  14    1.43    0.13
   0  -2 -14    0.67    0.10
   0  -2 -14    0.38    0.09
   0  -2 -14    0.56    0.10
   0   2  14    0.29    0.09
  -1  -2 -14    6.02    0.27
  -1  -2 -14    5.41    0.29
  -1  -2 -14    5.28    0.28
   1   2  14    5.56    0.28
  -2  -2 -14    7.52    0.32
  -2  -2 -14    7.04    0.34
  -2  -2 -14    7.20    0.38
   2   2  14    7.02    0.33
  -3  -2 -14    2.93    0.23
  -3  -2 -14    2.65    0.28
  -3  -2 -14    3.00    0.26
   3   2  14    3.14    0.23
  -7   3  14    1.02    0.10
  -7   3  14    0.94    0.11
  -6   3  14    6.33    0.26
  -6   3  14    6.19    0.23
   5  -3 -14    6.47    0.40
  -5   3  14    6.12    0.23
  -5   3  14    6.50    0.27
   4  -3 -14    7.10    0.41
  -4   3  14    7.46    0.30
  -4   3  14    7.31    0.26
   3  -3 -14   10.36    0.52
  -3   3  14   12.37    0.36
  -3   3  14   12.52    0.41
   2  -3 -14   37.60    0.92
  -2   3  14   35.48    0.94
  -2   3  14   35.87    0.86
   1  -3 -14    1.62    0.16
   1  -3 -14    1.64    0.15
  -1   3  14    1.82    0.19
   0  -3 -14   -0.01    0.06
   0  -3 -14    0.08    0.08
   0  -3 -14    0.02    0.07
   0   3  14    0.09    0.09
  -1  -3 -14    0.09    0.08
  -1  -3 -14    0.16    0.09
  -1  -3 -14    0.05    0.09
   1   3  14    0.06    0.10
  -2  -3 -14    6.18    0.35
  -2  -3 -14    6.84    0.34
  -2  -3 -14    6.22    0.30
   2   3  14    6.33    0.32
  -3  -3 -14    1.04    0.15
  -3  -3 -14    0.89    0.17
  -3  -3 -14    0.84    0.16
   3   3  14    0.84    0.14
  -7   4  14    0.03    0.05
  -7   4  14    0.01    0.06
  -6   4  14    0.37    0.09
   5  -4 -14    5.59    0.38
  -5   4  14    5.98    0.26
   4  -4 -14    5.14    0.34
  -4   4  14    4.98    0.25
   3  -4 -14   14.41    0.65
  -3   4  14   17.02    0.51
   2  -4 -14    0.03    0.06
   2  -4 -14    0.11    0.10
  -2   4  14    0.08    0.07
  -2   4  14   -0.08    0.08
   1  -4 -14   12.88    0.43
  -1   4  14   12.94    0.46
   0  -4 -14    3.47    0.21
   0  -4 -14    3.02    0.21
   0  -4 -14    3.65    0.24
   0   4  14    3.58    0.25
  -1  -4 -14    0.52    0.11
  -1  -4 -14    0.52    0.11
  -1  -4 -14    0.41    0.12
   1   4  14    0.43    0.12
  -2  -4 -14    0.48    0.12
  -2  -4 -14    0.42    0.13
  -2  -4 -14    0.52    0.13
   2   4  14    0.47    0.12
  -6   5  14    0.26    0.08
  -5   5  14    0.27    0.07
  -5   5  14    0.25    0.09
   4  -5 -14    5.28    0.36
  -4   5  14    5.83    0.28
   3  -5 -14    6.35    0.39
  -3   5  14    6.75    0.31
   2  -5 -14    8.49    0.46
  -2   5  14   10.30    0.39
   1  -5 -14    6.40    0.30
  -1   5  14    6.56    0.33
   0  -5 -14    5.32    0.29
   0   5  14    5.47    0.30
   0   5  14    5.15    0.31
  -1  -5 -14    3.66    0.27
   1   5  14    3.93    0.28
   1   5  14    3.87    0.28
  -6   6  14    1.90    0.17
  -6   6  14    2.22    0.19
  -6   6  14    1.97    0.16
  -5   6  14   -0.03    0.08
   4  -6 -14    0.13    0.11
  -4   6  14    0.08    0.09
   3  -6 -14    0.24    0.12
  -3   6  14    0.47    0.12
   2  -6 -14    4.99    0.35
  -2   6  14    5.68    0.29
  -2   6  14    6.44    0.32
   1  -6 -14    4.39    0.32
  -1   6  14    5.61    0.31
  -1   6  14    5.51    0.31
   0  -6 -14    6.52    0.32
   0   6  14    6.83    0.36
   0   6  14    5.81    0.33
  -5   7  14    6.31    0.29
  -5   7  14    6.76    0.32
  -4   7  14    0.19    0.10
  -4   7  14    0.24    0.09
  -3   7  14    0.17    0.10
  -3   7  14    0.17    0.11
   2  -7 -14    0.34    0.12
  -2   7  14    0.27    0.11
  -2   7  14    0.20    0.11
   1  -7 -14    1.18    0.19
  -1   7  14    1.51    0.18
  -1   7  14    1.01    0.16
   0  -7  15   -0.20    0.08
   1  -7  15    0.44    0.13
  -2  -6  15    6.91    0.35
  -1  -6  15    1.31    0.17
   0  -6  15    3.63    0.27
  -1   6 -15    1.13    0.14
   1  -6  15    1.29    0.17
  -2   6 -15   -0.08    0.08
   2  -6  15    0.10    0.10
  -3  -5  15    2.27    0.22
   2   5 -15    5.31    0.32
  -2  -5  15    6.25    0.32
  -1  -5  15    7.96    0.37
   0   5 -15    8.64    0.35
   0  -5  15    8.38    0.38
  -1   5 -15    1.41    0.15
   1  -5  15    1.41    0.17
  -2   5 -15    0.35    0.11
   2  -5  15    0.26    0.12
  -3   5 -15    0.73    0.17
  -3   5 -15    0.60    0.13
   3  -5  15    1.06    0.16
  -4  -4  15    1.33    0.16
   3   4 -15    5.20    0.32
  -3  -4  15    5.62    0.30
  -2  -4  15    7.52    0.35
  -1  -4  15    8.12    0.36
   0   4 -15   12.70    0.42
   0  -4  15   12.11    0.46
  -1   4 -15    7.55    0.32
   1  -4  15    7.38    0.35
  -2   4 -15    2.61    0.21
  -2   4 -15    3.05    0.26
   2  -4  15    2.50    0.23
  -3   4 -15    2.64    0.26
  -3   4 -15    2.86    0.23
   3  -4  15    2.41    0.22
  -4   4 -15    0.09    0.09
  -4   4 -15    0.12    0.13
   5   3 -15    3.12    0.28
  -5  -3  15    2.55    0.21
   4   3 -15    0.18    0.10
  -4  -3  15    0.21    0.10
   3   3 -15    0.54    0.13
  -3  -3  15    0.60    0.13
  -2  -3  15    1.17    0.15
   1   3 -15    9.02    0.36
  -1  -3  15    8.52    0.36
   0   3 -15   12.25    0.41
   0  -3  15   12.16    0.45
  -1   3 -15   12.82    0.43
   1  -3  15   12.47    0.46
  -2   3 -15   11.25    0.41
  -2   3 -15   11.63    0.51
   2  -3  15   11.62    0.44
  -3   3 -15    1.77    0.23
  -3   3 -15    1.80    0.18
   3  -3  15    1.67    0.19
  -4   3 -15    2.60    0.28
  -4   3 -15    3.06    0.24
   6   2 -15    2.44    0.27
  -6  -2  15    2.41    0.20
  -6  -2  15    2.20    0.17
   5   2 -15    6.18    0.39
  -5  -2  15    6.14    0.29
  -5  -2  15    6.00    0.26
   4   2 -15    2.33    0.24
  -4  -2  15    1.85    0.16
  -4  -2  15    2.23    0.19
   3   2 -15    0.33    0.11
  -3  -2  15    0.47    0.11
  -3  -2  15    0.30    0.08
  -2  -2  15   -0.07    0.07
   1   2 -15    0.58    0.10
  -1  -2  15    0.55    0.12
   0   2 -15    1.11    0.12
   0  -2  15    1.14    0.15
  -1   2 -15   12.47    0.51
  -1   2 -15   11.88    0.41
   1  -2  15   12.09    0.44
  -2   2 -15    9.24    0.36
  -2   2 -15    9.38    0.44
   2  -2  15    9.48    0.39
  -3   2 -15    7.10    0.32
  -3   2 -15    6.53    0.38
  -3   2 -15    6.68    0.32
   3  -2  15    6.56    0.33
  -4   2 -15    3.42    0.24
  -4   2 -15    3.06    0.30
  -4   2 -15    3.27    0.25
   6   1 -15   13.43    0.63
  -6  -1  15   12.73    0.43
  -6  -1  15   12.09    0.39
   5   1 -15    5.30    0.35
  -5  -1  15    4.68    0.22
  -5  -1  15    5.16    0.26
   4   1 -15   10.36    0.50
  -4  -1  15   10.74    0.35
  -4  -1  15   10.19    0.38
   3   1 -15    4.38    0.32
  -3  -1  15    6.01    0.28
  -3  -1  15    6.11    0.24
  -2  -1  15    3.30    0.19
  -2  -1  15    3.60    0.23
   1   1 -15    0.60    0.09
  -1  -1  15    0.51    0.11
   0   1 -15    0.17    0.07
   0  -1  15    0.08    0.08
  -1   1 -15    6.58    0.30
  -1   1 -15    6.57    0.28
  -1   1 -15    6.53    0.33
   1  -1  15    6.54    0.31
  -2   1 -15    9.05    0.36
  -2   1 -15    9.00    0.35
  -2   1 -15    9.14    0.43
   2  -1  15    8.84    0.37
  -3   1 -15    6.66    0.31
  -3   1 -15    6.58    0.32
  -3   1 -15    6.53    0.38
   3  -1  15    6.99    0.33
  -4   1 -15    5.60    0.32
  -4   1 -15    5.83    0.39
  -4   1 -15    6.14    0.31
  -6   0  15    1.47    0.15
  -6   0  15    0.96    0.10
   5   0 -15    5.45    0.36
  -5   0  15    4.98    0.22
  -5   0  15    4.66    0.25
   4   0 -15    7.01    0.41
  -4   0  15    7.51    0.31
  -4   0  15    8.13    0.28
  -3   0  15   15.38    0.44
  -3   0  15   16.07    0.50
  -2   0  15    5.19    0.27
  -2   0  15    5.03    0.22
   1   0 -15    9.98    0.33
  -1   0  15   10.14    0.38
   0   0 -15    5.83    0.25
   0   0 -15    5.84    0.27
   0   0 -15    5.58    0.29
   0   0  15    5.97    0.29
  -1   0 -15    4.16    0.23
  -1   0 -15    4.30    0.26
  -1   0 -15    3.97    0.23
   1   0  15    4.56    0.26
  -2   0 -15    1.34    0.14
  -2   0 -15    1.50    0.20
  -2   0 -15    1.28    0.15
   2   0  15    1.36    0.16
  -3   0 -15    2.82    0.27
  -3   0 -15    2.72    0.24
  -3   0 -15    2.98    0.23
   3   0  15    2.50    0.22
  -6   1  15    0.04    0.05
  -6   1  15   -0.02    0.07
   5  -1 -15    8.15    0.46
  -5   1  15    8.13    0.28
  -5   1  15    7.86    0.32
   4  -1 -15   10.39    0.53
  -4   1  15   12.39    0.41
  -4   1  15   11.83    0.35
  -3   1  15   15.35    0.48
  -3   1  15   14.78    0.42
  -2   1  15   20.32    0.59
  -2   1  15   19.88    0.53
   1  -1 -15   12.05    0.38
   1  -1 -15   11.86    0.40
  -1   1  15   12.27    0.42
   0  -1 -15   12.77    0.40
   0  -1 -15   12.11    0.47
   0  -1 -15   12.16    0.42
   0   1  15   12.11    0.43
  -1  -1 -15    1.29    0.15
  -1  -1 -15    1.28    0.14
  -1  -1 -15    1.18    0.16
   1   1  15    0.98    0.13
  -2  -1 -15    0.57    0.13
  -2  -1 -15    0.54    0.11
  -2  -1 -15    0.51    0.12
   2   1  15    0.31    0.10
  -3  -1 -15    3.06    0.29
  -3  -1 -15    3.23    0.24
  -3  -1 -15    3.56    0.26
   3   1  15    3.18    0.24
  -7   2  15    0.48    0.08
  -7   2  15    0.49    0.09
  -6   2  15    0.25    0.06
  -6   2  15    0.23    0.08
   5  -2 -15    0.13    0.11
  -5   2  15    0.05    0.05
  -5   2  15   -0.05    0.06
   4  -2 -15    5.36    0.36
  -4   2  15    6.01    0.24
  -4   2  15    6.27    0.27
   3  -2 -15    1.62    0.21
  -3   2  15    2.23    0.15
  -3   2  15    2.20    0.18
   2  -2 -15    5.26    0.24
  -2   2  15    5.56    0.27
  -2   2  15    4.88    0.23
   1  -2 -15    9.96    0.35
   1  -2 -15    9.75    0.36
  -1   2  15   10.14    0.38
   0  -2 -15   13.28    0.49
   0  -2 -15   13.86    0.43
   0  -2 -15   13.01    0.45
   0   2  15   13.87    0.47
  -1  -2 -15    5.29    0.29
  -1  -2 -15    5.55    0.27
  -1  -2 -15    5.36    0.28
   1   2  15    5.56    0.30
  -2  -2 -15    0.37    0.10
  -2  -2 -15    0.30    0.11
  -2  -2 -15    0.19    0.11
   2   2  15    0.18    0.10
  -3  -2 -15    0.08    0.08
  -3  -2 -15   -0.03    0.10
  -3  -2 -15    0.06    0.11
   3   2  15    0.10    0.10
  -6   3  15    2.80    0.16
  -6   3  15    2.81    0.19
   5  -3 -15    0.33    0.14
  -5   3  15    0.23    0.06
  -5   3  15    0.11    0.08
   4  -3 -15    0.00    0.09
  -4   3  15    0.13    0.06
  -4   3  15    0.13    0.08
   3  -3 -15    3.52    0.30
  -3   3  15    4.87    0.25
  -3   3  15    4.47    0.21
   2  -3 -15   18.15    0.56
  -2   3  15   18.10    0.57
   1  -3 -15   10.98    0.38
  -1   3  15   10.67    0.41
   0  -3 -15    6.12    0.29
   0  -3 -15    5.91    0.28
   0  -3 -15    6.21    0.28
   0   3  15    6.14    0.31
  -1  -3 -15    7.64    0.36
  -1  -3 -15    7.73    0.36
  -1  -3 -15    8.32    0.34
   1   3  15    8.24    0.36
  -2  -3 -15    2.59    0.25
  -2  -3 -15    2.22    0.23
  -2  -3 -15    2.52    0.22
   2   3  15    2.54    0.24
  -6   4  15    3.19    0.20
  -6   4  15    2.94    0.17
  -5   4  15    4.32    0.21
  -5   4  15    4.61    0.24
   4  -4 -15    0.97    0.18
  -4   4  15    0.68    0.09
  -4   4  15    0.97    0.13
   3  -4 -15    1.04    0.18
  -3   4  15    1.20    0.12
  -3   4  15    1.15    0.14
   2  -4 -15    0.55    0.15
  -2   4  15    0.59    0.13
   1  -4 -15    0.80    0.12
  -1   4  15    0.36    0.11
   0  -4 -15    6.53    0.32
   0   4  15    6.73    0.34
  -1  -4 -15    4.83    0.30
   1   4  15    4.80    0.31
  -2  -4 -15    3.88    0.29
  -2  -4 -15    3.90    0.27
   2   4  15    4.12    0.29
  -6   5  15    3.93    0.23
  -5   5  15    5.31    0.27
  -4   5  15    4.47    0.26
   3  -5 -15    2.19    0.25
  -3   5  15    2.74    0.23
   2  -5 -15    0.85    0.18
  -2   5  15    0.89    0.14
  -1   5  15    5.12    0.31
   0  -5 -15    1.60    0.17
   0   5  15    1.76    0.20
  -1  -5 -15    3.58    0.27
   1   5  15    3.08    0.27
   1   5  15    3.25    0.27
  -5   6  15    1.29    0.16
  -4   6  15    3.89    0.26
  -3   6  15    5.66    0.31
  -2   6  15    0.30    0.11
  -2   6  15    0.30    0.10
  -1   6  15    0.65    0.15
  -1   6  15    0.56    0.13
  -3   7  15    3.93    0.28
  -3   7  15    3.47    0.26
  -1  -6  16    5.14    0.32
   0  -6  16    3.61    0.28
   1  -6  16    2.64    0.25
  -3  -5  16    1.21    0.18
  -2  -5  16    0.10    0.10
  -1  -5  16    0.70    0.14
   0  -5  16    3.28    0.26
  -1   5 -16    8.79    0.37
   1  -5  16    8.30    0.40
  -2   5 -16    0.42    0.11
   2  -5  16    0.55    0.14
  -4  -4  16    8.07    0.38
   3   4 -16    1.19    0.18
  -3  -4  16    1.07    0.16
  -2  -4  16    2.06    0.22
  -1  -4  16   -0.10    0.09
   0  -4  16    0.35    0.11
  -1   4 -16    0.23    0.09
   1  -4  16    0.18    0.10
  -2   4 -16   10.39    0.41
  -2   4 -16   10.89    0.50
   2  -4  16   10.38    0.44
  -3   4 -16    4.46    0.27
  -3   4 -16    4.40    0.33
   3  -4  16    4.87    0.33
   4   3 -16    4.96    0.34
  -4  -3  16    5.32    0.30
   3   3 -16    3.14    0.27
  -3  -3  16    3.21    0.24
  -2  -3  16    4.72    0.28
  -1  -3  16    2.88    0.23
   0   3 -16    0.22    0.09
   0  -3  16    0.35    0.10
  -1   3 -16    0.15    0.08
   1  -3  16    0.10    0.09
  -2   3 -16    1.44    0.16
  -2   3 -16    1.72    0.21
   2  -3  16    1.45    0.18
  -3   3 -16    3.32    0.29
  -3   3 -16    3.45    0.25
   3  -3  16    3.11    0.25
   5   2 -16    2.68    0.28
  -5  -2  16    2.23    0.17
  -5  -2  16    2.31    0.21
   4   2 -16    4.06    0.31
  -4  -2  16    3.76    0.25
   3   2 -16   10.65    0.54
  -3  -2  16   14.02    0.47
  -2  -2  16    8.63    0.37
  -1  -2  16    4.00    0.26
   0   2 -16    3.97    0.23
   0  -2  16    3.71    0.25
  -1   2 -16    0.65    0.14
  -1   2 -16    0.61    0.11
   1  -2  16    0.62    0.14
  -2   2 -16    0.03    0.08
  -2   2 -16    0.13    0.10
   2  -2  16   -0.04    0.08
  -3   2 -16    0.42    0.14
  -3   2 -16    0.18    0.09
  -3   2 -16    0.24    0.11
   3  -2  16    0.15    0.10
   5   1 -16    0.75    0.18
  -5  -1  16    0.35    0.08
  -5  -1  16    0.45    0.11
   4   1 -16    2.09    0.24
  -4  -1  16    1.78    0.19
  -4  -1  16    2.00    0.16
  -3  -1  16   10.96    0.37
  -3  -1  16   11.25    0.42
  -2  -1  16    8.64    0.36
  -1  -1  16   23.24    0.69
   0   1 -16    8.48    0.32
   0  -1  16    8.61    0.37
  -1   1 -16    0.78    0.14
  -1   1 -16    0.60    0.10
   1  -1  16    0.66    0.14
  -2   1 -16    1.51    0.17
  -2   1 -16    1.66    0.21
  -2   1 -16    1.41    0.15
   2  -1  16    1.15    0.15
  -3   1 -16   -0.04    0.09
  -3   1 -16    0.14    0.09
  -3   1 -16    0.00    0.11
   3  -1  16   -0.06    0.08
  -6   0  16   -0.01    0.08
  -6   0  16   -0.08    0.05
   5   0 -16    3.44    0.31
  -5   0  16    3.72    0.20
  -5   0  16    3.35    0.22
   4   0 -16    0.21    0.11
  -4   0  16    0.20    0.07
  -4   0  16    0.10    0.09
   3   0 -16    0.54    0.14
  -3   0  16    1.07    0.11
  -3   0  16    0.88    0.13
  -2   0  16    7.06    0.32
  -1   0  16    5.66    0.29
   0   0 -16   12.45    0.44
   0   0 -16   13.10    0.42
   0   0 -16   13.49    0.52
   0   0  16   13.33    0.47
  -1   0 -16    9.44    0.37
  -1   0 -16    9.54    0.43
  -1   0 -16    9.92    0.37
   1   0  16   10.33    0.41
  -2   0 -16    2.96    0.22
  -2   0 -16    2.54    0.23
  -2   0 -16    2.24    0.22
   2   0  16    2.30    0.23
  -3   0 -16    1.47    0.16
  -3   0 -16    1.76    0.24
  -3   0 -16    1.55    0.18
   3   0  16    1.75    0.18
  -6   1  16    8.07    0.29
  -6   1  16    7.49    0.32
  -5   1  16    0.68    0.12
  -5   1  16    0.82    0.10
   4  -1 -16    0.66    0.16
  -4   1  16    0.74    0.09
  -4   1  16    0.79    0.13
   3  -1 -16   -0.01    0.09
  -3   1  16    0.09    0.08
  -3   1  16    0.06    0.05
  -2   1  16    1.61    0.16
   1  -1 -16    6.55    0.29
  -1   1  16    6.74    0.31
   0  -1 -16    6.12    0.29
   0  -1 -16    6.36    0.31
   0  -1 -16    6.62    0.28
   0   1  16    6.49    0.32
  -1  -1 -16   18.11    0.53
  -1  -1 -16   17.21    0.55
  -1  -1 -16   17.11    0.64
   1   1  16   17.40    0.57
  -2  -1 -16    4.81    0.31
  -2  -1 -16    5.35    0.28
  -2  -1 -16    4.67    0.28
   2   1  16    5.07    0.29
  -6   2  16    2.21    0.15
  -6   2  16    2.08    0.18
  -5   2  16    2.86    0.20
  -5   2  16    2.74    0.17
   4  -2 -16    3.65    0.32
  -4   2  16    4.99    0.22
  -4   2  16    5.52    0.26
   3  -2 -16    2.10    0.25
  -3   2  16    3.25    0.22
  -3   2  16    3.08    0.18
  -2   2  16    0.03    0.09
   1  -2 -16    0.06    0.07
  -1   2  16   -0.02    0.09
   0  -2 -16    3.03    0.20
   0  -2 -16    3.07    0.21
   0   2  16    2.88    0.24
  -1  -2 -16    1.42    0.16
  -1  -2 -16    1.17    0.16
  -1  -2 -16    1.17    0.16
   1   2  16    1.33    0.16
  -2  -2 -16    6.26    0.33
  -2  -2 -16    5.93    0.30
  -2  -2 -16    5.59    0.33
   2   2  16    5.92    0.32
  -6   3  16    3.66    0.22
  -6   3  16    3.92    0.20
  -5   3  16    9.31    0.35
  -5   3  16    8.89    0.31
  -4   3  16    6.73    0.30
  -4   3  16    6.45    0.26
   3  -3 -16    7.40    0.44
  -2   3  16    2.48    0.22
   1  -3 -16    0.71    0.11
  -1   3  16    0.77    0.13
   0  -3 -16    0.29    0.10
   0   3  16    0.27    0.11
  -1  -3 -16    1.99    0.21
   1   3  16    1.82    0.19
  -6   4  16    0.49    0.09
  -6   4  16    0.51    0.10
  -5   4  16    1.75    0.19
  -5   4  16    1.48    0.15
  -4   4  16    6.14    0.30
  -4   4  16    5.84    0.26
  -3   4  16    0.77    0.14
   2  -4 -16    5.31    0.39
  -2   4  16    6.05    0.32
  -1   4  16    8.22    0.38
   0  -4 -16    0.48    0.11
   0   4  16    0.47    0.13
  -1  -4 -16    0.22    0.11
   1   4  16    0.18    0.12
  -5   5  16    0.52    0.09
  -5   5  16    0.48    0.11
  -4   5  16    1.49    0.17
  -3   5  16    5.64    0.31
  -2   5  16   10.77    0.44
  -1   5  16    1.95    0.22
   0   5  16    0.84    0.15
  -4   6  16    0.01    0.10
  -3   6  16    3.26    0.27
  -2   6  16    0.27    0.12
  -2   6  16    0.23    0.10
  -1  -5  17    2.09    0.22
   0  -5  17    2.98    0.27
   1  -5  17    0.30    0.13
   3   4 -17    6.63    0.43
  -3  -4  17    7.95    0.38
  -2  -4  17    4.82    0.30
  -1  -4  17    2.75    0.25
   0  -4  17    4.67    0.30
   1  -4  17    2.58    0.25
  -2   4 -17    2.33    0.22
   2  -4  17    1.56    0.19
   4   3 -17    0.84    0.17
  -4  -3  17    0.53    0.14
   3   3 -17    0.41    0.14
  -3  -3  17    0.27    0.12
  -2  -3  17    9.12    0.40
  -1  -3  17    4.80    0.29
   0  -3  17    8.45    0.38
  -1   3 -17    4.91    0.27
   1  -3  17    4.76    0.30
  -2   3 -17    0.28    0.11
  -2   3 -17    0.24    0.13
   2  -3  17    0.27    0.11
   4   2 -17    3.23    0.29
  -4  -2  17    3.29    0.24
   3   2 -17    0.59    0.16
  -3  -2  17    0.42    0.11
  -2  -2  17    0.17    0.10
  -1  -2  17    5.18    0.30
   0  -2  17    6.88    0.34
  -1   2 -17    5.90    0.30
  -1   2 -17    6.66    0.36
   1  -2  17    6.34    0.33
  -2   2 -17    4.64    0.31
  -2   2 -17    4.87    0.27
   2  -2  17    5.00    0.30
  -5  -1  17    2.04    0.20
   4   1 -17    2.46    0.27
  -4  -1  17    3.06    0.23
   3   1 -17    0.79    0.17
  -3  -1  17    0.74    0.13
  -2  -1  17    0.56    0.12
  -1  -1  17    1.36    0.17
   0  -1  17    1.32    0.16
  -1   1 -17    8.05    0.33
  -1   1 -17    8.23    0.40
   1  -1  17    8.73    0.38
  -2   1 -17    6.39    0.31
  -2   1 -17    6.02    0.35
  -2   1 -17    6.06    0.31
   2  -1  17    6.42    0.33
  -5   0  17    4.33    0.26
  -5   0  17    4.44    0.22
  -4   0  17    2.17    0.17
  -4   0  17    2.29    0.21
   3   0 -17    4.48    0.34
  -3   0  17    5.78    0.29
  -2   0  17    2.86    0.23
  -1   0  17    0.29    0.11
   0   0  17    0.16    0.11
  -1   0 -17    0.05    0.07
  -1   0 -17    0.02    0.09
  -1   0 -17   -0.03    0.08
   1   0  17    0.04    0.10
  -2   0 -17    7.44    0.33
  -2   0 -17    6.93    0.37
  -2   0 -17    6.36    0.33
   2   0  17    7.08    0.34
  -5   1  17    5.37    0.24
  -5   1  17    5.52    0.28
  -4   1  17    5.58    0.29
  -4   1  17    5.18    0.24
   3  -1 -17    4.39    0.35
  -3   1  17    5.77    0.29
  -2   1  17    5.10    0.28
  -1   1  17    3.25    0.24
   0  -1 -17    0.01    0.07
   0  -1 -17    0.08    0.08
   0   1  17    0.05    0.09
  -1  -1 -17    1.25    0.17
  -1  -1 -17    1.10    0.14
   1   1  17    0.98    0.15
  -2  -1 -17    0.03    0.10
  -2  -1 -17    0.04    0.09
  -2  -1 -17    0.07    0.10
   2   1  17    0.06    0.10
  -5   2  17   -0.01    0.08
  -5   2  17    0.08    0.06
  -4   2  17    3.20    0.23
  -4   2  17    3.55    0.19
  -3   2  17    6.32    0.31
  -2   2  17    5.04    0.28
  -1   2  17    8.36    0.37
   0  -2 -17    1.39    0.16
   0  -2 -17    1.10    0.14
   0   2  17    1.59    0.18
  -1  -2 -17    2.07    0.19
  -1  -2 -17    1.87    0.19
   1   2  17    2.15    0.22
  -5   3  17    1.93    0.19
  -5   3  17    2.21    0.17
  -4   3  17    1.10    0.14
  -3   3  17    3.90    0.26
  -2   3  17    4.18    0.28
  -1   3  17    6.43    0.34
   0  -3 -17    5.42    0.29
   0   3  17    5.47    0.32
  -1  -3 -17    1.14    0.16
   1   3  17    0.98    0.15
  -5   4  17    1.69    0.15
  -5   4  17    1.58    0.17
  -4   4  17    0.13    0.10
  -3   4  17    0.05    0.10
  -2   4  17    1.46    0.18
  -1   4  17    0.38    0.13
   0   4  17    8.06    0.39
  -4   5  17    0.60    0.13
  -3   5  17   -0.04    0.09
  -2   5  17    2.64    0.26
  -1  -4  18    0.42    0.13
   0  -4  18    3.65    0.29
  -3  -3  18    2.02    0.22
  -2  -3  18    3.74    0.27
  -1  -3  18    0.53    0.14
   0  -3  18    0.41    0.12
   1  -3  18    2.15    0.23
  -3  -2  18    4.34    0.28
  -2  -2  18    0.40    0.12
  -1  -2  18    2.27    0.23
   0  -2  18    1.06    0.16
   1  -2  18    0.07    0.10
  -4  -1  18    1.02    0.15
  -3  -1  18    1.08    0.15
  -2  -1  18    9.07    0.39
  -1  -1  18    3.10    0.25
   0  -1  18    1.26    0.17
  -1   1 -18    1.04    0.17
   1  -1  18    0.89    0.14
  -4   0  18    2.46    0.23
  -3   0  18    3.58    0.26
  -2   0  18    4.79    0.29
  -1   0  18    3.10    0.25
   0   0  18    9.95    0.41
  -1   0 -18    0.10    0.09
  -1   0 -18    0.24    0.11
   1   0  18    0.19    0.10
  -4   1  18   -0.01    0.09
  -3   1  18    3.05    0.24
  -2   1  18    1.52    0.18
  -1   1  18    6.93    0.34
   0  -1 -18    2.70    0.21
   0   1  18    2.52    0.24
  -1  -1 -18    5.89    0.31
  -1  -1 -18    5.54    0.31
   1   1  18    6.27    0.33
  -4   2  18    0.80    0.14
  -3   2  18    0.06    0.09
  -2   2  18    0.25    0.10
  -1   2  18    1.06    0.15
   0  -2 -18    1.53    0.17
   0   2  18    1.47    0.17
  -4   3  18    0.30    0.11
  -3   3  18    0.79    0.14
  -2   3  18   -0.01    0.10
  -1   3  18    0.22    0.12
  -3   4  18    3.06    0.27
  -1  -2  19    2.33    0.23
  -2  -1  19    0.55    0.14
  -1  -1  19    2.49    0.24
  -3   0  19    0.11    0.11
  -2   0  19    0.05    0.09
  -1   0  19    0.08    0.11
  -3   1  19    2.40    0.23
  -2   1  19    2.82    0.25
  -1   1  19    0.07    0.11
  -2   2  19    3.35    0.26
   0   0   0    0.00    0.00
;
_shelx_hkl_checksum              86373
loop_
_space_group_symop_operation_xyz
'x, y, z'
'-x, -y, -z'
loop_
_atom_site_label
_atom_site_type_symbol
_atom_site_fract_x
_atom_site_fract_y
_atom_site_fract_z
_atom_site_U_iso_or_equiv
_atom_site_adp_type
_atom_site_occupancy
_atom_site_site_symmetry_order
_atom_site_calc_flag
_atom_site_refinement_flags_posn
_atom_site_refinement_flags_adp
Br1 Br 0.05707(5) 0.42781(4) 0.28102(2) 0.0402(2) Uani 1 1 d . .
C1 C 0.5537(8) 0.7841(7) 0.4324(4) 0.0616(12) Uani 1 1 d . .
H1 H 0.6706 0.7969 0.4059 0.074 Uiso 1 1 calc R U
C2 C 0.5474(9) 0.7163(7) 0.5162(4) 0.0680(13) Uani 1 1 d . .
H2 H 0.6600 0.6827 0.5469 0.082 Uiso 1 1 calc R U
C3 C 0.3749(10) 0.6957(8) 0.5573(4) 0.0743(15) Uani 1 1 d . .
H3 H 0.3680 0.6430 0.6135 0.089 Uiso 1 1 calc R U
C4 C 0.2173(10) 0.7531(8) 0.5148(4) 0.0713(14) Uani 1 1 d . .
H4 H 0.1033 0.7426 0.5430 0.086 Uiso 1 1 calc R U
C5 C 0.2231(8) 0.8287(6) 0.4285(3) 0.0584(11) Uani 1 1 d . .
C6 C 0.0907(8) 0.9769(7) 0.3149(4) 0.0597(11) Uani 1 1 d . .
H6 H -0.0055 1.0336 0.2927 0.072 Uiso 1 1 calc R U
C7 C 0.2478(8) 0.9842(6) 0.2641(3) 0.0562(11) Uani 1 1 d . .
C8 C 0.2628(8) 1.0757(7) 0.1767(4) 0.0626(12) Uani 1 1 d . .
H8A H 0.2138 1.1726 0.1805 0.075 Uiso 1 1 calc R U
H8B H 0.1740 1.0023 0.1228 0.075 Uiso 1 1 calc R U
C9 C 0.4891(8) 1.1335(6) 0.1638(4) 0.0597(11) Uani 1 1 d . .
H9A H 0.4962 1.1846 0.1041 0.072 Uiso 1 1 calc R U
H9B H 0.5756 1.2170 0.2138 0.072 Uiso 1 1 calc R U
C10 C 0.5687(7) 0.9852(6) 0.1659(3) 0.0518(10) Uani 1 1 d . .
C11 C 0.6766(8) 0.9548(7) 0.1009(3) 0.0583(11) Uani 1 1 d . .
H11 H 0.7132 1.0342 0.0574 0.070 Uiso 1 1 calc R U
C12 C 0.7327(8) 0.8083(7) 0.0984(3) 0.0584(11) Uani 1 1 d . .
C13 C 0.6790(8) 0.6897(7) 0.1638(4) 0.0640(12) Uani 1 1 d . .
H13 H 0.7139 0.5905 0.1624 0.077 Uiso 1 1 calc R U
C14 C 0.5754(8) 0.7193(6) 0.2298(4) 0.0588(11) Uani 1 1 d . .
H14 H 0.5403 0.6396 0.2734 0.071 Uiso 1 1 calc R U
C15 C 0.5203(7) 0.8682(6) 0.2334(3) 0.0532(10) Uani 1 1 d . .
C16 C 0.3868(7) 0.8982(6) 0.2955(3) 0.0514(10) Uani 1 1 d . .
C17 C 0.8857(16) 0.6412(11) 0.0207(6) 0.109(3) Uani 1 1 d . .
H17A H 0.9745 0.6530 -0.0242 0.163 Uiso 1 1 calc R U
H17B H 0.7591 0.5496 -0.0005 0.163 Uiso 1 1 calc R U
H17C H 0.9580 0.6189 0.0806 0.163 Uiso 1 1 calc R U
N1 N 0.3871(6) 0.8354(5) 0.3848(3) 0.0547(9) Uani 1 1 d . .
N2 N 0.0701(7) 0.8961(6) 0.3910(3) 0.0662(11) Uani 1 1 d . .
O2 O 0.8352(7) 0.7916(6) 0.0300(3) 0.0778(11) Uani 1 1 d . .
loop_
_atom_site_aniso_label
_atom_site_aniso_U_11
_atom_site_aniso_U_22
_atom_site_aniso_U_33
_atom_site_aniso_U_23
_atom_site_aniso_U_13
_atom_site_aniso_U_12
Br1 0.0377(3) 0.0387(3) 0.0418(3) 0.00435(16) 0.00662(16) 0.00942(16)
C1 0.058(3) 0.068(3) 0.056(3) 0.009(2) 0.006(2) 0.020(2)
C2 0.074(3) 0.073(3) 0.054(3) 0.008(2) 0.005(2) 0.024(3)
C3 0.088(4) 0.079(4) 0.053(3) 0.010(3) 0.015(3) 0.022(3)
C4 0.075(3) 0.084(4) 0.056(3) 0.006(3) 0.020(3) 0.022(3)
C5 0.055(3) 0.062(3) 0.056(3) -0.001(2) 0.013(2) 0.014(2)
C6 0.053(3) 0.071(3) 0.058(3) 0.004(2) 0.011(2) 0.023(2)
C7 0.053(3) 0.059(3) 0.055(3) -0.002(2) 0.007(2) 0.018(2)
C8 0.062(3) 0.073(3) 0.060(3) 0.007(2) 0.010(2) 0.032(2)
C9 0.064(3) 0.060(3) 0.056(3) 0.009(2) 0.011(2) 0.021(2)
C10 0.045(2) 0.058(3) 0.049(2) 0.0028(19) 0.0048(18) 0.0147(19)
C11 0.054(3) 0.068(3) 0.056(3) 0.014(2) 0.014(2) 0.022(2)
C12 0.055(3) 0.072(3) 0.053(3) 0.005(2) 0.011(2) 0.026(2)
C13 0.066(3) 0.067(3) 0.067(3) 0.008(2) 0.015(2) 0.031(2)
C14 0.060(3) 0.060(3) 0.060(3) 0.010(2) 0.014(2) 0.023(2)
C15 0.045(2) 0.058(3) 0.055(2) 0.006(2) 0.0064(19) 0.0149(19)
C16 0.046(2) 0.056(2) 0.049(2) 0.0012(19) 0.0061(18) 0.0134(19)
C17 0.157(8) 0.117(6) 0.098(5) 0.023(4) 0.062(5) 0.087(6)
N1 0.052(2) 0.056(2) 0.053(2) 0.0022(17) 0.0097(17) 0.0132(17)
N2 0.061(2) 0.077(3) 0.064(3) 0.002(2) 0.016(2) 0.023(2)
O2 0.094(3) 0.095(3) 0.065(2) 0.013(2) 0.031(2) 0.051(2)
loop_
_atom_type_symbol
_atom_type_description
_atom_type_scat_dispersion_real
_atom_type_scat_dispersion_imag
_atom_type_scat_source
C C 0.0033 0.0016 'International Tables Vol C Tables 4.2.6.8 and 6.1.1.4'
H H 0.0000 0.0000 'International Tables Vol C Tables 4.2.6.8 and 6.1.1.4'
N N 0.0061 0.0033 'International Tables Vol C Tables 4.2.6.8 and 6.1.1.4'
O O 0.0106 0.0060 'International Tables Vol C Tables 4.2.6.8 and 6.1.1.4'
Br Br -0.2901 2.4595 'International Tables Vol C Tables 4.2.6.8 and 6.1.1.4'
loop_
_geom_angle_atom_site_label_1
_geom_angle_atom_site_label_2
_geom_angle_atom_site_label_3
_geom_angle
C2 C1 N1 120.7(5)
C2 C1 H1 119.6
N1 C1 H1 119.6
C1 C2 C3 120.8(5)
C1 C2 H2 119.6
C3 C2 H2 119.6
C4 C3 C2 119.2(5)
C4 C3 H3 120.4
C2 C3 H3 120.4
C3 C4 C5 120.9(5)
C3 C4 H4 119.6
C5 C4 H4 119.6
N2 C5 N1 121.5(4)
N2 C5 C4 119.4(5)
N1 C5 C4 119.0(5)
N2 C6 C7 124.6(5)
N2 C6 H6 117.7
C7 C6 H6 117.7
C16 C7 C6 117.8(5)
C16 C7 C8 119.6(4)
C6 C7 C8 122.6(4)
C7 C8 C9 110.2(4)
C7 C8 H8A 109.6
C9 C8 H8A 109.6
C7 C8 H8B 109.6
C9 C8 H8B 109.6
H8A C8 H8B 108.1
C10 C9 C8 109.2(4)
C10 C9 H9A 109.8
C8 C9 H9A 109.8
C10 C9 H9B 109.8
C8 C9 H9B 109.8
H9A C9 H9B 108.3
C11 C10 C15 119.1(4)
C11 C10 C9 122.3(4)
C15 C10 C9 118.5(4)
C10 C11 C12 121.7(5)
C10 C11 H11 119.2
C12 C11 H11 119.2
O2 C12 C11 116.1(4)
O2 C12 C13 124.7(5)
C11 C12 C13 119.2(4)
C14 C13 C12 119.9(5)
C14 C13 H13 120.1
C12 C13 H13 120.1
C13 C14 C15 121.2(5)
C13 C14 H14 119.4
C15 C14 H14 119.4
C10 C15 C14 118.9(4)
C10 C15 C16 116.9(4)
C14 C15 C16 123.6(4)
C7 C16 N1 117.5(4)
C7 C16 C15 119.4(4)
N1 C16 C15 123.0(4)
O2 C17 H17A 109.5
O2 C17 H17B 109.5
H17A C17 H17B 109.5
O2 C17 H17C 109.5
H17A C17 H17C 109.5
H17B C17 H17C 109.5
C5 N1 C1 118.9(4)
C5 N1 C16 119.7(4)
C1 N1 C16 121.4(4)
C6 N2 C5 117.4(4)
C12 O2 C17 118.6(5)
loop_
_geom_bond_atom_site_label_1
_geom_bond_atom_site_label_2
_geom_bond_distance
C1 C2 1.346(7)
C1 N1 1.394(6)
C1 H1 0.9300
C2 C3 1.389(8)
C2 H2 0.9300
C3 C4 1.350(9)
C3 H3 0.9300
C4 C5 1.407(7)
C4 H4 0.9300
C5 N2 1.356(7)
C5 N1 1.378(6)
C6 N2 1.305(7)
C6 C7 1.403(7)
C6 H6 0.9300
C7 C16 1.367(7)
C7 C8 1.488(7)
C8 C9 1.522(7)
C8 H8A 0.9700
C8 H8B 0.9700
C9 C10 1.494(7)
C9 H9A 0.9700
C9 H9B 0.9700
C10 C11 1.372(7)
C10 C15 1.400(7)
C11 C12 1.391(7)
C11 H11 0.9300
C12 O2 1.352(6)
C12 C13 1.392(7)
C13 C14 1.360(7)
C13 H13 0.9300
C14 C15 1.408(7)
C14 H14 0.9300
C15 C16 1.471(6)
C16 N1 1.400(6)
C17 O2 1.412(8)
C17 H17A 0.9600
C17 H17B 0.9600
C17 H17C 0.9600
loop_
_geom_torsion_atom_site_label_1
_geom_torsion_atom_site_label_2
_geom_torsion_atom_site_label_3
_geom_torsion_atom_site_label_4
_geom_torsion
N1 C1 C2 C3 0.0(8)
C1 C2 C3 C4 -3.6(9)
C2 C3 C4 C5 1.9(9)
C3 C4 C5 N2 -175.2(5)
C3 C4 C5 N1 3.5(8)
N2 C6 C7 C16 1.2(8)
N2 C6 C7 C8 179.0(5)
C16 C7 C8 C9 -29.2(6)
C6 C7 C8 C9 153.1(5)
C7 C8 C9 C10 54.7(5)
C8 C9 C10 C11 133.7(5)
C8 C9 C10 C15 -42.5(6)
C15 C10 C11 C12 2.2(7)
C9 C10 C11 C12 -173.9(5)
C10 C11 C12 O2 178.8(4)
C10 C11 C12 C13 -0.3(8)
O2 C12 C13 C14 -179.9(5)
C11 C12 C13 C14 -0.9(8)
C12 C13 C14 C15 0.2(8)
C11 C10 C15 C14 -2.9(7)
C9 C10 C15 C14 173.4(4)
C11 C10 C15 C16 -174.2(4)
C9 C10 C15 C16 2.1(6)
C13 C14 C15 C10 1.7(7)
C13 C14 C15 C16 172.4(5)
C6 C7 C16 N1 -11.5(7)
C8 C7 C16 N1 170.7(4)
C6 C7 C16 C15 165.5(4)
C8 C7 C16 C15 -12.4(7)
C10 C15 C16 C7 27.5(6)
C14 C15 C16 C7 -143.3(5)
C10 C15 C16 N1 -155.7(4)
C14 C15 C16 N1 33.5(7)
N2 C5 N1 C1 171.7(5)
C4 C5 N1 C1 -7.0(7)
N2 C5 N1 C16 -6.3(7)
C4 C5 N1 C16 175.0(5)
C2 C1 N1 C5 5.4(7)
C2 C1 N1 C16 -176.7(5)
C7 C16 N1 C5 14.1(6)
C15 C16 N1 C5 -162.8(4)
C7 C16 N1 C1 -163.8(5)
C15 C16 N1 C1 19.3(7)
C7 C6 N2 C5 6.7(8)
N1 C5 N2 C6 -4.1(7)
C4 C5 N2 C6 174.6(5)
C11 C12 O2 C17 -176.5(6)
C13 C12 O2 C17 2.5(9)
