#------------------------------------------------------------------------------
#$Date: 2016-08-07 12:39:30 +0300 (Sun, 07 Aug 2016) $
#$Revision: 185638 $
#$URL: file:///home/coder/svn-repositories/cod/cif/7/15/51/7155151.cif $
#------------------------------------------------------------------------------
#
# This file is available in the Crystallography Open Database (COD),
# http://www.crystallography.net/
#
# All data on this site have been placed in the public domain by the
# contributors.
#
data_7155151
loop_
_publ_author_name
'Mitsuoka, Yasunori'
'Aoyama, Hiroshi'
'Kugimiya, Akira'
'Fujimura, Yuko'
'Yamamoto, Tsuyoshi'
'Waki, Reiko'
'Wada, Fumito'
'Tahara, Saori'
'Sawamura, Motoki'
'Noda, Mio'
'Hari, Yoshiyuki'
'Obika, Satoshi'
_publ_section_title
;
 Effect of an N-substituent in sulfonamide-bridged nucleic acid (SuNA) on
 hybridization ability and duplex structure.
;
_journal_issue                   27
_journal_name_full               'Organic &amp; biomolecular chemistry'
_journal_page_first              6531
_journal_page_last               6538
_journal_paper_doi               10.1039/c6ob01051b
_journal_volume                  14
_journal_year                    2016
_chemical_absolute_configuration rmad
_chemical_formula_moiety         'C11 H15 N3 O7 S, H2 O'
_chemical_formula_sum            'C11 H17 N3 O8 S'
_chemical_formula_weight         351.34
_chemical_name_systematic        2?-N,4?-C-(Aminosulfonylmethylene)thymidine
_space_group_IT_number           4
_symmetry_cell_setting           monoclinic
_symmetry_Int_Tables_number      4
_symmetry_space_group_name_Hall  'P 2yb'
_symmetry_space_group_name_H-M   'P 1 21 1'
_atom_sites_solution_hydrogens   geom
_atom_sites_solution_primary     direct
_atom_sites_solution_secondary   difmap
_audit_creation_method           SHELXL-97
_audit_update_record
;
2015-07-27 deposited with the CCDC.
2016-06-06 downloaded from the CCDC.
;
_cell_angle_alpha                90.00
_cell_angle_beta                 104.760(2)
_cell_angle_gamma                90.00
_cell_formula_units_Z            2
_cell_length_a                   6.49177(15)
_cell_length_b                   15.0859(3)
_cell_length_c                   7.43648(19)
_cell_measurement_reflns_used    7185
_cell_measurement_temperature    100(2)
_cell_measurement_theta_max      68.28
_cell_measurement_theta_min      5.87
_cell_volume                     704.25(3)
_computing_cell_refinement       'RAPID AUTO'
_computing_data_collection       'RAPID AUTO (Rigaku, 2010)'
_computing_data_reduction        'RAPID AUTO'
_computing_molecular_graphics    'CrystalStructure 4.0 (Rigaku, 2010)'
_computing_publication_material  'CrystalStructure 4.0'
_computing_structure_refinement  'SHELXL-97 (Sheldrick, 1997)'
_computing_structure_solution    'SHELXS-97 (Sheldrick, 1990)'
_diffrn_ambient_temperature      100(2)
_diffrn_detector_area_resol_mean 10.000
_diffrn_measured_fraction_theta_full 0.998
_diffrn_measured_fraction_theta_max 0.999
_diffrn_measurement_device_type  'Rigaku R-AXIS RAPID'
_diffrn_measurement_method       \w
_diffrn_radiation_monochromator  graphite
_diffrn_radiation_source         'rotating anode'
_diffrn_radiation_type           CuK\a
_diffrn_radiation_wavelength     1.54187
_diffrn_reflns_av_R_equivalents  0.0274
_diffrn_reflns_av_sigmaI/netI    0.0294
_diffrn_reflns_limit_h_max       7
_diffrn_reflns_limit_h_min       -7
_diffrn_reflns_limit_k_max       18
_diffrn_reflns_limit_k_min       -18
_diffrn_reflns_limit_l_max       8
_diffrn_reflns_limit_l_min       -8
_diffrn_reflns_number            8240
_diffrn_reflns_theta_full        68.21
_diffrn_reflns_theta_max         68.21
_diffrn_reflns_theta_min         5.87
_exptl_absorpt_coefficient_mu    2.536
_exptl_absorpt_correction_T_max  0.881
_exptl_absorpt_correction_T_min  0.816
_exptl_absorpt_correction_type   multi-scan
_exptl_absorpt_process_details   'ABSCOR (Rigaku, 1995)'
_exptl_crystal_colour            colorless
_exptl_crystal_density_diffrn    1.657
_exptl_crystal_density_method    'not measured'
_exptl_crystal_description       block
_exptl_crystal_F_000             368
_exptl_crystal_size_max          0.14
_exptl_crystal_size_mid          0.07
_exptl_crystal_size_min          0.05
_refine_diff_density_max         0.368
_refine_diff_density_min         -0.248
_refine_diff_density_rms         0.049
_refine_ls_abs_structure_details 'Flack H D (1983), Acta Cryst. A39, 876-881'
_refine_ls_abs_structure_Flack   0.010(15)
_refine_ls_extinction_method     none
_refine_ls_goodness_of_fit_ref   1.071
_refine_ls_hydrogen_treatment    mixed
_refine_ls_matrix_type           full
_refine_ls_number_parameters     221
_refine_ls_number_reflns         2505
_refine_ls_number_restraints     3
_refine_ls_restrained_S_all      1.071
_refine_ls_R_factor_all          0.0287
_refine_ls_R_factor_gt           0.0272
_refine_ls_shift/su_max          0.000
_refine_ls_shift/su_mean         0.000
_refine_ls_structure_factor_coef Fsqd
_refine_ls_weighting_details
'calc w=1/[\s^2^(Fo^2^)+(0.0448P)^2^+0.1403P] where P=(Fo^2^+2Fc^2^)/3'
_refine_ls_weighting_scheme      calc
_refine_ls_wR_factor_gt          0.0705
_refine_ls_wR_factor_ref         0.0723
_reflns_number_gt                2420
_reflns_number_total             2505
_reflns_threshold_expression     >2sigma(I)
_cod_data_source_file            c6ob01051b2.cif
_cod_data_source_block           shelxl
_cod_depositor_comments          'Adding full bibliography for 7155151.cif.'
_cod_database_code               7155151
_shelx_hkl_file
;
   0   0   1 6222.11  234.95
   0   0   1 6164.87  240.53
   0   0   1 6162.30  230.42
   0   0   1 5523.18  219.87
   0   0  -1 6343.48  247.89
   0   0  -1 6175.64  235.73
   0   0  -1 5992.29  226.76
   0   0  -1 6231.43  232.36
   0   0  -1 5806.61  224.75
   0   0   2 1305.24   40.13
   0   0   2 1182.26   48.51
   0   0   2 1319.22   42.07
   0   0   2 1301.41   43.87
   0   0  -2 1352.30   40.91
   0   0  -2 1212.35   48.45
   0   0  -2 1276.28   41.36
   0   0  -2 1266.57   43.44
   0   0  -2 1338.75   40.52
   0   0  -2 1320.81   44.78
   0   0   3 5879.04  250.40
   0   0   3 6469.37  261.64
   0   0   3 6149.58  243.41
   0   0   3 6471.92  278.54
   0   0  -3 6080.90  256.76
   0   0  -3 6600.92  260.83
   0   0  -3 6388.49  277.85
   0   0  -3 6552.53  261.30
   0   0  -3 6306.14  254.94
   0   0  -3 6283.25  262.11
   0   0   4 1765.07   58.01
   0   0   4 2013.22   80.12
   0   0  -4 1877.21   68.29
   0   0  -4 1925.14   78.91
   0   0  -4 1911.78   76.53
   0   0  -5  642.64   26.08
   0   0  -5  659.01   27.97
   0   0  -6   27.46   10.14
   0   0  -7  124.29   16.30
   0   0  -8   15.47    6.62
   0   1   1 6210.74  246.75
   0   1  -1 5999.94  232.26
   0   1   1 6565.77  248.89
   0   1   1 6165.12  240.20
   0   1   1 6404.20  246.16
   0   1   1 6288.57  239.05
   0   1  -1 6530.16  250.81
   0   1  -1 6402.13  248.10
   0   1  -1 5421.39  215.53
   0   1  -1 6412.30  252.63
   0  -1  -1 6459.98  253.86
   0  -1  -1 6122.29  232.47
   0  -1  -1 6278.45  235.15
   0  -1  -1 6335.00  246.99
   0  -1   1 6472.45  250.82
   0  -1   1 6097.99  234.31
   0  -1  -1 6204.85  238.70
   0  -1   1 5999.75  232.82
   0   1   2  356.88   19.47
   0   1  -2  409.58   17.62
   0   1  -2  374.19   18.84
   0   1  -2  408.47   15.66
   0   1   2  395.47   13.03
   0   1  -2  393.58   16.24
   0   1   2  393.89   15.53
   0   1   2  384.08   18.66
   0   1  -2  398.40   15.25
   0  -1  -2  379.51   15.49
   0  -1   2  372.99    8.02
   0  -1   2  376.67    9.56
   0  -1  -2  345.92   10.66
   0  -1  -2  365.78   15.27
   0  -1  -2  373.10   14.35
   0  -1   2  374.55   14.59
   0  -1  -2  339.59   12.95
   0  -1   2  371.80   12.16
   0   1   3 2557.53   87.07
   0   1   3 2595.86  100.03
   0   1   3 2395.65   89.06
   0   1  -3 2652.96   95.09
   0   1  -3 2416.69   88.46
   0   1   3 2591.72   87.75
   0   1  -3 2525.75   90.16
   0   1  -3 2663.66   94.13
   0   1  -3 2605.98   96.85
   0  -1  -3 2393.11   85.42
   0  -1   3 2672.41   91.26
   0  -1   3 2497.64   74.64
   0  -1   3 2658.46  103.98
   0  -1  -3 2533.32   94.76
   0  -1  -3 2571.76  101.04
   0  -1   3 2558.57   77.67
   0  -1  -3 2638.37   84.66
   0  -1  -3 2714.38   95.11
   0  -1  -3 2529.42   82.72
   0   1   4 2375.84   94.04
   0   1   4 2262.37   77.71
   0   1   4 2162.84   82.34
   0   1   4 2301.91   78.05
   0   1  -4 2266.36   86.81
   0   1  -4 2233.21   85.17
   0   1  -4 2271.96   80.79
   0   1  -4 2192.03   87.10
   0   1  -4 2257.58   79.69
   0  -1   4 2248.93   85.27
   0  -1  -4 2113.58   76.48
   0  -1  -4 2189.25   83.56
   0  -1   4 2050.11   72.72
   0  -1  -4 2296.89   80.07
   0  -1  -4 2202.12   90.65
   0   1  -5  147.45   15.63
   0   1  -5  150.69    9.15
   0  -1  -5  108.69   13.40
   0  -1  -5  112.80   14.34
   0   1  -6  143.88   11.73
   0  -1  -6  107.13   15.96
   0   1  -7   55.93   11.28
   0  -1  -7   27.79   10.89
   0   1  -8  263.34   18.31
   0  -1  -8  265.87   17.22
   0  -1   8  299.50   14.34
   0   2   0 4934.96  172.40
   0   2   0 4876.75  178.51
   0   2   0 4801.13  176.45
   0   2   0 4569.41  162.41
   0   2   0 4932.68  173.32
   0  -2   0 4567.32  171.92
   0  -2   0 4684.44  159.75
   0  -2   0 4513.00  167.70
   0  -2   0 4697.64  168.35
   0   2  -1 1329.24   33.33
   0   2   1 1230.31   36.81
   0   2   1 1213.15   39.39
   0   2   1 1175.19   35.44
   0   2  -1 1243.85   37.69
   0   2   1 1228.15   43.01
   0   2   1 1285.16   39.38
   0   2  -1 1261.03   40.86
   0   2  -1 1240.62   45.65
   0  -2   1 1137.91   40.94
   0  -2   1 1206.37   38.43
   0  -2   1 1166.13   36.12
   0  -2  -1 1122.87   36.64
   0  -2  -1 1145.15   44.34
   0  -2   1 1182.49   42.38
   0  -2  -1 1134.50   33.98
   0  -2  -1 1212.81   38.94
   0  -2   1 1168.50   33.65
   0  -2  -1 1163.10   35.94
   0   2   2 2045.92   71.89
   0   2   2 2168.98   69.31
   0   2   2 2070.78   65.48
   0   2   2 2019.57   69.50
   0   2  -2 2033.36   68.23
   0   2   2 2026.24   67.10
   0   2  -2 2075.52   75.38
   0   2  -2 2025.06   75.08
   0   2  -2 2062.47   77.22
   0   2  -2 2178.07   79.11
   0  -2  -2 2069.57   74.66
   0  -2  -2 2074.50   64.92
   0  -2   2 2043.14   76.65
   0  -2  -2 2033.71   69.10
   0  -2  -2 1986.16   77.89
   0  -2  -2 1940.42   62.96
   0   2   3 5140.61  211.88
   0   2   3 5504.96  212.09
   0   2   3 5464.17  227.38
   0   2  -3 5411.63  226.47
   0   2  -3 5652.94  232.33
   0   2  -3 5592.59  225.08
   0   2  -3 5193.61  210.93
   0   2  -3 5468.56  225.50
   0  -2   3 5440.19  219.57
   0  -2  -3 5354.96  195.71
   0  -2   3 5465.53  225.57
   0  -2  -3 5207.92  204.80
   0  -2  -3 5394.49  197.27
   0  -2  -3 5269.61  229.79
   0  -2  -3 5317.35  225.05
   0  -2  -3 5484.67  224.09
   0   2   4 2215.07   80.78
   0   2  -4 2228.14   88.32
   0   2   4 2269.44   89.37
   0   2  -4 2232.24   80.99
   0   2   4 2160.66   88.95
   0   2  -4 2229.81   83.36
   0   2  -4 2202.61   91.41
   0   2  -4 2213.98   80.00
   0  -2  -4 2269.60   80.54
   0  -2   4 2487.59  100.36
   0  -2  -4 2396.48   90.25
   0  -2   4 2618.86   90.46
   0  -2  -4 2359.51   97.31
   0   2  -5   25.46    7.60
   0   2  -5   28.89    6.70
   0   2  -5   30.87    6.25
   0  -2  -5   48.01    9.40
   0  -2  -5   46.09    8.89
   0   2  -6 1022.83   51.54
   0  -2  -6  916.58   46.08
   0  -2  -6  949.15   46.63
   0   2  -7  218.05   14.24
   0  -2  -7  209.68   18.67
   0  -2   7  212.40   10.04
   0  -2  -7  208.89   12.13
   0   2   8   35.65    5.64
   0   2  -8   29.92    5.23
   0  -2  -8   13.86    6.79
   0  -2   8   38.39    5.45
   0   3   0    0.96    3.69
   0   3   0   -0.16    2.33
   0   3   0    1.18    1.67
   0   3   0    0.61    2.09
   0  -3   0    2.11    3.44
   0  -3   0    1.83    1.70
   0  -3   0    1.32    1.44
   0  -3   0    0.70    1.34
   0   3   1  634.97   18.08
   0   3  -1  681.55   25.84
   0   3   1  690.65   22.56
   0   3  -1  713.97   30.73
   0   3   1  716.80   26.49
   0   3   1  715.41   33.53
   0   3  -1  680.75   19.36
   0   3  -1  676.48   24.62
   0  -3   1  737.65   26.02
   0  -3   1  699.09   22.32
   0  -3  -1  680.98   24.58
   0  -3   1  713.39   24.91
   0  -3  -1  658.01   20.97
   0  -3   1  718.53   22.86
   0  -3  -1  662.72   21.23
   0  -3   1  697.98   25.87
   0  -3  -1  715.29   33.13
   0  -3   1  688.67   19.83
   0  -3  -1  717.04   24.52
   0   3  -2  857.52   29.06
   0   3   2  851.05   25.07
   0   3   2  820.83   33.34
   0   3   2  804.39   23.59
   0   3   2  844.15   32.34
   0   3  -2  810.55   30.83
   0   3  -2  843.32   28.86
   0   3   2  802.61   24.90
   0   3  -2  832.74   33.81
   0  -3   2  759.72   22.60
   0  -3   2  800.11   25.23
   0  -3  -2  783.61   27.10
   0  -3  -2  794.19   28.36
   0  -3  -2  739.78   21.90
   0  -3  -2  770.96   24.27
   0  -3  -2  786.49   22.78
   0  -3   2  780.22   26.22
   0   3  -3 1624.55   63.16
   0   3   3 1665.07   51.73
   0   3   3 1544.23   60.29
   0   3   3 1618.63   58.02
   0   3  -3 1549.27   57.25
   0   3  -3 1597.27   62.73
   0   3  -3 1697.10   63.57
   0   3  -3 1630.20   61.74
   0  -3   3 1515.73   55.15
   0  -3  -3 1584.06   59.70
   0  -3  -3 1610.92   56.14
   0  -3  -3 1491.21   47.29
   0  -3   3 1565.00   56.74
   0  -3  -3 1534.33   58.53
   0   3   4    6.51    4.35
   0   3   4    7.38    3.57
   0   3  -4    9.05    3.14
   0   3   4    7.05    5.25
   0   3  -4    4.35    5.84
   0   3  -4    5.22    4.01
   0   3  -4    5.72    2.72
   0   3  -4    6.16    3.95
   0  -3   4   14.21    3.28
   0  -3  -4    3.62    6.78
   0  -3   4   20.39    5.96
   0  -3  -4   11.00    3.14
   0  -3  -4   12.14    3.89
   0   3  -5 1049.04   45.38
   0   3  -5 1073.19   49.54
   0  -3  -5 1008.82   44.73
   0  -3  -5 1050.81   49.69
   0  -3   5  927.79   31.86
   0   3  -6  842.39   37.37
   0  -3  -6  913.08   44.71
   0  -3   6  926.72   37.41
   0  -3  -6  926.12   38.58
   0   3  -7  289.38   22.33
   0  -3  -7  252.42   14.33
   0  -3   7  249.11   11.31
   0  -3  -7  243.82   19.23
   0   3   8  116.04    5.88
   0   3  -8  114.60   12.24
   0  -3  -8   87.53    6.27
   0  -3   8   93.33    7.71
   0   4   0 7072.09  284.11
   0   4   0 6700.72  265.73
   0   4   0 6605.05  278.79
   0   4   0 6634.02  279.06
   0  -4   0 6828.04  262.53
   0  -4   0 6494.24  245.13
   0  -4   0 6393.01  270.73
   0  -4   0 6892.18  283.73
   0  -4   0 6742.01  280.49
   0   4   1 2099.23   69.57
   0   4  -1 2036.18   76.70
   0   4   1 2511.01   77.06
   0   4   1 2234.22   79.88
   0   4  -1 2108.60   68.14
   0   4   1 2094.54   82.35
   0   4   1 2120.14   63.35
   0   4  -1 2093.61   68.93
   0   4  -1 2098.92   77.04
   0  -4   1 2164.25   71.31
   0  -4   1 2380.30   78.44
   0  -4   1 2126.97   72.01
   0  -4   1 2107.99   71.64
   0  -4   1 2105.37   68.67
   0  -4  -1 2189.52   74.88
   0  -4  -1 2049.26   64.70
   0  -4  -1 2113.78   75.33
   0  -4   1 2218.22   78.44
   0  -4  -1 2119.40   75.34
   0   4  -2 2704.61   94.89
   0   4   2 2661.67   90.40
   0   4   2 2724.81  101.12
   0   4   2 2824.39  105.22
   0   4  -2 2862.37  112.85
   0   4   2 2765.61   94.52
   0   4   2 2673.63   90.25
   0   4  -2 2685.57  100.99
   0   4  -2 2636.36   96.87
   0  -4  -2 2599.96   89.39
   0  -4   2 2691.55   95.80
   0  -4   2 2692.09   94.69
   0  -4   2 2713.59   94.73
   0  -4  -2 2714.84  100.56
   0  -4  -2 2721.58  107.22
   0  -4  -2 2570.99   87.83
   0  -4  -2 2621.53   87.49
   0   4   3 1972.12   62.62
   0   4  -3 2081.12   80.47
   0   4   3 1858.72   66.89
   0   4  -3 1952.99   69.69
   0   4   3 1934.78   67.93
   0   4  -3 1946.64   77.70
   0   4  -3 1964.11   77.72
   0  -4  -3 1858.06   59.32
   0  -4  -3 1931.30   73.44
   0  -4   3 1875.58   74.11
   0  -4  -3 1950.96   76.66
   0  -4   3 1807.69   66.97
   0  -4  -3 1880.00   70.03
   0  -4   3 1810.35   64.63
   0  -4  -3 1944.95   56.49
   0   4   4  188.12    8.53
   0   4  -4  206.74   13.08
   0   4   4  184.53    9.92
   0   4   4  188.79   10.62
   0   4  -4  203.06   10.74
   0   4  -4  194.66   13.33
   0   4  -4  201.07   14.93
   0  -4   4  153.77   10.06
   0  -4  -4  163.95    8.96
   0  -4   4  168.57    8.05
   0  -4  -4  164.79   12.43
   0  -4  -4  169.19   17.56
   0  -4   4  173.07   15.29
   0   4  -5  724.47   34.71
   0   4  -5  693.95   35.83
   0  -4  -5  622.20   30.69
   0  -4  -5  647.64   29.34
   0  -4   5  617.35   25.93
   0   4  -6  195.26   20.27
   0  -4   6  216.46   14.09
   0  -4  -6  208.56   17.31
   0  -4  -6  213.17   14.27
   0   4  -7  268.00   15.56
   0  -4   7  294.61   12.45
   0  -4  -7  284.58   21.08
   0  -4  -7  273.31   18.30
   0   4   8   23.32    3.23
   0   4  -8   42.17    4.86
   0  -4  -8   32.05    4.93
   0  -4   8   37.27    4.97
   0   5   0    1.15    3.22
   0   5   0    1.54    2.39
   0   5   0    1.02    2.20
   0   5   0    1.01    2.74
   0  -5   0    2.61    0.63
   0  -5   0    1.21    3.23
   0  -5   0    3.04    3.72
   0  -5   0    1.00    0.90
   0  -5   0    0.19    2.77
   0   5   1 1525.71   53.22
   0   5  -1 1512.39   49.07
   0   5  -1 1607.56   49.81
   0   5   1 1542.03   55.22
   0   5  -1 1502.41   57.04
   0   5   1 1604.34   58.75
   0   5  -1 1562.08   57.91
   0   5  -1 1551.38   47.87
   0  -5   1 1655.66   65.42
   0  -5   1 1575.07   51.40
   0  -5  -1 1528.91   45.05
   0  -5   1 1566.59   50.72
   0  -5  -1 1633.84   60.53
   0  -5  -1 1568.46   56.36
   0  -5  -1 1521.61   60.71
   0  -5   1 1556.41   49.10
   0  -5  -1 1537.72   42.65
   0  -5   1 1706.42   54.60
   0   5  -2 1217.11   49.76
   0   5   2 1445.04   40.29
   0   5   2 1205.14   36.05
   0   5   2 1210.75   51.22
   0   5   2 1224.42   38.09
   0   5   2 1188.18   39.61
   0   5  -2 1222.06   52.23
   0   5   2 1079.75   32.47
   0   5  -2 1199.27   52.79
   0   5  -2 1185.32   41.21
   0  -5   2 1170.07   38.60
   0  -5   2 1134.14   39.31
   0  -5  -2 1134.86   37.17
   0  -5  -2 1191.56   43.18
   0  -5  -2 1123.51   36.92
   0  -5  -2 1175.58   50.01
   0  -5   2 1231.24   41.31
   0   5  -3 1020.76   38.45
   0   5  -3 1076.57   36.99
   0   5   3 1060.39   44.67
   0   5  -3 1063.47   40.20
   0   5   3  953.35   31.56
   0   5   3 1011.31   40.25
   0   5  -3 1084.41   40.33
   0  -5   3 1030.21   36.17
   0  -5   3 1053.84   36.16
   0  -5   3  987.47   32.09
   0  -5  -3 1014.31   29.82
   0  -5  -3  993.91   35.86
   0  -5  -3 1046.72   40.61
   0  -5  -3 1055.46   39.07
   0   5   4 1526.43   63.09
   0   5   4 1558.43   52.88
   0   5  -4 1631.95   69.36
   0   5  -4 1683.10   69.18
   0   5  -4 1636.99   68.74
   0   5  -4 1643.03   66.65
   0  -5   4 1628.42   66.62
   0  -5  -4 1608.70   65.95
   0  -5   4 1456.31   54.49
   0  -5  -4 1569.59   71.71
   0  -5  -4 1502.06   59.35
   0  -5   4 1596.75   56.20
   0   5  -5   36.24    5.50
   0   5  -5   36.36    5.62
   0  -5   5   20.08    3.69
   0  -5  -5   22.39    6.50
   0  -5  -5   21.88    4.52
   0  -5  -5   20.11    4.17
   0   5  -6 1038.92   42.02
   0   5  -6 1008.23   47.76
   0  -5   6  933.32   34.39
   0  -5  -6  946.00   48.93
   0  -5  -6  910.08   36.89
   0   5  -7  395.37   23.93
   0  -5   7  368.63   14.71
   0  -5  -7  391.33   19.02
   0  -5  -7  356.12   19.59
   0   5  -8   84.06    9.58
   0  -5   8   89.48    6.86
   0   6   0 2679.19   94.80
   0   6   0 2238.73   84.81
   0   6   0 2722.10   93.94
   0   6   0 2628.43  104.45
   0  -6   0 2435.83   85.46
   0  -6   0 2293.84   70.75
   0  -6   0 2457.04   76.75
   0  -6   0 2342.84   84.83
   0  -6   0 2453.36   90.55
   0   6   1 2366.13   81.86
   0   6  -1 2166.86   85.87
   0   6   1 2187.40   85.15
   0   6   1 2113.91   86.90
   0   6  -1 2193.74   76.36
   0   6   1 2103.77   72.21
   0   6  -1 2124.82   83.51
   0   6  -1 2234.84   74.88
   0  -6   1 2334.80   82.84
   0  -6   1 2406.81   80.16
   0  -6  -1 2307.97   68.81
   0  -6  -1 2310.03   85.50
   0  -6  -1 2317.22   71.03
   0  -6   1 2478.90   97.46
   0  -6  -1 2483.83   94.30
   0  -6  -1 2365.28   87.75
   0   6  -2  595.83   14.32
   0   6   2  649.72   17.32
   0   6  -2  673.86   16.38
   0   6   2  686.17   27.66
   0   6   2  711.30   25.11
   0   6   2  803.72   23.15
   0   6  -2  736.28   36.73
   0   6   2  692.47   27.23
   0   6  -2  717.79   24.00
   0   6  -2  710.10   32.73
   0   6  -2  700.72   35.32
   0  -6   2  630.04   23.41
   0  -6   2  631.47   22.23
   0  -6  -2  654.55   31.95
   0  -6   2  611.43   20.09
   0  -6  -2  657.98   26.59
   0  -6  -2  637.87   22.29
   0  -6  -2  601.74   19.09
   0   6   3   15.65    3.96
   0   6   3   12.82    2.62
   0   6  -3   13.19    5.42
   0   6   3   17.29    5.08
   0   6  -3   17.14    5.11
   0   6  -3   25.17    8.36
   0   6  -3   22.49    5.29
   0  -6   3   22.91    3.78
   0  -6   3   37.68    4.83
   0  -6  -3   34.31    2.59
   0  -6  -3   39.63    5.26
   0  -6  -3   41.81    8.95
   0  -6   3   41.53    3.78
   0   6   4  587.36   21.08
   0   6  -4  659.09   28.34
   0   6  -4  627.69   29.32
   0   6  -4  611.69   27.24
   0   6  -4  618.35   27.50
   0  -6  -4  681.21   23.98
   0  -6   4  682.73   23.35
   0  -6  -4  728.76   39.21
   0  -6  -4  723.38   33.81
   0  -6   4  723.43   31.66
   0   6  -5  234.01   12.57
   0   6  -5  246.88   20.61
   0  -6   5  190.78   13.33
   0  -6  -5  197.15   21.86
   0  -6  -5  210.00   12.41
   0   6  -6  274.92   14.64
   0   6  -6  257.08   15.34
   0  -6   6  231.81   11.10
   0  -6  -6  245.23   16.39
   0   6  -7   10.10    6.22
   0  -6  -7   12.20    6.89
   0  -6   7    8.24    4.52
   0   6  -8    9.49    5.18
   0  -6   8   20.70    3.68
   0  -6  -8   19.03    2.94
   0   7   0    3.83    1.39
   0   7   0    0.17    2.44
   0   7   0    1.44    1.56
   0   7   0    0.36    1.70
   0  -7   0    0.11    2.86
   0  -7   0    3.99    2.14
   0  -7   0    3.21    1.81
   0  -7   0    0.21    0.54
   0   7   1 3037.71  110.51
   0   7  -1 2955.52  103.24
   0   7   1 2973.70  118.66
   0   7   1 2790.76  115.69
   0   7   1 2812.28   99.94
   0   7  -1 2740.11  118.87
   0   7  -1 2853.21  108.00
   0   7  -1 2895.46  104.91
   0  -7   1 2798.30  105.47
   0  -7   1 2884.00  111.25
   0  -7  -1 2588.38   81.04
   0  -7  -1 2882.82  114.93
   0  -7   1 2743.36   95.04
   0  -7  -1 2692.79   83.22
   0  -7  -1 2742.79  106.83
   0  -7  -1 2824.60  116.48
   0   7  -2  821.27   30.25
   0   7   2  833.93   31.25
   0   7   2  825.81   27.94
   0   7   2  821.54   39.75
   0   7  -2  866.83   42.97
   0   7   2  959.22   29.86
   0   7  -2  843.45   42.91
   0   7  -2  811.95   31.58
   0   7  -2  826.70   26.66
   0  -7   2  797.39   30.08
   0  -7  -2  834.53   32.17
   0  -7  -2  820.27   28.81
   0  -7   2  787.08   27.76
   0  -7  -2  827.51   40.40
   0   7  -3  406.83   27.05
   0   7   3  411.25   20.50
   0   7   3  422.40   26.25
   0   7  -3  409.57   19.83
   0   7  -3  406.12   17.20
   0   7  -3  437.97   27.77
   0  -7   3  432.32   15.28
   0  -7   3  446.96   19.41
   0  -7  -3  466.19   21.40
   0  -7  -3  468.99   27.22
   0   7  -4  376.40   18.75
   0   7  -4  386.44   20.24
   0   7  -4  379.52   26.38
   0  -7  -4  390.74   21.19
   0  -7   4  359.53   17.58
   0  -7  -4  392.35   18.89
   0   7  -5  262.65   23.06
   0   7  -5  245.32   15.40
   0   7  -5  247.23   12.87
   0  -7  -5  286.74   15.73
   0  -7   5  262.54   15.52
   0  -7  -5  284.99   26.70
   0   7  -6  267.40   15.87
   0   7  -6  260.50   13.33
   0  -7   6  218.94   10.97
   0  -7  -6  228.26   23.32
   0   7  -7  139.26   12.39
   0  -7   7  128.61   10.40
   0  -7  -7  129.77   14.73
   0   8   0 1796.50   77.29
   0   8   0 1832.55   65.27
   0   8   0 1797.17   63.54
   0   8   0 1773.64   67.98
   0  -8   0 1780.73   72.55
   0  -8   0 1789.67   64.21
   0  -8   0 1717.39   67.94
   0   8   1  146.19    8.66
   0   8   1  156.14    9.60
   0   8   1  145.61   10.15
   0   8   1  146.96    7.09
   0   8  -1  145.18   13.67
   0   8  -1  146.54   18.00
   0   8  -1  146.03    8.25
   0  -8   1  188.91   12.04
   0  -8   1  173.64    9.17
   0  -8  -1  188.12    8.70
   0  -8  -1  188.99   10.00
   0  -8  -1  192.22   15.51
   0   8  -2  379.86   20.27
   0   8   2  396.07   19.05
   0   8   2  378.98   14.04
   0   8  -2  374.73   12.22
   0   8   2  385.39   17.81
   0   8  -2  387.73   17.81
   0   8  -2  410.31   20.38
   0   8  -2  384.16   16.08
   0  -8  -2  363.96   15.04
   0  -8  -2  385.27   17.89
   0  -8  -2  374.43   18.46
   0  -8   2  364.15   11.98
   0  -8   2  346.73   16.93
   0   8  -3  289.03   16.46
   0   8  -3  287.64   12.63
   0   8  -3  289.92   24.53
   0  -8  -3  314.79   16.97
   0  -8   3  306.99   14.69
   0  -8   3  300.57   15.61
   0  -8  -3  316.99   17.54
   0   8  -4 1153.17   41.48
   0   8  -4 1185.61   52.29
   0   8  -4 1167.93   50.51
   0  -8  -4 1255.55   63.25
   0  -8   4 1158.35   46.71
   0  -8  -4 1226.81   50.67
   0   8  -5   65.45    9.88
   0   8  -5   64.78    6.20
   0   8  -5   62.75   14.05
   0  -8   5   79.08    9.75
   0  -8  -5   88.32   11.19
   0  -8  -5   96.73    9.39
   0   8   6  248.79   15.93
   0   8  -6  250.60   22.43
   0   8  -6  226.08   11.82
   0  -8   6  257.82   15.69
   0  -8  -6  277.04   23.86
   0   8  -7  517.74   21.54
   0   8  -7  540.74   23.88
   0  -8   7  562.63   24.26
   0  -8  -7  591.12   30.13
   0   9   0    2.25    3.09
   0   9   0   -0.83    4.60
   0   9   0    1.12    3.22
   0   9   0    1.91    2.69
   0  -9   0    0.89    2.38
   0  -9   0    0.32    3.65
   0  -9   0    4.60    3.35
   0   9   1  882.63   29.50
   0   9   1  846.75   28.53
   0   9   1  867.19   39.87
   0   9   1  879.77   39.89
   0   9  -1  872.40   46.23
   0   9  -1  856.91   32.89
   0   9  -1  863.52   31.20
   0  -9   1  821.78   27.92
   0  -9  -1  876.94   34.68
   0  -9   1  862.55   30.66
   0  -9   1  855.30   35.27
   0  -9  -1  862.50   38.97
   0  -9  -1  859.65   31.24
   0   9  -2  260.89   17.49
   0   9   2  257.75   11.04
   0   9   2  263.77   15.19
   0   9   2  274.13   12.10
   0   9  -2  247.61   13.03
   0   9  -2  256.84   20.09
   0   9  -2  272.69   24.48
   0  -9   2  274.88   16.19
   0  -9  -2  275.26   21.94
   0  -9  -2  275.26   15.34
   0   9  -3  529.31   25.60
   0   9  -3  542.55   28.29
   0  -9   3  524.05   24.29
   0  -9  -3  561.13   34.18
   0  -9  -3  553.70   26.51
   0   9  -4  876.51   50.51
   0   9  -4  912.78   41.54
   0  -9  -4  886.91   47.77
   0  -9  -4  891.08   50.89
   0  -9   4  825.47   31.36
   0   9  -5  220.52   16.58
   0   9  -5  230.29   16.89
   0   9  -5  210.79   13.61
   0  -9  -5  284.46   23.65
   0  -9   5  246.85   12.14
   0  -9  -5  269.75   18.93
   0   9   6  318.86   18.20
   0   9  -6  308.55   24.77
   0   9  -6  281.12   15.60
   0  -9   6  263.66   17.26
   0  -9  -6  288.14   25.20
   0   9  -7  209.65    8.11
   0   9  -7  215.84   11.01
   0  -9   7  255.60   10.53
   0  -9  -7  260.45   17.31
   0  10   0 3706.78  167.56
   0  10   0 3727.90  155.08
   0  10   0 3654.16  152.25
   0 -10   0 3536.72  151.01
   0 -10   0 3425.92  145.90
   0  10   1 1306.52   57.74
   0  10   1 1384.46   48.96
   0  10  -1 1329.64   46.23
   0  10   1 1324.07   59.54
   0  10  -1 1305.22   56.88
   0  10  -1 1296.01   57.52
   0 -10  -1 1324.17   52.70
   0 -10  -1 1355.08   59.95
   0 -10   1 1320.84   54.88
   0  10  -2   71.72   15.57
   0  10  -2   66.10    8.05
   0 -10   2   47.57    9.08
   0 -10  -2   47.35    8.20
   0 -10  -2   51.73   12.34
   0  10  -3  219.54   22.18
   0  10  -3  205.01   25.06
   0 -10  -3  202.04   15.24
   0 -10  -3  217.04   15.68
   0 -10   3  203.68   15.96
   0  10  -4 1090.68   60.39
   0  10  -4 1056.93   61.13
   0 -10   4 1075.96   41.24
   0 -10  -4 1140.14   62.65
   0 -10  -4 1151.80   50.58
   0  10  -5  122.70   19.63
   0  10  -5  128.64   20.07
   0 -10  -5  149.22   18.34
   0 -10  -5  140.95   14.29
   0 -10   5  132.26    8.87
   0  10   6   49.69    5.55
   0  10  -6   53.16    7.88
   0 -10  -6   55.13   13.08
   0 -10   6   50.06    8.66
   0  10  -7  172.31   11.95
   0 -10   7  190.00   10.69
   0 -10  -7  214.94   14.27
   0  11   0   -0.64    2.82
   0  11   0   -0.08    2.77
   0 -11   0    0.21    2.82
   0 -11   0    1.70    2.17
   0  11  -1  369.56   18.33
   0  11   1  371.07   19.32
   0  11   1  378.20   15.19
   0  11  -1  376.71   22.80
   0 -11   1  370.61   23.06
   0 -11  -1  368.28   24.66
   0 -11  -1  370.41   25.65
   0  11  -2  268.96   24.05
   0  11  -2  261.41   29.51
   0 -11   2  288.08   19.90
   0 -11  -2  294.52   17.83
   0 -11  -2  310.66   25.61
   0  11  -3  191.22   25.82
   0  11  -3  191.90   15.03
   0 -11  -3  163.83   15.08
   0 -11  -3  169.51   21.77
   0 -11   3  157.43   15.48
   0  11  -4   81.91   17.38
   0  11  -4   82.86   11.81
   0 -11  -4   60.28   16.39
   0 -11  -4   70.47   17.43
   0 -11   4   61.37   11.23
   0  11  -5  235.51   26.34
   0  11  -5  237.99   25.94
   0 -11   5  260.98   18.19
   0 -11  -5  282.03   19.55
   0 -11  -5  281.92   17.45
   0  11   6   37.15    7.29
   0  11  -6   36.31    6.64
   0 -11   6   29.64    4.47
   0 -11  -6   26.80   10.27
   0  12   0  269.95   26.50
   0  12   0  256.14   18.88
   0 -12   0  301.97   16.80
   0 -12   0  281.83   14.29
   0  12   1 1059.82   53.22
   0  12  -1 1095.75   45.49
   0  12  -1 1071.49   62.92
   0 -12   1 1013.17   42.35
   0 -12  -1 1019.83   50.63
   0 -12  -1 1024.04   45.12
   0  12  -2  430.09   23.09
   0  12  -2  422.11   37.89
   0 -12  -2  419.79   23.72
   0 -12  -2  415.24   31.06
   0 -12   2  409.79   20.10
   0  12  -3  541.25   38.21
   0  12  -3  539.83   43.48
   0 -12  -3  557.04   39.12
   0 -12  -3  553.23   29.13
   0 -12   3  535.13   23.76
   0  12  -4  774.05   41.41
   0  12  -4  755.97   38.15
   0 -12   4  733.12   36.34
   0 -12  -4  806.66   50.26
   0 -12  -4  841.82   39.59
   0  12  -5  284.55   19.04
   0  12   5  305.11   15.77
   0  12  -5  277.87   27.34
   0 -12  -5  320.69   19.88
   0 -12   5  291.84   19.31
   0  12  -6  129.50   14.24
   0  12   6  131.82    7.35
   0  12  -6   96.77    7.22
   0 -12  -6  107.42    9.15
   0 -12   6  103.28   10.36
   0  13   0    0.14    6.47
   0  13   0   -0.03    2.72
   0 -13   0    4.52    5.65
   0 -13   0    3.23    2.63
   0  13  -1  290.25   23.64
   0  13   1  298.18   24.62
   0  13  -1  292.38   31.53
   0 -13   1  291.19   16.92
   0 -13  -1  287.00   23.37
   0 -13  -1  293.29   26.29
   0  13  -2   68.20   13.32
   0  13  -2   76.27   15.64
   0 -13   2   73.17    8.76
   0 -13  -2   72.85   16.68
   0 -13  -2   75.40   15.71
   0  13  -3  115.72   12.41
   0  13  -3  112.93   14.95
   0 -13  -3   93.71   19.51
   0 -13  -3   97.37   12.22
   0 -13   3   87.80    9.20
   0  13  -4   66.45   11.90
   0  13  -4   68.65   16.90
   0 -13   4   71.17   11.86
   0 -13  -4   77.87   11.03
   0 -13  -4   77.00   10.56
   0  13  -5  448.95   25.07
   0  13   5  499.94   27.64
   0  13  -5  486.11   33.79
   0 -13  -5  539.95   33.14
   0 -13   5  517.45   20.65
   0  13  -6  111.56   11.44
   0 -13  -6   81.75   10.09
   0 -13   6   68.23    7.20
   0  14   0  499.54   28.48
   0  14   0  498.27   37.78
   0 -14   0  558.24   35.56
   0  14   1 1377.34   68.53
   0  14  -1 1295.74   63.87
   0  14  -1 1328.13   75.95
   0 -14   1 1394.19   58.82
   0 -14  -1 1408.88   66.34
   0 -14  -1 1440.07   62.53
   0  14  -2 1478.40   70.82
   0  14  -2 1529.84   73.61
   0 -14  -2 1470.55   72.73
   0 -14  -2 1431.23   63.95
   0 -14   2 1389.90   58.12
   0  14  -3  287.36   27.08
   0  14  -3  289.84   22.61
   0 -14   3  279.96   15.96
   0 -14  -3  298.96   20.01
   0 -14  -3  307.04   26.61
   0  14   4  129.87   10.37
   0  14  -4  116.70   21.83
   0  14  -4  126.58   19.08
   0 -14   4  132.93    9.66
   0  14  -5  399.32   27.05
   0  14   5  406.76   21.97
   0  14  -5  357.57   25.45
   0 -14  -5  363.92   18.46
   0 -14   5  339.51   19.16
   0  15   0    0.09    6.00
   0 -15   0    2.66    5.71
   0  15  -1  182.83   25.22
   0  15   1  142.26    9.83
   0  15  -1  187.39   18.25
   0 -15   1  187.09   13.48
   0 -15  -1  192.18   15.09
   0  15  -2   42.01   10.71
   0  15  -2   36.16   12.51
   0 -15   2   46.06    7.30
   0 -15  -2   45.53   14.12
   0  15  -3   52.59   10.91
   0  15   3   56.10    6.97
   0  15  -3   56.62   13.51
   0 -15  -3   42.46    9.20
   0 -15   3   36.17   10.64
   0  15   4   97.99   12.38
   0  15  -4   94.37    9.70
   0  15  -4   91.62   11.21
   0 -15   4   63.64   10.79
   0 -15  -4   75.83    9.83
   0  16   0   96.16   17.31
   0 -16   0  114.03   11.47
   0  16   1   56.19    5.62
   0  16  -1   63.36    7.20
   0  16  -1   62.29   16.34
   0 -16   1   65.06    8.57
   0 -16  -1   62.09   14.73
   0  16   2   10.96    6.48
   0  16  -2    8.40    8.07
   0  16  -2   15.33    7.13
   0 -16   2   18.34    5.12
   0 -16  -2   20.94   10.28
   0  16   3  196.18   11.04
   0  16  -3  177.59   23.77
   0  16  -3  196.08   18.81
   0 -16   3  216.70   16.95
   0 -16  -3  230.88   21.67
   0  16   4    4.47    2.52
   0  16  -4    3.21    3.17
   0  16  -4    5.66    3.75
   0 -16   4    1.65    2.28
   0 -16  -4    2.30    3.30
   0  17   0    0.40    4.91
   0 -17   0    4.39    5.40
   0  17  -1   45.44    7.76
   0  17   1   43.51    5.61
   0  17  -1   50.32    8.26
   0 -17   1   50.21    7.33
   0 -17  -1   54.86    8.08
   0  17   2   94.84    6.27
   0  17  -2   95.09   16.68
   0  17  -2  102.29    7.71
   0 -17   2   83.00   12.53
   0 -17  -2   83.75   15.17
   0  17  -3   14.77   11.34
   0  17   3   45.82    6.57
   0  17  -3   44.03    5.14
   0 -17   3   11.61    7.57
   0 -17  -3   18.61    9.70
   0 -18   0  717.39   36.09
   0  18  -1  320.67   20.91
   0 -18  -1  415.16   18.68
   0 -18   1  400.53   22.91
   1   0  -8  234.22   19.97
   1   0  -7  193.60   14.37
   1   0  -6 2246.91   90.51
   1   0  -6 2065.51   87.74
   1   0  -5   13.15    7.84
   1   0  -4 1242.09   40.24
   1   0  -4 1282.38   47.17
   1   0  -4 1297.14   55.93
   1   0  -4 1285.64   38.80
   1   0  -4 1288.00   47.91
  -1   0   4 1264.30   38.83
  -1   0   4 1337.04   53.31
  -1   0   4 1270.77   55.21
   1   0  -3   14.60    2.40
   1   0  -3   15.21    3.92
   1   0  -3   17.54    1.85
   1   0  -3    8.72    4.92
   1   0  -3   14.56    3.95
  -1   0   3   14.44    7.00
  -1   0   3   13.97    2.53
  -1   0   3   17.07    5.67
  -1   0   3   12.83    5.01
   1   0  -2   11.12    3.13
   1   0  -2   16.16    3.76
   1   0  -2   15.15    3.67
   1   0  -2   13.41    6.51
   1   0  -2   14.03    2.10
  -1   0   2   14.94    6.48
  -1   0   2   18.44    3.40
  -1   0   2   15.68    3.43
  -1   0   2   23.84    3.93
   1   0  -1  275.54    9.26
   1   0  -1  268.39   17.98
   1   0  -1  284.94    9.35
   1   0  -1  291.29   13.31
   1   0  -1  294.31   10.13
  -1   0   1  278.22   13.21
  -1   0   1  272.21   12.42
  -1   0   1  286.74   13.00
  -1   0   1  285.83    8.90
   1   0   0   24.68    4.32
   1   0   0   31.70    3.04
   1   0   0   24.42    3.46
   1   0   0   21.80    3.02
  -1   0   0   20.97    3.04
  -1   0   0   21.17    3.00
  -1   0   0   22.89    5.25
  -1   0   0   22.79    4.44
   1   0   1  119.82    5.05
   1   0   1  117.19   11.27
   1   0   1  125.43    6.39
   1   0   1  119.26    6.84
   1   0   1  120.67    8.38
  -1   0  -1  110.23    6.67
  -1   0  -1  118.42    6.43
  -1   0  -1  119.16    9.13
  -1   0  -1  109.29   13.08
  -1   0  -1  116.75   10.31
   1   0   2   26.01    3.09
   1   0   2   22.98    2.88
   1   0   2   28.78    4.20
   1   0   2   23.15    3.98
  -1   0  -2   35.69    2.38
  -1   0  -2   26.26    1.85
  -1   0  -2   36.71    4.59
  -1   0  -2   28.26    3.90
  -1   0  -2   25.35    3.78
  -1   0  -2   26.79    4.13
   1   0   3  297.39   11.11
   1   0   3  292.14    7.99
   1   0   3  319.86   18.64
  -1   0  -3  301.07   16.98
  -1   0  -3  317.04   10.85
  -1   0  -3  291.37   11.16
  -1   0  -3  322.61   18.01
   1   0   4  688.21   23.77
   1   0   4  655.83   31.77
   1   0   4  627.01   22.57
  -1   0  -4  663.02   25.81
  -1   0  -4  622.74   26.35
  -1   0  -4  637.71   24.36
  -1   0  -5  211.38   11.00
  -1   0  -5  225.56   12.89
  -1   0  -5  223.00   10.91
  -1   0  -6  163.72   16.54
  -1   0  -6  147.69    8.60
   1   0   7  221.12    9.06
  -1   0  -7  221.57   12.61
  -1   0  -8    6.29    4.05
   1   1  -8   52.20   11.19
   1  -1  -8   50.06   11.01
   1   1  -7 1187.56   61.02
   1  -1  -7 1291.88   51.77
   1  -1  -7 1245.09   53.10
   1   1  -6  494.92   22.35
   1   1  -6  466.98   31.78
   1  -1  -6  528.37   24.82
   1  -1  -6  486.27   24.40
   1   1  -5  566.06   31.77
   1   1  -5  569.23   29.03
   1  -1  -5  493.00   23.15
   1   1  -4 2082.99   83.61
   1   1  -4 2141.14   71.39
   1   1  -4 2092.50   79.81
   1   1  -4 2044.92   74.57
   1   1  -4 2075.85   73.34
   1   1  -4 2128.27   79.26
  -1   1   4 2148.71   70.16
  -1   1   4 2098.44   79.58
  -1   1   4 2203.74   85.65
   1  -1  -4 2016.12   77.59
   1  -1  -4 2005.01   83.86
   1  -1  -4 1763.77   66.91
  -1  -1   4 2093.20   88.62
  -1  -1   4 2015.34   74.93
   1   1  -3 1886.77   64.18
   1   1  -3 2011.63   65.01
   1   1  -3 1787.54   64.02
   1   1  -3 1841.62   66.59
  -1   1   3 1943.06   65.28
  -1   1   3 1950.19   67.59
   1   1  -3 1891.11   68.52
  -1   1   3 1788.18   72.49
  -1   1   3 1919.45   70.56
   1  -1  -3 1951.63   71.12
   1  -1  -3 1896.12   74.58
  -1  -1   3 1939.10   72.84
   1  -1  -3 1873.42   68.48
   1  -1  -3 1882.04   55.78
  -1  -1   3 1853.60   57.47
  -1  -1   3 1936.79   68.41
  -1  -1   3 1936.80   78.02
   1  -1  -3 2106.77   60.97
   1   1  -2 2879.69   96.68
  -1   1   2 2709.97  104.42
   1   1  -2 2761.44   93.47
   1   1  -2 2740.63  100.76
   1   1  -2 2726.93  103.03
  -1   1   2 2864.76  103.47
   1   1  -2 2527.58   89.38
  -1   1   2 2909.06   97.05
  -1   1   2 2568.08   92.19
   1  -1  -2 2708.35  105.30
   1  -1  -2 2705.70   81.15
   1  -1  -2 2604.15   93.56
   1  -1  -2 2767.04   82.19
   1  -1  -2 2680.17   95.46
  -1  -1   2 2731.22   99.45
  -1  -1   2 2730.76  105.80
  -1  -1   2 2699.68   90.03
  -1  -1   2 2743.65  100.42
  -1   1   1 3271.77  119.00
   1   1  -1 3192.07  128.00
  -1   1   1 3142.96  112.63
   1   1  -1 3282.72  109.93
   1   1  -1 3284.20  111.20
   1   1  -1 3163.31  112.87
  -1   1   1 3260.72  128.06
  -1   1   1 3152.54  119.14
  -1   1   1 3292.04  115.47
  -1   1   1 3344.78  108.90
   1  -1  -1 3353.62  115.23
   1  -1  -1 3149.58  123.34
  -1  -1   1 3229.13  119.26
   1  -1  -1 3325.65  113.68
  -1  -1   1 3233.37  112.08
  -1  -1   1 3190.64  108.32
   1  -1  -1 3290.99  108.53
  -1  -1   1 3254.21  117.03
  -1   1   0 1037.86   32.13
   1   1   0  991.18   34.55
   1   1   0  967.50   34.98
  -1   1   0 1004.32   35.25
   1   1   0 1108.69   27.57
   1   1   0  964.65   30.30
  -1   1   0  951.44   31.13
  -1   1   0 1036.59   33.47
  -1   1   0 1061.23   25.98
   1  -1   0 1057.77   39.58
  -1  -1   0  957.56   34.63
   1  -1   0  948.59   27.65
   1  -1   0  990.51   34.78
  -1  -1   0 1109.83   28.49
   1  -1   0 1141.29   28.24
  -1  -1   0 1023.53   36.67
   1  -1   0 1037.02   33.21
  -1  -1   0 1009.50   31.31
  -1  -1   0 1041.37   28.58
   1   1   1 1575.46   45.44
  -1   1  -1 1483.14   54.64
   1   1   1 1456.34   45.64
   1   1   1 1402.67   55.81
  -1   1  -1 1440.16   58.91
   1   1   1 1447.68   46.94
  -1   1  -1 1396.50   42.61
   1   1   1 1492.72   47.22
  -1   1  -1 1477.33   51.84
  -1   1  -1 1446.09   46.81
   1  -1   1 1553.99   51.38
   1  -1   1 1507.63   51.69
  -1  -1  -1 1562.77   50.91
  -1  -1  -1 1616.23   54.42
   1  -1   1 1613.98   54.80
  -1  -1  -1 1452.42   48.38
  -1  -1  -1 1511.08   44.03
   1  -1   1 1467.61   45.18
  -1  -1  -1 1520.92   58.87
   1   1   2 9896.81  445.83
  -1   1  -210117.80  446.51
  -1   1  -2 9468.85  433.46
   1   1   2 9817.61  436.37
   1   1   2 9567.35  428.26
   1   1   210225.50  458.25
  -1   1  -2 9951.94  431.21
  -1   1  -210136.30  463.63
  -1   1  -2 9280.77  412.92
   1  -1   2 8865.79  378.86
  -1  -1  -2 9160.40  423.26
   1  -1   2 9022.60  403.80
   1  -1   210172.90  460.94
  -1  -1  -210110.40  455.16
   1  -1   210104.20  456.24
  -1  -1  -210068.30  455.30
  -1  -1  -2 9139.37  411.10
   1  -1   210001.30  433.72
  -1   1  -3 3249.83  119.99
   1   1   3 3208.23  116.61
   1   1   3 3476.80  133.73
   1   1   3 3428.74  136.01
  -1   1  -3 3310.27  116.77
   1   1   3 3298.18  125.80
  -1   1  -3 3448.21  116.20
  -1   1  -3 3522.29  134.43
  -1   1  -3 3255.56  126.20
  -1   1  -3 3365.27  117.90
   1  -1   3 3067.46  101.11
   1  -1   3 3411.63  132.42
  -1  -1  -3 3242.80  129.17
  -1  -1  -3 3122.35  118.92
   1  -1   3 3357.79  131.77
  -1  -1  -3 3366.72  125.75
  -1  -1  -3 3082.97  123.02
   1   1   4  541.58   18.38
  -1   1  -4  522.92   18.58
  -1   1  -4  554.85   27.66
   1   1   4  471.43   20.29
   1   1   4  550.91   26.75
  -1   1  -4  517.64   25.45
   1  -1   4  514.26   18.66
  -1  -1  -4  509.20   20.35
  -1  -1  -4  455.07   21.45
   1  -1   4  460.71   19.85
   1  -1   4  517.28   22.17
  -1  -1  -4  483.24   18.73
  -1   1  -5  693.89   33.18
  -1   1  -5  702.82   30.40
  -1   1  -5  727.81   36.86
  -1  -1  -5  716.38   29.16
  -1  -1  -5  718.91   28.04
  -1   1  -6  361.63   24.97
  -1  -1  -6  323.58   14.81
   1  -1   6  341.27   13.02
  -1  -1  -6  338.63   17.27
   1   1   7    0.05    3.39
  -1   1  -7    5.85    3.10
  -1  -1  -7    3.98    2.76
   1  -1   7    2.34    1.67
  -1   1  -8  106.22    9.86
  -1  -1  -8  109.11    8.70
   1   2  -8  340.55   17.35
   1  -2  -8  327.11   21.93
  -1  -2   8  355.99   18.29
   1   2  -7    8.73    5.39
   1  -2  -7   10.08    5.04
   1  -2  -7   13.61    5.02
   1   2  -6  878.94   39.05
   1   2  -6  904.66   35.90
   1  -2  -6  832.10   45.23
   1  -2  -6  890.58   38.66
   1   2  -5  549.21   31.52
   1   2  -5  543.59   22.03
   1  -2  -5  541.32   31.97
   1  -2  -5  508.78   29.78
   1   2  -4  817.97   34.44
  -1   2   4  783.00   36.82
   1   2  -4  806.60   32.94
   1   2  -4  796.18   37.23
   1   2  -4  804.91   29.99
   1   2  -4  806.30   27.18
  -1   2   4  844.12   28.60
   1   2  -4  816.33   27.26
  -1   2   4  815.96   28.98
   1  -2  -4  880.43   41.24
   1  -2  -4  787.46   27.98
   1  -2  -4  876.71   38.83
  -1  -2   4  866.85   34.24
  -1  -2   4  882.54   36.74
   1   2  -3  172.10    9.40
   1   2  -3  179.77   14.27
  -1   2   3  168.59   14.15
  -1   2   3  170.44   10.49
   1   2  -3  164.84   12.82
   1   2  -3  180.42    8.47
   1   2  -3  173.30    8.57
   1   2  -3  181.38    9.56
  -1   2   3  173.01    8.06
   1  -2  -3  164.76    7.80
   1  -2  -3  176.97   15.87
   1  -2  -3  164.84    9.18
   1  -2  -3  165.80    9.88
  -1  -2   3  179.40   10.48
  -1  -2   3  157.80    4.83
  -1  -2   3  167.42    8.47
   1   2  -2 4295.48  163.19
  -1   2   2 4565.70  175.75
   1   2  -2 4398.32  171.18
   1   2  -2 4401.82  165.51
   1   2  -2 4464.87  158.73
   1   2  -2 4515.81  178.22
  -1   2   2 4287.62  163.33
  -1   2   2 4290.22  169.85
   1  -2  -2 4232.16  168.94
   1  -2  -2 4182.29  165.90
  -1  -2   2 4263.12  167.66
   1  -2  -2 4370.83  169.44
   1  -2  -2 4567.02  180.40
  -1  -2   2 4149.44  149.99
  -1  -2   2 4409.50  169.38
  -1  -2   2 4354.77  174.56
   1   2  -111871.40  546.32
  -1   2   112076.10  565.52
  -1   2   112128.40  549.28
   1   2  -112045.80  572.37
   1   2  -112634.20  580.51
  -1   2   112719.00  566.69
   1   2  -112477.90  584.34
  -1   2   112745.30  612.81
   1  -2  -112566.20  592.92
   1  -2  -112736.20  588.94
  -1  -2   112305.70  584.14
  -1  -2   111895.60  541.15
  -1  -2   112518.80  576.31
   1  -2  -112752.30  595.41
  -1  -2   112176.30  565.17
  -1  -2   113071.70  598.27
   1  -2  -110062.20  449.27
  -1  -2   112464.30  567.46
   1  -2  -112917.00  602.87
   1   2   0 3921.46  153.60
  -1   2   0 4072.76  139.80
  -1   2   0 3815.77  146.59
  -1   2   0 4032.09  154.33
   1   2   0 4175.08  141.82
   1   2   0 4081.58  138.45
   1   2   0 4111.94  138.93
   1   2   0 4143.35  161.11
  -1   2   0 3855.72  138.12
  -1   2   0 4234.34  161.20
  -1   2   0 4092.17  148.92
   1  -2   0 4298.89  149.58
  -1  -2   0 4226.86  160.97
   1  -2   0 4134.68  152.65
   1  -2   0 3943.28  143.63
  -1  -2   0 4411.48  155.12
  -1  -2   0 4124.06  151.71
  -1  -2   0 4079.05  159.97
   1  -2   0 4256.51  170.01
   1   2   1  718.23   18.15
  -1   2  -1  692.85   29.63
  -1   2  -1  661.99   19.54
   1   2   1  680.60   19.78
   1   2   1  660.99   18.78
   1   2   1  685.31   19.06
   1   2   1  651.26   22.58
  -1   2  -1  661.18   31.17
   1   2   1  678.22   28.75
  -1   2  -1  683.02   22.20
   1  -2   1  723.09   20.10
   1  -2   1  667.33   17.46
  -1  -2  -1  705.88   22.01
   1  -2   1  716.89   28.92
  -1  -2  -1  725.07   25.40
  -1  -2  -1  691.39   28.28
  -1  -2  -1  689.40   30.58
   1  -2   1  707.28   23.78
   1  -2   1  699.34   30.80
   1   2   2  174.84    8.95
  -1   2  -2  162.77   14.11
   1   2   2  166.56    6.21
   1   2   2  171.88   10.49
  -1   2  -2  152.48    7.38
   1   2   2  167.97    9.48
  -1   2  -2  166.26    9.70
  -1   2  -2  163.21    4.73
  -1   2  -2  167.88    8.37
   1  -2   2  173.89   12.90
   1  -2   2  176.32   13.79
   1  -2   2  184.70    8.96
  -1  -2  -2  170.25   11.01
  -1  -2  -2  174.47    9.64
   1  -2   2  163.14    4.07
  -1  -2  -2  172.36    8.06
  -1  -2  -2  169.01    7.72
  -1   2  -3 2365.06   84.57
   1   2   3 2372.26   85.51
   1   2   3 2458.34   92.96
   1   2   3 2443.78   86.09
   1   2   3 2087.32   78.17
  -1   2  -3 2421.54   95.42
  -1   2  -3 2294.77   79.74
  -1   2  -3 2389.24   90.65
  -1   2  -3 2465.69   84.25
   1  -2   3 2509.92   91.48
  -1  -2  -3 2263.19   86.63
  -1  -2  -3 2422.40   90.54
   1  -2   3 2462.13   99.60
  -1  -2  -3 2364.48   93.19
  -1  -2  -3 2325.22   84.19
  -1   2  -4    9.86    3.06
   1   2   4    8.01    2.66
   1   2   4   -0.04    2.80
  -1   2  -4    9.49    3.03
  -1   2  -4    7.30    4.63
   1  -2   4    2.08    3.75
   1  -2   4    3.21    5.49
  -1  -2  -4    4.15    4.17
  -1  -2  -4    1.89    3.10
  -1  -2  -4    1.78    2.81
  -1  -2  -4    1.85    2.52
  -1   2  -5  114.51   13.08
  -1   2  -5  116.80   14.35
   1  -2   5  115.93    5.77
  -1  -2  -5  111.62    8.36
  -1  -2  -5  112.67    8.05
  -1   2  -6  154.65   12.04
   1  -2   6  171.84    7.90
  -1  -2  -6  180.21   16.16
  -1  -2  -6  176.57   10.38
   1   2   7  467.17   16.34
  -1   2  -7  474.63   27.63
  -1  -2  -7  440.16   18.90
  -1   2  -8  132.02   11.16
  -1  -2  -8  129.25    8.06
   1   3  -8  288.58   20.40
   1  -3  -8  252.90   13.00
   1  -3  -8  249.87   18.03
  -1  -3   8  262.02   11.41
   1   3  -7  441.05   30.08
   1  -3  -7  389.38   20.31
   1  -3  -7  436.53   29.72
  -1  -3   7  407.65   21.62
   1   3  -6  733.81   40.31
   1  -3  -6  719.77   41.46
   1  -3  -6  664.96   37.65
  -1  -3   6  720.88   27.01
   1   3  -5  108.75    9.54
   1   3  -5  111.33    9.60
   1   3  -5  102.98    7.89
   1   3  -5  136.77   11.68
   1   3  -5  114.81    7.65
   1   3  -5  110.79    7.73
   1  -3  -5   75.97   15.62
   1  -3  -5   67.04   13.03
   1   3  -4 1501.49   56.26
   1   3  -4 1515.31   55.47
   1   3  -4 1473.70   61.01
  -1   3   4 1499.40   51.56
   1   3  -4 1510.22   56.58
   1   3  -4 1552.73   53.56
   1   3  -4 1481.85   58.29
  -1   3   4 1450.35   53.92
   1  -3  -4 1423.46   64.73
   1  -3  -4 1332.46   47.36
  -1  -3   4 1364.90   55.57
   1  -3  -4 1325.40   56.48
  -1  -3   4 1384.44   55.14
   1   3  -3  395.88   16.18
   1   3  -3  409.33   16.70
  -1   3   3  368.81   16.13
  -1   3   3  388.02   17.94
   1   3  -3  416.93   18.62
   1   3  -3  403.33   18.24
   1   3  -3  403.26   17.06
   1   3  -3  359.98   19.07
  -1   3   3  402.00   17.92
   1  -3  -3  505.57   18.00
   1  -3  -3  481.33   20.40
   1  -3  -3  449.55   22.08
   1  -3  -3  461.51   15.25
  -1  -3   3  465.48   16.44
  -1  -3   3  459.46   10.86
  -1  -3   3  497.25   27.25
   1   3  -2 2477.91   91.18
   1   3  -2 2466.01   79.37
  -1   3   2 2443.99   86.60
   1   3  -2 2668.83  108.77
   1   3  -2 2483.36   91.02
  -1   3   2 2472.28   89.29
   1   3  -2 2332.11   85.70
   1   3  -2 2507.24   91.39
  -1   3   2 2460.54   82.94
   1  -3  -2 2794.83  106.61
   1  -3  -2 2597.22   90.68
  -1  -3   2 2693.12   89.19
   1  -3  -2 2777.33  105.05
   1  -3  -2 2731.75  101.83
  -1  -3   2 2685.01   90.59
  -1  -3   2 2634.45   88.38
  -1  -3   2 2807.71  105.29
   1   3  -116928.60  850.77
   1   3  -118587.70  942.18
   1   3  -117448.70  884.18
   1   3  -117956.20  948.52
  -1   3   117665.10  880.21
  -1   3   116936.60  876.57
   1   3  -117478.20  902.10
  -1   3   118474.00  971.50
  -1   3   118393.00  912.57
   1   3  -117421.50  891.02
  -1   3   118061.20  918.06
   1  -3  -117413.40  877.41
   1  -3  -118528.00  941.76
   1  -3  -117471.20  912.87
   1  -3  -117934.50  929.80
  -1  -3   117520.50  893.69
  -1  -3   118071.70  903.64
   1  -3  -119830.30  976.20
  -1  -3   117374.90  882.56
  -1  -3   116780.00  836.14
   1   3   0 6038.33  246.67
   1   3   0 6264.96  231.31
   1   3   0 6043.84  222.73
  -1   3   0 6074.69  241.21
  -1   3   0 5868.16  244.73
   1   3   0 6446.83  261.89
  -1   3   0 6312.58  245.83
   1   3   0 6379.93  263.29
   1   3   0 6376.01  245.75
  -1   3   0 6134.28  247.61
  -1   3   0 6475.49  271.84
  -1   3   0 6354.97  247.44
   1  -3   0 6698.79  262.98
   1  -3   0 6862.15  270.52
  -1  -3   0 6880.12  273.18
   1  -3   0 6660.99  271.58
   1  -3   0 6714.11  288.46
  -1  -3   0 6729.86  275.17
  -1  -3   0 6692.09  277.76
   1   3   1 1314.13   39.22
  -1   3  -1 1330.96   52.68
  -1   3  -1 1248.25   38.29
  -1   3  -1 1290.88   40.51
   1   3   1 1288.90   42.59
   1   3   1 1325.25   38.96
   1   3   1 1332.65   51.00
   1   3   1 1381.04   42.12
  -1   3  -1 1249.77   36.35
  -1   3  -1 1272.18   44.23
   1  -3   1 1299.62   50.63
   1  -3   1 1283.75   38.30
   1  -3   1 1290.54   49.15
   1  -3   1 1291.83   42.33
  -1  -3  -1 1329.70   45.67
  -1  -3  -1 1314.15   45.75
  -1  -3  -1 1217.90   39.88
  -1  -3  -1 1308.27   37.77
   1   3   2   13.63    3.14
  -1   3  -2    8.81    2.87
  -1   3  -2    9.56    3.72
  -1   3  -2    7.35    2.80
   1   3   2    8.79    1.93
   1   3   2    8.76    3.61
   1   3   2   14.89    4.90
   1  -3   2   11.40    3.36
  -1  -3  -2    9.35    4.68
   1  -3   2   10.86    1.46
   1  -3   2   11.44    5.68
   1  -3   2    8.67    4.08
  -1  -3  -2   10.28    5.40
  -1  -3  -2   10.87    4.07
  -1   3  -3  500.92   21.15
  -1   3  -3  541.39   21.07
   1   3   3  500.88   19.62
   1   3   3  504.21   19.61
   1   3   3  507.27   20.41
   1   3   3  490.79   16.90
  -1   3  -3  524.24   25.80
  -1   3  -3  518.55   21.55
   1  -3   3  546.59   16.05
   1  -3   3  583.46   29.27
   1  -3   3  572.59   25.72
  -1  -3  -3  541.80   20.64
  -1  -3  -3  581.66   24.41
  -1  -3  -3  539.29   18.32
  -1  -3  -3  557.48   22.09
  -1   3  -4  256.87   17.97
   1   3   4  250.85   14.30
  -1   3  -4  256.38   18.15
   1   3   4  241.75   13.22
   1   3   4  275.99   12.03
   1   3   4  254.22    9.74
   1  -3   4  248.49   15.15
  -1  -3  -4  236.78   12.08
   1  -3   4  259.34   20.06
  -1  -3  -4  249.82   13.85
   1  -3   4  242.82    8.65
  -1  -3  -4  239.52   16.62
  -1  -3  -4  244.28   11.17
  -1   3  -5  214.92   13.03
  -1   3  -5  208.02   17.81
   1  -3   5  196.10    8.18
  -1  -3  -5  190.92   11.44
  -1  -3  -5  202.07   10.91
  -1   3  -6   23.92    6.12
  -1   3  -6   25.52    5.61
  -1  -3  -6   24.04    7.83
  -1  -3  -6   24.59    7.95
   1  -3   6   29.55    3.41
  -1   3  -7  221.59   18.15
  -1  -3  -7  227.10   14.72
  -1  -3  -7  216.78   10.20
  -1   3  -8  246.33   14.37
   1   4  -8  582.11   23.85
   1  -4  -8  601.14   29.74
   1  -4  -8  553.05   26.24
  -1  -4   8  577.02   20.68
   1   4  -7  224.14   14.70
   1  -4  -7  265.67   16.06
   1  -4  -7  233.13   14.15
  -1  -4   7  248.01   16.42
   1   4  -6   80.33   14.38
   1  -4  -6   87.12   16.02
   1  -4  -6   84.02    8.83
  -1  -4   6   86.18    6.88
   1   4  -5  667.02   33.41
   1   4  -5  733.68   25.53
   1   4  -5  697.62   29.38
   1   4  -5  696.15   34.24
   1   4  -5  708.48   32.01
  -1   4   5  754.22   28.98
   1  -4  -5  647.36   33.71
   1  -4  -5  713.97   39.93
  -1  -4   5  661.56   28.67
  -1   4   4  212.70    8.83
   1   4  -4  207.10   10.11
   1   4  -4  207.42    8.68
   1   4  -4  207.74   11.84
   1   4  -4  214.93   12.14
   1   4  -4  201.32   15.17
   1  -4  -4  236.96   14.86
   1  -4  -4  229.39   20.00
   1  -4  -4  223.72   15.31
  -1  -4   4  238.20   13.73
  -1  -4   4  228.87   14.04
  -1  -4   4  208.44    8.93
   1   4  -3  596.22   20.04
   1   4  -3  581.50   21.12
   1   4  -3  597.37   29.65
   1   4  -3  601.38   25.13
  -1   4   3  555.37   26.25
  -1   4   3  577.76   21.60
   1   4  -3  609.01   25.89
  -1   4   3  582.98   19.92
   1  -4  -3  610.12   22.67
   1  -4  -3  613.87   28.21
  -1  -4   3  592.70   23.69
  -1  -4   3  579.81   22.70
   1  -4  -3  634.11   26.32
   1  -4  -3  626.29   25.48
  -1  -4   3  626.25   31.73
   1   4  -2 1184.14   49.62
  -1   4   2 1161.88   38.34
  -1   4   2 1189.59   45.51
  -1   4   2 1093.16   45.97
   1   4  -2 1119.30   38.69
   1   4  -2 1140.99   37.88
   1   4  -2 1179.60   51.92
   1   4  -2 1157.21   33.12
  -1   4   2 1061.79   34.30
   1  -4  -2 1117.65   40.07
   1  -4  -2 1181.90   44.10
   1  -4  -2 1187.69   41.66
   1  -4  -2 1184.62   41.22
  -1  -4   2 1186.03   45.13
  -1  -4   2 1153.75   35.34
  -1  -4   2 1178.17   39.40
  -1  -4   2 1125.35   34.44
   1   4  -1 5455.60  209.49
   1   4  -1 5251.59  196.35
   1   4  -1 5517.86  215.90
   1   4  -1 5135.77  217.52
  -1   4   1 5471.84  207.20
  -1   4   1 5416.50  207.63
   1   4  -1 5434.97  215.21
   1   4  -1 5482.22  224.44
  -1   4   1 5077.44  205.73
  -1   4   1 5381.16  219.96
   1  -4  -1 6082.29  225.14
   1  -4  -1 5503.34  215.40
   1  -4  -1 5327.90  216.85
   1  -4  -1 5312.01  205.45
   1  -4  -1 5164.18  208.01
   1  -4  -1 5231.46  195.79
  -1  -4   1 5367.38  204.04
  -1  -4   1 5052.15  186.19
  -1  -4   1 5345.78  214.43
  -1  -4   1 5408.55  213.56
   1   4   0 2770.21   97.41
  -1   4   0 2723.22   89.92
  -1   4   0 2753.17  102.71
  -1   4   0 2624.50   84.49
  -1   4   0 2493.56   87.18
   1   4   0 2539.93   95.55
   1   4   0 2721.18   88.22
   1   4   0 2697.50   94.47
  -1   4   0 2657.49   91.89
   1  -4   0 2650.16   89.97
   1  -4   0 2632.73  106.54
   1  -4   0 2522.23   91.60
   1  -4   0 2617.77   87.10
   1  -4   0 2557.63   85.36
  -1  -4   0 2475.06   92.50
  -1  -4   0 2591.71  101.03
  -1  -4   0 2585.08   86.87
   1   4   1 3162.05  109.75
  -1   4  -1 3159.60  126.85
  -1   4  -1 3006.93  101.12
  -1   4  -1 3141.89  108.69
   1   4   1 2945.80   95.82
   1   4   1 3041.67  109.83
   1   4   1 3103.32  114.69
   1   4   1 3201.26  111.91
  -1   4  -1 3001.82  111.64
  -1   4  -1 3061.20  105.83
   1  -4   1 3070.73  122.83
   1  -4   1 2801.27  107.64
   1  -4   1 2981.51  100.26
   1  -4   1 3018.43  108.19
  -1  -4  -1 2851.46  107.58
  -1  -4  -1 2892.63  118.06
  -1  -4  -1 3032.54  112.54
  -1  -4  -1 3125.58   99.64
  -1   4  -2 1821.16   66.85
  -1   4  -2 1806.66   67.44
  -1   4  -2 1831.30   76.23
   1   4   2 1887.32   62.63
   1   4   2 1783.41   64.72
   1   4   2 1875.98   67.25
   1   4   2 1683.39   56.34
   1  -4   2 1821.39   70.48
   1  -4   2 1939.37   75.59
   1  -4   2 1923.22   60.53
   1  -4   2 2054.55   76.61
  -1  -4  -2 1913.45   62.90
  -1  -4  -2 1770.89   63.92
  -1  -4  -2 1939.17   77.42
  -1  -4  -2 1878.70   71.45
  -1   4  -3  828.02   32.47
  -1   4  -3  806.32   33.23
  -1   4  -3  808.87   32.34
   1   4   3  762.95   26.91
   1   4   3  804.44   29.54
   1   4   3  776.74   29.50
   1   4   3  792.39   32.48
  -1   4  -3  795.71   29.03
   1  -4   3  872.22   35.86
   1  -4   3  898.05   39.52
   1  -4   3  861.89   28.17
  -1  -4  -3  853.67   30.04
  -1  -4  -3  815.29   29.38
  -1  -4  -3  854.80   31.51
  -1  -4  -3  867.56   31.46
   1   4   4  221.54   12.49
  -1   4  -4  225.71   12.12
   1   4   4  210.93   12.63
   1   4   4  216.66   11.55
  -1   4  -4  219.89   18.82
   1  -4   4  256.39   15.40
   1  -4   4  233.39   10.69
  -1  -4  -4  235.85   13.14
  -1  -4  -4  229.67   17.03
  -1  -4  -4  245.33   15.33
  -1   4  -5 1124.01   50.39
  -1   4  -5 1128.49   53.00
   1  -4   5  994.40   34.25
  -1  -4  -5 1009.87   41.51
  -1  -4  -5  947.77   41.29
  -1   4  -6  171.11   11.47
  -1   4  -6  176.03   16.40
   1  -4   6  119.89    9.33
  -1  -4  -6  120.87    8.37
  -1  -4  -6  123.88   13.82
  -1   4  -7  139.23    9.61
  -1  -4  -7  122.11    7.01
  -1  -4  -7  123.22   10.65
  -1   4  -8   42.18    6.88
   1   5  -8  373.93   15.71
   1  -5  -8  381.94   16.49
   1  -5  -8  332.96   16.73
  -1  -5   8  372.01   14.21
   1   5  -7  121.10   13.93
   1  -5  -7   90.30   15.99
   1  -5  -7   85.53   12.18
  -1  -5   7   91.53   10.77
   1   5  -6   51.05    7.42
   1  -5  -6   47.63    8.98
   1  -5  -6   42.27    6.72
  -1  -5   6   47.12    5.50
   1   5  -5  662.18   28.07
   1   5  -5  669.20   35.99
   1   5  -5  688.21   34.21
  -1   5   5  734.59   26.88
   1  -5  -5  754.10   30.63
   1  -5  -5  801.53   35.52
  -1  -5   5  759.38   31.76
  -1   5   4   74.82    6.71
   1   5  -4   82.62    8.24
   1   5  -4   81.70   12.63
   1   5  -4   76.10    9.96
  -1   5   4   76.11    7.04
   1   5  -4   89.08    9.52
   1   5  -4   71.32   12.03
   1  -5  -4   84.57    9.66
   1  -5  -4   88.41   14.09
  -1  -5   4   87.50   14.11
  -1  -5   4   82.80    8.57
  -1  -5   4   81.32    8.05
   1  -5  -4   91.73   10.94
   1   5  -3  445.38   27.49
   1   5  -3  393.21   15.83
   1   5  -3  390.91   14.15
   1   5  -3  396.49   24.86
   1   5  -3  401.18   18.87
  -1   5   3  385.98   14.34
  -1   5   3  404.06   18.08
  -1   5   3  429.11   21.26
   1  -5  -3  358.68   17.51
   1  -5  -3  391.79   17.00
  -1  -5   3  381.96   13.38
  -1  -5   3  376.58   13.40
  -1  -5   3  412.84   24.14
   1  -5  -3  376.01   16.00
   1  -5  -3  404.25   18.65
   1   5  -2  239.38    7.84
   1   5  -2  236.18   13.48
   1   5  -2  226.48    7.90
   1   5  -2  239.21   14.53
  -1   5   2  230.76    8.86
  -1   5   2  230.58   10.00
   1   5  -2  235.88   14.95
   1   5  -2  239.06   10.99
  -1   5   2  243.18    5.52
  -1   5   2  236.20    5.80
  -1   5   2  237.87   11.29
  -1   5   2  228.34   18.27
   1  -5  -2  308.22   13.09
   1  -5  -2  293.33    9.99
   1  -5  -2  315.65   18.84
   1  -5  -2  296.10   11.51
  -1  -5   2  293.62   10.44
  -1  -5   2  296.08    9.90
  -1  -5   2  299.00   13.10
  -1  -5   2  308.92   17.01
   1   5  -1 1828.94   63.76
   1   5  -1 1860.08   54.35
  -1   5   1 1857.47   60.46
  -1   5   1 1824.38   62.59
  -1   5   1 1868.23   75.94
   1   5  -1 1892.91   61.93
   1   5  -1 1713.16   63.04
   1   5  -1 1814.70   73.44
  -1   5   1 1778.88   70.83
   1  -5  -1 1901.40   69.48
   1  -5  -1 1859.16   71.99
   1  -5  -1 1853.08   60.88
   1  -5  -1 1872.97   59.42
   1  -5  -1 1882.47   68.31
  -1  -5   1 1794.89   52.58
  -1  -5   1 1896.42   68.06
  -1  -5   1 1948.89   63.86
  -1  -5   1 1891.10   64.43
   1   5   0 1099.21   42.50
  -1   5   0 1115.25   40.37
  -1   5   0 1044.77   34.66
  -1   5   0 1107.70   41.95
  -1   5   0 1077.96   33.95
   1   5   0 1105.83   42.72
   1   5   0 1102.85   35.58
   1  -5   0 1048.85   29.86
   1  -5   0 1078.45   36.02
   1  -5   0 1098.10   35.76
   1  -5   0 1089.93   37.03
   1  -5   0 1079.01   47.40
   1  -5   0 1075.11   32.37
  -1  -5   0 1064.38   43.54
  -1  -5   0 1047.01   34.90
  -1  -5   0 1093.38   38.41
  -1   5  -1   46.41   10.31
  -1   5  -1   40.05    3.27
  -1   5  -1   46.67    8.47
  -1   5  -1   42.51    4.00
   1   5   1   40.92    3.12
   1   5   1   44.61    8.81
   1   5   1   43.04    3.87
   1   5   1   38.10    4.65
  -1   5  -1   40.57    3.11
   1  -5   1   47.34    4.46
   1  -5   1   45.14    6.28
   1  -5   1   49.21    7.30
   1  -5   1   48.58    6.03
  -1  -5  -1   48.87    6.80
  -1  -5  -1   51.45    9.90
  -1  -5  -1   49.06    6.31
  -1   5  -2 1191.06   42.97
  -1   5  -2 1178.37   44.21
   1   5   2 1060.85   31.96
  -1   5  -2 1175.82   51.47
   1   5   2 1185.15   41.67
   1   5   2 1164.31   42.51
   1  -5   2 1174.12   41.35
   1  -5   2 1223.62   43.43
   1  -5   2 1167.54   41.36
   1  -5   2 1177.75   38.47
  -1  -5  -2 1080.60   44.29
  -1  -5  -2 1201.90   51.76
  -1  -5  -2 1148.87   37.86
  -1  -5  -2 1128.71   33.98
  -1   5  -3 1108.86   46.94
  -1   5  -3 1136.62   41.59
  -1   5  -3 1105.48   51.09
   1   5   3 1084.58   37.03
   1   5   3 1041.03   34.77
   1   5   3 1118.93   37.54
   1   5   3 1119.47   46.44
  -1   5  -3 1109.48   39.42
   1  -5   3 1130.65   38.13
   1  -5   3 1246.96   48.74
   1  -5   3 1173.76   49.60
  -1  -5  -3 1146.97   38.74
  -1  -5  -3 1171.47   49.41
  -1  -5  -3 1101.11   39.19
  -1  -5  -3 1137.26   42.84
  -1   5  -4   56.98    5.90
   1   5   4   55.51    5.06
   1   5   4   59.15    5.54
  -1   5  -4   53.47    7.49
  -1   5  -4   55.49    7.75
  -1   5  -4   55.44    8.59
   1  -5   4   44.07    3.57
  -1  -5  -4   44.03   10.87
  -1  -5  -4   45.46    5.85
  -1  -5  -4   47.30    9.25
  -1   5  -5  540.73   30.18
  -1   5  -5  527.11   32.46
   1  -5   5  492.02   20.98
  -1  -5  -5  513.33   30.70
  -1   5  -6   82.31   12.76
  -1   5  -6   83.20   13.71
   1  -5   6   73.76    7.48
  -1  -5  -6   77.15    7.62
  -1   5  -7   36.99    8.86
  -1  -5  -7   39.02    4.40
   1   6  -8  227.90   13.23
   1  -6  -8  191.49   14.95
  -1  -6   8  188.74    8.86
   1   6  -7  459.53   25.78
   1  -6  -7  492.75   23.96
   1  -6  -7  446.68   19.39
  -1  -6   7  457.66   23.00
   1   6  -6  118.90    9.77
   1  -6  -6  138.42   19.58
   1  -6  -6  122.96   13.26
  -1  -6   6  135.08   12.52
   1   6  -5  862.48   34.80
   1   6  -5  909.43   43.99
   1   6  -5  852.94   45.89
  -1   6   5  961.08   35.51
   1  -6  -5  873.37   40.25
   1  -6  -5 1000.16   54.69
  -1  -6   5  885.38   37.42
  -1   6   4  165.48    6.46
   1   6  -4  196.84   18.12
   1   6  -4  174.58    8.98
   1   6  -4  189.98    9.51
   1   6  -4  200.55   13.28
   1   6  -4  181.52   15.49
   1  -6  -4  189.45   11.44
   1  -6  -4  186.31   13.48
   1  -6  -4  170.83   12.55
  -1  -6   4  165.33   11.55
  -1  -6   4  177.56   11.43
   1   6  -3  422.41   17.16
  -1   6   3  429.73   18.89
   1   6  -3  430.44   17.95
   1   6  -3  477.44   22.76
   1   6  -3  458.04   17.60
  -1   6   3  406.21   12.01
   1   6  -3  436.68   27.70
  -1   6   3  430.08   16.66
   1  -6  -3  433.89   18.09
   1  -6  -3  452.90   19.53
   1  -6  -3  459.87   27.22
   1  -6  -3  420.45   15.07
  -1  -6   3  432.34   18.61
  -1  -6   3  460.40   19.62
  -1  -6   3  425.11   16.60
  -1   6   2  550.28   30.18
  -1   6   2  579.27   15.05
   1   6  -2  573.00   33.09
   1   6  -2  565.71   26.23
   1   6  -2  573.50   17.05
   1   6  -2  559.10   31.64
  -1   6   2  589.40   27.19
  -1   6   2  559.48   23.38
   1   6  -2  551.75   17.60
   1   6  -2  534.04   20.60
  -1   6   2  578.02   15.76
   1  -6  -2  545.02   24.54
   1  -6  -2  523.19   19.73
  -1  -6   2  526.85   17.72
   1  -6  -2  570.30   28.45
  -1  -6   2  513.95   16.39
   1  -6  -2  536.49   16.43
   1  -6  -2  551.64   28.94
  -1  -6   2  583.23   21.66
  -1  -6   2  528.05   17.62
   1   6  -1  978.76   45.16
  -1   6   1  959.97   30.29
  -1   6   1  972.59   42.56
   1   6  -1 1192.29   43.83
   1   6  -1 1011.96   35.46
   1   6  -1  970.48   40.08
  -1   6   1 1020.67   39.01
  -1   6   1  992.75   32.55
   1  -6  -1  990.92   41.48
   1  -6  -1 1018.52   39.88
   1  -6  -1  946.68   30.47
  -1  -6   1  974.95   24.00
  -1  -6   1 1005.54   37.76
  -1  -6   1  958.45   34.73
   1  -6  -1  968.70   29.75
   1  -6  -1 1010.67   44.43
   1   6   0 5723.08  241.42
   1   6   0 5701.05  238.05
  -1   6   0 5919.11  233.20
  -1   6   0 5910.12  257.31
  -1   6   0 5720.96  242.72
   1   6   0 5918.57  252.85
   1   6   0 6000.91  237.23
  -1   6   0 5715.19  235.81
   1  -6   0 6033.17  235.88
   1  -6   0 5997.61  241.04
   1  -6   0 6034.35  249.03
   1  -6   0 5953.16  255.40
   1  -6   0 5805.27  239.62
   1  -6   0 6422.93  257.38
  -1  -6   0 6070.43  246.13
  -1  -6   0 5886.83  256.27
  -1   6  -1 1198.93   55.41
   1   6   1 1160.65   36.49
  -1   6  -1 1129.95   41.32
  -1   6  -1 1141.35   35.53
  -1   6  -1 1122.16   35.28
   1   6   1 1154.57   49.16
  -1   6  -1 1163.24   38.06
   1  -6   1 1196.90   40.54
  -1  -6  -1 1175.56   40.53
  -1  -6  -1 1090.89   36.67
   1  -6   1 1173.63   41.87
   1  -6   1 1166.14   44.29
   1  -6   1 1191.36   44.16
  -1  -6  -1 1180.89   51.81
  -1   6  -2  923.44   41.60
   1   6   2  916.53   34.55
   1   6   2  915.67   32.51
  -1   6  -2  930.54   43.03
  -1   6  -2  925.52   29.59
   1  -6   2  844.17   26.43
  -1  -6  -2  861.15   34.19
   1  -6   2  860.15   36.35
   1  -6   2  893.58   33.74
  -1  -6  -2  831.04   27.50
  -1  -6  -2  849.67   31.50
   1  -6   2  848.58   34.36
  -1   6  -3 1287.54   45.36
  -1   6  -3 1289.48   51.95
   1   6   3 1255.12   47.39
   1   6   3 1315.62   55.73
  -1   6  -3 1325.93   58.47
  -1   6  -3 1354.33   51.25
   1  -6   3 1238.96   50.20
   1  -6   3 1385.59   56.09
   1  -6   3 1280.81   44.65
  -1  -6  -3 1309.63   56.43
  -1  -6  -3 1235.93   44.08
  -1  -6  -3 1333.73   57.97
  -1   6  -4  969.68   38.10
  -1   6  -4  959.55   40.99
  -1   6  -4  946.50   40.97
  -1   6  -4  944.74   44.50
   1  -6   4  904.36   33.50
  -1  -6  -4  953.73   40.52
  -1  -6  -4 1006.80   40.65
  -1   6  -5 2358.19   93.98
  -1   6  -5 2274.32   98.07
   1  -6   5 2315.96   89.41
  -1  -6  -5 2456.28  104.66
  -1  -6  -5 2407.70  108.08
  -1   6  -6  281.83   17.73
  -1   6  -6  278.25   15.08
   1  -6   6  346.34   16.15
  -1  -6  -6  353.38   22.59
  -1   6  -7  268.77   17.48
  -1   6  -7  241.70   16.28
  -1  -6  -7  273.02   14.50
   1   7  -8   60.52    4.38
   1  -7  -8   79.16    9.19
  -1  -7   8   75.50    7.31
   1   7  -7   83.96    9.68
   1  -7  -7   70.40    8.86
  -1  -7   7   65.01    9.40
   1   7  -6   74.91    8.37
   1   7  -6   75.38   10.88
  -1   7   6   82.59    6.40
   1  -7  -6   61.63   16.96
  -1  -7   6   54.77    9.95
  -1   7   5  517.16   21.33
   1   7  -5  477.84   23.64
   1   7  -5  466.60   19.71
   1   7  -5  461.08   24.88
   1  -7  -5  509.81   27.86
  -1  -7   5  447.62   18.48
   1   7  -4   54.34    7.36
   1   7  -4   55.06   14.12
   1   7  -4   56.84   11.67
  -1   7   4   50.68    4.61
   1  -7  -4   91.07    8.47
   1  -7  -4   92.78   15.03
   1  -7  -4   81.59    8.16
  -1  -7   4   77.45    5.63
  -1  -7   4   83.60    7.33
   1   7  -3  206.87   15.24
   1   7  -3  221.34   14.99
   1   7  -3  201.66    9.42
  -1   7   3  204.31    9.70
   1   7  -3  207.86   11.56
   1   7  -3  203.77   19.91
  -1   7   3  206.81   18.61
  -1   7   3  209.28   12.68
   1  -7  -3  181.22   10.40
   1  -7  -3  185.70   11.07
   1  -7  -3  201.18   12.79
  -1  -7   3  181.16    8.79
   1  -7  -3  196.01   12.32
  -1  -7   3  180.14   11.76
  -1  -7   3  199.41   17.36
  -1   7   2  232.18   13.55
   1   7  -2  235.14    8.05
   1   7  -2  235.61   17.57
   1   7  -2  231.22   21.49
  -1   7   2  244.57   12.57
   1   7  -2  228.05   16.80
   1   7  -2  233.34    8.61
  -1   7   2  233.67   19.69
   1   7  -2  244.47   22.44
   1  -7  -2  313.25   20.22
   1  -7  -2  325.40   19.44
   1  -7  -2  310.61   12.69
   1  -7  -2  298.04    9.23
  -1  -7   2  343.39   14.09
  -1  -7   2  310.34   11.30
  -1  -7   2  303.28    9.25
   1  -7  -2  298.92    9.68
  -1  -7   2  302.00   11.02
   1   7  -1  501.63   19.84
  -1   7   1  466.37   20.00
   1   7  -1  468.46   23.55
   1   7  -1  477.11   24.58
   1   7  -1  483.16   21.95
  -1   7   1  488.06   21.97
  -1   7   1  469.05   15.83
  -1   7   1  487.55   17.84
   1  -7  -1  537.95   17.15
   1  -7  -1  581.18   25.47
  -1  -7   1  591.32   23.86
  -1  -7   1  556.77   19.04
   1  -7  -1  554.46   16.64
   1  -7  -1  568.32   26.84
   1  -7  -1  570.30   28.26
   1   7   0  935.34   41.16
  -1   7   0  907.03   31.77
  -1   7   0  944.57   39.52
   1   7   0  926.33   33.17
   1   7   0  917.66   38.61
  -1   7   0  923.47   32.44
   1   7   0  995.70   38.64
  -1   7   0  881.01   31.45
   1  -7   0 1068.06   34.34
   1  -7   0 1076.25   36.16
   1  -7   0 1064.91   41.00
  -1  -7   0 1055.85   38.37
  -1  -7   0 1103.36   41.66
   1  -7   0 1071.10   39.32
   1  -7   0 1043.26   31.36
   1   7   1  387.83   13.63
  -1   7  -1  387.51   16.73
   1   7   1  408.95   17.84
  -1   7  -1  400.13   14.86
  -1   7  -1  411.55   20.70
   1   7   1  393.02   13.16
   1   7   1  396.60   17.31
  -1   7  -1  380.89   13.00
  -1   7  -1  386.23   13.15
   1  -7   1  412.15   13.93
   1  -7   1  420.58   25.57
   1  -7   1  425.07   17.53
   1  -7   1  397.27   15.26
  -1  -7  -1  420.96   16.36
  -1  -7  -1  411.74   24.78
  -1   7  -2  158.14    6.59
   1   7   2  156.35   10.73
   1   7   2  147.22    6.81
  -1   7  -2  155.24   15.87
  -1   7  -2  158.45   17.72
   1  -7   2  167.14    9.18
   1  -7   2  176.05    8.39
  -1  -7  -2  164.73    9.52
   1  -7   2  178.48   15.33
  -1  -7  -2  177.71   14.26
  -1  -7  -2  176.03   16.79
   1  -7   2  191.67   13.74
   1   7   3  502.02   21.70
  -1   7  -3  504.23   24.55
  -1   7  -3  487.29   18.04
  -1   7  -3  516.43   23.04
  -1   7  -3  505.41   23.91
   1  -7   3  561.20   21.96
   1  -7   3  541.25   17.93
  -1  -7  -3  575.41   31.58
  -1  -7  -3  555.13   23.96
  -1   7  -4   61.96    8.63
  -1   7  -4   55.69    7.62
  -1   7  -4   65.90   13.78
  -1  -7  -4   50.59    7.54
   1  -7   4   54.12    6.69
  -1  -7  -4   52.11   12.00
  -1   7  -5  484.67   33.79
  -1   7  -5  469.69   20.42
  -1  -7  -5  503.14   28.81
  -1  -7  -5  508.28   31.93
   1  -7   5  478.98   17.94
  -1   7  -6  541.15   22.33
  -1   7  -6  571.81   27.57
   1  -7   6  507.35   19.11
  -1  -7  -6  533.72   24.07
  -1   7  -7   35.44    6.92
  -1   7  -7   34.30    4.69
  -1  -7  -7   34.16    6.29
   1   8  -7  251.12   10.95
   1  -8  -7  271.64   21.85
  -1  -8   7  259.84   16.29
   1   8  -6  524.07   25.43
   1   8  -6  493.19   33.16
  -1   8   6  554.12   27.27
   1   8  -6  506.19   25.48
   1  -8  -6  597.92   30.14
  -1  -8   6  550.49   27.54
   1   8  -5  183.54   13.67
   1   8  -5  168.05   12.23
  -1   8   5  191.80   11.47
   1   8  -5  173.98   21.35
   1  -8  -5  168.42   23.69
  -1  -8   5  158.99    9.77
   1   8  -4  630.00   40.43
   1   8  -4  629.74   35.78
   1  -8  -4  696.94   38.52
   1  -8  -4  667.25   40.61
  -1  -8   4  599.95   27.57
   1   8  -3   54.05   14.33
   1   8  -3   59.70   11.16
  -1   8   3   59.50    8.17
   1  -8  -3   61.26   12.31
   1  -8  -3   63.98    8.19
  -1  -8   3   61.10    5.22
   1  -8  -3   58.93    4.72
   1   8  -2  232.07   12.03
   1   8  -2  210.77   11.84
   1   8  -2  216.75   21.05
   1   8  -2  217.92   21.45
  -1   8   2  213.36    9.23
  -1   8   2  228.45   12.01
  -1   8   2  220.94   19.21
  -1  -8   2  231.34   16.73
   1  -8  -2  219.60   17.46
   1  -8  -2  203.20   14.17
   1  -8  -2  212.86   12.63
  -1  -8   2  212.91   12.85
   1   8  -1 2149.04   78.48
   1   8  -1 2081.20   82.93
   1   8  -1 2040.54   76.06
  -1   8   1 2137.19   73.35
  -1   8   1 2102.91   71.91
  -1   8   1 2143.26   91.95
  -1   8   1 2073.84   79.38
   1  -8  -1 2111.74   83.54
   1  -8  -1 2020.24   76.65
   1  -8  -1 1975.32   66.00
  -1  -8   1 2092.48   74.63
  -1  -8   1 2017.15   77.84
  -1  -8   1 1981.87   76.30
   1  -8  -1 2070.00   79.70
   1  -8  -1 1933.44   65.95
   1   8   0 2346.57   96.38
   1   8   0 2340.96   80.92
  -1   8   0 2235.73   87.43
  -1   8   0 2302.81   79.08
   1   8   0 2313.83   86.22
  -1   8   0 2301.98   89.04
   1   8   0 2240.31   87.38
  -1   8   0 2313.10  103.17
   1  -8   0 2218.33   77.72
   1  -8   0 2361.55   85.85
   1  -8   0 2113.22   71.27
   1  -8   0 2312.35   84.85
  -1  -8   0 2259.98   86.60
   1  -8   0 2324.46   91.56
  -1  -8   0 2281.84   88.96
   1   8   1  281.40   13.29
   1   8   1  289.55   20.32
   1   8   1  323.66   15.06
  -1   8  -1  265.64   10.45
  -1   8  -1  288.55   24.97
   1   8   1  289.90   15.22
  -1   8  -1  278.14    9.89
  -1   8  -1  279.41    8.38
  -1   8  -1  278.97   13.74
   1  -8   1  336.68   13.46
  -1  -8  -1  341.72   18.77
   1  -8   1  380.06   13.58
   1  -8   1  342.42   15.44
  -1  -8  -1  336.27   21.94
   1  -8   1  345.47   22.71
  -1   8  -2  838.20   41.40
   1   8   2  820.54   31.18
   1   8   2  843.44   28.24
   1   8   2  864.82   42.16
  -1   8  -2  849.85   29.21
  -1   8  -2  884.70   38.38
   1  -8   2  829.67   35.64
   1  -8   2  863.40   33.84
   1  -8   2  877.18   35.39
  -1  -8  -2  843.99   39.29
   1  -8   2  833.36   31.34
  -1  -8  -2  856.88   43.44
  -1   8  -3 1766.21   83.15
  -1   8  -3 1770.88   62.98
  -1   8  -3 1780.43   84.00
   1  -8   3 1750.29   65.54
  -1  -8  -3 1884.05   77.73
  -1  -8  -3 1781.38   80.49
  -1   8  -4  480.27   34.95
  -1   8  -4  454.81   31.91
  -1   8  -4  452.21   22.50
   1  -8   4  533.56   19.34
  -1  -8  -4  567.51   33.39
  -1  -8  -4  550.27   33.89
  -1   8  -5  198.15   10.27
  -1   8  -5  217.00   22.56
  -1  -8  -5  164.07   17.64
  -1  -8  -5  158.09   13.08
   1  -8   5  148.93    8.17
  -1   8  -6 1332.54   48.67
  -1   8  -6 1347.78   64.88
   1  -8   6 1259.37   45.36
  -1  -8  -6 1308.45   52.05
  -1   8  -7  516.49   19.59
  -1   8  -7  537.59   21.51
  -1  -8  -7  469.83   19.65
   1  -9  -7  108.86   14.31
  -1  -9   7  103.72    7.26
   1   9  -6   58.05    7.86
   1   9  -6   52.70   12.69
  -1   9   6   54.34    6.09
   1  -9  -6   47.86    9.58
  -1  -9   6   41.40    9.29
   1   9  -5  396.59   22.14
  -1   9   5  412.70   19.84
  -1  -9   5  382.52   22.40
   1  -9  -5  442.94   35.52
   1   9  -4   11.48    9.63
   1   9  -4   15.90    5.10
   1  -9  -4    4.62    8.18
   1  -9  -4    4.04    9.36
  -1  -9   4    3.13    5.43
   1   9  -3  184.22   19.68
   1   9  -3  181.11   23.54
   1  -9  -3  227.12   15.03
   1  -9  -3  229.06   21.41
  -1  -9   3  209.98   10.40
   1   9  -2 2441.01  103.17
   1   9  -2 2367.92  111.37
   1   9  -2 2434.23  113.41
   1   9  -2 2460.73  105.84
  -1   9   2 2463.02   99.03
  -1   9   2 2369.68   97.68
  -1   9   2 2366.74   86.64
   1  -9  -2 2519.98  107.68
  -1  -9   2 2570.05   99.62
   1  -9  -2 2486.12  107.17
   1  -9  -2 2359.06   97.56
  -1  -9   2 2342.51   93.03
   1   9  -1   69.79    8.09
  -1   9   1   58.66    5.90
   1   9  -1   74.34    4.48
   1   9  -1   56.71    5.99
  -1   9   1   59.56   11.91
  -1   9   1   60.40    6.51
  -1   9   1   57.87    4.31
   1  -9  -1   36.72    9.67
   1  -9  -1   40.76    6.01
   1  -9  -1   40.89    6.45
  -1  -9   1   41.75    7.18
  -1  -9   1   43.32    5.29
  -1  -9   1   42.23    8.18
   1   9   0  446.49   22.70
   1   9   0  430.58   25.52
   1   9   0  440.03   22.61
  -1   9   0  425.41   21.05
  -1   9   0  429.28   17.86
  -1   9   0  429.87   21.38
   1   9   0  431.85   18.80
  -1   9   0  435.73   23.18
  -1  -9   0  533.36   20.52
   1  -9   0  536.77   23.43
  -1  -9   0  518.48   26.08
   1  -9   0  536.84   24.14
   1  -9   0  547.20   30.00
   1   9   1  670.13   25.53
   1   9   1  684.49   27.91
   1   9   1  665.58   34.37
   1   9   1  663.70   25.96
  -1   9  -1  653.78   32.59
  -1   9  -1  697.20   33.37
  -1  -9  -1  683.35   36.08
   1  -9   1  691.90   28.81
   1  -9   1  703.69   30.64
  -1  -9  -1  704.75   33.32
   1   9   2  478.10   19.57
  -1   9  -2  513.39   30.91
  -1   9  -2  513.76   35.84
  -1   9  -2  499.69   15.69
  -1  -9  -2  532.41   32.37
   1  -9   2  520.62   23.13
   1  -9   2  526.10   22.09
  -1  -9  -2  535.66   29.93
  -1   9  -3  604.38   40.16
  -1   9  -3  600.55   23.71
  -1   9  -3  582.09   29.35
  -1  -9  -3  659.03   39.51
   1  -9   3  649.30   27.82
  -1  -9  -3  620.58   36.05
  -1   9  -4  368.59   31.94
  -1   9  -4  349.09   14.25
  -1   9  -4  367.52   29.73
  -1  -9  -4  396.72   21.85
   1  -9   4  391.96   15.60
  -1  -9  -4  409.96   22.27
  -1   9  -5  199.56    9.85
  -1   9  -5  205.14   24.45
   1  -9   5  193.82   13.14
  -1  -9  -5  204.57   14.69
  -1  -9  -5  207.81   14.13
  -1   9  -6  213.72    9.68
  -1   9  -6  218.47   21.21
   1  -9   6  220.45   12.92
  -1  -9  -6  223.30   12.45
  -1   9  -7  112.03    6.83
   1  10  -7  429.88   20.40
   1 -10  -7  532.28   28.28
  -1 -10   7  534.47   19.80
   1  10  -6  140.71   12.78
   1  10  -6  155.23   12.15
  -1  10   6  156.77    9.72
  -1 -10   6  157.11    9.73
   1 -10  -6  165.58   14.08
   1  10  -5   17.88   11.24
   1  10  -5   18.85   12.50
  -1  10   5   21.44    9.09
  -1 -10   5   27.03    8.10
   1 -10  -5   31.86   13.38
   1  10  -4  588.56   29.73
   1  10  -4  567.22   32.23
   1 -10  -4  643.51   31.36
   1 -10  -4  632.54   42.46
  -1 -10   4  590.45   30.50
   1  10  -3   13.32    5.43
   1  10  -3   13.74   10.82
   1 -10  -3   12.52    5.88
   1 -10  -3   14.19    5.86
  -1 -10   3   11.74    6.39
   1  10  -2   23.77    9.07
   1  10  -2   20.29   10.98
  -1  10   2    0.01    8.27
   1 -10  -2   24.85    9.34
  -1 -10   2   24.54    7.12
   1 -10  -2   24.83    9.20
   1  10  -1  455.03   19.72
   1  10  -1  463.09   23.80
   1  10  -1  466.44   20.76
  -1  10   1  479.97   24.14
   1 -10  -1  492.80   21.48
  -1 -10   1  486.31   25.22
  -1 -10   1  482.77   19.04
   1 -10  -1  506.99   22.08
   1  10   0  752.61   28.55
   1  10   0  734.90   32.56
   1  10   0  731.42   37.25
  -1  10   0  745.31   28.08
  -1  10   0  756.62   44.42
  -1  10   0  741.34   31.74
   1 -10   0  688.01   27.34
  -1 -10   0  694.49   34.41
   1 -10   0  676.55   26.09
  -1 -10   0  657.09   33.44
   1  10   1  676.09   27.24
   1  10   1  690.42   31.08
  -1  10  -1  691.73   45.60
  -1  10  -1  691.49   35.75
  -1 -10  -1  776.68   31.34
  -1 -10  -1  774.86   40.38
   1 -10   1  780.95   28.84
  -1  10  -2 1668.37   75.73
  -1  10  -2 1620.44   77.36
  -1 -10  -2 1761.08   74.27
  -1 -10  -2 1702.80   77.42
   1 -10   2 1722.32   69.12
  -1  10  -3 1380.49   61.35
  -1  10  -3 1415.06   76.25
  -1 -10  -3 1437.11   69.75
  -1 -10  -3 1441.67   63.34
   1 -10   3 1425.73   57.85
  -1  10  -4 1114.29   64.16
  -1  10  -4 1108.19   53.33
  -1 -10  -4 1244.10   54.75
  -1 -10  -4 1273.27   64.03
   1 -10   4 1241.65   50.75
  -1  10  -5  236.50   26.29
  -1  10  -5  212.40   12.52
  -1 -10  -5  283.80   16.91
  -1 -10  -5  297.66   23.80
   1 -10   5  274.58   15.88
  -1  10  -6  217.52   11.35
  -1  10  -6  245.14   15.13
   1 -10   6  242.86    9.99
  -1 -10  -6  264.67   12.89
   1 -11  -7  173.52   10.00
  -1 -11   7  164.18   11.43
  -1  11   6  225.43   16.14
   1  11  -6  217.44   20.35
   1  11  -6  212.64   15.23
  -1 -11   6  226.79   12.23
   1 -11  -6  247.64   16.17
  -1  11   5  333.27   23.16
   1  11  -5  298.74   21.19
   1  11  -5  313.01   27.47
  -1 -11   5  281.26   21.12
   1 -11  -5  318.18   30.97
   1  11  -4  190.31   17.29
   1  11  -4  188.35   22.12
   1 -11  -4  155.92   23.59
  -1 -11   4  151.11   11.17
   1  11  -3  886.87   57.30
   1  11  -3  901.15   50.81
   1 -11  -3  910.36   42.61
   1 -11  -3  934.46   51.47
  -1 -11   3  879.72   42.38
   1  11  -2  674.38   45.25
   1  11  -2  651.35   30.07
  -1  11   2  693.48   37.60
   1 -11  -2  700.35   40.40
  -1 -11   2  672.76   34.43
   1 -11  -2  695.56   31.98
   1  11  -1  399.92   22.33
   1  11  -1  402.72   25.91
  -1  11   1  398.45   29.49
   1 -11  -1  362.31   23.78
  -1 -11   1  344.85   22.96
  -1 -11   1  349.50   19.69
   1 -11  -1  377.51   25.56
   1  11   0 1511.86   70.79
   1  11   0 1490.49   63.66
  -1  11   0 1524.44   68.05
  -1  11   0 1495.11   63.04
  -1  11   0 1397.59   51.95
  -1 -11   0 1593.82   69.69
   1 -11   0 1619.00   68.87
  -1 -11   0 1559.75   67.89
   1  11   1 3314.04  133.71
  -1  11  -1 3440.60  156.87
  -1  11  -1 3391.09  143.67
  -1 -11  -1 3470.12  159.02
  -1 -11  -1 3506.31  156.70
   1 -11   1 3540.98  144.42
  -1  11  -2 1305.14   74.82
  -1  11  -2 1341.72   58.09
  -1 -11  -2 1362.60   57.83
  -1 -11  -2 1377.35   60.45
   1 -11   2 1383.75   58.41
  -1  11  -3  375.87   24.87
  -1  11  -3  392.01   31.95
  -1 -11  -3  375.69   29.83
  -1 -11  -3  400.53   23.05
   1 -11   3  372.19   16.79
  -1  11  -4  211.95   25.74
  -1  11  -4  223.69   17.53
  -1 -11  -4  223.78   23.37
  -1 -11  -4  230.03   24.29
   1 -11   4  213.80   15.86
  -1  11  -5   49.72   11.97
  -1  11  -5   49.57   14.12
  -1 -11  -5   43.53    7.55
  -1 -11  -5   49.20    7.85
   1 -11   5   45.07    4.95
  -1  11  -6  192.69   12.70
  -1 -11  -6  187.28   13.56
   1  12  -6   90.41    8.92
   1  12  -6   82.39    9.40
  -1  12   6   90.75    7.05
  -1 -12   6  106.17   11.33
   1 -12  -6  119.74   15.59
   1  12  -5  173.84   15.84
   1  12  -5  178.59   14.43
  -1  12   5  186.84   11.96
   1 -12  -5  167.17   15.25
  -1 -12   5  146.33   10.63
   1  12  -4  204.98   19.11
   1  12  -4  212.36   16.72
  -1  12   4  225.81   14.57
   1 -12  -4  239.20   26.70
  -1 -12   4  207.06   12.89
   1  12  -3  145.96   20.54
   1  12  -3  132.89   25.06
   1 -12  -3  150.65   21.79
   1 -12  -3  153.25   14.17
  -1 -12   3  139.70   16.30
   1  12  -2  262.55   29.07
   1  12  -2  253.84   16.72
  -1  12   2  257.00   16.03
   1 -12  -2  265.54   17.18
  -1 -12   2  259.40   21.19
   1 -12  -2  260.88   24.96
   1  12  -1  207.93   16.70
   1  12  -1  204.74   19.84
  -1  12   1  209.43   16.54
   1 -12  -1  220.63   21.07
   1 -12  -1  214.24   13.55
  -1 -12   1  214.78   13.83
   1  12   0  369.87   28.37
   1  12   0  374.28   24.26
  -1  12   0  382.51   34.30
  -1  12   0  369.17   21.97
  -1  12   0  357.33   18.60
   1 -12   0  381.16   25.19
  -1 -12   0  375.04   24.61
  -1 -12   0  383.68   19.81
   1  12   1  463.93   24.29
  -1  12  -1  479.48   30.19
  -1  12  -1  457.87   40.57
  -1 -12  -1  486.68   24.49
  -1 -12  -1  487.26   33.03
   1 -12   1  498.47   22.31
  -1  12  -2  166.76   20.55
  -1  12  -2  169.63   26.29
  -1 -12  -2  160.21   19.97
  -1 -12  -2  165.50   14.48
   1 -12   2  164.15   15.85
  -1  12  -3  256.78   27.28
  -1  12  -3  255.47   30.94
  -1 -12  -3  271.30   18.56
  -1 -12  -3  273.22   27.07
   1 -12   3  270.97   13.75
  -1  12  -4  974.16   58.10
  -1  12  -4  974.77   56.79
  -1 -12  -4 1019.07   55.29
  -1 -12  -4 1052.54   46.96
   1 -12   4 1012.56   43.76
  -1  12  -5 1091.48   46.56
  -1  12  -5 1026.18   42.91
  -1 -12  -5 1002.53   48.89
  -1 -12  -5 1024.23   42.56
   1 -12   5  919.82   37.82
  -1  12  -6   96.51   12.63
  -1  13   6  337.11   16.92
   1  13  -6  305.22   20.72
   1  13  -6  341.06   20.60
  -1 -13   6  281.56   12.77
   1 -13  -6  294.86   15.44
   1  13  -5  190.21   14.04
   1  13  -5  177.47   15.66
  -1  13   5  192.46   16.67
  -1 -13   5  126.22   14.93
   1 -13  -5  142.57   21.67
  -1  13   4  263.59   21.50
   1  13  -4  250.10   26.16
   1  13  -4  243.59   19.93
  -1 -13   4  208.04   13.30
   1 -13  -4  232.85   18.09
  -1  13   3  611.76   27.74
   1  13  -3  568.69   46.10
   1  13  -3  584.27   30.34
  -1 -13   3  587.17   33.93
   1 -13  -3  607.87   32.15
  -1  13   2  616.39   26.98
   1  13  -2  614.65   39.71
   1  13  -2  604.44   45.79
  -1 -13   2  643.07   36.87
   1 -13  -2  637.99   41.03
   1  13  -1  388.82   27.55
   1  13  -1  387.93   32.88
  -1  13   1  381.61   17.40
  -1  13   1  392.03   31.99
   1 -13  -1  371.52   21.27
  -1 -13   1  347.62   19.70
   1  13   0 1339.57   60.73
   1  13   0 1380.12   68.76
  -1  13   0 1334.32   63.32
   1 -13   0 1331.69   55.47
  -1 -13   0 1274.77   58.94
  -1 -13   0 1354.42   65.80
  -1  13  -1  493.72   42.21
  -1  13  -1  509.50   30.61
  -1 -13  -1  442.57   31.48
  -1 -13  -1  460.13   33.39
   1 -13   1  460.76   29.08
  -1  13  -2  161.76   18.04
  -1  13  -2  165.82   14.19
  -1 -13  -2  181.35   21.77
  -1 -13  -2  182.42   14.63
   1 -13   2  191.07   17.03
  -1  13  -3  374.75   30.76
  -1  13  -3  358.79   35.98
  -1 -13  -3  364.31   30.05
  -1 -13  -3  387.46   31.16
   1 -13   3  360.68   17.34
  -1  13  -4    5.00    5.05
  -1  13  -4    6.97    7.83
  -1 -13  -4    2.63    4.33
  -1 -13  -4    5.12    4.63
   1 -13   4    4.73    2.85
  -1  13  -5  229.58   21.43
   1  13   5  243.44   12.00
  -1  13  -5  224.15   13.12
  -1 -13  -5  236.07   17.88
   1 -13   5  208.02    9.17
   1  14  -5   83.45   16.59
   1  14  -5   91.92   14.55
  -1  14   5   90.09   11.78
   1 -14  -5   97.82   15.19
  -1 -14   5   91.31   11.97
   1  14  -4  132.06   14.99
   1  14  -4  128.07   19.43
  -1  14   4  138.05   15.57
   1 -14  -4  128.49   20.05
  -1 -14   4  112.93   14.94
   1  14  -3   18.44    6.86
   1  14  -3   20.22   13.64
  -1  14   3   20.34    8.62
  -1 -14   3   17.88    5.79
   1 -14  -3   16.23   11.54
   1  14  -2   17.48   10.05
   1  14  -2   20.23   12.84
  -1  14   2   14.13    7.65
   1 -14  -2   14.91   10.38
  -1 -14   2   15.12    9.23
   1  14  -1  234.60   27.18
   1  14  -1  231.82   21.90
  -1  14   1  227.97   12.15
  -1  14   1  234.75   25.74
   1 -14  -1  249.71   24.12
  -1 -14   1  244.31   16.04
   1  14   0   44.14    6.53
   1  14   0   39.03   12.85
  -1  14   0   43.40   10.04
   1 -14   0   46.47    7.67
  -1 -14   0   28.93   12.56
  -1 -14   0   41.19    6.44
  -1  14  -1  510.24   31.09
  -1  14  -1  495.15   31.03
  -1 -14  -1  529.65   36.17
  -1 -14  -1  513.01   32.83
   1 -14   1  533.98   31.61
  -1  14  -2  234.96   21.00
  -1  14  -2  255.37   16.63
  -1 -14  -2  223.39   24.87
  -1 -14  -2  233.52   23.82
   1 -14   2  242.00   19.65
  -1  14  -3   90.23   13.31
  -1  14  -3   91.37   11.04
  -1 -14  -3  101.42   17.53
  -1 -14  -3  106.92   11.23
   1 -14   3   96.47   11.97
  -1  14  -4  169.00   20.28
  -1  14  -4  156.00   14.09
  -1 -14  -4  216.28   20.31
  -1 -14  -4  201.19   19.03
   1  14   5   39.41    7.18
  -1  14  -5   21.57    9.78
  -1 -14  -5   38.63    6.83
   1  15  -5  214.88   20.12
   1  15  -5  240.88   19.22
  -1  15   5  234.13   15.19
   1 -15  -5  250.88   18.62
  -1 -15   5  236.63   11.19
   1  15  -4  204.79   20.86
   1  15  -4  198.50   24.32
  -1  15   4  207.50   11.98
   1 -15  -4  203.91   14.92
  -1 -15   4  191.25   17.07
  -1  15   3  239.36   18.50
   1  15  -3  223.96   23.14
   1  15  -3  230.88   27.40
  -1 -15   3  200.03   13.63
   1 -15  -3  222.35   16.35
  -1  15   2  206.64   16.76
   1  15  -2  193.61   17.62
   1  15  -2  194.58   21.14
  -1 -15   2  191.19   20.44
   1 -15  -2  193.80   15.48
   1  15  -1  870.97   45.06
   1  15  -1  899.54   52.42
  -1  15   1  892.98   50.00
  -1  15   1  835.76   32.20
   1 -15  -1  871.63   48.11
  -1 -15   1  861.68   38.45
   1  15   0  390.46   21.26
   1  15   0  386.52   24.08
  -1  15   0  392.40   34.27
  -1 -15   0  362.57   28.90
   1 -15   0  376.92   20.85
  -1  15  -1  110.73   14.61
  -1  15  -1  113.56   13.95
  -1 -15  -1   99.46   11.62
  -1 -15  -1  107.05   15.15
   1 -15   1  107.36   15.27
  -1  15  -2  174.88   27.10
  -1  15  -2  183.72   19.22
  -1 -15  -2  195.11   21.90
  -1 -15  -2  205.49   14.47
   1 -15   2  190.49   12.22
  -1  15  -3  209.13   20.55
  -1  15  -3  204.35   17.21
   1 -15   3  211.55   15.89
  -1 -15  -3  214.01   21.54
  -1 -15  -3  219.79   21.45
   1  15   4  565.49   21.92
  -1  15  -4  543.96   30.50
  -1  15  -4  529.57   25.09
   1 -15   4  465.38   16.80
  -1 -15  -4  537.81   22.79
   1  16  -4    2.34    5.61
   1  16  -4    4.80    6.80
  -1  16   4    4.17    4.28
   1 -16  -4    4.82    3.62
  -1 -16   4    3.61    2.93
   1  16  -3    4.82    4.78
   1  16  -3    2.70    3.84
  -1  16   3    4.65    4.55
   1 -16  -3    6.88    6.76
  -1 -16   3    2.34    5.52
   1  16  -2  422.63   28.11
   1  16  -2  413.14   24.09
  -1  16   2  417.14   22.20
   1 -16  -2  445.38   23.37
  -1 -16   2  418.27   21.04
   1  16  -1  789.01   33.09
   1  16  -1  781.29   44.78
  -1  16   1  806.54   43.33
   1 -16  -1  800.04   43.63
  -1 -16   1  800.15   35.42
  -1  16   0   61.76   15.56
   1  16   0   47.91    9.74
   1 -16   0   65.22    8.54
  -1 -16   0   72.89   14.14
  -1  16  -1  177.22   16.10
  -1  16  -1  178.60   14.81
   1 -16   1  170.68   12.02
  -1 -16  -1  167.74   11.05
  -1 -16  -1  163.06   13.42
  -1  16  -2   99.04    8.62
  -1  16  -2  102.50   19.69
   1 -16   2   91.55    8.06
  -1 -16  -2   90.32   10.18
  -1 -16  -2   89.60    8.96
  -1  16  -3  212.36   15.76
   1  16   3  222.24   11.39
  -1  16  -3  209.62   12.17
  -1 -16  -3  200.61   18.75
   1 -16   3  197.82   13.61
   1  17  -3  166.54   14.59
   1  17  -3  162.28   17.98
  -1  17   3  160.96    7.66
   1 -17  -3  132.01   15.73
  -1 -17   3  128.99   14.19
   1  17  -2  178.08   19.37
   1  17  -2  178.47   10.73
  -1  17   2  176.92    7.86
   1 -17  -2  171.28   12.24
  -1 -17   2  164.67   16.81
  -1  17   1  129.26    9.72
   1  17  -1  131.20   12.98
   1  17  -1  131.10   16.20
  -1 -17   1  185.95   11.95
   1 -17  -1  181.44   17.28
  -1  17   0  417.69   22.28
   1 -17   0  469.67   21.18
  -1 -17   0  448.41   29.02
  -1  17  -1   53.89    8.59
   1  17   1   47.98    4.08
   1 -17   1   45.03    6.08
  -1 -17  -1   41.86    7.43
  -1  17  -2  325.18   18.80
   1  17   2  327.57   16.40
   1 -17   2  316.11   17.93
  -1 -17  -2  321.41   16.41
   1 -18   0   39.34    8.09
  -1 -18   0   35.82    5.93
   2   0  -8  197.10   19.67
   2   0  -7   45.40   13.66
   2   0  -6  111.95   10.19
   2   0  -6  101.46   11.28
   2   0  -5 4059.97  176.65
   2   0  -5 4284.30  178.70
   2   0  -5 4103.05  177.05
   2   0  -4   49.37    4.95
   2   0  -4   28.22    4.83
   2   0  -4   29.28    8.77
  -2   0   4   24.79    4.22
  -2   0   4   30.76    7.94
  -2   0   4   32.51    5.27
  -2   0   4   29.10    3.99
   2   0  -3   56.30    5.27
   2   0  -3   53.17    6.79
   2   0  -3   51.07    6.13
   2   0  -3   55.54    3.01
   2   0  -3   57.79    3.03
  -2   0   3   61.41    7.17
  -2   0   3   63.85    5.72
  -2   0   3   53.16    7.42
  -2   0   3   50.44    3.76
   2   0  -2 5136.98  197.80
   2   0  -2 5222.46  217.88
   2   0  -2 5168.00  205.61
   2   0  -2 5426.54  214.78
  -2   0   2 5283.65  231.09
  -2   0   2 5349.44  209.50
  -2   0   2 5240.58  210.93
  -2   0   2 5354.21  214.62
   2   0  -1 2151.93   72.30
   2   0  -1 2274.97   78.09
   2   0  -1 2301.03   82.05
   2   0  -1 2177.19   80.26
  -2   0   1 2199.92   91.16
  -2   0   1 2381.71   81.66
  -2   0   1 2126.33   72.77
  -2   0   1 2106.10   67.18
   2   0   0 5011.52  191.80
   2   0   0 5014.08  198.56
   2   0   0 4876.93  200.94
  -2   0   0 5370.98  199.12
  -2   0   0 4715.97  197.32
  -2   0   0 4980.70  194.43
  -2   0   0 5000.28  203.57
   2   0   1  528.68   11.46
   2   0   1  531.40   20.69
   2   0   1  495.14   18.67
   2   0   1  538.77   10.96
   2   0   1  524.38   18.66
   2   0   1  516.93   21.81
  -2   0  -1  526.12   20.44
  -2   0  -1  516.77   19.80
  -2   0  -1  531.79   21.87
  -2   0  -1  523.30   16.34
   2   0   2    1.16    3.52
   2   0   2    1.27    0.80
   2   0   2    0.52    0.96
  -2   0  -2   -0.01    0.94
  -2   0  -2    0.79    1.44
  -2   0  -2    1.06    2.14
  -2   0  -2    1.38    1.27
  -2   0  -2    0.66    3.60
   2   0   3  308.41   18.95
   2   0   3  308.93   14.22
   2   0   3  276.61    8.27
   2   0   3  293.72   11.07
  -2   0  -3  293.70    9.20
  -2   0  -3  307.68   12.85
  -2   0  -3  304.28   16.39
  -2   0  -3  291.48   14.39
  -2   0  -4  326.22   15.88
  -2   0  -4  351.67   19.89
  -2   0  -5 1139.15   53.00
  -2   0  -5 1123.98   43.63
  -2   0  -6  244.60   13.09
  -2   0  -7    1.22    1.80
   2   1  -8  185.59   13.44
   2  -1  -8  201.06   19.48
  -2  -1   8  204.78   10.20
   2   1  -7  167.41   21.12
   2  -1  -7  179.31   12.73
   2  -1  -7  178.78   14.70
  -2  -1   7  208.08   11.78
   2   1  -6  178.91   11.95
   2   1  -6  176.82   20.83
   2  -1  -6  178.57   13.14
   2  -1  -6  171.52   14.02
   2   1  -5  376.15   17.27
   2   1  -5  389.30   17.87
   2   1  -5  377.54   25.99
  -2   1   5  378.76   19.69
   2   1  -5  361.88   20.09
   2  -1  -5  420.76   25.30
   2  -1  -5  358.43   15.80
   2  -1  -5  368.33   26.28
   2   1  -4  337.87   20.89
  -2   1   4  347.24   18.11
   2   1  -4  335.84   14.80
   2   1  -4  328.08   21.38
  -2   1   4  335.37   19.55
  -2   1   4  329.09   11.25
  -2   1   4  341.21   20.78
   2  -1  -4  352.21   16.51
   2  -1  -4  375.67   21.45
   2  -1  -4  358.94   19.89
  -2  -1   4  360.34   21.29
  -2  -1   4  368.20   18.56
  -2  -1   4  353.65   10.80
  -2  -1   4  372.87   22.49
   2   1  -3 3991.79  146.04
   2   1  -3 3960.60  172.40
  -2   1   3 4045.70  157.22
  -2   1   3 4064.27  175.01
   2   1  -3 3974.31  165.37
   2   1  -3 4075.60  150.28
   2   1  -3 3884.58  151.25
  -2   1   3 3903.22  153.61
  -2   1   3 4119.24  156.94
  -2  -1   3 3977.32  172.20
   2  -1  -3 4287.63  174.18
   2  -1  -3 4114.22  166.41
  -2  -1   3 4399.74  166.21
  -2  -1   3 3979.48  151.66
  -2  -1   3 4218.39  166.63
   2  -1  -3 4040.04  160.72
  -2   1   2 1229.68   41.33
   2   1  -2 1209.07   40.06
   2   1  -2 1277.02   39.23
   2   1  -2 1186.61   44.53
   2   1  -2 1215.92   39.51
  -2   1   2 1190.20   42.15
  -2   1   2 1225.04   45.95
   2   1  -2 1168.10   42.59
  -2   1   2 1169.40   40.33
   2  -1  -2 1083.76   33.31
   2  -1  -2 1099.48   41.91
  -2  -1   2 1157.72   41.91
   2  -1  -2 1172.31   44.30
  -2  -1   2 1112.18   39.94
  -2  -1   2 1148.54   35.19
  -2  -1   2 1147.79   52.27
   2  -1  -2 1125.61   40.03
   2   1  -1  127.94    9.68
   2   1  -1  132.88   10.05
   2   1  -1  149.77    8.28
   2   1  -1  146.44   10.40
  -2   1   1  127.09    6.95
  -2   1   1  131.53    4.99
  -2   1   1  129.58   15.80
  -2   1   1  134.47    7.87
   2  -1  -1  162.86   16.13
   2  -1  -1  159.48    5.95
   2  -1  -1  167.98   11.36
   2  -1  -1  179.34    9.93
  -2  -1   1  167.35    6.97
   2  -1  -1  154.35    8.69
  -2  -1   1  163.76   10.35
  -2  -1   1  163.55    4.68
   2  -1  -1  168.09    6.21
  -2  -1   1  173.15   10.21
  -2  -1   1  158.22   11.15
   2   1   0 1240.07   39.13
   2   1   0 1166.43   43.42
  -2   1   0 1229.69   36.24
  -2   1   0 1159.72   36.82
  -2   1   0 1213.83   47.63
   2   1   0 1248.36   34.85
   2   1   0 1134.87   44.90
  -2   1   0 1240.45   46.02
   2  -1   0 1009.18   36.62
  -2  -1   0 1055.25   36.27
  -2  -1   0  973.57   39.75
   2  -1   0 1028.83   35.45
   2  -1   0 1064.50   44.00
  -2  -1   0 1058.01   42.24
   2  -1   0 1079.49   34.13
  -2  -1   0 1093.87   26.91
  -2  -1   0 1074.60   26.30
   2   1   1 2674.81  107.47
   2   1   1 2764.39   84.69
   2   1   1 2659.91   97.51
   2   1   1 2726.37   94.46
   2   1   1 2673.13   92.54
  -2   1  -1 2600.26   97.61
  -2   1  -1 2575.35   96.25
  -2   1  -1 2747.35   99.37
  -2   1  -1 2677.90   93.59
   2  -1   1 2831.31  103.23
   2  -1   1 2592.54   88.35
   2  -1   1 2720.34   80.03
   2  -1   1 2773.84   99.39
   2  -1   1 2815.01   84.48
   2  -1   1 2663.00   99.36
  -2  -1  -1 2599.15   91.94
  -2  -1  -1 2757.22   99.39
  -2  -1  -1 2552.94   81.08
  -2  -1  -1 2707.48  107.54
  -2  -1  -1 2796.05   97.31
   2   1   2  112.83    8.39
   2   1   2  116.01    6.49
  -2   1  -2  120.54   10.09
  -2   1  -2  117.38    8.91
   2   1   2  115.06    7.83
   2   1   2  115.86    3.70
  -2   1  -2  112.97    7.21
  -2   1  -2  105.01    6.25
   2  -1   2  120.02    5.87
   2  -1   2  117.86    4.96
  -2  -1  -2  119.86    9.76
  -2  -1  -2  111.38    8.34
   2  -1   2  118.17   13.02
  -2  -1  -2  121.51    5.91
   2  -1   2  118.03    2.97
   2  -1   2  106.74    5.51
  -2  -1  -2  117.27    5.48
   2   1   3  482.58   14.89
   2   1   3  542.67   26.22
   2   1   3  502.96   24.04
  -2   1  -3  482.76   22.76
   2   1   3  462.20   14.57
  -2   1  -3  487.33   27.77
   2  -1   3  574.57   27.53
  -2  -1  -3  551.32   26.54
   2  -1   3  603.32   29.30
  -2  -1  -3  579.25   23.39
  -2  -1  -3  550.02   21.83
   2  -1   3  498.71   17.47
  -2  -1  -3  536.77   16.50
  -2   1  -4 1071.85   43.81
  -2   1  -4 1070.39   45.53
  -2  -1  -4 1126.91   45.78
  -2  -1  -4 1110.68   43.77
  -2   1  -5  809.45   41.23
  -2   1  -5  852.80   33.60
  -2  -1  -5  784.84   31.11
  -2  -1  -5  744.19   37.03
  -2   1  -6  613.68   31.17
  -2  -1  -6  577.75   29.03
  -2   1  -7   36.11    4.43
  -2  -1  -7   24.95    3.84
   2   2  -8  467.77   28.79
   2  -2  -8  435.98   19.77
   2  -2  -8  420.18   27.66
  -2  -2   8  454.15   17.81
   2   2  -7 1001.25   44.34
   2  -2  -7  981.64   44.41
   2  -2  -7 1060.82   44.71
  -2  -2   7 1059.79   45.33
   2   2  -6  188.58   11.84
   2   2  -6  196.65   14.29
   2  -2  -6  162.83   20.51
   2  -2  -6  167.21   19.86
   2   2  -5 2701.37  117.64
   2   2  -5 2780.46  109.10
   2   2  -5 2670.45  111.01
   2   2  -5 2735.08  110.92
  -2   2   5 2845.70  104.52
   2  -2  -5 2872.97  123.72
   2  -2  -5 2803.42  124.28
   2   2  -4 2419.72   85.43
   2   2  -4 2389.46   95.54
   2   2  -4 2342.75   92.35
   2   2  -4 2400.34   87.22
   2   2  -4 2356.75   92.14
  -2   2   4 2431.91   88.67
  -2   2   4 2520.81   97.36
  -2   2   4 2371.27   88.38
  -2   2   4 2380.67   91.57
  -2  -2   4 2512.55  105.81
  -2  -2   4 2454.84   96.86
   2  -2  -4 2539.88   98.01
  -2  -2   4 2496.00   91.08
   2  -2  -4 2346.68   95.94
   2  -2  -4 2399.79  100.66
   2   2  -3 2452.80   97.11
   2   2  -3 2276.61   90.01
   2   2  -3 2366.37   83.02
   2   2  -3 2439.19   85.45
  -2   2   3 2311.49   83.96
   2   2  -3 2268.47   85.34
  -2   2   3 2413.74   84.72
  -2   2   3 2457.04   94.49
  -2   2   3 2375.31   82.63
  -2  -2   3 2348.60   92.39
  -2  -2   3 2299.69   84.49
   2  -2  -3 2404.71   94.73
   2  -2  -3 2247.48   86.52
  -2  -2   3 2191.43   78.01
   2  -2  -3 2314.94   93.70
  -2  -2   3 2363.00   94.88
  -2   2   2 4772.53  196.38
   2   2  -2 4520.84  179.86
   2   2  -2 4968.39  189.58
   2   2  -2 4750.30  185.11
   2   2  -2 4567.81  199.50
  -2   2   2 4514.53  171.31
  -2   2   2 4687.09  175.63
  -2   2   2 4606.96  177.66
   2   2  -2 4503.52  168.75
  -2  -2   2 4367.57  172.86
  -2  -2   2 4592.90  174.16
  -2  -2   2 4328.94  189.30
  -2  -2   2 4844.14  192.90
   2  -2  -2 4537.72  159.76
   2  -2  -2 4729.65  184.41
   2  -2  -2 4421.06  182.21
   2  -2  -2 4643.45  184.98
   2   2  -1 5732.48  220.71
   2   2  -1 5810.19  233.89
   2   2  -1 5409.83  227.96
   2   2  -1 5674.95  235.21
  -2   2   1 5695.59  215.17
  -2   2   1 5791.53  227.04
  -2   2   1 5624.83  247.15
  -2   2   1 5404.23  221.75
  -2   2   1 5471.15  231.59
   2  -2  -1 5882.94  232.33
  -2  -2   1 5951.93  236.04
  -2  -2   1 5850.85  227.34
  -2  -2   1 5337.84  232.55
   2  -2  -1 5659.18  220.11
   2  -2  -1 5332.10  207.79
   2  -2  -1 6046.68  240.00
   2  -2  -1 5763.88  250.74
  -2  -2   1 5775.49  216.44
  -2  -2   1 5611.53  232.89
   2   2   0 1425.05   48.70
   2   2   0 1495.39   59.14
   2   2   0 1570.06   47.02
   2   2   0 1583.04   57.81
  -2   2   0 1562.15   48.54
  -2   2   0 1531.61   56.84
  -2   2   0 1465.66   47.53
  -2   2   0 1519.26   61.56
   2  -2   0 1562.08   42.77
   2  -2   0 1459.01   51.24
  -2  -2   0 1555.71   53.87
  -2  -2   0 1449.87   54.74
  -2  -2   0 1508.90   43.68
   2  -2   0 1522.18   53.85
   2  -2   0 1423.23   53.32
   2  -2   0 1556.38   62.31
  -2  -2   0 1526.67   43.11
  -2  -2   0 1495.78   57.17
   2   2   1 7264.59  315.46
   2   2   1 7558.23  313.45
   2   2   1 7392.34  289.68
   2   2   1 7184.47  295.64
  -2   2  -1 7327.85  307.77
  -2   2  -1 7877.62  333.05
  -2   2  -1 7334.70  321.73
  -2   2  -1 7158.76  319.56
   2   2   1 7376.98  311.60
   2  -2   1 7109.16  315.44
   2  -2   1 6665.36  264.64
  -2  -2  -1 6836.62  304.42
  -2  -2  -1 7369.04  324.86
  -2  -2  -1 7268.29  294.76
   2  -2   1 6630.19  277.61
   2  -2   1 7505.42  319.95
   2  -2   1 7334.52  283.21
   2  -2   1 7457.35  323.18
  -2  -2  -1 7221.14  298.14
  -2  -2  -1 6744.64  276.44
   2   2   2  501.09   14.96
   2   2   2  519.11   17.23
   2   2   2  524.13   26.08
   2   2   2  498.11   17.06
  -2   2  -2  499.16   19.74
  -2   2  -2  503.88   22.40
  -2   2  -2  497.48   21.30
  -2   2  -2  527.87   17.60
   2  -2   2  509.68   20.84
  -2  -2  -2  484.61   24.64
  -2  -2  -2  517.99   18.79
  -2  -2  -2  534.15   24.45
   2  -2   2  516.84   13.66
   2  -2   2  514.81   26.45
   2  -2   2  459.90   14.38
   2  -2   2  521.62   18.93
  -2  -2  -2  497.43   17.64
   2   2   3  128.74   11.88
   2   2   3  119.20    9.02
   2   2   3  115.24    7.26
   2   2   3  118.09    6.14
  -2   2  -3  124.55    7.63
  -2   2  -3  112.14   14.16
   2  -2   3  115.83    4.74
   2  -2   3  115.32    6.50
  -2  -2  -3  125.50    8.91
  -2  -2  -3  108.10    5.30
  -2  -2  -3  123.98    7.18
  -2  -2  -3  110.53   11.11
   2  -2   3  126.47   13.80
   2  -2   3  117.99   12.60
  -2   2  -4  119.07    8.51
  -2   2  -4  109.78   10.06
  -2  -2  -4  120.67   12.38
  -2  -2  -4  118.53    9.95
  -2   2  -5  826.03   39.94
  -2   2  -5  801.61   43.00
  -2  -2  -5  754.91   30.76
  -2  -2  -5  799.33   35.46
  -2   2  -6   10.10    6.39
  -2   2  -6   18.88    6.68
  -2  -2  -6    3.75    5.24
  -2   2  -7   62.78    5.88
  -2  -2  -7   64.26    6.85
   2   3  -8  162.73   11.28
   2  -3  -8  149.16   15.76
   2  -3  -8  146.82   15.07
  -2  -3   8  150.69    8.67
   2   3  -7  747.40   42.06
   2  -3  -7  838.10   45.19
   2  -3  -7  754.97   34.98
  -2  -3   7  781.39   35.21
   2   3  -6  720.66   33.21
   2  -3  -6  744.81   41.52
   2  -3  -6  724.45   41.45
  -2  -3   6  754.30   28.33
   2   3  -5   73.76    8.03
   2   3  -5   74.19    7.60
  -2   3   5   73.63    7.20
   2  -3  -5   68.70    8.54
   2  -3  -5   68.92    8.45
   2   3  -4 1026.69   39.23
   2   3  -4 1038.56   40.16
   2   3  -4  987.98   35.43
   2   3  -4 1053.49   37.06
   2   3  -4 1014.87   34.60
  -2   3   4 1063.69   40.22
  -2   3   4 1023.63   35.12
  -2   3   4 1023.24   43.91
   2   3  -4 1096.04   44.75
  -2   3   4 1048.88   39.31
  -2  -3   4 1168.90   52.05
   2  -3  -4 1066.27   43.74
   2  -3  -4 1146.62   48.80
   2  -3  -4 1143.80   43.62
  -2  -3   4 1096.90   37.36
   2   3  -3  115.01    7.79
   2   3  -3   97.94   15.32
   2   3  -3   92.09    6.52
   2   3  -3  127.60    5.53
  -2   3   3   89.93    9.15
  -2   3   3   98.73   12.85
  -2   3   3   92.77    5.35
  -2   3   3   98.08    6.32
  -2  -3   3  106.96    7.35
  -2  -3   3  107.99   12.23
  -2  -3   3  100.56   13.87
  -2  -3   3   97.27    6.19
   2  -3  -3  102.77   11.86
   2  -3  -3  101.21   11.40
   2  -3  -3   94.85    7.66
   2   3  -2 1805.71   59.62
   2   3  -2 1713.92   65.78
   2   3  -2 1738.33   62.29
   2   3  -2 1659.76   58.23
   2   3  -2 1736.28   55.73
  -2   3   2 1642.13   66.03
  -2   3   2 1677.97   54.19
  -2   3   2 1717.74   58.17
  -2   3   2 1724.57   72.30
  -2   3   2 1649.30   52.52
  -2  -3   2 1562.89   50.84
  -2  -3   2 1554.82   48.64
  -2  -3   2 1683.92   61.78
   2  -3  -2 1643.36   60.98
   2  -3  -2 1692.61   63.46
   2  -3  -2 1549.10   67.17
  -2  -3   2 1598.72   70.34
  -2  -3   2 1545.32   56.28
   2   3  -1  134.16    6.50
   2   3  -1  143.46   10.51
   2   3  -1  144.41   12.10
  -2   3   1  167.04    7.79
  -2   3   1  144.17    5.76
  -2   3   1  143.16   10.85
  -2   3   1  131.10   12.84
  -2   3   1  148.96    7.50
   2  -3  -1  178.88    9.71
   2  -3  -1  177.67    8.11
  -2  -3   1  166.14   10.04
  -2  -3   1  170.31    6.26
  -2  -3   1  180.31   11.68
   2  -3  -1  169.88    9.20
   2  -3  -1  181.03   17.13
   2  -3  -1  166.20    7.06
  -2  -3   1  181.20    8.08
  -2  -3   1  174.71    8.54
   2   3   0 1223.19   50.01
   2   3   0 1270.59   36.21
   2   3   0 1267.82   48.60
  -2   3   0 1302.13   40.44
   2   3   0 1316.15   37.85
  -2   3   0 1259.76   34.48
   2   3   0 1315.02   44.33
  -2   3   0 1193.25   42.11
  -2   3   0 1295.49   43.79
  -2   3   0 1332.39   49.35
  -2   3   0 1187.84   45.51
   2  -3   0 1417.35   50.24
  -2  -3   0 1372.21   52.02
   2  -3   0 1439.40   51.12
   2  -3   0 1428.27   40.67
   2  -3   0 1278.43   42.59
  -2  -3   0 1403.94   41.96
  -2  -3   0 1388.90   50.24
  -2  -3   0 1398.31   55.08
   2   3   1   97.48    6.54
   2   3   1   96.31    5.56
   2   3   1  100.43    4.25
   2   3   1   94.43    4.75
   2   3   1   96.86   11.26
  -2   3  -1   92.83    6.49
  -2   3  -1   95.08    5.35
  -2   3  -1  100.44   11.70
  -2   3  -1   94.88    6.05
  -2   3  -1   96.85    6.97
   2  -3   1   69.36   10.02
   2  -3   1   67.35    6.32
   2  -3   1   61.55   10.20
  -2  -3  -1   58.94    5.07
  -2  -3  -1   66.22    7.15
  -2  -3  -1   54.94   10.19
  -2   3  -2 2287.32   76.89
  -2   3  -2 2466.25   87.25
  -2   3  -2 2358.11   90.54
   2   3   2 2476.96   88.26
   2   3   2 2404.85   86.12
   2   3   2 2495.16   98.02
   2   3   2 2307.37   76.64
  -2   3  -2 2377.13   90.99
  -2   3  -2 2391.71   80.28
   2  -3   2 2233.15   83.57
   2  -3   2 2150.93   68.91
   2  -3   2 2206.93   90.08
   2  -3   2 2208.10   91.67
  -2  -3  -2 2035.67   75.40
  -2  -3  -2 2131.51   86.60
  -2  -3  -2 2264.80   91.59
  -2  -3  -2 2154.94   72.73
   2   3   3 3475.20  132.32
   2   3   3 3367.42  132.71
   2   3   3 3593.22  146.78
   2   3   3 3420.20  126.38
  -2   3  -3 3612.66  145.05
  -2   3  -3 3407.89  148.13
   2  -3   3 3488.48  141.74
   2  -3   3 3503.69  140.40
  -2  -3  -3 2947.12  118.86
  -2  -3  -3 3164.38  132.60
  -2  -3  -3 3394.29  140.85
  -2  -3  -3 3183.86  123.16
  -2   3  -4 2016.22   83.33
  -2   3  -4 1963.09   80.97
  -2  -3  -4 1918.88   74.39
  -2  -3  -4 1950.10   71.51
  -2   3  -5   32.67   11.26
  -2   3  -5   36.89    5.88
  -2  -3  -5   29.89    6.50
  -2   3  -6  147.14   11.23
  -2   3  -6  144.30   15.02
  -2  -3  -6  141.79    7.93
  -2   3  -7  395.24   21.06
   2   4  -8  335.73   21.89
   2  -4  -8  391.74   17.72
   2  -4  -8  367.51   22.16
  -2  -4   8  384.50   19.41
   2   4  -7  131.31   15.49
   2  -4  -7  101.73   10.75
   2  -4  -7   95.21   10.09
  -2  -4   7   95.36    7.82
   2   4  -6   74.53   13.61
   2   4  -6   75.20   12.78
   2  -4  -6   68.72   13.95
   2  -4  -6   74.69    9.73
  -2  -4   6   71.07    6.49
  -2   4   5  610.04   22.34
   2   4  -5  584.55   26.89
   2   4  -5  584.90   25.73
   2  -4  -5  605.86   26.83
   2  -4  -5  630.86   28.71
  -2  -4   5  586.02   25.64
  -2   4   4  667.04   30.59
  -2   4   4  714.67   28.00
  -2   4   4  737.01   30.21
   2   4  -4  738.19   27.87
   2   4  -4  707.42   28.46
   2   4  -4  682.89   35.26
   2   4  -4  702.05   31.50
   2   4  -4  673.91   31.03
  -2   4   4  673.06   23.01
   2  -4  -4  705.62   31.03
   2  -4  -4  777.61   31.71
   2  -4  -4  706.51   33.83
  -2  -4   4  769.10   38.54
  -2  -4   4  705.10   27.41
  -2  -4   4  711.02   24.24
   2   4  -3  257.53   13.91
  -2   4   3  270.17   11.73
  -2   4   3  254.87   14.41
   2   4  -3  273.03   23.89
   2   4  -3  260.83    9.12
   2   4  -3  261.29   13.45
   2   4  -3  256.49   14.04
   2   4  -3  273.14   13.68
  -2   4   3  254.25    9.46
  -2   4   3  268.85   18.92
   2  -4  -3  281.09   16.98
   2  -4  -3  290.14   18.70
   2  -4  -3  272.56   17.75
  -2  -4   3  292.85   13.39
  -2  -4   3  269.55    9.52
  -2  -4   3  268.05   10.56
  -2  -4   3  280.04   11.50
   2   4  -2  655.08   21.50
  -2   4   2  652.94   33.89
  -2   4   2  658.45   22.91
  -2   4   2  627.44   24.37
   2   4  -2  641.76   27.86
   2   4  -2  682.18   22.31
   2   4  -2  660.66   22.49
   2   4  -2  598.47   20.95
  -2   4   2  648.74   19.88
   2  -4  -2  583.58   25.88
   2  -4  -2  589.48   21.20
   2  -4  -2  539.98   17.41
   2  -4  -2  550.79   24.31
  -2  -4   2  555.06   23.91
  -2  -4   2  539.44   18.57
  -2  -4   2  549.76   16.89
  -2  -4   2  542.10   15.35
  -2  -4   2  541.35   24.81
  -2   4   1  182.61    5.52
  -2   4   1  172.80   14.47
  -2   4   1  185.99    8.22
   2   4  -1  174.57    6.35
  -2   4   1  186.61   12.22
   2   4  -1  191.33    9.83
   2   4  -1  194.42    8.41
  -2   4   1  196.37    8.80
   2  -4  -1  192.33    9.44
   2  -4  -1  186.03   17.75
   2  -4  -1  190.77   10.28
  -2  -4   1  186.98   10.62
   2  -4  -1  180.17    7.34
   2  -4  -1  177.29    9.83
  -2  -4   1  202.56    7.09
  -2  -4   1  186.08   12.67
  -2  -4   1  186.65    9.52
  -2  -4   1  183.60    7.76
  -2   4   0  151.40    4.80
  -2   4   0  153.76    9.01
   2   4   0  150.40    4.52
   2   4   0  158.14    8.51
   2   4   0  157.61    6.84
   2   4   0  156.52    5.65
   2   4   0  151.69   13.70
   2   4   0  148.76    4.74
  -2   4   0  156.89   10.84
  -2   4   0  159.53   11.43
  -2   4   0  142.88   10.33
   2  -4   0  120.37    9.45
   2  -4   0  125.67   10.09
  -2  -4   0  124.57    8.24
  -2  -4   0  129.82    6.90
  -2  -4   0  120.85   13.66
   2   4   1  970.73   29.68
   2   4   1  940.57   28.14
  -2   4  -1  956.21   30.89
  -2   4  -1  990.34   35.73
  -2   4  -1  980.89   42.24
  -2   4  -1  899.68   30.66
   2   4   1  971.86   34.38
   2   4   1  886.07   30.32
   2   4   1  944.97   27.53
  -2   4  -1  984.59   36.82
   2  -4   1  888.98   37.96
   2  -4   1  934.90   33.19
   2  -4   1  950.64   27.52
  -2  -4  -1  909.08   24.99
   2  -4   1  937.83   40.92
  -2  -4  -1  895.18   32.51
  -2  -4  -1  950.52   43.34
  -2  -4  -1  931.64   29.20
   2   4   2  500.82   24.86
  -2   4  -2  503.14   19.67
  -2   4  -2  499.07   21.48
  -2   4  -2  493.00   21.78
   2   4   2  492.96   18.69
   2   4   2  478.15   16.48
   2   4   2  483.63   14.84
   2  -4   2  475.82   13.89
  -2  -4  -2  489.19   25.72
   2  -4   2  499.27   20.46
   2  -4   2  500.16   26.19
   2  -4   2  490.77   17.88
  -2  -4  -2  470.16   19.26
  -2  -4  -2  452.77   14.25
  -2  -4  -2  445.51   17.62
  -2   4  -3  470.66   22.54
  -2   4  -3  479.84   18.77
   2   4   3  484.03   18.91
   2   4   3  471.85   21.98
   2   4   3  494.74   19.31
   2   4   3  465.54   16.42
  -2   4  -3  508.64   18.04
  -2   4  -3  473.69   21.86
   2  -4   3  514.58   22.79
   2  -4   3  496.35   20.95
  -2  -4  -3  457.38   17.65
  -2  -4  -3  446.59   18.01
  -2  -4  -3  504.26   21.09
  -2  -4  -3  488.28   17.71
  -2   4  -4 1391.01   52.94
  -2   4  -4 1392.20   66.86
  -2  -4  -4 1429.26   55.25
  -2  -4  -4 1354.71   55.72
  -2  -4  -4 1405.07   52.50
  -2   4  -5   15.21    7.31
  -2   4  -5   10.64    5.59
  -2   4  -6  270.28   16.10
  -2   4  -6  270.53   14.47
  -2   4  -7  183.01   13.54
   2   5  -8   87.08   11.10
   2  -5  -8  101.60    8.17
   2  -5  -8   91.48    7.35
  -2  -5   8   96.80    9.96
   2   5  -7  274.17   21.61
   2  -5  -7  265.56   22.09
   2  -5  -7  297.40   25.00
  -2  -5   7  284.91   13.61
   2   5  -6  349.83   20.05
   2   5  -6  359.53   24.37
   2  -5  -6  390.60   30.19
   2  -5  -6  364.06   26.47
  -2  -5   6  384.44   21.35
   2   5  -5  252.07   13.68
  -2   5   5  285.43   16.55
   2   5  -5  273.88   17.07
   2   5  -5  264.56   16.57
   2  -5  -5  263.54   20.44
   2  -5  -5  281.57   24.58
  -2  -5   5  271.25   12.14
  -2   5   4  300.24   11.11
  -2   5   4  319.84   18.02
  -2   5   4  307.80   14.57
   2   5  -4  318.15   16.21
   2   5  -4  295.85   17.07
   2   5  -4  311.10   17.25
   2   5  -4  293.38   22.88
   2   5  -4  326.36   26.25
  -2   5   4  303.87   13.89
   2  -5  -4  296.94   13.19
   2  -5  -4  342.14   20.01
   2  -5  -4  352.43   23.90
  -2  -5   4  347.42   24.30
  -2  -5   4  336.05   14.59
  -2  -5   4  321.11   12.28
   2   5  -3  521.76   24.83
  -2   5   3  468.45   16.76
  -2   5   3  509.11   23.67
   2   5  -3  469.23   17.46
   2   5  -3  505.58   22.12
   2   5  -3  472.46   19.16
   2   5  -3  488.32   28.47
   2   5  -3  490.37   15.13
  -2   5   3  459.35   14.79
  -2   5   3  510.06   27.46
   2  -5  -3  481.86   25.88
   2  -5  -3  457.74   23.54
   2  -5  -3  443.65   21.97
  -2  -5   3  485.96   25.29
  -2  -5   3  461.54   14.16
  -2  -5   3  450.60   14.34
  -2  -5   3  456.62   18.34
   2   5  -2 1246.58   44.72
   2   5  -2 1165.29   38.12
  -2   5   2 1069.15   47.54
   2   5  -2 1112.23   49.64
  -2   5   2 1065.33   36.78
   2   5  -2 1113.39   44.57
   2   5  -2 1060.26   34.60
   2   5  -2 1138.30   54.68
  -2   5   2 1139.93   51.11
  -2   5   2 1145.80   45.26
   2  -5  -2 1082.19   36.96
   2  -5  -2 1041.16   40.66
   2  -5  -2 1124.50   39.28
   2  -5  -2 1018.66   32.04
  -2  -5   2 1107.45   42.66
  -2  -5   2 1067.08   31.52
  -2  -5   2  997.45   37.34
  -2  -5   2  998.57   34.45
  -2   5   1 3888.90  170.99
   2   5  -1 3950.22  154.49
  -2   5   1 3590.79  143.75
  -2   5   1 3659.44  146.76
  -2   5   1 3868.89  140.93
   2   5  -1 3673.85  152.10
   2   5  -1 3588.80  124.84
   2   5  -1 3750.14  156.47
  -2   5   1 3909.96  146.48
   2  -5  -1 3879.92  147.42
   2  -5  -1 3910.92  159.88
   2  -5  -1 4020.90  149.01
   2  -5  -1 4048.81  155.06
  -2  -5   1 3935.50  148.84
  -2  -5   1 3809.31  156.35
  -2  -5   1 3896.20  150.94
  -2  -5   1 3966.09  147.78
   2   5   0 4245.55  153.79
  -2   5   0 4161.50  182.28
  -2   5   0 3792.85  147.69
  -2   5   0 3880.80  156.68
  -2   5   0 4014.66  143.95
   2   5   0 4243.17  172.23
   2   5   0 4041.69  161.46
   2   5   0 4010.97  154.73
  -2   5   0 4104.26  164.74
   2  -5   0 4103.96  151.32
   2  -5   0 3837.07  151.05
   2  -5   0 4041.49  150.61
   2  -5   0 4017.54  165.39
   2  -5   0 4130.14  157.57
  -2  -5   0 3986.02  163.36
  -2  -5   0 4022.65  162.69
  -2  -5   0 3950.55  150.42
   2   5   1 1530.28   47.50
  -2   5  -1 1486.69   48.04
   2   5   1 1501.93   59.88
  -2   5  -1 1498.11   60.99
  -2   5  -1 1517.46   49.11
   2   5   1 1423.83   40.66
   2   5   1 1269.93   34.77
   2   5   1 1490.67   48.38
  -2   5  -1 1477.31   48.06
  -2   5  -1 1488.65   63.96
   2  -5   1 1411.20   60.06
   2  -5   1 1384.31   55.15
   2  -5   1 1299.15   47.07
   2  -5   1 1325.46   42.19
  -2  -5  -1 1383.35   49.52
  -2  -5  -1 1416.85   62.00
  -2  -5  -1 1329.95   53.54
  -2   5  -2 1463.55   54.74
  -2   5  -2 1450.55   61.52
   2   5   2 1412.42   52.19
  -2   5  -2 1412.31   62.74
   2   5   2 1426.02   57.89
   2   5   2 1378.28   43.15
   2  -5   2 1453.52   59.90
   2  -5   2 1469.69   58.41
   2  -5   2 1439.03   45.41
   2  -5   2 1506.73   62.04
  -2  -5  -2 1399.83   52.83
  -2  -5  -2 1451.43   62.94
  -2  -5  -2 1347.55   49.14
   2   5   3  596.29   27.72
   2   5   3  571.17   19.55
  -2   5  -3  600.13   35.04
  -2   5  -3  563.58   22.92
  -2   5  -3  576.01   26.16
  -2  -5  -3  516.01   24.63
  -2  -5  -3  531.35   24.77
  -2  -5  -3  563.11   29.80
  -2   5  -4  845.25   39.05
  -2   5  -4  824.98   37.54
  -2  -5  -4  812.99   35.03
  -2  -5  -4  821.80   39.51
  -2   5  -5  442.95   31.96
  -2   5  -5  436.96   19.90
  -2   5  -6 1119.79   54.70
  -2   5  -6 1081.48   47.55
  -2   5  -7 1020.48   35.43
  -2   5  -7  935.74   33.29
   2   6  -8  347.71   17.22
   2  -6  -8  313.49   12.53
   2  -6  -8  355.98   20.81
  -2  -6   8  363.40   18.23
   2   6  -7  269.86   19.27
   2  -6  -7  290.20   17.40
   2  -6  -7  260.40   19.69
  -2  -6   7  282.88   17.64
  -2   6   6  600.27   23.86
   2   6  -6  550.90   30.71
   2   6  -6  540.91   37.19
   2  -6  -6  652.07   28.97
   2  -6  -6  696.85   32.70
  -2  -6   6  667.40   30.98
   2   6  -5  615.68   29.95
  -2   6   5  666.60   25.63
   2   6  -5  614.40   30.58
   2   6  -5  600.27   24.44
   2  -6  -5  580.45   29.29
   2  -6  -5  574.86   32.23
  -2  -6   5  547.70   21.73
  -2   6   4    3.21    1.49
  -2   6   4    1.30    4.13
   2   6  -4    3.30    5.83
   2   6  -4    1.93    2.01
   2   6  -4    2.20    3.52
   2   6  -4    3.06    4.00
  -2   6   4    3.14    2.54
   2  -6  -4    0.93    3.38
   2  -6  -4    2.67    2.18
   2  -6  -4    0.86    2.54
  -2  -6   4    4.01    2.24
  -2  -6   4    2.04    1.98
   2   6  -3  101.41   17.89
  -2   6   3   91.36    9.38
  -2   6   3   90.83    8.52
  -2   6   3   90.96    9.08
   2   6  -3   93.89   10.69
   2   6  -3   98.77   15.60
   2   6  -3   93.41   10.75
   2   6  -3   85.98    7.05
  -2   6   3  100.39   11.81
   2  -6  -3  145.53   13.72
   2  -6  -3  145.64   10.77
   2  -6  -3  128.43    5.23
   2  -6  -3  129.62   12.11
  -2  -6   3  142.36   13.56
  -2  -6   3  137.99    5.95
  -2  -6   3  126.71    5.99
   2   6  -2  662.37   27.59
   2   6  -2  675.10   30.58
  -2   6   2  677.95   28.39
  -2   6   2  685.96   30.07
  -2   6   2  683.36   24.38
   2   6  -2  722.93   21.86
   2   6  -2  721.16   29.49
   2   6  -2  662.18   20.09
   2   6  -2  635.09   26.98
  -2   6   2  636.62   32.81
   2  -6  -2  631.46   32.32
   2  -6  -2  608.92   21.23
   2  -6  -2  641.15   22.16
   2  -6  -2  655.91   24.18
  -2  -6   2  656.73   23.45
  -2  -6   2  600.04   16.35
  -2  -6   2  610.47   24.71
  -2  -6   2  621.74   23.21
   2   6  -1  312.21   19.89
  -2   6   1  325.36   17.87
  -2   6   1  289.97   19.38
  -2   6   1  314.26   12.53
  -2   6   1  306.72   11.45
   2   6  -1  308.51   19.70
   2   6  -1  324.58   12.34
   2   6  -1  271.59   12.23
  -2   6   1  307.63   12.70
   2  -6  -1  368.12   15.87
   2  -6  -1  344.63   23.86
   2  -6  -1  354.75   14.02
   2  -6  -1  350.11   11.72
   2  -6  -1  349.79   14.48
  -2  -6   1  365.11   12.19
  -2  -6   1  350.68   19.17
  -2  -6   1  376.07   15.23
  -2   6   0 1233.45   42.95
  -2   6   0 1221.68   37.84
  -2   6   0 1168.43   38.59
  -2   6   0 1242.70   50.37
  -2   6   0 1161.93   44.57
   2   6   0 1229.44   44.34
   2   6   0 1182.75   45.75
   2   6   0 1225.01   37.16
   2  -6   0 1242.13   49.16
   2  -6   0 1288.88   45.81
   2  -6   0 1244.76   39.39
   2  -6   0 1257.37   42.35
   2  -6   0 1260.60   46.15
  -2  -6   0 1264.03   44.81
  -2  -6   0 1212.34   53.15
  -2  -6   0 1173.26   42.11
  -2   6  -1 1452.14   50.80
  -2   6  -1 1516.00   68.50
  -2   6  -1 1387.56   46.36
   2   6   1 1550.19   64.12
   2   6   1 1473.02   49.85
   2   6   1 1503.99   46.74
  -2   6  -1 1493.37   62.33
  -2   6  -1 1507.12   49.45
   2  -6   1 1517.37   48.06
   2  -6   1 1560.58   67.37
   2  -6   1 1521.54   54.20
  -2  -6  -1 1571.66   57.57
  -2  -6  -1 1522.76   66.20
  -2  -6  -1 1423.89   56.63
  -2   6  -2    5.68    3.88
  -2   6  -2    5.03    3.65
   2   6   2    2.69    4.52
  -2   6  -2    4.48    2.27
   2   6   2    5.19    5.58
   2   6   2   10.12    1.48
   2  -6   2    4.25    3.23
   2  -6   2    3.28    2.25
   2  -6   2    4.75    3.26
   2  -6   2    6.55    5.20
  -2  -6  -2    4.34    4.06
  -2  -6  -2    6.55    6.52
  -2  -6  -2    4.00    4.32
   2   6   3  177.48    8.71
  -2   6  -3  190.70   13.53
  -2   6  -3  193.48   10.46
  -2   6  -3  187.20   13.98
  -2   6  -3  177.99   15.94
  -2  -6  -3  172.44    9.90
  -2  -6  -3  178.17   17.71
  -2  -6  -3  177.13   12.71
  -2   6  -4  121.42    8.78
  -2   6  -4  123.40   18.90
  -2  -6  -4  114.93    8.54
  -2  -6  -4  125.77   15.16
  -2   6  -5  540.26   28.37
  -2   6  -5  550.11   29.58
  -2   6  -6   99.34   11.85
  -2   6  -6  104.22   15.84
  -2   6  -7   22.67    3.29
  -2   6  -7    6.19    4.72
   2   7  -8   38.91    3.29
   2  -7  -8   56.87    9.40
  -2  -7   8   50.75    4.65
   2   7  -7  185.51   13.55
   2  -7  -7  204.07   13.88
   2  -7  -7  177.29   14.58
  -2  -7   7  196.28   14.59
  -2   7   6  250.81   16.40
   2   7  -6  231.55   12.21
   2   7  -6  233.96   24.32
   2  -7  -6  254.61   24.92
   2  -7  -6  223.16   18.64
  -2  -7   6  225.27   16.55
   2   7  -5   84.91    9.91
  -2   7   5  100.77    8.25
   2   7  -5   94.03   12.83
   2   7  -5   82.53   17.21
   2  -7  -5   85.62    8.14
   2  -7  -5   98.96   18.30
  -2  -7   5   86.93    6.92
  -2   7   4   55.01   10.18
   2   7  -4   50.86   10.16
   2  -7  -4   66.30    8.62
   2  -7  -4   64.85   13.39
   2  -7  -4   54.11    8.99
  -2  -7   4   57.71    7.62
  -2   7   3  196.55   11.07
  -2   7   3  189.35   13.10
  -2   7   3  184.80   11.83
  -2   7   3  189.95   16.62
   2   7  -3  192.61   15.48
   2   7  -3  191.56   20.42
   2   7  -3  194.57   10.74
   2   7  -3  196.10   22.93
   2  -7  -3  186.10   10.71
   2  -7  -3  175.00    8.74
   2  -7  -3  186.34   12.48
   2  -7  -3  189.83   11.92
  -2  -7   3  186.12   16.13
  -2  -7   3  177.88   11.06
  -2   7   2 1659.49   66.39
  -2   7   2 1757.14   64.69
  -2   7   2 1686.31   60.61
  -2   7   2 1748.21   77.88
   2   7  -2 1755.53   61.66
   2   7  -2 1731.29   71.89
   2   7  -2 1621.88   60.94
   2   7  -2 1666.60   75.33
   2  -7  -2 1917.52   75.36
   2  -7  -2 1817.12   70.96
   2  -7  -2 1806.80   62.44
   2  -7  -2 1811.68   67.01
  -2  -7   2 1919.15   74.01
  -2  -7   2 1769.08   66.68
  -2  -7   2 1779.87   60.84
   2   7  -1 1650.46   68.24
  -2   7   1 1762.22   60.60
  -2   7   1 1654.03   62.18
  -2   7   1 1710.90   60.17
  -2   7   1 1706.02   56.95
   2   7  -1 1757.40   64.22
   2   7  -1 1712.72   65.10
   2   7  -1 1758.15   62.95
  -2   7   1 1759.36   79.58
   2  -7  -1 1535.60   62.86
   2  -7  -1 1652.09   58.31
   2  -7  -1 1620.32   52.39
   2  -7  -1 1588.73   56.68
   2  -7  -1 1557.20   52.98
  -2  -7   1 1586.44   54.95
  -2  -7   1 1563.31   58.82
  -2  -7   1 1524.88   56.67
  -2   7   0  464.29   20.20
  -2   7   0  445.70   17.83
  -2   7   0  473.06   23.06
  -2   7   0  470.73   21.25
  -2   7   0  456.63   13.04
   2   7   0  479.18   18.70
   2   7   0  466.53   13.99
   2   7   0  462.24   21.62
   2  -7   0  409.09   14.00
   2  -7   0  394.95   15.05
   2  -7   0  403.10   16.59
   2  -7   0  412.54   18.19
   2  -7   0  401.75   20.55
  -2  -7   0  405.55   14.94
  -2  -7   0  389.58   24.34
  -2  -7   0  394.30   16.76
  -2   7  -1 1136.45   38.98
  -2   7  -1 1122.01   39.28
  -2   7  -1 1043.78   32.81
  -2   7  -1 1125.23   55.35
   2   7   1 1189.37   50.94
   2   7   1 1122.97   36.83
  -2   7  -1 1144.76   43.35
   2  -7   1 1097.02   37.88
   2  -7   1 1021.61   36.99
   2  -7   1 1084.90   44.00
   2  -7   1 1077.36   43.01
  -2  -7  -1 1114.32   43.43
  -2  -7  -1 1099.46   51.85
  -2  -7  -1  986.49   41.18
  -2   7  -2 1942.54   81.19
   2   7   2 1957.59   66.42
  -2   7  -2 1953.84   87.39
  -2   7  -2 1934.55   68.93
   2   7   2 1957.63   84.73
   2  -7   2 1993.82   76.21
   2  -7   2 2138.00   90.13
   2  -7   2 2059.81   72.93
   2  -7   2 2081.30   84.72
  -2  -7  -2 1970.49   79.78
  -2  -7  -2 2090.09   85.03
  -2  -7  -2 1951.42   73.17
  -2   7  -3  451.51   17.59
  -2   7  -3  453.67   32.28
  -2   7  -3  443.12   28.51
  -2  -7  -3  433.08   24.77
  -2  -7  -3  489.10   23.32
  -2  -7  -3  437.99   17.48
  -2   7  -4 1057.72   39.89
  -2   7  -4 1084.37   49.34
  -2  -7  -4 1017.23   48.88
  -2  -7  -4 1109.92   47.56
  -2   7  -5  453.25   25.11
  -2   7  -5  438.15   19.07
  -2  -7  -5  441.18   26.27
  -2   7  -6  144.01   11.67
  -2   7  -6  137.44    8.55
  -2   7  -7   60.81    6.74
   2  -8  -8  241.41   15.23
  -2  -8   8  237.72   10.06
   2  -8  -7  124.61   16.32
  -2  -8   7  123.20   12.12
   2   8  -6 1026.72   58.91
   2   8  -6 1115.43   52.26
  -2   8   6 1078.99   47.76
   2  -8  -6 1223.79   63.35
  -2  -8   6 1127.55   49.02
   2   8  -5  201.75   25.29
   2   8  -5  209.59   19.56
  -2   8   5  212.15   12.88
   2  -8  -5  226.72   17.40
  -2  -8   5  201.53   15.32
  -2   8   4   38.12   10.57
   2   8  -4   36.59   11.03
   2   8  -4   34.67   15.04
   2  -8  -4   54.69    5.62
   2  -8  -4   58.65    8.79
  -2  -8   4   55.31    8.43
   2   8  -3  145.83   10.37
   2   8  -3  141.71   13.33
  -2   8   3  155.13   10.11
  -2   8   3  147.10   15.78
   2  -8  -3  167.77   11.40
   2  -8  -3  141.47   10.70
   2  -8  -3  139.27    5.71
   2  -8  -3  151.25   13.95
  -2  -8   3  147.88   11.17
  -2   8   2  688.34   25.35
  -2   8   2  706.17   30.55
  -2   8   2  729.22   27.72
  -2   8   2  731.78   39.24
   2   8  -2  734.00   25.88
   2   8  -2  737.27   29.45
   2   8  -2  690.91   39.61
   2   8  -2  698.85   27.79
   2  -8  -2  685.50   22.00
   2  -8  -2  673.37   26.66
   2  -8  -2  718.02   36.57
   2  -8  -2  745.15   34.14
  -2  -8   2  758.30   33.37
  -2  -8   2  706.03   25.46
  -2  -8   2  702.88   24.60
  -2   8   1  218.83    9.98
  -2   8   1  233.30   21.62
  -2   8   1  217.84   16.25
  -2   8   1  231.72   10.65
   2   8  -1  227.03   12.37
   2   8  -1  214.81   16.90
   2   8  -1  220.57   17.84
   2   8  -1  212.53   10.37
  -2   8   1  213.18    9.39
   2  -8  -1  187.23    7.53
   2  -8  -1  182.28    9.85
   2  -8  -1  195.99    9.70
   2  -8  -1  191.28   13.54
  -2  -8   1  192.53    8.91
  -2  -8   1  183.47   15.05
  -2  -8   1  178.95   11.82
   2   8   0 1435.14   53.69
  -2   8   0 1442.86   47.85
  -2   8   0 1423.66   56.00
  -2   8   0 1456.24   57.12
  -2   8   0 1427.70   60.62
   2   8   0 1482.57   54.38
   2   8   0 1328.53   53.72
   2   8   0 1497.18   51.15
  -2   8   0 1374.22   50.72
   2  -8   0 1412.15   52.66
   2  -8   0 1322.53   46.19
   2  -8   0 1363.97   51.15
   2  -8   0 1368.09   66.20
   2  -8   0 1417.00   52.04
  -2  -8   0 1364.66   53.09
  -2  -8   0 1380.16   54.94
  -2   8  -1  215.57   22.91
   2   8   1  223.13   18.87
   2   8   1  216.50   10.12
  -2   8  -1  227.09   12.60
   2  -8   1  230.28   14.33
   2  -8   1  231.38   14.15
   2  -8   1  224.93   13.39
   2  -8   1  221.18   11.15
   2  -8   1  223.73    8.21
  -2  -8  -1  228.89   14.88
  -2  -8  -1  222.54   20.77
  -2  -8  -1  209.38   10.82
  -2   8  -2   31.61    7.09
   2   8   2   26.23    2.74
  -2   8  -2   32.30    3.35
  -2   8  -2   21.89   10.30
   2  -8   2   31.10    4.71
  -2  -8  -2   28.49    4.86
  -2  -8  -2   30.26    6.94
  -2  -8  -2   30.08    6.72
  -2   8  -3  108.80   16.79
  -2   8  -3  136.12   18.95
  -2   8  -3  121.58    7.08
  -2  -8  -3  112.44    9.15
  -2  -8  -3  122.07   17.27
  -2  -8  -3  108.73   10.06
  -2   8  -4 1149.23   53.10
  -2   8  -4 1137.56   47.37
  -2  -8  -4 1159.85   48.87
  -2  -8  -4 1251.71   62.07
  -2   8  -5   85.84    6.89
  -2   8  -5   93.79   17.63
  -2  -8  -5   84.41    8.49
  -2   8  -6  150.23   11.76
  -2   8  -6  146.25    7.82
  -2   9   7    1.86    2.56
   2   9  -7    1.56    2.58
   2  -9  -7    1.69    4.93
  -2  -9   7    2.59    3.81
   2   9  -6   15.09    8.83
   2   9  -6   26.62   11.26
  -2   9   6   23.36    7.56
   2  -9  -6   26.37   11.57
  -2  -9   6   23.09    7.47
   2   9  -5  203.88   27.02
   2   9  -5  229.48   21.86
  -2   9   5  227.77   13.70
   2  -9  -5  224.38   17.62
  -2  -9   5  201.26   16.59
   2   9  -4  107.11   10.39
   2   9  -4   97.64   20.90
  -2   9   4  112.66    9.85
   2  -9  -4  112.27   11.88
  -2  -9   4   99.91    7.81
  -2   9   3   18.92    7.56
   2   9  -3   17.62    8.45
   2   9  -3   18.12    6.80
  -2   9   3   14.91    5.13
   2  -9  -3   11.89    5.45
  -2  -9   3   14.23    5.91
   2   9  -2  141.67   14.84
   2   9  -2  143.70   12.44
  -2   9   2  152.47   13.71
   2   9  -2  153.47    8.28
  -2   9   2  150.49   17.83
   2  -9  -2  112.35    8.47
   2  -9  -2  123.51    7.45
   2  -9  -2  128.15   14.09
  -2  -9   2  124.25    7.96
  -2   9   1 1619.39   60.13
  -2   9   1 1638.62   55.72
  -2   9   1 1699.52   82.71
   2   9  -1 1691.37   65.09
   2   9  -1 1627.50   62.89
   2   9  -1 1637.18   75.34
  -2   9   1 1583.05   62.93
   2  -9  -1 1730.26   62.27
   2  -9  -1 1670.99   60.87
   2  -9  -1 1801.04   71.60
  -2  -9   1 1791.41   68.73
  -2  -9   1 1648.35   64.25
  -2  -9   1 1712.63   67.04
  -2   9   0 1869.97   75.78
  -2   9   0 1730.14   66.22
  -2   9   0 1807.21   61.51
   2   9   0 1818.21   73.88
   2   9   0 1850.73   76.76
   2   9   0 1936.13   66.35
   2   9   0 1849.52   72.77
  -2   9   0 1761.29   71.72
  -2   9   0 1846.55   91.04
   2  -9   0 1986.90   71.94
   2  -9   0 1873.53   67.50
   2  -9   0 1928.53   69.12
  -2  -9   0 1910.13   76.85
  -2  -9   0 1880.10   70.37
  -2   9  -1 1704.66   66.83
  -2   9  -1 1616.68   81.75
   2   9   1 1585.81   65.75
   2  -9   1 1555.47   53.21
   2  -9   1 1616.21   61.66
   2  -9   1 1605.49   63.91
  -2  -9  -1 1613.99   62.34
  -2  -9  -1 1571.91   74.57
  -2   9  -2  357.35   12.54
   2   9   2  271.46   16.46
  -2   9  -2  355.71   29.46
  -2   9  -2  366.16   26.36
   2  -9   2  324.57   15.79
  -2  -9  -2  312.78   15.82
  -2  -9  -2  319.08   19.52
  -2   9  -3  572.18   20.81
  -2   9  -3  598.31   40.24
  -2   9  -3  575.65   29.86
  -2  -9  -3  559.50   26.04
  -2  -9  -3  602.08   38.71
  -2   9  -4 1835.99   79.58
  -2   9  -4 1844.83   72.49
  -2   9  -4 1876.80   83.01
  -2  -9  -4 1778.50   74.96
  -2  -9  -4 1922.53   81.90
  -2   9  -5  332.95   13.84
  -2   9  -5  336.73   29.78
  -2  -9  -5  366.24   24.14
  -2   9  -6   63.05    7.78
  -2   9  -6   57.66    4.61
  -2  10   7  177.43   10.50
   2  10  -7  166.20   10.02
   2 -10  -7  193.20   11.69
  -2 -10   7  191.70   10.18
   2  10  -6  620.58   31.60
   2  10  -6  660.96   35.13
  -2  10   6  682.45   32.08
   2 -10  -6  585.09   38.22
  -2 -10   6  545.18   23.48
   2  10  -5 1200.48   70.47
   2  10  -5 1307.32   56.37
  -2  10   5 1350.85   54.49
   2 -10  -5 1422.34   63.14
  -2 -10   5 1287.41   57.13
   2  10  -4  781.72   53.73
   2  10  -4  822.25   45.41
  -2  10   4  832.11   35.72
   2 -10  -4  885.98   41.14
  -2 -10   4  804.93   32.24
  -2  10   3  298.66   22.08
   2  10  -3  306.31   24.51
   2  10  -3  282.82   20.76
  -2  10   3  300.51   23.09
   2 -10  -3  269.71   17.52
  -2 -10   3  247.27   18.61
  -2  10   2   54.04    9.40
   2  10  -2   56.98   10.68
   2  10  -2   51.03    8.76
  -2  10   2   55.56   12.80
   2 -10  -2   31.24   10.32
  -2 -10   2   28.59    5.19
  -2  10   1 1047.78   44.74
   2  10  -1 1047.02   45.90
   2  10  -1 1008.16   41.31
  -2  10   1 1082.98   49.74
   2 -10  -1 1189.44   50.68
  -2 -10   1 1102.88   41.53
  -2 -10   1 1068.59   47.79
  -2  10   0  487.36   37.36
   2  10   0  464.78   26.29
   2  10   0  480.84   25.83
  -2  10   0  505.58   20.53
  -2  10   0  461.40   20.47
   2 -10   0  457.70   23.40
  -2 -10   0  453.77   29.21
  -2  10  -1  303.59   15.81
  -2  10  -1  282.59   20.15
   2  10   1  253.40   12.22
   2 -10   1  271.67   12.05
   2 -10   1  252.72    9.51
  -2 -10  -1  273.62   14.46
  -2 -10  -1  276.20   24.48
  -2  10  -2   13.67    8.04
  -2  10  -2   11.90    9.69
   2  10   2    1.49    4.38
   2 -10   2    8.19    3.24
   2 -10   2    6.80    4.42
  -2 -10  -2   10.47    4.08
  -2 -10  -2   12.64    8.71
  -2  10  -3   55.59   15.08
  -2  10  -3   47.23   14.93
  -2 -10  -3   44.11    7.28
  -2 -10  -3   45.41    9.42
  -2  10  -4  978.15   34.73
  -2  10  -4  999.87   46.53
  -2  10  -4 1006.61   53.67
  -2 -10  -4  952.11   41.46
  -2 -10  -4 1016.05   45.59
  -2  10  -5  411.69   23.23
  -2 -10  -5  398.28   19.78
  -2  10  -6  439.06   19.26
   2 -10   6  360.95   14.17
   2 -11  -7   78.27    6.91
  -2 -11   7   73.58    5.91
   2  11  -6  224.09   13.49
   2  11  -6  199.07   15.52
  -2  11   6  223.43   11.85
   2 -11  -6  229.25   22.02
  -2 -11   6  218.00   12.25
   2  11  -5  421.78   30.27
   2  11  -5  400.13   36.62
  -2  11   5  432.28   27.52
   2 -11  -5  444.15   25.54
  -2 -11   5  410.06   19.72
   2  11  -4  204.45   28.78
   2  11  -4  229.80   16.76
  -2  11   4  239.92   21.42
   2 -11  -4  247.67   18.08
  -2 -11   4  232.46   13.53
  -2  11   3  316.52   17.23
   2  11  -3  295.65   22.53
   2  11  -3  313.22   18.98
  -2  11   3  305.40   24.89
   2 -11  -3  345.82   20.31
  -2 -11   3  313.10   15.75
  -2  11   2  561.93   28.87
   2  11  -2  523.03   32.87
   2  11  -2  530.60   39.08
  -2  11   2  545.71   23.51
   2 -11  -2  523.98   25.17
  -2 -11   2  486.35   21.82
  -2  11   1  133.89   12.38
   2  11  -1  129.16   10.26
   2  11  -1  126.72   11.66
  -2  11   1  130.41   14.26
   2 -11  -1  125.98    9.86
  -2 -11   1  117.26    9.38
  -2 -11   1  111.33   13.40
  -2  11   0  703.95   33.49
   2  11   0  678.01   29.61
   2  11   0  688.72   36.35
  -2  11   0  624.94   27.23
  -2  11   0  685.48   37.24
   2 -11   0  777.42   30.04
  -2 -11   0  747.52   30.65
  -2 -11   0  757.56   40.41
  -2  11  -1  141.45   23.47
   2  11   1  120.91    9.41
  -2  11  -1  146.62   15.75
   2 -11   1  124.26   11.98
  -2 -11  -1  126.96   15.67
  -2 -11  -1  116.79   12.41
  -2  11  -2  369.07   23.61
   2  11   2  230.34   13.63
  -2  11  -2  394.39   20.38
   2 -11   2  306.32   17.60
  -2 -11  -2  290.78   22.84
  -2 -11  -2  313.72   29.19
  -2  11  -3  413.38   25.47
  -2  11  -3  388.18   35.40
  -2 -11  -3  481.35   23.93
  -2 -11  -3  516.67   27.34
  -2  11  -4   80.84   17.51
  -2  11  -4   62.55   10.23
   2 -11   4   89.86    7.40
  -2 -11  -4   93.38    9.03
  -2 -11  -4   99.46   16.21
  -2  11  -5  494.94   24.46
   2 -11   5  391.89   16.12
  -2 -11  -5  488.52   21.99
   2  12  -6  462.33   26.05
   2  12  -6  425.58   22.50
  -2  12   6  456.46   23.04
   2 -12  -6  468.31   28.67
  -2 -12   6  443.47   23.65
   2  12  -5  465.22   38.60
   2  12  -5  505.37   25.67
  -2  12   5  498.88   22.69
   2 -12  -5  536.85   36.37
  -2 -12   5  488.94   21.60
   2  12  -4  958.87   62.02
   2  12  -4 1016.67   55.73
  -2  12   4 1035.65   43.05
   2 -12  -4 1061.62   57.95
  -2 -12   4  939.46   45.74
  -2  12   3  831.84   42.19
   2  12  -3  747.37   51.73
   2  12  -3  825.30   46.90
  -2  12   3  782.78   35.32
   2 -12  -3  781.24   46.43
  -2 -12   3  710.03   30.90
  -2  12   2 1467.47   64.71
   2  12  -2 1479.83   63.21
   2  12  -2 1402.37   75.74
  -2  12   2 1480.84   75.73
   2 -12  -2 1432.60   68.69
  -2 -12   2 1346.91   54.92
  -2  12   1 1331.16   73.76
   2  12  -1 1285.15   54.02
   2  12  -1 1311.19   67.18
  -2  12   1 1268.26   54.41
   2 -12  -1 1320.66   60.92
  -2 -12   1 1291.74   52.59
  -2 -12   1 1277.49   52.07
  -2  12   0  111.71   22.46
   2  12   0  114.54    9.35
   2 -12   0  102.41    8.88
  -2 -12   0   99.74    9.60
  -2 -12   0  100.50   15.73
  -2  12  -1  559.76   45.19
   2  12   1  468.81   28.16
  -2  12  -1  559.82   25.59
   2 -12   1  539.95   27.35
  -2 -12  -1  545.58   26.05
  -2 -12  -1  543.47   28.39
  -2  12  -2  104.62   22.60
  -2  12  -2  108.06   17.09
  -2 -12  -2   95.85   15.73
  -2 -12  -2  104.54   18.92
  -2  12  -3  260.53   26.00
  -2  12  -3  237.40   19.18
  -2 -12  -3  241.32   21.52
  -2 -12  -3  255.46   26.65
  -2  12  -4  556.40   35.80
  -2  12  -4  544.01   36.95
  -2 -12  -4  536.68   30.35
  -2 -12  -4  591.72   36.37
  -2  12  -5  325.53   25.41
  -2 -12  -5  364.95   21.68
   2  13  -6    1.71    5.37
   2  13  -6    1.84    4.00
  -2  13   6    2.65    3.55
   2 -13  -6    3.59    4.67
  -2 -13   6    2.86    2.45
   2  13  -5   12.78   10.82
   2  13  -5    8.46    8.71
  -2  13   5   15.48    7.09
   2 -13  -5   14.60    8.80
  -2 -13   5   10.62    6.84
   2  13  -4  176.83   26.01
   2  13  -4  177.12   21.58
  -2  13   4  183.32   18.77
   2 -13  -4  199.50   22.40
  -2 -13   4  173.47   17.05
   2  13  -3  172.66   26.84
   2  13  -3  190.47   23.05
  -2  13   3  191.25   12.91
   2 -13  -3  212.36   22.85
  -2 -13   3  197.67   12.94
  -2  13   2  672.71   33.57
   2  13  -2  647.93   45.59
   2  13  -2  646.76   31.53
  -2  13   2  659.20   27.66
   2 -13  -2  683.78   40.15
  -2 -13   2  627.93   28.72
  -2  13   1  412.33   17.91
   2  13  -1  451.02   23.09
   2  13  -1  432.94   31.91
  -2  13   1  454.86   27.22
   2 -13  -1  375.72   20.60
  -2 -13   1  371.14   27.05
  -2  13   0  987.19   51.34
   2  13   0  972.85   41.08
   2 -13   0 1078.30   50.42
  -2 -13   0 1015.57   51.60
  -2 -13   0 1012.62   43.93
  -2  13  -1  101.42   14.96
   2  13   1   97.90    8.69
  -2  13  -1  115.34   24.52
   2 -13   1  139.13   13.30
  -2 -13  -1  138.01   17.01
  -2 -13  -1  133.90   12.43
  -2  13  -2   82.61   20.91
  -2  13  -2   95.88   10.17
  -2 -13  -2   67.43    9.32
  -2 -13  -2   60.72   17.01
  -2  13  -3  560.60   27.96
  -2  13  -3  547.71   40.81
  -2 -13  -3  540.58   25.85
  -2 -13  -3  581.17   37.73
  -2  13  -4  164.68   18.56
  -2  13  -4  157.01   11.94
  -2 -13  -4  126.10    8.80
  -2 -13  -4  169.91   17.91
   2  13   5   67.53    5.11
  -2  13  -5   66.05    7.46
   2  14  -5  262.93   18.46
   2  14  -5  268.18   21.90
  -2  14   5  280.88   13.55
   2 -14  -5  282.08   22.00
  -2 -14   5  271.97   19.29
   2  14  -4  633.89   34.52
   2  14  -4  702.39   32.44
  -2  14   4  697.08   28.75
   2 -14  -4  696.43   32.37
  -2 -14   4  652.64   35.33
   2  14  -3  317.02   31.72
   2  14  -3  331.39   27.52
  -2  14   3  335.63   22.15
   2 -14  -3  287.90   18.43
  -2 -14   3  261.54   22.36
  -2  14   2   58.25   15.08
   2  14  -2   59.19   10.83
   2  14  -2   62.07    9.13
  -2  14   2   63.40    6.84
   2 -14  -2   59.04   13.75
  -2 -14   2   47.77   12.39
  -2  14   1   83.28   10.13
   2  14  -1   93.41   17.08
   2  14  -1   85.74   10.06
  -2  14   1   91.48   12.93
   2 -14  -1  118.65   15.26
  -2 -14   1  111.80   15.22
  -2  14   0  199.65   26.93
   2  14   0  193.75   18.17
   2 -14   0  175.66   17.26
  -2 -14   0  169.22   19.25
  -2 -14   0  167.16   18.18
  -2  14  -1  183.71   17.42
   2  14   1  181.38   15.71
  -2  14  -1  182.54   18.89
   2 -14   1  184.89   15.99
  -2 -14  -1  178.44   19.51
  -2 -14  -1  189.36   14.08
  -2  14  -2   27.43    9.93
  -2  14  -2   33.10    9.40
  -2 -14  -2   20.19   10.31
  -2 -14  -2   28.75   11.44
  -2  14  -3   18.63    9.46
  -2  14  -3   27.92   11.61
  -2 -14  -3    9.79    8.38
  -2 -14  -3   29.56   10.19
  -2  14  -4  422.66   20.00
  -2  14  -4  416.23   19.58
  -2 -14  -4  445.96   27.65
   2  15  -4    1.73    4.32
   2  15  -4    2.32    3.64
  -2  15   4    2.30    2.70
   2 -15  -4    2.66    5.61
  -2 -15   4    3.60    2.95
   2  15  -3  105.32   12.93
   2  15  -3  111.67   16.41
  -2  15   3  109.66   12.29
   2 -15  -3   98.08   10.38
  -2 -15   3   89.64   13.95
  -2  15   2    9.90    5.66
   2  15  -2    6.89    5.34
   2  15  -2    7.82    6.05
  -2  15   2    9.26    8.27
   2 -15  -2   16.87    5.25
  -2 -15   2   11.71    7.68
   2  15  -1   43.21    7.90
   2  15  -1   44.82    7.37
  -2  15   1   44.27   14.86
   2 -15  -1   51.16   11.55
  -2 -15   1   53.65   12.11
  -2  15   0   89.53   20.29
   2  15   0   88.83   12.96
   2 -15   0   97.58   12.84
  -2 -15   0   98.99   14.95
  -2 -15   0   93.60   12.18
  -2  15  -1  123.58   14.05
   2 -15   1   95.61   11.75
  -2 -15  -1   85.99   14.45
  -2 -15  -1   87.35   14.59
  -2  15  -2   79.22   11.86
  -2  15  -2   75.59   11.93
  -2 -15  -2   84.04   13.28
  -2 -15  -2   83.25    9.31
  -2  15  -3  274.51   25.03
  -2  15  -3  270.00   19.73
  -2 -15  -3  264.39   17.87
  -2 -15  -3  306.34   16.54
   2  16  -4  167.43   19.24
   2  16  -4  182.96   16.79
  -2  16   4  185.30    9.08
   2 -16  -4  200.40   14.99
  -2 -16   4  187.77   14.55
   2  16  -3  330.87   24.15
   2  16  -3  291.12   25.90
  -2  16   3  304.56   17.19
   2 -16  -3  328.52   22.46
  -2 -16   3  312.80   21.13
  -2  16   2  376.74   14.83
   2  16  -2  387.59   26.14
   2  16  -2  380.49   28.75
  -2  16   2  407.90   25.86
   2 -16  -2  435.59   20.29
  -2 -16   2  387.83   24.89
   2  16  -1   59.14   11.79
   2  16  -1   66.33   11.83
  -2  16   1   73.06   15.12
   2 -16  -1   68.69   11.82
  -2 -16   1   62.28   12.82
  -2  16   0  112.41   19.28
   2  16   0  110.19   11.89
   2 -16   0  105.74   12.51
  -2 -16   0  103.90   14.45
  -2 -16   0   97.83   10.83
  -2  16  -1   16.96    7.63
   2 -16   1   26.82    3.90
  -2 -16  -1   13.40    8.31
  -2 -16  -1   12.16    5.00
  -2  16  -2  265.99   11.77
  -2  16  -2  274.00   18.30
  -2 -16  -2  262.40   18.69
  -2 -16  -2  280.75   20.30
   2  17  -2  231.70   17.68
   2  17  -2  261.50   13.01
   2 -17  -2  260.36   17.13
  -2 -17   2  252.47   13.29
  -2  17   1   36.95    5.76
   2  17  -1   35.50    7.13
   2 -17  -1   23.16    4.45
  -2 -17   1   12.91    5.13
  -2  17   0  202.86   20.58
   2 -17   0  195.10    9.33
  -2 -17   0  215.52   17.04
  -2  17  -1  294.95   17.00
  -2 -17  -1  253.04   17.42
   3   0  -8    3.32    5.99
   3   0  -7   11.96    6.07
   3   0  -6 1569.40   77.92
   3   0  -6 1573.70   69.56
   3   0  -6 1607.00   63.12
   3   0  -5  355.93   16.12
   3   0  -5  337.21   25.68
  -3   0   5  349.72   25.04
   3   0  -4 1450.17   56.16
   3   0  -4 1372.56   54.18
   3   0  -4 1417.28   58.51
  -3   0   4 1425.02   67.17
  -3   0   4 1411.99   56.72
  -3   0   4 1428.65   53.85
  -3   0   4 1438.51   49.88
   3   0  -3 1815.70   58.17
   3   0  -3 1857.32   68.78
   3   0  -3 1828.65   73.91
   3   0  -3 1759.37   58.67
   3   0  -3 1812.88   64.17
  -3   0   3 1796.22   68.47
  -3   0   3 1814.52   66.35
  -3   0   3 1886.12   67.25
  -3   0   3 1853.81   83.96
   3   0  -2 1589.70   59.79
   3   0  -2 1569.03   53.92
   3   0  -2 1431.01   50.13
   3   0  -2 1392.94   56.08
  -3   0   2 1438.92   51.27
  -3   0   2 1536.94   50.75
  -3   0   2 1537.42   61.46
  -3   0   2 1450.32   46.77
   3   0  -1  215.41    8.57
   3   0  -1  200.01   12.87
   3   0  -1  208.23   10.02
   3   0  -1  197.30   18.09
  -3   0   1  190.01   14.68
  -3   0   1  193.49   19.05
  -3   0   1  224.07   12.60
   3   0   0   32.16    4.67
   3   0   0   32.13    5.05
   3   0   0   33.31    7.29
   3   0   0   30.02    6.53
  -3   0   0   28.39    4.68
  -3   0   0   27.38    4.84
  -3   0   0   34.30    7.43
   3   0   1  644.18   24.02
   3   0   1  630.72   25.94
   3   0   1  642.68   21.56
  -3   0  -1  670.67   26.72
  -3   0  -1  651.25   28.33
  -3   0  -1  645.03   20.39
  -3   0  -1  606.07   24.89
   3   0   2    8.46    6.12
   3   0   2    6.23    1.84
  -3   0  -2    7.50    4.10
  -3   0  -2    7.26    3.49
  -3   0  -2    6.67    6.36
  -3   0  -3  813.43   35.06
  -3   0  -3  799.55   32.15
  -3   0  -4  751.46   32.63
  -3   0  -4  752.26   40.72
  -3   0  -5   45.87    7.38
  -3   0  -5   41.38    5.34
  -3   0  -6   12.75    5.56
  -3   0  -6    8.49    4.78
   3   1  -8  649.12   36.26
  -3   1   8  736.50   30.27
   3  -1  -8  619.20   28.66
   3   1  -7  683.85   41.87
   3  -1  -7  671.12   42.68
   3   1  -6 1053.51   41.35
   3   1  -6 1039.01   44.19
   3   1  -6 1072.21   47.54
   3  -1  -6 1053.99   57.72
   3  -1  -6 1090.02   44.16
   3   1  -5  716.59   27.60
   3   1  -5  689.84   31.31
  -3   1   5  741.81   29.49
  -3   1   5  745.94   39.43
  -3  -1   5  696.31   38.98
   3  -1  -5  683.29   31.65
   3  -1  -5  748.86   29.58
   3   1  -4 1147.67   44.03
   3   1  -4 1172.42   51.74
   3   1  -4 1191.21   49.98
  -3   1   4 1261.14   60.02
  -3   1   4 1217.55   46.43
  -3   1   4 1174.62   46.78
  -3   1   4 1176.97   44.57
  -3  -1   4 1136.71   42.53
  -3  -1   4 1147.51   39.38
   3  -1  -4 1196.90   56.63
  -3  -1   4 1203.09   58.67
   3  -1  -4 1185.66   42.42
   3  -1  -4 1184.06   53.31
  -3  -1   4 1192.20   48.83
   3   1  -3 5004.21  201.51
   3   1  -3 4695.10  186.05
   3   1  -3 5113.63  219.49
   3   1  -3 5218.00  238.80
  -3   1   3 5324.05  210.78
  -3   1   3 5121.86  209.93
   3   1  -3 5259.48  211.48
  -3   1   3 5184.67  212.23
  -3   1   3 5186.97  229.26
   3  -1  -3 5024.09  205.08
  -3  -1   3 5251.75  239.97
  -3  -1   3 5226.94  213.28
  -3  -1   3 5455.94  214.51
   3  -1  -3 5134.77  221.13
   3  -1  -3 5257.97  230.29
  -3  -1   3 5027.10  205.54
   3   1  -2  685.35   26.01
   3   1  -2  715.04   24.48
   3   1  -2  726.58   28.63
   3   1  -2  666.34   37.01
  -3   1   2  653.73   20.12
  -3   1   2  693.82   39.45
  -3   1   2  715.39   32.83
  -3   1   2  675.98   29.68
  -3  -1   2  654.83   29.60
  -3  -1   2  705.56   24.42
  -3  -1   2  650.52   18.44
  -3  -1   2  663.59   37.29
   3  -1  -2  634.41   19.62
   3  -1  -2  658.04   37.16
   3  -1  -2  689.60   24.31
  -3  -1   2  656.91   21.83
   3   1  -1 2252.26   75.23
   3   1  -1 2185.04   82.57
   3   1  -1 2018.04   77.67
   3   1  -1 2041.37   73.80
  -3   1   1 2092.88   75.52
  -3   1   1 2287.64   78.48
  -3   1   1 2091.45   82.44
   3  -1  -1 2019.97   78.80
  -3  -1   1 1999.08   73.82
  -3  -1   1 2180.06   81.16
  -3  -1   1 1918.75   54.47
  -3  -1   1 2050.25   88.14
   3  -1  -1 2278.92   82.06
   3  -1  -1 2034.10   75.90
   3  -1  -1 2139.91   81.29
  -3  -1   1 1903.70   56.00
   3   1   0  809.63   26.72
   3   1   0  762.33   32.33
   3   1   0  776.81   36.17
   3   1   0  776.75   26.82
  -3   1   0  819.98   35.09
  -3   1   0  787.85   36.97
  -3   1   0  765.94   27.68
   3  -1   0  773.45   34.94
  -3  -1   0  777.42   29.37
  -3  -1   0  813.60   35.98
  -3  -1   0  748.26   28.31
   3  -1   0  745.35   33.23
   3  -1   0  792.50   28.16
   3  -1   0  768.87   26.28
   3   1   1  303.09   21.05
   3   1   1  300.89   12.54
   3   1   1  305.97   15.09
  -3   1  -1  311.38   10.99
  -3   1  -1  299.50   16.20
  -3   1  -1  302.91   20.08
  -3   1  -1  298.55   12.02
  -3  -1  -1  291.26   11.83
  -3  -1  -1  274.15   10.14
   3  -1   1  267.42   13.21
  -3  -1  -1  280.35   17.48
   3  -1   1  291.23   14.56
   3  -1   1  285.51   11.21
  -3  -1  -1  289.78   14.18
   3   1   2  188.73   16.55
   3   1   2  166.06    9.49
  -3   1  -2  170.27   17.02
  -3   1  -2  166.84   10.28
  -3   1  -2  175.64   10.82
   3  -1   2  134.71    7.77
   3  -1   2  147.77   10.53
  -3  -1  -2  148.17    8.88
  -3  -1  -2  148.62   12.35
  -3  -1  -2  138.67   15.03
  -3   1  -3  704.21   31.54
  -3   1  -3  694.33   30.16
  -3  -1  -3  763.14   28.55
  -3  -1  -3  753.63   26.17
  -3  -1  -3  752.11   31.70
  -3   1  -4  801.13   35.90
  -3   1  -4  758.85   34.00
  -3  -1  -4  771.30   41.05
  -3  -1  -4  756.01   32.18
  -3   1  -5  450.46   30.28
  -3   1  -5  446.84   19.32
  -3  -1  -5  524.99   23.55
  -3  -1  -5  526.35   24.27
  -3   1  -6  301.64   17.18
  -3   1  -6  276.48   19.35
  -3  -1  -6  343.30   15.97
   3   2  -8   96.55   15.79
  -3   2   8  175.09    8.96
   3  -2  -8  104.58   10.96
  -3  -2   8  185.54   12.70
   3   2  -7    7.83    5.16
   3  -2  -7    9.48    4.38
   3  -2  -7   11.86    8.95
  -3  -2   7    8.88    3.23
   3   2  -6 1124.76   58.77
   3   2  -6 1111.15   55.60
   3  -2  -6 1276.12   59.29
   3  -2  -6 1189.23   52.87
  -3  -2   6 1191.47   43.28
   3   2  -5  790.94   42.38
  -3   2   5  842.85   36.42
  -3   2   5  839.24   30.63
   3  -2  -5  883.74   34.51
   3  -2  -5  854.30   45.83
  -3   2   4  457.15   16.95
   3   2  -4  453.47   15.94
   3   2  -4  458.71   24.12
   3   2  -4  465.09   30.35
  -3   2   4  469.57   28.83
  -3   2   4  465.88   16.91
  -3   2   4  456.19   16.29
   3  -2  -4  386.27   16.23
  -3  -2   4  404.14   21.92
  -3  -2   4  365.89   13.78
  -3  -2   4  384.64   28.18
  -3  -2   4  384.72   17.02
   3  -2  -4  383.25   18.80
   3  -2  -4  369.28   19.28
   3   2  -3 1546.50   54.29
   3   2  -3 1554.44   60.07
   3   2  -3 1573.66   72.93
  -3   2   3 1543.79   53.92
  -3   2   3 1548.78   51.30
  -3   2   3 1558.90   63.27
   3   2  -3 1619.91   54.03
  -3   2   3 1501.16   52.64
   3  -2  -3 1389.43   48.01
  -3  -2   3 1359.36   52.60
  -3  -2   3 1433.77   54.71
  -3  -2   3 1399.74   44.56
   3  -2  -3 1365.44   64.80
   3  -2  -3 1384.63   52.12
  -3  -2   3 1393.54   45.70
  -3  -2   3 1401.12   58.21
   3   2  -2  902.93   46.15
   3   2  -2  907.83   34.18
   3   2  -2  930.46   36.22
  -3   2   2  895.98   40.65
   3   2  -2  911.96   31.39
  -3   2   2  890.77   37.78
  -3   2   2  882.26   27.19
  -3   2   2  900.93   38.97
   3  -2  -2  933.30   38.76
   3  -2  -2 1003.13   39.53
  -3  -2   2  975.72   39.43
  -3  -2   2 1007.61   33.59
   3  -2  -2  922.70   29.21
   3  -2  -2  941.49   33.97
  -3  -2   2  943.09   27.53
   3  -2  -2  962.01   30.39
  -3  -2   2  903.41   32.48
  -3  -2   2 1012.82   35.53
   3   2  -1 2327.25   79.13
   3   2  -1 2369.28   90.50
   3   2  -1 2266.74   90.78
  -3   2   1 2339.00   88.23
  -3   2   1 2269.13   83.32
  -3   2   1 2365.15   85.99
  -3   2   1 2365.08  104.83
   3  -2  -1 2360.40   87.68
  -3  -2   1 2319.33   94.11
  -3  -2   1 2536.56   90.86
   3  -2  -1 2318.01   82.31
  -3  -2   1 2370.58   73.31
   3  -2  -1 2333.41  100.78
   3  -2  -1 2422.82   89.17
  -3  -2   1 2399.62  101.16
  -3  -2   1 2319.65   76.27
   3   2   0 4453.02  189.54
   3   2   0 4610.96  170.09
   3   2   0 4410.44  181.78
   3   2   0 4746.32  184.73
  -3   2   0 4744.28  195.49
  -3   2   0 4288.08  169.48
  -3   2   0 4422.84  190.41
   3  -2   0 4376.52  186.96
   3  -2   0 4036.65  169.02
  -3  -2   0 4310.74  176.28
  -3  -2   0 4247.96  178.58
  -3  -2   0 4075.06  172.80
   3  -2   0 4407.39  172.19
   3  -2   0 4459.46  181.82
   3  -2   0 4219.64  165.26
   3   2   1   61.59    5.06
   3   2   1   66.10   10.69
   3   2   1   63.47    4.80
  -3   2  -1   61.67    4.59
  -3   2  -1   66.06    4.35
  -3   2  -1   59.55    8.10
  -3   2  -1   64.11   10.24
  -3  -2  -1   44.35    9.19
  -3  -2  -1   41.47    3.20
  -3  -2  -1   43.29    2.84
  -3  -2  -1   44.41   10.04
   3  -2   1   43.56    9.67
   3  -2   1   41.46    5.46
   3  -2   1   40.46    4.59
   3   2   2  394.82   14.34
   3   2   2  388.77   18.32
  -3   2  -2  378.79   16.14
  -3   2  -2  375.48   17.58
  -3   2  -2  393.77   25.35
  -3  -2  -2  341.94   11.47
   3  -2   2  368.07   17.88
   3  -2   2  325.69   12.78
  -3  -2  -2  357.41   16.30
  -3  -2  -2  349.61   17.21
   3   2   3    1.98    1.62
  -3   2  -3    3.51    2.30
  -3   2  -3    0.18    3.59
  -3  -2  -3    3.07    3.79
  -3  -2  -3    2.91    2.62
  -3  -2  -3    2.93    3.19
  -3   2  -4  293.10   17.58
  -3   2  -4  280.41   13.34
  -3  -2  -4  242.43   14.67
  -3  -2  -4  235.81   10.62
  -3   2  -5   57.61   12.62
  -3   2  -5   50.41    9.11
  -3  -2  -5   42.54    9.46
  -3  -2  -5   36.84    6.58
  -3   2  -6  148.64   14.84
  -3   2  -6  156.88   12.75
  -3  -2  -6  157.28    7.14
   3   3  -8   41.00    6.04
   3  -3  -8   32.80    6.45
  -3  -3   8   34.26    7.07
   3   3  -7   55.36   13.55
   3  -3  -7   75.72   12.89
   3  -3  -7   70.05   15.65
  -3  -3   7   74.50    6.37
   3   3  -6 1373.67   66.31
   3   3  -6 1327.06   65.82
   3  -3  -6 1399.34   64.39
   3  -3  -6 1354.29   59.72
  -3  -3   6 1367.32   49.87
   3   3  -5   66.62   11.78
   3   3  -5   66.43   12.35
  -3   3   5   66.26    5.40
  -3   3   5   69.81    7.79
  -3  -3   5   44.19    7.22
   3  -3  -5   51.16   12.78
   3  -3  -5   49.69    6.88
   3   3  -4  710.15   32.82
   3   3  -4  694.45   25.52
   3   3  -4  770.86   27.09
   3   3  -4  684.97   31.78
  -3   3   4  721.45   29.84
  -3   3   4  734.99   39.06
   3  -3  -4  624.27   27.28
  -3  -3   4  627.32   31.17
   3  -3  -4  622.06   29.06
  -3  -3   4  608.73   23.42
  -3  -3   4  624.69   37.83
  -3  -3   4  609.68   23.51
  -3  -3   4  609.34   21.63
   3  -3  -4  610.20   34.11
  -3   3   3  731.79   26.21
   3   3  -3  699.61   24.96
   3   3  -3  766.26   29.36
   3   3  -3  725.68   26.14
   3   3  -3  797.60   28.40
   3   3  -3  731.30   42.07
  -3   3   3  727.63   26.41
  -3   3   3  750.19   33.44
   3  -3  -3  717.69   31.52
  -3  -3   3  754.06   41.53
  -3  -3   3  766.44   27.16
  -3  -3   3  698.56   28.84
  -3  -3   3  731.33   22.43
  -3  -3   3  709.19   23.73
   3  -3  -3  736.87   28.40
   3  -3  -3  742.61   24.83
   3  -3  -3  733.02   28.80
   3   3  -2  614.07   26.23
   3   3  -2  597.72   19.92
   3   3  -2  640.25   25.41
  -3   3   2  567.23   17.63
  -3   3   2  640.81   29.64
  -3   3   2  644.55   18.49
  -3   3   2  594.57   24.38
  -3   3   2  608.04   27.65
   3  -3  -2  619.62   20.83
   3  -3  -2  663.86   29.19
  -3  -3   2  600.40   22.72
  -3  -3   2  664.32   25.62
  -3  -3   2  602.38   16.84
   3  -3  -2  622.00   36.09
   3  -3  -2  630.87   18.65
   3  -3  -2  621.32   21.24
  -3  -3   2  610.10   35.00
  -3  -3   2  656.53   23.71
   3   3  -1  693.08   32.10
   3   3  -1  668.93   22.14
   3   3  -1  721.72   29.65
  -3   3   1  681.16   37.49
  -3   3   1  696.18   24.89
  -3   3   1  674.49   31.89
  -3   3   1  656.70   16.45
  -3   3   1  724.90   25.97
   3  -3  -1  658.70   17.88
  -3  -3   1  690.13   26.58
  -3  -3   1  730.48   30.79
  -3  -3   1  653.47   18.63
   3  -3  -1  718.70   27.82
   3  -3  -1  684.01   27.87
   3  -3  -1  694.32   29.63
   3  -3  -1  656.87   24.09
  -3  -3   1  683.95   20.92
  -3  -3   1  642.61   26.41
  -3   3   0  727.43   30.97
   3   3   0  779.63   27.79
   3   3   0  733.24   22.44
   3   3   0  709.73   35.15
  -3   3   0  785.63   32.94
  -3   3   0  735.63   36.68
  -3   3   0  725.36   25.14
   3  -3   0  747.84   28.17
  -3  -3   0  726.83   35.38
  -3  -3   0  756.25   28.24
   3  -3   0  756.79   29.96
  -3  -3   0  702.31   29.83
   3  -3   0  699.23   29.52
   3  -3   0  753.44   27.15
  -3   3  -1  900.39   34.34
   3   3   1  911.92   26.31
   3   3   1  924.28   43.16
  -3   3  -1  856.01   32.62
  -3   3  -1  904.94   30.44
   3   3   1  928.59   32.99
  -3   3  -1  931.56   34.72
  -3   3  -1  925.17   42.14
   3  -3   1  881.24   34.02
  -3  -3  -1  908.01   42.06
  -3  -3  -1  886.05   34.01
   3  -3   1  892.21   33.41
   3  -3   1  890.81   32.96
   3   3   2  113.02    7.11
   3   3   2  111.63    9.64
  -3   3  -2  103.77    9.70
  -3   3  -2  104.68    6.72
  -3   3  -2  110.53   15.64
   3  -3   2  128.58    9.64
  -3  -3  -2  128.26    9.06
  -3  -3  -2  118.71    6.19
   3  -3   2  120.74    9.51
  -3  -3  -2  119.11   13.57
   3  -3   2  127.27    6.46
  -3   3  -3  924.31   50.11
  -3   3  -3  907.51   34.06
  -3  -3  -3  958.83   44.59
  -3  -3  -3  939.07   33.55
  -3  -3  -3 1037.48   46.22
  -3   3  -4  941.98   36.27
  -3   3  -4  955.38   52.96
  -3  -3  -4  914.05   38.14
  -3   3  -5  122.84   13.06
  -3   3  -5  135.08   12.14
  -3  -3  -5  116.25   13.24
  -3   3  -6  494.96   22.40
  -3   3  -6  460.88   23.14
   3   4  -8  159.31   13.81
   3  -4  -8  153.06    9.30
   3  -4  -8  142.40   10.44
  -3  -4   8  149.63   11.44
   3   4  -7   53.63   12.04
   3  -4  -7   61.04   12.33
   3  -4  -7   58.45   13.65
  -3  -4   7   60.15    5.93
   3   4  -6  151.55   17.15
   3   4  -6  151.94   18.84
  -3   4   6  151.50    8.77
   3  -4  -6  138.46   11.45
  -3  -4   6  140.26    8.44
   3  -4  -6  137.76   12.96
   3   4  -5 1154.23   58.87
  -3   4   5 1179.20   56.39
  -3   4   5 1195.33   49.18
   3   4  -5 1152.38   53.23
  -3  -4   5 1191.63   46.13
   3  -4  -5 1270.45   57.43
   3  -4  -5 1173.79   57.71
   3   4  -4 1861.36   71.57
   3   4  -4 1870.99   71.90
   3   4  -4 1809.45   74.90
   3   4  -4 1844.42   76.32
  -3   4   4 1905.26   87.49
  -3   4   4 1904.24   76.17
  -3   4   4 1832.47   67.73
   3  -4  -4 1901.73   83.18
  -3  -4   4 1877.73   65.00
  -3  -4   4 1850.43   64.76
   3  -4  -4 1875.00   77.33
  -3  -4   4 1959.27   82.85
   3  -4  -4 1962.60   75.10
   3   4  -3  125.89    8.58
   3   4  -3  126.50    7.06
   3   4  -3  123.91   19.34
   3   4  -3  116.96    9.15
   3   4  -3  134.90    5.90
  -3   4   3  128.08   11.39
  -3   4   3  124.41   11.78
  -3   4   3  122.41    5.51
   3  -4  -3  123.63   16.50
  -3  -4   3  121.14   10.80
  -3  -4   3  114.75    9.55
  -3  -4   3  122.40    6.16
  -3  -4   3  121.06    5.18
   3  -4  -3  133.00   10.49
   3  -4  -3  125.31    8.61
   3  -4  -3  126.81    9.36
  -3  -4   3  125.37   16.97
   3   4  -2 2326.28   86.41
   3   4  -2 2096.18   75.91
   3   4  -2 2299.02   84.87
  -3   4   2 2190.16   92.62
  -3   4   2 2113.67   71.55
  -3   4   2 2177.54   80.25
  -3   4   2 2224.62   91.04
  -3  -4   2 2151.95   86.84
  -3  -4   2 2308.98   84.57
  -3  -4   2 2166.29   86.90
  -3  -4   2 2132.18   72.43
   3  -4  -2 2275.09   82.02
   3  -4  -2 2349.91   90.95
   3  -4  -2 2264.90   92.19
   3  -4  -2 2253.40   83.57
   3   4  -1  258.51    9.00
   3   4  -1  282.09   15.16
  -3   4   1  257.74   12.36
   3   4  -1  272.25   18.11
  -3   4   1  288.73   22.72
  -3   4   1  290.77   12.02
  -3   4   1  264.06   10.85
  -3   4   1  257.83    6.50
   3  -4  -1  205.22    7.84
  -3  -4   1  196.82   16.60
  -3  -4   1  191.01   11.56
   3  -4  -1  202.42   12.89
   3  -4  -1  198.91   13.29
   3  -4  -1  195.92    9.65
   3  -4  -1  202.73   20.44
  -3  -4   1  210.14   15.06
  -3  -4   1  202.16    8.48
   3   4   0 1234.61   53.42
   3   4   0 1311.73   45.53
   3   4   0 1230.84   36.68
  -3   4   0 1307.32   50.08
  -3   4   0 1218.75   40.90
  -3   4   0 1231.53   55.63
  -3   4   0 1140.09   44.64
   3  -4   0 1104.76   51.34
  -3  -4   0 1121.57   33.83
  -3  -4   0 1114.35   43.60
  -3  -4   0 1140.74   48.40
  -3  -4   0 1098.97   43.03
   3  -4   0 1150.47   42.01
   3  -4   0 1106.27   45.27
   3  -4   0 1061.57   41.62
  -3  -4   0 1045.26   32.59
   3   4   1   81.19    8.53
  -3   4  -1   85.50    8.40
  -3   4  -1   82.46    8.15
  -3   4  -1   79.86    8.16
   3   4   1   82.71   10.82
  -3   4  -1   79.83    7.22
  -3   4  -1   76.89    7.32
  -3  -4  -1  131.65   14.07
  -3  -4  -1  133.53    8.42
   3  -4   1  134.11   12.34
   3  -4   1  123.58   11.56
   3  -4   1  128.92    7.93
   3   4   2  467.99   23.59
  -3   4  -2  451.19   22.16
  -3   4  -2  436.03   23.21
  -3   4  -2  450.68   17.32
  -3  -4  -2  474.12   25.85
   3  -4   2  507.17   22.72
  -3  -4  -2  502.76   22.35
  -3   4  -3  408.48   30.82
  -3   4  -3  407.95   22.49
  -3  -4  -3  430.85   25.19
  -3  -4  -3  489.13   27.80
  -3   4  -4   18.59   10.45
  -3   4  -4   17.47    7.09
  -3  -4  -4   10.84    7.05
  -3   4  -5  186.19   20.99
  -3   4  -5  173.76   10.65
  -3   4  -6  101.38   13.28
  -3   4  -6   96.86    7.02
   3   5  -8  614.35   26.32
   3  -5  -8  568.80   27.53
   3  -5  -8  497.53   26.49
  -3  -5   8  535.60   19.67
   3   5  -7  245.38   19.37
   3   5  -7  240.91   15.83
   3  -5  -7  298.61   22.55
   3  -5  -7  276.33   22.91
  -3  -5   7  276.59   12.58
   3   5  -6  964.65   46.56
   3   5  -6  981.98   54.65
  -3   5   6 1026.98   43.09
   3  -5  -6  972.78   43.60
   3  -5  -6 1037.01   51.79
  -3  -5   6  954.76   35.91
   3   5  -5   12.27    6.41
   3   5  -5   13.93    9.45
  -3   5   5   13.92    3.85
  -3   5   5   11.76    4.80
  -3  -5   5   10.04    4.91
   3  -5  -5    9.53    8.02
   3  -5  -5   13.07    7.56
   3   5  -4  342.33   17.94
   3   5  -4  309.97   17.79
   3   5  -4  315.30   19.31
   3   5  -4  346.37   14.53
  -3   5   4  330.15   15.42
  -3   5   4  331.51   19.22
  -3  -5   4  356.81   13.81
   3  -5  -4  382.85   17.20
   3  -5  -4  365.57   23.60
  -3  -5   4  353.72   12.91
   3   5  -3   79.46   16.57
   3   5  -3   66.22    5.24
   3   5  -3   73.15    4.76
   3   5  -3   70.88    8.34
   3   5  -3   77.47    6.09
  -3   5   3   79.01    8.33
  -3   5   3   85.61   10.31
  -3   5   3   75.06    6.09
   3   5  -3   85.77    9.17
   3  -5  -3   75.48    8.55
  -3  -5   3   68.87    4.13
  -3  -5   3   68.72    7.91
  -3  -5   3   67.62    5.82
   3  -5  -3   77.29    8.95
   3  -5  -3   72.66    6.70
   3  -5  -3   70.27    7.25
  -3  -5   3   81.26    6.41
   3   5  -2 1161.70   48.51
   3   5  -2 1058.23   42.20
   3   5  -2 1116.70   39.25
   3   5  -2 1193.39   40.00
  -3   5   2 1080.80   33.29
  -3   5   2 1169.92   58.23
  -3   5   2 1136.11   52.42
  -3   5   2 1165.91   42.13
  -3  -5   2 1260.55   45.63
  -3  -5   2 1166.33   38.54
   3  -5  -2 1151.49   42.73
   3  -5  -2 1181.59   57.02
   3  -5  -2 1229.95   44.03
   3  -5  -2 1207.17   47.59
  -3  -5   2 1153.52   47.51
   3   5  -1  484.83   18.15
   3   5  -1  438.51   19.35
   3   5  -1  440.57   17.79
  -3   5   1  454.98   22.76
  -3   5   1  430.44   24.39
  -3   5   1  427.32   11.90
  -3   5   1  430.93   20.44
  -3   5   1  465.75   17.76
  -3  -5   1  446.32   19.30
  -3  -5   1  418.41   14.61
  -3  -5   1  462.58   23.04
   3  -5  -1  480.44   20.88
   3  -5  -1  444.00   13.98
   3  -5  -1  449.32   29.56
   3  -5  -1  468.90   17.16
  -3  -5   1  420.82   15.23
   3   5   0  260.67   14.49
   3   5   0  285.34   17.62
   3   5   0  257.98   10.43
  -3   5   0  262.51   13.76
  -3   5   0  267.98   22.27
  -3   5   0  236.19   14.76
  -3   5   0  268.54   15.75
  -3  -5   0  276.57    9.48
  -3  -5   0  256.65   14.66
  -3  -5   0  260.21    9.91
  -3  -5   0  264.28   17.78
   3  -5   0  257.89   20.92
   3  -5   0  263.13   10.29
   3  -5   0  255.99   10.83
   3  -5   0  264.59   12.38
   3   5   1  101.48    7.83
   3   5   1   94.71    8.73
  -3   5  -1  101.24   13.29
  -3   5  -1   96.07    5.90
  -3   5  -1  127.06    7.82
  -3   5  -1   99.03   12.56
  -3   5  -1   92.58    7.20
  -3  -5  -1   92.67   12.31
   3  -5   1   84.33    8.25
  -3  -5  -1   87.81   14.23
   3  -5   1   85.05   12.19
   3  -5   1   89.32    7.44
  -3   5  -2  756.73   40.31
  -3   5  -2  739.60   36.01
  -3   5  -2  754.15   30.91
  -3  -5  -2  680.94   28.48
   3  -5   2  740.82   28.54
  -3  -5  -2  728.10   38.82
  -3   5  -3  871.74   40.34
  -3   5  -3  847.75   32.53
  -3  -5  -3  882.24   35.96
  -3  -5  -3  948.35   40.36
  -3   5  -4  908.47   53.24
  -3   5  -4  890.33   34.77
  -3  -5  -4  878.45   41.72
  -3  -5  -4  912.18   44.38
  -3   5  -5  195.50   14.89
  -3   5  -5  199.27   16.20
  -3   5  -6  463.04   20.98
  -3   5  -6  468.83   22.98
   3   6  -8  100.20    5.55
   3  -6  -8  101.44    6.97
   3  -6  -8  116.78   11.26
  -3  -6   8  113.78    9.59
   3   6  -7  160.85   14.17
   3   6  -7  142.28   18.43
   3  -6  -7  185.06   12.38
   3  -6  -7  175.59   12.22
  -3  -6   7  172.18    9.46
   3   6  -6  292.73   19.94
  -3   6   6  301.23   13.97
   3   6  -6  281.80   18.81
   3  -6  -6  269.32   23.94
  -3  -6   6  264.34   12.64
   3  -6  -6  282.21   16.91
   3   6  -5  428.26   18.76
   3   6  -5  441.98   34.28
  -3   6   5  489.30   26.08
   3  -6  -5  447.40   29.07
  -3  -6   5  428.74   16.99
   3  -6  -5  478.32   23.24
   3   6  -4  200.24   14.49
   3   6  -4  159.69   13.70
  -3   6   4  170.61   18.98
  -3   6   4  166.28   14.86
  -3  -6   4  126.56    9.73
   3  -6  -4  142.55   10.51
   3  -6  -4  148.77   15.91
   3   6  -3  280.81   16.46
   3   6  -3  302.67   18.00
   3   6  -3  280.67   23.08
   3   6  -3  291.41   12.22
  -3   6   3  285.46   10.14
  -3   6   3  301.24   18.05
  -3   6   3  295.60   18.65
   3  -6  -3  230.37   12.23
  -3  -6   3  245.93   12.36
  -3  -6   3  225.24   14.01
  -3  -6   3  231.64   12.03
   3  -6  -3  224.13   12.62
   3  -6  -3  229.77   21.40
   3  -6  -3  251.16   16.54
   3   6  -2  883.89   36.49
   3   6  -2  746.10   31.34
   3   6  -2  831.98   30.52
  -3   6   2  804.39   35.98
  -3   6   2  757.30   31.77
  -3   6   2  738.59   23.79
  -3   6   2  798.20   34.45
   3   6  -2  796.12   30.87
  -3  -6   2  746.03   26.42
  -3  -6   2  693.72   27.56
  -3  -6   2  699.20   25.28
   3  -6  -2  748.69   26.29
   3  -6  -2  720.10   26.82
   3  -6  -2  707.24   28.34
   3  -6  -2  722.19   33.05
   3   6  -1 1097.59   43.27
   3   6  -1 1022.29   47.16
   3   6  -1 1022.51   43.89
  -3   6   1  978.64   44.03
  -3   6   1 1041.93   53.98
  -3   6   1  984.18   35.05
  -3   6   1 1047.33   37.43
  -3  -6   1  985.75   45.72
  -3  -6   1 1024.84   43.98
  -3  -6   1  937.16   32.78
   3  -6  -1 1095.06   34.97
   3  -6  -1 1045.24   35.77
   3  -6  -1 1040.26   40.93
   3  -6  -1 1003.06   42.91
  -3  -6   1 1005.09   35.41
   3   6   0 1422.83   64.13
   3   6   0 1499.13   55.41
   3   6   0 1382.11   53.75
  -3   6   0 1349.97   50.46
  -3   6   0 1421.41   52.29
  -3   6   0 1423.56   59.77
  -3   6   0 1409.99   49.62
  -3  -6   0 1361.87   47.99
  -3  -6   0 1445.97   65.26
  -3  -6   0 1456.63   54.64
   3  -6   0 1498.46   59.56
   3  -6   0 1337.43   50.61
   3  -6   0 1537.87   55.70
   3  -6   0 1478.01   68.40
  -3  -6   0 1455.42   48.17
   3   6   1   50.99   10.69
  -3   6  -1   58.51    9.71
  -3   6  -1   47.95    5.61
  -3   6  -1   50.80    3.42
  -3   6  -1   47.96   11.41
  -3  -6  -1   35.35   11.81
  -3  -6  -1   36.42    5.71
   3  -6   1   41.12    5.99
   3  -6   1   28.92   10.35
   3  -6   1   36.07    7.52
   3  -6   1   31.61    3.94
  -3   6  -2 1444.27   59.50
  -3   6  -2 1452.50   60.03
  -3   6  -2 1480.33   52.40
  -3  -6  -2 1315.17   59.13
  -3  -6  -2 1357.99   66.02
  -3   6  -3 1893.48   76.39
  -3   6  -3 1935.29   83.16
  -3  -6  -3 1825.01   85.08
  -3  -6  -3 1759.06   77.82
  -3   6  -4   21.45    8.06
  -3   6  -4   21.91    8.17
  -3  -6  -4   31.42    4.90
  -3  -6  -4   30.66    9.52
  -3   6  -5   56.40   14.41
  -3   6  -5   57.33    6.19
  -3   6  -6  100.47   13.10
  -3   6  -6  104.64    6.84
   3  -7  -8   79.76    9.12
  -3  -7   8   71.56    7.93
   3   7  -7  274.63   21.58
   3  -7  -7  235.06   19.65
   3  -7  -7  204.29   17.37
  -3  -7   7  224.13   11.14
   3   7  -6   58.49    9.72
  -3   7   6   66.84    9.48
   3  -7  -6   41.84   12.18
  -3  -7   6   41.74    8.54
   3  -7  -6   34.19   11.56
   3   7  -5  132.10    9.94
   3   7  -5  125.46   21.83
  -3   7   5  135.85   10.32
   3  -7  -5  172.69   18.15
  -3  -7   5  153.89    8.63
   3  -7  -5  159.53   11.70
   3   7  -4  547.76   23.75
   3   7  -4  481.47   36.69
  -3   7   4  512.77   29.42
  -3   7   4  508.18   26.70
   3  -7  -4  533.82   29.80
   3  -7  -4  571.50   25.84
  -3  -7   4  510.63   23.18
   3   7  -3   94.06   17.08
   3   7  -3  100.12    7.95
  -3   7   3  108.46   18.17
  -3   7   3  113.77    8.72
  -3  -7   3   91.34    8.31
   3  -7  -3   98.93   11.84
   3  -7  -3  101.54    8.03
   3   7  -2  896.84   33.97
   3   7  -2  828.81   43.25
  -3   7   2  846.03   28.27
  -3   7   2  905.52   50.48
  -3   7   2  855.49   38.24
   3  -7  -2  911.20   36.55
  -3  -7   2  899.14   33.48
   3  -7  -2  888.73   36.60
   3  -7  -2  850.14   33.18
  -3  -7   2  841.87   38.23
  -3  -7   2  892.53   35.74
   3   7  -1  172.39    9.24
   3   7  -1  173.47   17.75
   3   7  -1  160.93   10.49
  -3   7   1  172.92   14.42
  -3   7   1  157.04   14.75
  -3   7   1  161.11   12.20
   3  -7  -1  183.13   11.91
  -3  -7   1  172.90    9.61
   3  -7  -1  176.29   12.20
   3  -7  -1  175.30   13.98
  -3  -7   1  174.54   11.72
  -3  -7   1  182.18    9.94
   3   7   0  983.84   39.77
  -3   7   0  925.65   39.28
  -3   7   0  987.81   41.11
  -3   7   0  975.83   44.00
  -3   7   0  977.49   37.81
  -3  -7   0  981.00   31.53
  -3  -7   0  981.11   49.34
  -3  -7   0  961.82   37.23
  -3  -7   0  880.62   33.49
   3  -7   0  975.54   33.24
   3  -7   0  989.62   36.96
   3  -7   0 1002.39   38.55
  -3   7  -1  246.06   23.53
  -3   7  -1  249.81   19.18
  -3  -7  -1  234.70   12.85
  -3  -7  -1  246.88   16.17
   3  -7   1  242.09   10.14
  -3   7  -2  192.24   14.41
  -3   7  -2  203.38    9.93
  -3   7  -2  197.76   20.26
  -3  -7  -2  196.29   16.39
  -3  -7  -2  215.94   22.72
  -3   7  -3 1187.89   43.43
  -3   7  -3 1160.07   62.24
  -3  -7  -3 1110.38   58.01
  -3  -7  -3 1024.73   47.76
  -3   7  -4  247.43   12.48
  -3   7  -4  261.21   26.93
  -3  -7  -4  214.62   21.41
  -3   7  -5  249.67   25.05
  -3   7  -5  250.27   16.65
  -3   7  -6  244.18   17.60
   3  -7   6  209.37    9.30
   3   8  -7   74.21   12.85
  -3   8   7   75.81    5.56
   3  -8  -7   79.71   11.90
  -3  -8   7   70.89    6.09
   3  -8  -7   64.53    9.04
   3   8  -6  231.00   17.78
  -3   8   6  239.85   17.12
   3  -8  -6  188.59   17.63
   3  -8  -6  224.10   21.37
  -3  -8   6  198.20   15.25
   3   8  -5   40.48    6.65
   3   8  -5   42.49   15.77
  -3   8   5   44.18    6.70
   3  -8  -5   47.50   12.28
  -3  -8   5   44.69    8.09
   3  -8  -5   34.90   10.35
   3   8  -4   50.22   11.45
   3   8  -4   49.63   16.31
  -3   8   4   52.70   11.59
  -3   8   4   50.90    8.73
  -3  -8   4   50.89    7.97
   3  -8  -4   51.57    6.81
   3  -8  -4   59.51   12.14
   3   8  -3  264.71   18.11
  -3   8   3  283.47   14.63
  -3   8   3  290.66   25.51
   3   8  -3  279.40   19.47
  -3  -8   3  227.20   10.66
   3  -8  -3  246.51   18.75
   3  -8  -3  235.31   12.68
   3   8  -2 2073.36   87.42
   3   8  -2 2129.98   99.78
  -3   8   2 2025.15   73.00
  -3   8   2 2272.20   93.49
  -3   8   2 2240.05  108.07
  -3  -8   2 2259.67   86.89
   3  -8  -2 2438.43   92.48
   3  -8  -2 2374.90   90.04
  -3  -8   2 2160.76   86.07
   3   8  -1  858.95   39.91
   3   8  -1  687.56   36.32
  -3   8   1  717.12   36.46
  -3   8   1  706.13   31.48
  -3  -8   1  765.25   30.15
  -3  -8   1  826.85   28.71
   3  -8  -1  806.65   32.46
  -3  -8   1  783.37   33.10
  -3   8   0  518.92   22.06
  -3   8   0  521.85   25.09
  -3   8   0  551.11   25.97
  -3   8   0  562.37   29.17
  -3  -8   0  517.95   22.51
   3  -8   0  540.29   19.31
  -3  -8   0  535.31   18.04
  -3  -8   0  533.26   25.83
   3  -8   0  487.80   18.02
  -3   8  -1 1379.69   61.91
  -3   8  -1 1381.62   70.82
  -3  -8  -1 1254.14   55.94
  -3  -8  -1 1358.14   59.31
   3  -8   1 1316.05   46.39
  -3   8  -2  161.89   21.50
  -3   8  -2  167.21   20.92
  -3  -8  -2  193.75   11.49
  -3  -8  -2  221.23   23.82
   3  -8   2  213.07    9.83
  -3   8  -3  686.14   44.65
  -3   8  -3  673.44   39.72
  -3   8  -3  703.50   26.78
  -3  -8  -3  710.19   28.82
  -3  -8  -3  778.79   35.91
  -3   8  -4  629.23   24.61
  -3   8  -4  638.01   43.46
  -3  -8  -4  748.20   41.25
  -3   8  -5   22.03    6.42
   3  -8   5    0.16    2.12
  -3   8  -6  226.81   16.59
   3  -8   6  225.50   11.88
   3   9  -7  713.72   38.16
  -3   9   7  737.42   25.79
  -3  -9   7  764.35   32.40
   3  -9  -7  805.26   36.58
   3   9  -6  199.55   16.71
  -3   9   6  209.69   16.41
   3  -9  -6  211.04   19.98
  -3  -9   6  184.30   14.66
   3   9  -5   78.76   13.68
   3   9  -5   73.39   20.31
  -3   9   5   78.07    8.92
   3  -9  -5  116.24   16.01
  -3  -9   5  101.36   10.93
   3  -9  -5  103.20   12.49
   3   9  -4  407.30   26.85
   3   9  -4  387.86   35.51
  -3   9   4  393.69   29.55
  -3   9   4  413.62   26.83
  -3  -9   4  341.87   15.56
   3  -9  -4  349.01   22.11
   3  -9  -4  371.55   26.95
   3   9  -3 2130.19   96.99
  -3   9   3 2315.43   92.51
  -3   9   3 2319.02  111.90
   3   9  -3 2251.03   99.16
  -3  -9   3 2307.86   88.54
   3  -9  -3 2389.38  103.87
   3  -9  -3 2094.49   89.95
   3   9  -2 1222.86   57.40
   3   9  -2 1272.34   56.22
  -3   9   2 1300.88   56.60
  -3   9   2 1330.92   70.70
  -3  -9   2 1295.59   57.14
  -3  -9   2 1291.82   52.10
   3  -9  -2 1424.77   59.22
   3  -9  -2 1285.61   48.59
   3   9  -1  195.74   13.07
  -3   9   1  203.81   17.40
   3   9  -1  166.58   16.34
  -3   9   1  200.48   14.44
  -3  -9   1  204.06   10.03
   3  -9  -1  201.54    9.65
  -3  -9   1  208.14   19.07
   3   9   0  279.20   21.32
  -3   9   0  280.31   20.41
  -3   9   0  285.09   17.66
  -3   9   0  259.86   14.27
  -3  -9   0  261.41   12.20
   3  -9   0  280.76   15.34
  -3  -9   0  272.14   17.63
   3   9   1  343.87   17.05
  -3   9  -1  434.16   35.37
  -3   9  -1  436.89   26.83
   3  -9   1  424.62   16.13
  -3  -9  -1  414.63   23.67
  -3   9  -2  300.14   28.39
  -3   9  -2  303.44   25.63
   3  -9   2  274.34   15.58
  -3  -9  -2  279.92   19.57
  -3   9  -3  136.73   21.42
  -3   9  -3  129.53   19.09
   3  -9   3  156.38    8.51
  -3  -9  -3  164.43   14.10
  -3   9  -4  264.48   26.20
  -3  -9  -4  240.49   15.96
   3  -9   4  229.18   10.73
  -3   9  -5   99.38   15.58
  -3  -9  -5   76.06    6.69
   3  -9   5   77.48    5.46
   3  10  -7   79.30   11.42
  -3  10   7   78.86    4.98
  -3 -10   7   71.20    9.11
   3 -10  -7   73.59    6.56
   3  10  -6  109.37    8.81
   3  10  -6   99.87   12.40
  -3  10   6  120.37   12.95
  -3 -10   6  115.06   12.66
   3 -10  -6  121.83   15.10
   3  10  -5  210.47   20.61
   3  10  -5  200.06   28.19
  -3  10   5  215.18   19.54
  -3 -10   5  220.73   17.23
   3 -10  -5  246.41   21.90
   3  10  -4  152.30   17.83
   3  10  -4  122.61   24.74
  -3  10   4  148.04   17.28
  -3  10   4  147.05   13.04
   3 -10  -4  146.83   18.10
  -3 -10   4  137.31    9.50
   3  10  -3  432.89   22.27
   3  10  -3  409.01   25.72
  -3  10   3  437.63   27.36
  -3  10   3  435.68   33.64
   3 -10  -3  447.25   27.99
  -3 -10   3  414.79   18.21
   3  10  -2 1403.20   71.77
   3  10  -2 1460.41   59.05
  -3  10   2 1490.12   63.17
  -3  10   2 1516.60   79.09
  -3 -10   2 1280.14   57.97
  -3 -10   2 1294.17   55.63
   3 -10  -2 1434.38   62.23
   3 -10  -2 1255.19   48.68
   3  10  -1  288.56   17.13
  -3  10   1  282.14   17.79
   3  10  -1  291.25   22.55
  -3  10   1  296.88   21.88
  -3 -10   1  304.64   17.22
   3 -10  -1  301.95   12.96
  -3 -10   1  302.25   13.99
   3  10   0  288.52   19.77
  -3  10   0  329.72   21.87
  -3 -10   0  245.37   17.40
   3 -10   0  232.30   14.27
  -3 -10   0  224.71   16.09
   3  10   1  343.70   17.92
  -3  10  -1  358.21   24.82
  -3  10  -1  341.47   34.01
   3 -10   1  363.23   14.53
  -3 -10  -1  363.66   22.33
  -3  10  -2  776.46   49.05
   3  10   2  595.27   28.36
  -3  10  -2  809.11   45.38
  -3 -10  -2  905.10   41.50
   3 -10   2  905.34   35.28
  -3  10  -3  549.82   36.27
  -3  10  -3  591.88   38.85
   3 -10   3  529.83   20.22
  -3 -10  -3  556.89   38.80
  -3  10  -4  215.86   22.56
  -3 -10  -4  174.26   19.08
   3 -10   4  160.35   11.63
  -3  10  -5   24.29   11.70
  -3 -10  -5   47.14    7.96
   3 -10   5   43.96    5.84
   3  11  -6  186.46   15.21
   3  11  -6  187.25   15.41
  -3  11   6  201.22   10.83
  -3 -11   6  195.68   10.50
   3 -11  -6  193.09   16.62
   3  11  -5  222.22   28.41
   3  11  -5  248.58   21.67
  -3  11   5  241.82   19.95
   3 -11  -5  259.33   22.10
  -3 -11   5  231.06   17.72
   3  11  -4  767.13   53.62
   3  11  -4  865.62   38.08
  -3  11   4  849.02   43.05
  -3 -11   4  709.41   29.48
   3 -11  -4  787.96   43.56
   3  11  -3  342.41   20.44
   3  11  -3  305.99   32.90
  -3  11   3  333.82   30.29
  -3  11   3  330.45   24.04
   3 -11  -3  397.61   26.15
  -3 -11   3  360.58   16.92
   3  11  -2  125.27   11.68
   3  11  -2  123.47   20.56
  -3  11   2  125.40    9.73
  -3  11   2  132.77   23.39
   3 -11  -2  151.04   10.37
  -3 -11   2  138.81   14.10
   3  11  -1  668.05   38.29
   3  11  -1  670.07   38.78
  -3  11   1  676.39   26.59
  -3  11   1  702.35   38.36
  -3 -11   1  642.27   32.51
  -3 -11   1  653.81   37.25
   3  11   0  105.76    9.87
  -3  11   0  117.85   15.22
  -3 -11   0  115.54   17.71
  -3 -11   0  107.37    8.64
   3  11   1  728.91   36.15
  -3  11  -1  822.62   41.59
  -3  11  -1  824.65   42.68
   3 -11   1  780.11   28.80
  -3 -11  -1  798.82   38.91
   3  11   2  308.91   19.69
  -3  11  -2  402.84   21.45
  -3  11  -2  388.39   24.27
   3 -11   2  353.62   17.87
  -3 -11  -2  372.86   23.18
  -3  11  -3  823.96   39.26
  -3  11  -3  872.66   48.56
   3 -11   3  779.71   28.08
  -3 -11  -3  918.65   51.69
  -3  11  -4   12.64    6.52
   3 -11   4   21.70    3.01
  -3 -11  -4   14.87    9.30
  -3  11  -5   44.26    6.44
   3  12  -6  263.79   12.31
   3  12  -6  255.27   16.51
  -3  12   6  267.18   16.68
  -3 -12   6  251.19   16.04
   3 -12  -6  262.91   12.61
   3  12  -5  594.14   26.97
   3  12  -5  562.54   41.95
  -3  12   5  595.72   25.17
  -3 -12   5  569.02   23.55
   3 -12  -5  607.85   33.19
   3  12  -4  195.86   21.11
   3  12  -4  174.38   16.83
  -3  12   4  194.76   12.63
  -3 -12   4  139.78   15.12
   3 -12  -4  160.48   18.77
   3  12  -3  171.89   20.65
   3  12  -3  156.86   23.91
  -3  12   3  184.86   15.72
  -3  12   3  173.94   11.73
   3 -12  -3  155.08   11.85
  -3 -12   3  136.24   10.30
   3  12  -2  779.89   36.31
   3  12  -2  736.38   37.24
  -3  12   2  801.58   42.01
  -3  12   2  764.01   37.42
   3 -12  -2  914.20   43.12
  -3 -12   2  855.68   40.88
   3  12  -1  914.06   40.06
   3  12  -1  931.34   42.11
  -3  12   1  894.10   39.48
  -3  12   1  955.29   61.51
  -3 -12   1 1005.29   45.79
  -3 -12   1  993.80   48.56
   3  12   0  268.05   15.57
  -3  12   0  278.55   32.31
  -3 -12   0  205.08   23.24
  -3 -12   0  201.49   18.33
   3  12   1    6.39    8.79
  -3  12  -1   25.99    5.67
  -3  12  -1   24.64    9.43
  -3 -12  -1   39.45    7.83
  -3  12  -2  863.14   45.74
  -3  12  -2  815.77   53.72
  -3 -12  -2  926.55   43.39
  -3  12  -3  230.84   23.80
  -3  12  -3  245.11   16.27
  -3 -12  -3  276.20   25.64
  -3  12  -4   16.28   10.28
  -3 -12  -4   21.28    9.38
   3 -12   4   28.77    2.67
   3  13  -5  475.00   28.64
   3  13  -5  434.34   25.02
  -3  13   5  463.75   25.59
  -3 -13   5  445.87   23.76
   3 -13  -5  485.81   20.76
   3  13  -4  341.74   26.48
   3  13  -4  302.96   21.58
  -3  13   4  335.46   22.53
  -3 -13   4  278.21   19.72
   3 -13  -4  319.58   17.29
   3  13  -3  964.77   48.07
   3  13  -3 1104.98   57.29
  -3  13   3 1039.97   48.61
  -3  13   3 1083.56   58.71
   3 -13  -3 1099.25   52.20
  -3 -13   3  996.78   46.98
   3  13  -2 1442.97   61.99
   3  13  -2 1319.86   60.32
  -3  13   2 1377.03   53.78
  -3  13   2 1413.26   77.25
   3 -13  -2 1448.47   58.54
   3  13  -1  108.27   15.19
   3  13  -1  107.39   10.72
  -3  13   1  101.28    7.36
  -3  13   1  116.43   14.36
  -3 -13   1   94.11    8.82
  -3 -13   1  103.36    9.39
   3  13   0  265.57   15.28
  -3  13   0  285.89   22.80
  -3 -13   0  278.59   17.71
  -3 -13   0  266.18   20.09
   3  13   1  295.24   15.19
  -3  13  -1  322.61   33.82
  -3 -13  -1  342.11   28.24
  -3  13  -2  105.97    9.80
  -3  13  -2  104.25   13.27
  -3 -13  -2  125.50   12.37
  -3  13  -3   32.53    7.05
  -3  13  -3   17.98   10.25
  -3 -13  -3   52.33   11.66
  -3  13  -4  257.59   13.39
  -3 -13  -4  231.16   17.82
   3  14  -5  109.41   13.00
   3  14  -5  102.58   10.83
  -3  14   5  109.93   11.40
  -3 -14   5  105.05   10.76
   3 -14  -5   99.63    6.64
   3  14  -4  335.42   29.41
   3  14  -4  371.65   26.35
  -3  14   4  376.09   22.09
  -3 -14   4  326.41   20.69
   3 -14  -4  343.09   21.21
   3  14  -3  229.22   17.91
   3  14  -3  266.27   23.50
  -3  14   3  249.27   18.03
  -3  14   3  259.37   16.64
   3 -14  -3  287.77   15.04
  -3 -14   3  269.21   18.49
   3  14  -2  330.44   18.79
   3  14  -2  309.22   26.78
  -3  14   2  327.69   19.10
  -3  14   2  329.91   21.32
  -3 -14   2  258.18   20.80
   3  14  -1  231.39   15.70
  -3  14   1  231.37   29.31
  -3 -14   1  264.53   14.44
   3  14   0   92.66   12.34
  -3  14   0   98.79   19.62
  -3 -14   0   65.09   12.90
  -3 -14   0   58.12    7.39
   3  14   1  343.15   20.22
  -3  14  -1  367.51   33.64
  -3 -14  -1  305.81   25.80
  -3 -14  -1  279.28   19.89
  -3  14  -2   77.88   16.38
  -3  14  -2   70.80    7.35
  -3 -14  -2   90.90   14.80
  -3  14  -3  121.49   15.08
  -3  14  -3  131.98   13.04
  -3 -14  -3  100.89   14.82
   3  15  -4   59.57   14.14
   3  15  -4   67.10   11.94
  -3  15   4   71.55    9.26
  -3 -15   4   70.74    6.01
   3 -15  -4   61.14    5.04
   3  15  -3   74.14   13.54
   3  15  -3   74.91   14.65
  -3  15   3   68.30    7.26
  -3  15   3   70.09    6.07
   3 -15  -3   64.89    6.30
  -3 -15   3   61.84   10.16
   3  15  -2  269.48   16.46
   3  15  -2  280.55   22.92
  -3  15   2  295.83   26.84
  -3  15   2  275.93   16.20
  -3 -15   2  280.88   19.68
   3  15  -1   55.48   11.53
  -3  15   1   54.42   15.90
  -3 -15   1   53.25   10.04
   3  15   0   15.97    4.16
  -3  15   0   16.17   10.79
  -3 -15   0    8.00    4.00
  -3 -15   0    7.34    6.02
   3  15   1  117.09   10.50
  -3  15  -1  128.20   13.34
  -3 -15  -1  118.18    9.48
  -3 -15  -1   99.98   10.66
  -3  15  -2   61.95   13.13
  -3 -15  -2   44.38   10.83
   3  16  -3  174.09   11.00
   3  16  -3  155.66   15.37
  -3  16   3  168.42   10.65
  -3 -16   3  144.10   11.88
   3  16  -2   10.36    6.31
   3  16  -2    7.54    3.07
  -3  16   2   12.60    6.50
  -3 -16   2    4.53    3.12
   3  16  -1  434.25   18.92
  -3  16   1  429.58   30.30
  -3 -16   1  387.95   21.19
   3  16   0  206.24   14.24
  -3  16   0  207.48   22.68
  -3 -16   0  195.25   12.33
  -3 -16   0  185.48   12.82
  -3  16  -1   96.12   10.90
  -3 -16  -1  105.50   11.29
   4   0  -8    1.60   15.80
  -4   0   8  419.06   15.88
   4   0  -7    0.56    2.90
  -4   0   7    0.61    1.45
   4   0  -6  212.16   22.79
  -4   0   6  197.83    9.21
   4   0  -5 1100.53   39.85
   4   0  -5 1096.27   56.02
  -4   0   5 1156.42   48.51
  -4   0   5 1188.46   54.39
   4   0  -4   10.83    4.59
  -4   0   4   11.85    6.04
  -4   0   4   11.91   10.06
   4   0  -3  300.04   19.33
  -4   0   3  312.29   20.38
  -4   0   3  318.62   20.48
   4   0  -2   98.97    5.73
   4   0  -2   98.11   10.61
   4   0  -2  103.87    7.75
   4   0  -2   91.87   10.47
  -4   0   2   99.19    8.31
  -4   0   2  110.77    7.80
  -4   0   2   99.00   16.34
   4   0  -1   44.75    4.36
   4   0  -1   50.42    7.80
   4   0  -1   51.94    5.62
   4   0  -1   50.45   10.83
  -4   0   1   46.39    9.84
  -4   0   1   49.76    7.36
  -4   0   1   46.01    7.35
   4   0   0  579.20   24.36
   4   0   0  581.39   22.58
   4   0   0  582.57   22.14
   4   0   0  577.13   28.43
  -4   0   0  577.27   24.28
  -4   0   0  598.22   29.22
  -4   0   0  543.85   23.78
   4   0   1  131.67    9.11
   4   0   1  124.46    7.39
  -4   0  -1  129.40   13.25
  -4   0  -1  132.65   10.45
  -4   0  -2  460.69   30.59
  -4   0  -2  425.41   24.02
  -4   0  -3   42.67    8.33
  -4   0  -3   40.13    6.87
  -4   0  -4   31.64   11.18
  -4   0  -4   28.59    4.10
   4   0   5  183.48    9.04
  -4   0  -5  436.50   17.29
  -4   0  -6  266.94   10.66
   4   1  -8  245.26   14.16
  -4   1   8  256.74   10.16
   4  -1  -8  261.49   21.18
  -4  -1   8  262.55   10.37
   4   1  -7   32.84   11.83
   4   1  -7   34.84    6.40
  -4   1   7   35.15    4.05
   4  -1  -7   30.70   12.41
  -4  -1   7   33.91    6.61
   4   1  -6   20.35    9.87
   4   1  -6   20.14    5.81
  -4   1   6   16.06    9.29
   4  -1  -6   16.09   10.54
  -4  -1   6    5.14    6.05
   4  -1  -6   16.53    3.68
   4   1  -5  592.23   27.97
  -4   1   5  579.53   23.31
  -4   1   5  611.07   40.68
  -4  -1   5  598.54   31.01
  -4  -1   5  550.99   22.12
   4  -1  -5  575.27   21.67
   4  -1  -5  572.66   28.28
   4   1  -4 1524.64   67.68
  -4   1   4 1552.76   80.03
  -4   1   4 1480.15   62.60
   4  -1  -4 1447.39   66.81
  -4  -1   4 1448.43   55.53
  -4  -1   4 1473.85   76.53
   4   1  -3   55.59    6.62
  -4   1   3   54.43   10.71
  -4   1   3   51.35   10.36
   4  -1  -3   92.71    7.56
  -4  -1   3   95.04   10.77
  -4  -1   3  102.29   10.67
   4   1  -2  195.17   12.31
   4   1  -2  199.11   14.27
   4   1  -2  186.92   11.66
   4   1  -2  189.47   13.32
  -4   1   2  192.96   20.85
  -4   1   2  204.78   17.51
  -4   1   2  185.32   10.48
  -4   1   2  201.49    9.34
   4  -1  -2  129.12   18.70
  -4  -1   2  126.81   14.60
  -4  -1   2  133.38   13.03
  -4  -1   2  139.97    9.78
   4  -1  -2  136.96    8.73
   4  -1  -2  127.14    6.62
   4   1  -1 1938.85   85.83
   4   1  -1 2058.99   76.24
   4   1  -1 1950.73   80.74
   4   1  -1 2021.74   75.73
  -4   1   1 1911.71   88.97
  -4   1   1 2004.63   77.56
  -4   1   1 1948.57   82.51
   4  -1  -1 2001.53   79.51
   4  -1  -1 2183.27   81.90
  -4  -1   1 1953.84   86.84
   4  -1  -1 2085.63   77.43
   4  -1  -1 2035.53   90.41
  -4  -1   1 2184.92   85.08
  -4  -1   1 2006.11   86.21
   4   1   0  247.71   20.09
   4   1   0  248.75   16.67
   4   1   0  251.74   12.19
  -4   1   0  261.18   18.53
  -4   1   0  241.91   19.59
  -4   1   0  246.69   13.27
   4   1   0  254.85    9.80
   4  -1   0  319.47   14.56
  -4  -1   0  326.36   19.57
  -4  -1   0  321.17   15.75
  -4  -1   0  321.46   19.03
   4  -1   0  330.99   11.97
   4  -1   0  320.98   14.71
   4  -1   0  325.77   17.32
   4   1   1  500.60   16.73
  -4   1  -1  509.69   23.00
  -4   1  -1  516.47   26.41
   4  -1   1  501.11   20.93
  -4  -1  -1  489.42   27.64
  -4  -1  -1  484.73   28.95
   4  -1   1  486.80   21.92
   4   1   2   13.45    2.37
  -4   1  -2    9.52    5.60
  -4   1  -2   15.40    8.37
  -4  -1  -2    5.80    4.18
  -4  -1  -2    4.19    8.48
  -4   1  -3  194.75   14.94
  -4   1  -3  191.52   13.30
  -4  -1  -3  201.88   20.56
  -4  -1  -3  192.63    8.91
  -4   1  -4  347.79   20.56
  -4   1  -4  330.75   18.31
  -4  -1  -4  337.05   25.55
  -4  -1  -4  339.14   13.48
   4   1   5   88.96    5.26
  -4   1  -5   95.06   14.04
  -4  -1  -5   98.90    8.51
  -4   1  -6   73.27    5.50
   4   2  -8    3.82    6.64
  -4   2   8    2.08    4.12
   4  -2  -8   12.21    4.99
  -4  -2   8   18.71    2.67
   4   2  -7  207.06   14.30
   4   2  -7  192.05   19.14
   4  -2  -7  208.57   22.98
  -4  -2   7  193.94   12.96
   4   2  -6   61.88    8.80
   4   2  -6   68.53    9.41
  -4   2   6   68.00    8.88
   4  -2  -6   43.50    9.78
  -4  -2   6   59.49    7.39
   4  -2  -6   56.65    5.88
   4   2  -5   18.05    9.57
  -4   2   5   23.65    7.27
  -4   2   5   19.45   11.68
   4  -2  -5   23.36    6.25
  -4  -2   5   23.56    7.75
  -4  -2   5   21.56    4.44
   4  -2  -5   23.00   10.79
   4   2  -4  138.23   14.42
  -4   2   4  142.76   14.16
  -4   2   4  151.90   21.66
  -4  -2   4  130.84   12.41
  -4  -2   4  150.34   21.22
   4  -2  -4  134.06   11.08
   4   2  -3   37.96    4.89
   4   2  -3   34.12    5.76
  -4   2   3   34.33    8.59
  -4   2   3   39.29    8.91
  -4  -2   3   34.62    5.46
  -4  -2   3   36.24    8.21
   4  -2  -3   39.71    9.17
   4   2  -2  818.50   34.51
   4   2  -2  820.68   29.07
   4   2  -2  878.60   37.37
   4   2  -2  823.66   36.39
  -4   2   2  852.39   41.45
  -4   2   2  817.37   38.15
  -4   2   2  841.19   48.52
   4  -2  -2  819.07   29.25
  -4  -2   2  878.77   30.40
   4  -2  -2  852.73   31.91
   4  -2  -2  821.59   46.47
  -4  -2   2  798.06   38.57
  -4  -2   2  835.29   45.07
   4   2  -1  929.03   33.85
   4   2  -1  930.80   41.33
   4   2  -1  980.99   36.03
  -4   2   1  977.50   45.14
  -4   2   1  946.99   49.96
  -4   2   1 1001.38   38.21
  -4   2   1  912.06   40.70
   4  -2  -1  930.51   47.97
  -4  -2   1  885.22   37.04
  -4  -2   1  998.21   41.27
  -4  -2   1  924.69   44.78
   4  -2  -1  898.93   32.64
   4  -2  -1  955.55   38.31
   4   2   0   43.63   11.11
   4   2   0   50.78    5.37
   4   2   0   43.19    5.59
  -4   2   0   39.41    8.82
  -4   2   0   46.40   11.00
  -4   2   0   48.49    5.88
   4  -2   0   60.12    4.76
  -4  -2   0   52.53    8.30
  -4  -2   0   59.03   10.06
   4  -2   0   56.35    6.45
  -4  -2   0   60.92    7.18
   4  -2   0   54.15    8.98
   4   2   1  261.33   11.76
  -4   2  -1  237.81   17.98
  -4   2  -1  262.51   15.74
  -4   2  -1  254.41   12.88
  -4  -2  -1  311.85   21.52
   4  -2   1  316.80   15.38
   4  -2   1  314.09   13.61
  -4  -2  -1  304.66   15.80
   4   2   2 1046.68   37.97
  -4   2  -2 1084.72   47.54
  -4   2  -2 1063.90   38.59
  -4  -2  -2 1164.57   56.08
  -4  -2  -2 1198.00   54.90
   4   2   3  730.43   25.32
  -4   2  -3  851.12   48.67
  -4   2  -3  811.48   34.71
  -4  -2  -3  840.37   44.17
  -4   2  -4   15.59    6.39
  -4   2  -4   15.77   10.63
  -4  -2  -4   29.59    9.23
  -4   2  -5  314.29   23.73
  -4  -2  -5  334.09   16.40
  -4   2  -6  382.75   18.79
   4  -2   6  355.89   15.20
   4   3  -8  123.62   12.64
  -4   3   8  126.65    6.15
   4  -3  -8  149.70   10.53
  -4  -3   8  145.57    9.24
   4   3  -7  437.61   21.13
   4   3  -7  425.10   21.92
   4  -3  -7  411.04   17.25
   4  -3  -7  417.13   31.45
  -4  -3   7  405.63   19.59
   4   3  -6  220.94   20.99
   4   3  -6  215.29   24.22
  -4   3   6  225.05   16.28
  -4   3   6  222.95   21.95
  -4  -3   6  254.04   14.28
   4  -3  -6  251.07   17.79
   4  -3  -6  270.24   17.68
  -4   3   5  281.65   19.31
   4   3  -5  280.54   18.56
   4   3  -5  285.25   21.58
  -4   3   5  292.52   19.30
   4  -3  -5  290.22   17.22
  -4  -3   5  260.77   13.33
   4  -3  -5  294.79   25.70
   4   3  -4  280.38   19.10
  -4   3   4  300.58   15.20
  -4   3   4  297.96   20.41
  -4  -3   4  324.67   29.46
  -4  -3   4  304.43   10.60
   4  -3  -4  334.32   17.96
  -4  -3   4  329.38   19.02
   4   3  -3  911.72   35.67
   4   3  -3  867.13   32.19
  -4   3   3  889.92   34.75
   4   3  -3  876.84   36.19
  -4   3   3  889.97   42.75
   4  -3  -3  864.57   41.62
  -4  -3   3  901.54   51.18
  -4  -3   3  841.11   39.13
   4   3  -2 1018.87   38.48
   4   3  -2  976.64   37.05
   4   3  -2 1074.73   38.66
  -4   3   2 1015.68   56.24
  -4   3   2 1014.21   44.70
  -4   3   2 1037.58   41.55
   4  -3  -2 1024.38   44.07
  -4  -3   2 1011.07   35.89
   4  -3  -2  926.69   38.58
   4  -3  -2  945.25   52.45
  -4  -3   2  949.99   38.52
  -4  -3   2  977.07   51.04
  -4   3   1 2044.25   87.03
   4   3  -1 2119.93   76.96
   4   3  -1 2174.03   86.33
   4   3  -1 2016.44   85.67
  -4   3   1 2024.83   83.32
  -4   3   1 2025.77   95.45
  -4   3   1 2206.04   79.58
   4  -3  -1 1890.78   73.63
  -4  -3   1 1889.34   84.81
  -4  -3   1 2112.87   85.58
   4  -3  -1 1933.32   81.22
  -4  -3   1 1890.55   84.54
   4  -3  -1 2061.59   75.67
   4  -3  -1 1950.58   73.73
   4   3   0  238.56   10.50
  -4   3   0  240.53   21.97
  -4   3   0  222.36   16.07
  -4   3   0  246.60   12.73
  -4   3   0  221.73   12.22
  -4  -3   0  274.45   19.25
   4  -3   0  254.45   12.25
   4  -3   0  272.40   14.62
  -4  -3   0  263.98   15.31
   4  -3   0  279.71   11.38
  -4  -3   0  265.86   15.95
  -4   3  -1  799.94   35.01
  -4   3  -1  834.41   41.78
  -4   3  -1  775.00   33.79
  -4   3  -1  767.62   39.14
   4  -3   1  829.00   33.39
   4  -3   1  832.06   37.51
  -4  -3  -1  823.85   34.24
  -4  -3  -1  835.12   35.96
  -4   3  -2 2528.58  115.83
  -4  -3  -2 2447.74  111.21
  -4  -3  -2 2391.59  108.20
  -4   3  -3  139.14    8.72
  -4   3  -3  141.30   13.86
  -4  -3  -3  119.89   10.50
  -4  -3  -3  121.08   17.19
  -4   3  -4  400.07   17.13
  -4   3  -4  399.17   30.72
  -4  -3  -4  373.88   25.93
  -4   3  -5   37.04   11.09
  -4  -3  -5   32.76    5.19
  -4   3  -6  117.28   10.75
   4  -3   6  129.36    6.14
   4   4  -8   39.34    6.36
  -4   4   8   31.50    4.42
  -4  -4   8    9.61    4.75
   4  -4  -8   10.13    8.30
   4   4  -7  111.72   12.70
   4   4  -7  112.31   10.43
   4  -4  -7   89.10   10.68
   4  -4  -7   83.28   16.36
  -4  -4   7   78.03    8.82
   4   4  -6   75.28   12.89
   4   4  -6   77.70   16.68
  -4   4   6   80.13    7.24
  -4   4   6   81.88   14.51
  -4  -4   6   76.82    8.26
   4  -4  -6   83.01   10.85
   4  -4  -6   91.06   10.82
   4   4  -5  149.32   15.19
   4   4  -5  152.93   21.44
  -4   4   5  152.76   21.31
  -4   4   5  152.90   15.34
  -4  -4   5  141.96    9.73
   4  -4  -5  164.87   20.08
   4  -4  -5  167.01   12.91
   4   4  -4   22.42    7.30
   4   4  -4    0.05    7.05
  -4   4   4   50.18    8.72
  -4   4   4   26.66    5.65
  -4  -4   4   29.74    4.17
  -4  -4   4   32.66    6.96
   4  -4  -4   36.44    6.68
   4   4  -3  157.27    7.98
   4   4  -3  142.86   10.85
  -4   4   3  150.76   10.39
  -4   4   3  157.01   22.14
  -4  -4   3  140.12    9.69
  -4  -4   3  135.06   19.88
   4  -4  -3  138.13   15.43
   4   4  -2  214.68   16.75
  -4   4   2  218.52   12.20
  -4   4   2  218.67   17.01
  -4  -4   2  203.53   12.81
  -4  -4   2  230.92   15.23
   4  -4  -2  243.95   17.13
  -4  -4   2  220.29   14.55
   4   4  -1  606.10   32.88
  -4   4   1  637.74   32.07
  -4   4   1  619.99   24.78
  -4   4   1  630.19   25.56
  -4   4   1  615.12   25.99
  -4  -4   1  682.70   31.96
   4  -4  -1  614.87   24.37
  -4  -4   1  613.75   26.50
  -4  -4   1  620.73   27.86
   4  -4  -1  676.63   29.59
  -4   4   0  101.05    7.76
  -4   4   0   94.45   11.20
  -4   4   0   91.11   15.99
  -4   4   0  102.76   11.79
   4  -4   0  128.45    7.42
   4  -4   0  120.19   11.14
  -4  -4   0  130.82    9.65
  -4  -4   0  126.76   10.75
  -4   4  -1  637.04   29.56
  -4   4  -1  663.31   36.73
  -4   4  -1  713.13   37.86
  -4  -4  -1  733.18   31.17
   4  -4   1  773.15   31.77
  -4  -4  -1  735.70   33.02
  -4   4  -2  611.13   36.37
   4  -4   2  461.58   19.31
  -4  -4  -2  586.07   33.45
  -4  -4  -2  593.52   27.53
  -4   4  -3  598.51   39.35
  -4   4  -3  602.65   23.50
  -4  -4  -3  493.18   24.85
  -4  -4  -3  510.30   32.09
  -4   4  -4  221.92   11.98
  -4   4  -4  233.48   25.54
  -4  -4  -4  287.65   20.93
  -4   4  -5  504.74   32.33
  -4  -4  -5  511.72   25.11
   4  -4   5  546.72   20.28
  -4   4  -6  149.65   11.25
   4  -4   6  155.47    6.92
  -4   5   8   45.95    5.04
  -4  -5   8   50.33    5.81
   4  -5  -8   50.32    8.88
   4   5  -7   29.80    4.57
   4   5  -7   32.87   10.40
   4  -5  -7   23.67    4.19
   4  -5  -7   20.86   10.05
  -4  -5   7   19.72    5.67
   4   5  -6  189.44   16.70
   4   5  -6  184.51   24.30
  -4   5   6  204.07   16.47
   4  -5  -6  236.19   17.06
  -4  -5   6  220.13   13.49
   4  -5  -6  227.97   16.01
   4   5  -5  125.33   21.94
  -4   5   5  128.80   14.09
  -4   5   5  132.33   10.63
  -4  -5   5  156.68   10.44
   4  -5  -5  171.71   19.75
   4  -5  -5  162.44    9.39
   4   5  -4  128.52   10.34
   4   5  -4  148.39   19.24
  -4   5   4  148.48   14.77
  -4   5   4  139.14   20.61
   4  -5  -4   83.49   10.21
  -4  -5   4   79.12    6.98
   4   5  -3  990.86   41.12
   4   5  -3 1055.95   46.02
  -4   5   3 1146.47   51.79
  -4   5   3 1100.79   63.74
   4  -5  -3 1170.53   52.61
  -4  -5   3 1137.75   50.10
  -4   5   2  855.25   40.42
  -4   5   2  887.27   54.24
   4  -5  -2  921.89   35.41
  -4  -5   2  857.08   42.73
   4   5  -1  520.70   21.64
  -4   5   1  544.27   27.59
  -4   5   1  548.87   28.67
  -4  -5   1  523.37   24.86
  -4  -5   1  558.41   28.86
   4  -5  -1  552.51   26.54
   4  -5  -1  504.75   20.45
  -4   5   0 1176.59   44.56
  -4   5   0 1119.77   58.14
  -4   5   0 1087.31   45.57
  -4  -5   0 1140.73   45.33
   4  -5   0 1094.71   44.71
  -4  -5   0 1131.39   57.39
  -4   5  -1 1578.77   70.78
  -4   5  -1 1417.88   68.34
   4  -5   1 1444.41   52.55
  -4  -5  -1 1420.52   58.42
  -4  -5  -1 1416.54   61.50
  -4   5  -2  554.53   36.80
   4  -5   2  574.01   22.40
  -4  -5  -2  558.53   33.73
  -4  -5  -2  577.11   28.40
  -4   5  -3  174.92   15.49
  -4  -5  -3  196.33   13.29
  -4  -5  -3  201.89   14.18
  -4   5  -4  108.88   12.54
  -4  -5  -4  103.93   13.21
  -4   5  -5    7.08    7.03
  -4  -5  -5    4.40    3.93
   4  -5   5    8.01    2.83
   4  -6  -8   89.55    8.93
  -4  -6   8   88.70    4.70
   4   6  -7   96.17   16.12
   4  -6  -7  106.22    9.64
   4  -6  -7  111.97   10.54
  -4  -6   7  107.09    9.31
   4   6  -6  424.05   35.33
  -4   6   6  458.40   20.44
   4  -6  -6  480.99   20.67
  -4  -6   6  448.45   21.51
   4  -6  -6  462.99   31.69
   4   6  -5  234.56   27.70
  -4   6   5  261.55   14.65
  -4   6   5  263.29   25.48
   4  -6  -5  241.06   22.86
  -4  -6   5  228.63   13.62
   4   6  -4  223.78   15.16
   4   6  -4  179.85   23.86
  -4   6   4  187.96   16.77
  -4   6   4  189.38   17.96
   4  -6  -4  172.55   13.36
  -4  -6   4  159.83   10.41
   4   6  -3  409.10   22.03
   4   6  -3  420.86   23.43
  -4   6   3  434.22   36.84
  -4   6   3  453.01   26.43
   4  -6  -3  444.36   27.12
  -4  -6   3  430.78   19.78
   4   6  -2  219.08   11.68
   4   6  -2  202.61   13.58
  -4   6   2  216.81   12.51
  -4   6   2  221.95   18.62
   4  -6  -2  213.15   12.01
  -4  -6   2  201.55   13.35
   4   6  -1 1703.37   73.18
  -4   6   1 1733.82   66.48
  -4   6   1 1720.65   87.81
   4  -6  -1 1827.26   73.98
  -4  -6   1 1802.13   76.79
  -4  -6   1 1715.33   80.73
  -4   6   0  139.63    8.48
  -4   6   0  148.85   13.50
  -4   6   0  162.30   13.72
  -4  -6   0  132.76   10.49
   4  -6   0  141.91    8.74
  -4  -6   0  128.55   18.88
  -4   6  -1   59.23    9.09
  -4   6  -1   62.78    7.95
  -4  -6  -1   57.96    7.87
  -4  -6  -1   58.31    9.63
   4  -6   1   60.68    8.95
  -4   6  -2  218.88   16.90
   4  -6   2  281.32   17.35
  -4  -6  -2  262.30   15.52
  -4  -6  -2  270.76   26.14
  -4   6  -3  604.99   41.01
   4  -6   3  689.01   26.52
  -4  -6  -3  632.45   28.38
  -4  -6  -3  682.76   32.28
  -4   6  -4  230.13   24.57
   4  -6   4  234.65   11.75
  -4  -6  -4  222.20   12.50
  -4  -6  -4  235.55   18.84
  -4   6  -5  304.56   16.44
   4  -6   5  255.29   15.27
  -4   7   7    7.52    2.55
   4   7  -7   12.18    7.22
   4  -7  -7    1.21    5.81
  -4  -7   7    7.22    3.85
   4  -7  -7    2.69    4.11
   4   7  -6  126.33   13.90
  -4   7   6  133.68   14.39
   4  -7  -6  140.79   12.91
  -4  -7   6  127.88    7.58
   4  -7  -6  124.21   16.82
   4   7  -5 1107.15   66.70
  -4   7   5 1222.60   57.44
  -4   7   5 1166.16   62.19
   4  -7  -5 1210.45   51.13
  -4  -7   5 1173.98   42.97
   4   7  -4 1275.73   50.86
   4   7  -4 1219.32   69.94
  -4   7   4 1278.31   52.15
  -4   7   4 1324.28   62.04
   4  -7  -4 1286.25   61.31
  -4  -7   4 1245.58   48.89
   4   7  -3 1772.75   71.37
   4   7  -3 1817.32   80.01
  -4   7   3 1941.42   88.72
  -4   7   3 1956.03   77.17
   4  -7  -3 1870.28   75.36
  -4  -7   3 1831.06   80.30
   4   7  -2  620.93   25.42
   4   7  -2  515.77   25.78
  -4   7   2  553.52   30.39
  -4   7   2  545.68   41.95
   4  -7  -2  589.28   29.97
  -4  -7   2  551.22   25.92
   4   7  -1 1527.35   61.64
  -4   7   1 1543.22   59.20
  -4   7   1 1593.37   84.21
   4  -7  -1 1560.34   59.19
  -4  -7   1 1555.96   75.47
  -4   7   0  860.79   33.38
  -4   7   0  924.26   44.65
  -4   7   0  989.04   43.57
  -4  -7   0  940.35   38.79
   4  -7   0  939.80   40.07
  -4  -7   0  939.95   52.77
  -4   7  -1  211.77   19.71
  -4   7  -1  205.81   23.72
   4  -7   1  209.85   11.01
  -4  -7  -1  201.01   19.53
  -4  -7  -1  200.79   24.32
  -4   7  -2  611.66   37.72
  -4   7  -2  661.19   40.82
  -4  -7  -2  619.32   28.18
  -4  -7  -2  650.34   42.74
   4  -7   2  649.58   25.39
  -4   7  -3  225.26   24.32
   4  -7   3  193.99   15.27
  -4  -7  -3  200.20   18.18
  -4  -7  -3  211.50   22.02
  -4   7  -4  221.39   23.04
   4  -7   4  206.90   14.58
  -4  -7  -4  191.43   14.62
  -4  -7  -4  212.32   17.95
  -4   7  -5  193.91   12.53
   4  -7   5  188.92    9.06
  -4   8   7    0.98    1.43
   4   8  -7   -0.18    4.06
   4  -8  -7    0.75    2.76
  -4  -8   7   -0.34    2.39
   4  -8  -7    0.84    2.18
   4   8  -6  102.11   13.07
  -4   8   6  107.00   13.47
   4  -8  -6  117.53   11.80
  -4  -8   6  113.47    7.26
   4  -8  -6  118.13   14.73
   4   8  -5  290.91   19.75
  -4   8   5  293.65   25.51
   4   8  -5  292.15   31.34
  -4   8   5  304.88   22.25
  -4  -8   5  266.48   12.42
   4  -8  -5  290.13   23.55
   4   8  -4 1464.49   69.81
  -4   8   4 1595.01   85.01
   4   8  -4 1621.90   71.84
  -4   8   4 1579.24   64.15
  -4  -8   4 1554.89   62.14
   4  -8  -4 1588.71   66.04
   4   8  -3 1052.24   59.73
   4   8  -3 1098.94   44.54
  -4   8   3 1124.46   45.37
  -4   8   3 1141.14   67.60
   4  -8  -3 1058.45   50.21
   4   8  -2   31.10    5.95
   4   8  -2   42.82   12.01
  -4   8   2   48.16   10.23
  -4   8   2   43.26   16.12
   4  -8  -2   42.87    6.11
  -4  -8   2   40.16   10.89
   4   8  -1  195.12   17.72
  -4   8   1  216.61   19.12
   4   8  -1  195.62   18.45
  -4   8   1  208.81   16.66
  -4  -8   1  220.34   15.86
   4  -8  -1  233.47   16.76
  -4   8   0  227.94   15.27
  -4   8   0  246.04   28.05
  -4   8   0  251.23   12.92
  -4  -8   0  229.62   14.77
   4  -8   0  246.29   12.32
  -4  -8   0  228.60   25.31
  -4   8  -1  534.94   38.01
  -4   8  -1  562.00   31.67
  -4  -8  -1  451.94   29.30
  -4  -8  -1  478.94   37.97
   4  -8   1  450.14   23.90
  -4   8  -2  489.35   26.09
  -4   8  -2  540.59   34.66
  -4  -8  -2  426.63   27.88
  -4  -8  -2  488.31   36.63
   4  -8   2  469.58   24.16
  -4   8  -3  236.99   23.53
   4  -8   3  190.45   10.48
  -4  -8  -3  187.29   16.91
  -4  -8  -3  194.11   21.30
  -4   8  -4   49.65   14.23
  -4  -8  -4   63.38    7.46
   4  -8   4   67.19    5.84
  -4   8  -5  524.58   21.98
   4  -8   5  452.96   16.36
   4   9  -7   43.52    9.96
  -4   9   7   46.96    3.87
  -4  -9   7   33.25    3.78
   4   9  -6  179.84   15.81
  -4   9   6  192.58   16.08
   4  -9  -6  195.08   13.69
  -4  -9   6  180.21    9.37
   4  -9  -6  165.66   10.56
   4   9  -5  344.15   24.08
  -4   9   5  354.85   27.00
   4   9  -5  352.67   23.00
  -4   9   5  358.11   24.27
  -4  -9   5  330.91   14.89
   4  -9  -5  336.50   23.40
   4   9  -4  345.75   18.28
   4   9  -4  306.33   22.40
  -4   9   4  333.15   17.86
  -4   9   4  339.47   30.94
   4  -9  -4  300.47   22.64
  -4  -9   4  275.68   12.99
   4   9  -3  138.46   16.92
   4   9  -3  129.98   22.29
  -4   9   3  136.11   11.23
  -4   9   3  131.74   25.22
   4  -9  -3  188.99   11.83
   4   9  -2  458.75   24.99
  -4   9   2  476.26   30.27
   4   9  -2  453.22   29.63
  -4   9   2  485.20   28.56
  -4  -9   2  511.01   24.45
   4  -9  -2  546.84   28.92
   4   9  -1  795.39   41.71
   4   9  -1  740.66   32.96
  -4   9   1  781.73   36.88
  -4   9   1  791.51   42.50
   4  -9  -1  757.56   35.81
  -4  -9   1  745.27   35.57
   4   9   0  395.26   27.63
  -4   9   0  449.87   39.61
  -4  -9   0  513.62   37.01
   4  -9   0  528.77   26.16
   4   9   1  311.90   17.13
  -4   9  -1  380.61   33.19
  -4   9  -1  423.76   26.44
   4  -9   1  398.26   16.79
  -4  -9  -1  415.95   34.08
   4   9   2  135.81   10.29
  -4   9  -2  202.76   20.58
  -4   9  -2  198.28   14.93
   4  -9   2  191.14   13.89
  -4  -9  -2  186.34   15.96
  -4   9  -3  488.63   33.97
  -4  -9  -3  475.44   24.84
   4  -9   3  461.38   18.64
  -4   9  -4  104.40   15.88
  -4  -9  -4  107.13   12.84
   4  -9   4   96.97    6.56
   4  10  -6  126.06   20.05
  -4  10   6  135.15    9.23
  -4 -10   6  135.39   10.64
   4 -10  -6  141.45   10.37
   4  10  -5  403.73   25.79
   4  10  -5  439.86   25.91
  -4  10   5  443.16   27.69
   4 -10  -5  374.68   22.70
  -4 -10   5  371.79   19.97
   4  10  -4   49.77   11.35
   4  10  -4   44.54   10.20
  -4  10   4   51.02   15.00
  -4  10   4   42.01    7.28
   4 -10  -4   42.04    9.70
  -4 -10   4   46.03    5.09
   4  10  -3   85.49   13.59
   4  10  -3   61.65   11.29
  -4  10   3   77.20    8.32
  -4  10   3   77.45   19.74
   4 -10  -3   66.00    7.44
   4  10  -2  374.45   29.73
   4  10  -2  405.17   28.64
  -4  10   2  414.48   25.42
  -4  10   2  386.97   27.25
   4 -10  -2  401.91   23.64
  -4 -10   2  391.67   26.95
   4  10  -1  132.55   16.31
  -4  10   1  158.94   17.63
  -4  10   1  160.40    9.85
   4 -10  -1  138.01   13.63
  -4 -10   1  140.09   20.04
   4  10   0  158.08   17.51
  -4  10   0  143.58   25.93
  -4 -10   0  156.09   14.81
   4 -10   0  162.51   13.77
   4  10   1  630.48   29.95
  -4  10  -1  718.96   37.70
  -4  10  -1  689.15   47.75
   4 -10   1  756.91   28.85
  -4 -10  -1  740.42   46.36
   4  10   2   18.63    5.96
  -4  10  -2   37.56    7.65
  -4  10  -2   38.05    8.68
   4 -10   2   57.83    5.25
  -4 -10  -2   60.09    9.29
   4  10   3   59.69    6.39
  -4  10  -3  128.96   14.97
  -4 -10  -3   92.35   10.29
   4 -10   3   90.36    9.30
  -4  10  -4  115.46   13.78
  -4 -10  -4   82.00   11.38
   4 -10   4   77.45    5.40
   4  11  -6  133.94   18.14
  -4  11   6  138.09    8.77
  -4 -11   6  134.18   10.06
   4  11  -5  453.58   26.94
   4  11  -5  482.81   21.58
  -4  11   5  505.09   22.29
  -4 -11   5  422.24   21.94
   4  11  -4  596.21   34.06
   4  11  -4  546.55   42.09
  -4  11   4  612.57   31.29
  -4  11   4  592.60   33.12
  -4 -11   4  577.77   23.01
   4  11  -3 1926.38   87.84
   4  11  -3 1702.96   78.57
  -4  11   3 1870.40   86.23
  -4  11   3 1849.95   81.08
   4  11  -2  759.88   45.98
  -4  11   2  805.83   55.97
   4  11  -2  829.27   45.37
  -4  11   2  850.46   35.21
  -4 -11   2  876.23   36.93
   4 -11  -2  921.89   41.19
   4  11  -1  453.56   31.89
  -4  11   1  493.85   25.66
  -4  11   1  513.07   43.31
   4 -11  -1  508.75   26.15
  -4 -11   1  496.27   33.09
   4  11   0 1265.32   60.78
  -4  11   0 1302.22   76.49
  -4 -11   0 1264.48   56.49
   4 -11   0 1258.86   52.27
   4  11   1   77.15    8.45
  -4  11  -1  103.38   21.44
  -4  11  -1  112.02    9.29
   4 -11   1  129.06    7.82
  -4 -11  -1  143.97   13.09
   4  11   2   83.80   10.32
  -4  11  -2  100.47   13.77
  -4  11  -2   92.02   16.61
   4 -11   2   76.13    9.28
  -4 -11  -2   76.15   10.94
  -4  11  -3   86.20    9.01
  -4 -11  -3  102.85   10.09
   4 -11   3   95.93    6.24
  -4  11  -4  100.79   12.15
  -4 -11  -4   94.53    9.95
   4 -11   4   84.92    6.88
   4  12  -5    6.15    5.34
   4  12  -5    6.46    7.68
  -4  12   5    6.77    5.58
  -4 -12   5    3.99    2.46
   4  12  -4  287.91   16.13
   4  12  -4  258.35   27.29
  -4  12   4  286.03   24.59
  -4  12   4  301.50   21.65
  -4 -12   4  249.89   16.15
   4  12  -3  184.64   13.52
   4  12  -3  146.83   20.98
  -4  12   3  156.56   15.59
  -4  12   3  171.02   16.55
  -4 -12   3  143.46   12.48
   4  12  -2   33.16   11.91
   4  12  -2   32.92    7.21
  -4  12   2   36.59    8.95
  -4  12   2   38.45   16.84
   4  12  -1   78.95   14.17
  -4  12   1   80.91   20.64
  -4  12   1   74.98    9.62
  -4 -12   1   63.08    8.83
   4  12   0    3.05    7.71
  -4  12   0   12.34    7.40
  -4 -12   0   16.47    8.93
   4  12   1   52.20   13.59
  -4  12  -1  146.05   14.35
  -4 -12  -1  133.32   12.34
   4 -12   1  123.64   10.11
  -4  12  -2  143.03   14.12
  -4  12  -2  141.63   18.66
   4 -12   2  126.66    9.99
  -4 -12  -2  141.59   12.97
  -4  12  -3  153.88   13.12
   4 -12   3  105.21    7.63
  -4 -12  -3  117.44   10.18
   4  13  -5  417.01   22.26
   4  13  -5  407.17   29.01
  -4  13   5  447.10   18.28
   4  13  -4  457.95   21.52
   4  13  -4  414.12   23.44
  -4  13   4  444.63   26.94
  -4  13   4  472.48   25.96
  -4 -13   4  451.74   20.97
   4  13  -3  277.40   16.06
   4  13  -3  243.59   16.50
  -4  13   3  258.18   25.86
  -4  13   3  282.22   18.70
  -4 -13   3  184.19   14.00
   4  13  -2  602.18   36.53
   4  13  -2  523.38   31.93
  -4  13   2  563.98   22.90
  -4  13   2  582.86   33.30
   4  13  -1   28.82   11.02
  -4  13   1   42.01    9.78
  -4 -13   1   27.13    9.71
   4  13   0  252.98   14.40
  -4  13   0  273.40   30.91
  -4 -13   0  292.26   23.66
   4  13   1  281.27   14.06
  -4  13  -1  292.19   28.80
  -4 -13  -1  316.16   18.60
   4  13   2   35.11    6.29
  -4  13  -2   39.48    6.81
  -4  13  -2   22.13   10.92
  -4 -13  -2   16.51   10.97
   4  14  -4   48.32    6.27
   4  14  -4    6.32   10.92
  -4  14   4   48.46    5.33
   4  14  -3  167.17   16.85
   4  14  -3  179.41   17.31
  -4  14   3  173.44   19.34
  -4  14   3  172.17    9.31
  -4 -14   3  138.23    7.39
   4  14  -2   77.45    8.65
   4  14  -2   72.26   10.77
  -4  14   2   72.16    5.86
  -4  14   2   77.25   17.24
   4  14  -1   98.30    9.78
  -4  14   1  103.34   20.91
  -4 -14   1  106.31   11.51
   4  14   0  110.82   13.43
  -4  14   0  104.59   13.33
  -4 -14   0  131.60    9.95
   4  14   1  199.40   14.92
  -4  14  -1  200.68   15.18
  -4 -14  -1  213.80   18.74
  -4  14  -2  289.43   14.89
  -4 -14  -2  279.78   19.78
   4  15  -3  535.17   28.79
   4  15  -2  698.47   28.36
  -4  15   2  695.61   39.86
   4  15  -1   87.11   11.64
  -4  15   1   86.31   17.19
   4  15   0  112.86    7.46
  -4  15   0  116.91   12.09
  -4 -15   0  101.50    7.02
   5   0  -8  390.39   21.74
   5   0  -7  323.22   17.99
   5   0  -7  313.28   17.04
   5   0  -6  841.46   47.27
   5   0  -5    4.12    4.38
  -5   0   5    5.09    9.45
  -5   0   5    5.14    3.51
   5   0  -4   50.12    7.86
  -5   0   4   54.94   12.24
  -5   0   4   53.12   11.28
   5   0  -3  596.27   32.98
  -5   0   3  567.90   32.23
  -5   0   3  578.35   35.24
   5   0  -2 3326.78  141.14
  -5   0   2 3128.94  134.58
  -5   0   2 3237.33  146.56
   5   0  -1  482.20   19.47
  -5   0   1  469.34   31.66
  -5   0   1  515.31   21.23
  -5   0   1  469.29   25.53
   5   0   0   28.98    6.59
  -5   0   0   29.32    9.35
  -5   0   0   30.21    6.69
   5   0   1 1543.29   56.51
  -5   0  -1 1595.61   66.42
  -5   0  -1 1520.33   64.11
   5   0   2  473.53   18.16
  -5   0  -2  472.97   33.48
  -5   0  -2  456.12   28.36
   5   0   3  433.27   16.70
  -5   0  -3  434.08   23.12
   5   0   4  312.24   14.86
  -5   0  -4  318.53   17.47
  -5   0  -5   41.17    5.01
   5   1  -8  341.97   14.56
   5  -1  -8  348.59   21.31
   5   1  -7  408.63   26.92
   5   1  -7  402.58   27.08
   5  -1  -7  410.16   25.38
   5   1  -6   90.75   10.45
   5   1  -6   93.98   10.71
  -5   1   6   96.49   18.18
   5  -1  -6   90.55   11.10
   5   1  -5  152.91   18.79
  -5   1   5  168.72   24.64
  -5   1   5  145.92   10.89
   5  -1  -5  150.60   19.60
  -5  -1   5  149.33   15.07
  -5  -1   5  150.16   16.03
   5   1  -4  271.62   21.47
  -5   1   4  270.56   22.33
  -5   1   4  271.87   21.63
  -5  -1   4  255.30   21.11
  -5  -1   4  249.36   21.43
   5  -1  -4  248.90   23.05
  -5   1   3  252.13   19.84
   5   1  -3  224.30   18.20
  -5   1   3  222.43   21.47
  -5  -1   3  223.54   18.63
   5  -1  -3  223.71   13.82
  -5  -1   3  222.82   21.52
   5   1  -2  349.31   15.47
  -5   1   2  317.12   25.02
  -5   1   2  324.33   21.60
  -5  -1   2  297.92   18.57
  -5  -1   2  324.65   13.80
   5  -1  -2  337.37   16.64
  -5  -1   2  309.77   20.42
   5   1  -1  660.87   29.38
  -5   1   1  645.01   40.25
  -5   1   1  642.19   37.38
  -5   1   1  687.97   31.41
  -5  -1   1  697.95   33.01
   5  -1  -1  657.92   31.39
  -5  -1   1  626.11   30.16
  -5  -1   1  629.79   30.24
   5   1   0  450.19   17.59
  -5   1   0  414.62   21.65
  -5   1   0  460.53   21.41
  -5   1   0  417.00   21.61
  -5  -1   0  536.19   29.88
   5  -1   0  529.22   20.40
  -5  -1   0  490.49   32.31
  -5   1  -1  402.45   26.23
   5   1   1  423.54   19.00
  -5   1  -1  428.79   21.76
  -5  -1  -1  343.38   27.87
   5  -1   1  369.35   20.43
  -5  -1  -1  343.36   27.36
   5   1   2 3215.43  128.18
  -5   1  -2 3142.71  136.01
   5  -1   2 3078.15  120.72
  -5  -1  -2 2983.18  136.13
  -5  -1  -2 3039.88  142.11
   5   1   3  255.53   13.59
  -5   1  -3  269.97   25.06
  -5  -1  -3  253.14   16.77
   5  -1   3  259.94   15.51
  -5   1  -4  119.28   16.73
  -5  -1  -4  140.52   16.24
   5  -1   4  132.66    7.07
  -5   1  -5  111.83    7.63
  -5  -1  -5   97.01    9.92
   5   2  -8   23.21    3.31
   5  -2  -8    5.86    4.39
   5   2  -7  143.66   10.69
   5   2  -7  142.14   11.81
   5  -2  -7  158.35   18.73
   5  -2  -7  147.94   10.07
   5   2  -6  471.54   30.68
   5   2  -6  471.87   35.26
  -5   2   6  487.97   35.58
  -5   2   6  482.00   26.70
   5  -2  -6  494.57   26.31
   5   2  -5  360.46   25.45
  -5   2   5  387.03   25.01
  -5   2   5  380.40   24.89
  -5  -2   5  320.90   21.92
  -5  -2   5  339.04   23.81
   5  -2  -5  324.87   28.90
   5   2  -4  302.65   22.66
  -5   2   4  316.76   35.65
  -5   2   4  315.78   18.43
  -5  -2   4  392.12   25.46
  -5  -2   4  378.19   34.22
   5  -2  -4  387.05   21.01
   5   2  -3  238.11   12.90
  -5   2   3  242.80   20.06
  -5   2   3  234.08   15.81
  -5  -2   3  262.57   22.46
  -5  -2   3  261.04   19.52
   5  -2  -3  248.54   14.96
   5   2  -2  501.46   24.02
  -5   2   2  502.11   38.52
  -5   2   2  495.63   31.66
  -5  -2   2  456.88   23.91
  -5  -2   2  470.99   22.89
   5  -2  -2  469.65   28.22
  -5  -2   2  432.74   33.50
   5   2  -1  444.91   20.74
  -5   2   1  405.22   31.49
  -5   2   1  399.69   20.87
  -5   2   1  426.87   21.50
  -5  -2   1  399.70   24.26
   5  -2  -1  388.30   22.92
  -5  -2   1  361.45   26.94
  -5  -2   1  361.47   21.23
   5   2   0  491.91   21.27
  -5   2   0  495.28   21.96
  -5   2   0  434.87   23.28
  -5   2   0  473.18   29.11
  -5  -2   0  463.10   22.40
   5  -2   0  450.73   19.31
  -5  -2   0  409.32   31.84
  -5   2  -1   13.75    4.64
  -5   2  -1   14.03    9.00
  -5  -2  -1   13.59    9.06
  -5  -2  -1   13.36    9.10
   5  -2   1   14.26    6.08
  -5   2  -2  535.05   37.09
   5  -2   2  532.25   26.01
  -5  -2  -2  523.64   35.26
  -5  -2  -2  512.28   32.85
  -5   2  -3   24.55    6.45
  -5  -2  -3   23.28    9.55
   5  -2   3    6.89    5.80
  -5   2  -4  167.75   12.72
  -5  -2  -4  179.51   17.30
   5  -2   4  178.29    8.75
  -5   2  -5  160.92   13.20
  -5  -2  -5  132.85   10.44
   5   3  -7   86.01    9.36
   5   3  -7   82.23    7.39
   5  -3  -7   76.93    7.13
   5  -3  -7   81.63    9.55
   5   3  -6   26.65   14.88
  -5   3   6   51.76    9.64
  -5   3   6   56.83   13.95
   5  -3  -6   54.31   14.56
   5   3  -5   45.05    8.74
  -5   3   5   23.04   15.58
   5   3  -5   30.86    9.80
  -5   3   5   31.00   10.88
   5  -3  -5   39.56   13.24
  -5   3   4  417.46   21.43
   5   3  -4  399.45   24.21
  -5   3   4  427.34   29.30
  -5  -3   4  453.35   37.74
   5  -3  -4  454.55   23.88
  -5  -3   4  448.61   21.41
  -5   3   3  421.28   28.98
   5   3  -3  435.15   18.64
  -5   3   3  427.31   39.64
  -5  -3   3  428.40   25.62
   5  -3  -3  433.85   29.09
  -5  -3   3  429.69   29.85
  -5   3   2 1378.73   58.05
  -5   3   2 1376.04   77.74
   5  -3  -2 1458.93   64.41
  -5  -3   2 1379.85   59.48
  -5  -3   2 1393.52   69.88
  -5  -3   2 1491.22   60.69
  -5   3   1 1376.05   55.50
  -5   3   1 1283.82   60.83
  -5   3   1 1305.10   60.32
  -5  -3   1 1303.09   57.70
   5  -3  -1 1356.34   58.40
  -5  -3   1 1400.86   61.19
  -5  -3   1 1263.98   53.86
  -5   3   0  478.15   26.27
  -5   3   0  498.61   23.71
  -5   3   0  524.37   28.89
  -5  -3   0  557.83   25.75
   5  -3   0  551.63   22.69
  -5  -3   0  511.97   35.34
  -5   3  -1  311.55   22.13
  -5   3  -1  340.73   19.53
  -5  -3  -1  370.40   27.86
  -5  -3  -1  367.92   21.14
   5  -3   1  371.06   21.68
  -5   3  -2  973.14   44.71
   5  -3   2 1046.96   44.77
  -5  -3  -2 1033.16   45.50
  -5  -3  -2 1013.51   53.39
  -5   3  -3  925.35   52.67
  -5  -3  -3  991.78   51.33
   5  -3   3 1006.97   42.39
  -5   3  -4  278.33   23.97
  -5  -3  -4  316.59   21.83
   5  -3   4  312.13   13.00
  -5   3  -5  117.06    8.20
   5  -3   5  138.96    6.21
   5   4  -7  153.40    8.77
   5   4  -7  164.55   18.58
   5  -4  -7  190.67   12.99
   5   4  -6   83.74   11.58
   5   4  -6   83.80   17.78
  -5   4   6   80.00   16.50
  -5   4   6   86.27    8.08
   5  -4  -6  106.49   17.31
   5   4  -5 1017.37   48.76
  -5   4   5 1026.54   49.53
  -5   4   5 1021.83   42.43
   5  -4  -5  941.19   44.43
   5   4  -4  990.15   46.21
  -5   4   4 1003.73   63.06
  -5   4   4 1008.14   50.35
   5  -4  -4  934.35   42.55
  -5  -4   4  914.34   39.24
   5   4  -3  442.59   19.86
  -5   4   3  608.37   34.02
  -5   4   3  592.49   26.80
  -5  -4   3  523.18   25.74
  -5  -4   3  523.64   28.87
   5  -4  -3  514.42   32.98
  -5   4   2  491.61   30.74
  -5   4   2  497.69   30.87
  -5  -4   2  488.93   26.12
  -5  -4   2  533.38   22.26
   5  -4  -2  487.49   29.45
  -5  -4   2  479.07   25.69
  -5   4   1  330.29   23.07
  -5   4   1  333.97   24.66
  -5  -4   1  381.80   18.42
  -5  -4   1  353.19   21.41
   5  -4  -1  365.39   23.08
  -5   4   0  493.35   21.65
  -5   4   0  436.72   24.98
  -5   4   0  460.60   27.65
  -5  -4   0  434.97   22.13
   5  -4   0  424.27   19.58
  -5  -4   0  413.80   24.56
  -5   4  -1   21.01   10.19
   5  -4   1   26.94    8.13
  -5  -4  -1   28.57    6.97
  -5  -4  -1   25.34    7.47
  -5   4  -2   88.69   15.89
   5  -4   2   83.47    7.23
  -5  -4  -2   80.44   10.06
  -5  -4  -2   78.77   10.20
  -5   4  -3   28.79    7.44
  -5  -4  -3   31.09   10.49
   5  -4   3   31.99    7.54
  -5  -4  -3   16.91    8.76
  -5   4  -4   99.96    9.78
  -5  -4  -4   91.00   11.84
   5  -4   4   88.25    6.50
   5   5  -7    4.66    6.67
   5  -5  -7    6.05    6.43
  -5   5   6   89.82   10.50
   5   5  -6   86.24   18.46
  -5   5   6   94.35   12.75
   5  -5  -6   92.37   16.52
   5   5  -5  606.32   44.25
  -5   5   5  626.01   35.66
  -5   5   5  635.69   44.43
   5  -5  -5  627.31   40.32
   5   5  -4 1481.30   78.23
  -5   5   4 1504.08   71.20
  -5   5   4 1499.26   84.43
   5  -5  -4 1473.27   63.59
  -5  -5   4 1414.23   64.71
   5   5  -3  859.62   39.53
  -5   5   3  896.84   59.92
   5   5  -3  773.13   34.97
  -5   5   3  897.53   46.08
  -5  -5   3  806.13   36.14
   5  -5  -3  829.18   45.17
   5   5  -2  338.73   18.77
  -5   5   2  359.28   18.83
  -5   5   2  363.86   36.56
   5  -5  -2  375.67   25.08
  -5  -5   2  335.09   27.82
   5   5  -1 1032.77   48.89
  -5   5   1 1100.75   65.31
  -5   5   1 1095.63   52.17
  -5  -5   1 1125.09   45.43
  -5  -5   1 1073.36   49.61
   5  -5  -1 1168.37   53.25
  -5   5   0  727.05   29.75
  -5   5   0  683.36   44.34
  -5   5   0  663.50   34.54
  -5  -5   0  640.42   37.23
   5  -5   0  667.47   27.98
  -5  -5   0  624.40   33.31
  -5   5  -1 1029.41   43.89
   5  -5   1 1027.05   40.06
  -5  -5  -1 1019.50   44.33
  -5  -5  -1 1018.49   57.92
  -5   5  -2  424.27   22.75
   5  -5   2  418.08   18.35
  -5  -5  -2  409.77   21.73
  -5  -5  -2  413.62   31.47
  -5   5  -3  328.13   27.35
   5  -5   3  331.80   15.10
  -5  -5  -3  341.36   24.09
  -5  -5  -3  317.41   22.93
  -5   5  -4  789.88   39.68
  -5  -5  -4  707.35   32.54
   5  -5   4  712.75   30.45
   5   6  -7  209.54   19.37
  -5   6   7  195.21   11.57
   5  -6  -7  209.15   17.40
   5   6  -6  192.36   16.30
  -5   6   6  192.50   16.58
  -5   6   6  198.37   13.87
   5  -6  -6  191.02   14.34
   5   6  -5  117.50   20.77
  -5   6   5  103.74   20.42
  -5   6   5  101.29   15.08
   5  -6  -5   84.38   17.02
   5   6  -4   17.53    7.20
  -5   6   4   18.66   13.21
  -5   6   4   18.38    5.77
   5  -6  -4    8.66    5.98
   5   6  -3  224.50   17.40
   5   6  -3  279.63   26.67
  -5   6   3  290.71   17.43
  -5   6   3  295.44   23.95
   5  -6  -3  320.25   17.83
  -5  -6   3  311.03   24.17
   5   6  -2  557.47   32.62
   5   6  -2  812.67   42.49
  -5   6   2  848.19   42.03
  -5   6   2  837.41   43.82
   5  -6  -2  811.34   42.59
  -5  -6   2  758.63   44.80
  -5   6   1   95.29    9.40
  -5   6   1   93.41   13.63
   5  -6  -1   97.59    9.07
  -5  -6   1  108.16    9.91
  -5  -6   1   90.01   12.25
  -5   6   0  303.31   20.03
  -5   6   0  272.23   20.64
  -5   6   0  273.67   14.89
  -5  -6   0  286.20   23.69
   5  -6   0  297.22   20.97
  -5  -6   0  288.44   20.43
  -5   6  -1  251.02   24.87
  -5   6  -1  265.15   15.57
  -5  -6  -1  277.60   16.84
  -5  -6  -1  261.88   27.33
   5  -6   1  270.14   14.22
  -5   6  -2  572.37   27.73
   5  -6   2  606.34   30.85
  -5  -6  -2  574.27   27.40
  -5  -6  -2  587.39   38.84
  -5   6  -3  284.72   24.18
   5  -6   3  275.31   17.93
  -5  -6  -3  284.48   20.83
  -5  -6  -3  276.65   15.77
  -5   6  -4    7.38    6.67
  -5  -6  -4    8.55    3.00
   5  -6   4    5.54    4.81
   5   7  -7   47.99   11.48
   5  -7  -7   52.89    8.99
   5   7  -6   28.06    8.11
  -5   7   6   30.86    5.36
  -5   7   6   28.53    5.93
   5  -7  -6   17.18   10.03
   5   7  -5  304.99   31.66
  -5   7   5  331.73   30.79
  -5   7   5  337.45   18.01
   5  -7  -5  303.50   18.27
   5   7  -4    2.74    3.02
   5   7  -4    4.77    5.26
  -5   7   4    6.68    5.93
  -5   7   4    4.59    6.71
   5  -7  -4    7.79    6.67
   5   7  -3   66.87   16.46
  -5   7   3   71.61   21.06
   5   7  -3   67.08    7.98
  -5   7   3   70.89    9.05
  -5  -7   3   69.59   13.42
   5  -7  -3   67.41    8.87
   5   7  -2  725.24   30.60
   5   7  -2  621.49   37.86
  -5   7   2  677.14   37.64
  -5   7   2  701.95   53.17
   5  -7  -2  705.42   31.21
  -5  -7   2  655.31   41.83
  -5   7   1  599.23   26.65
  -5   7   1  588.27   34.51
   5  -7  -1  592.47   32.62
  -5  -7   1  571.46   30.70
  -5   7   0  573.40   43.41
  -5   7   0  570.33   24.92
  -5  -7   0  590.97   35.79
  -5  -7   0  557.86   31.23
   5  -7   0  595.41   32.05
  -5   7  -1  794.68   39.37
  -5   7  -1  837.95   42.29
  -5  -7  -1  839.10   36.86
  -5  -7  -1  838.85   51.59
   5  -7   1  904.58   42.31
  -5   7  -2  762.46   40.44
   5  -7   2  705.81   28.39
  -5  -7  -2  683.64   30.25
  -5  -7  -2  707.96   34.66
  -5   7  -3  145.28   17.67
   5  -7   3  158.24    9.63
  -5  -7  -3  153.47   14.98
  -5  -7  -3  157.47   16.49
  -5   7  -4   95.12   11.67
   5  -7   4   64.51    8.68
   5   8  -6  455.43   24.98
  -5   8   6  461.65   25.23
  -5   8   6  482.23   20.22
   5  -8  -6  432.07   20.04
   5   8  -5  250.56   19.42
  -5   8   5  269.71   18.56
  -5   8   5  269.55   15.35
   5  -8  -5  186.83   20.19
   5   8  -4  438.86   25.35
   5   8  -4  414.69   25.61
  -5   8   4  457.68   28.29
  -5   8   4  469.50   30.44
   5  -8  -4  368.24   20.64
   5   8  -3  277.78   18.98
   5   8  -3  270.66   15.67
  -5   8   3  298.50   17.37
  -5   8   3  296.06   34.70
   5  -8  -3  292.66   24.04
  -5  -8   3  278.28   16.55
   5   8  -2  498.71   23.09
   5   8  -2  567.54   27.69
  -5   8   2  614.76   48.06
  -5  -8   2  590.29   29.22
   5  -8  -2  607.60   34.54
   5   8  -1   95.05   18.06
  -5   8   1  185.88   11.80
  -5   8   1  185.53   27.25
   5  -8  -1  194.00   17.71
  -5  -8   1  189.01   23.16
   5   8   0   97.44   10.11
  -5   8   0  188.90   24.04
  -5  -8   0  157.00   14.40
   5  -8   0  166.53   15.30
  -5   8  -1  427.54   33.31
  -5   8  -1  458.15   21.28
  -5  -8  -1  458.64   23.10
  -5  -8  -1  466.17   36.68
   5  -8   1  466.78   26.29
  -5   8  -2  174.01   12.39
  -5  -8  -2  179.64   14.58
   5  -8   2  176.16   15.66
   5   8   3    7.64    3.73
  -5   8  -3   22.75    8.31
   5  -8   3   37.91    6.26
  -5  -8  -3   20.25    8.12
  -5   8  -4  127.77   12.58
   5  -8   4  121.91    6.84
   5   9  -6  168.42   20.46
  -5   9   6  165.86    9.75
   5  -9  -6  154.75    9.06
   5   9  -5  286.53   20.39
  -5   9   5  318.85   26.65
  -5   9   5  311.12   16.61
   5  -9  -5  297.22   16.10
   5   9  -4   63.66    7.44
   5   9  -4   63.48   16.84
  -5   9   4   64.80   11.75
  -5   9   4   66.54   13.39
   5  -9  -4   68.25   12.34
   5   9  -3   37.11   10.45
   5   9  -3   37.73    8.65
  -5   9   3   41.69    7.38
  -5   9   3   44.44   17.97
   5  -9  -3   45.90   11.14
  -5  -9   3   51.55   10.43
   5   9  -2 1305.30   64.91
  -5   9   2 1423.61   83.28
   5   9  -2 1319.89   55.32
  -5   9   2 1424.70   64.09
  -5  -9   2 1355.32   67.03
   5  -9  -2 1399.95   56.45
   5   9  -1  697.84   35.55
  -5   9   1  556.66   24.39
  -5   9   1  569.23   46.40
   5  -9  -1  541.58   30.51
  -5  -9   1  509.95   37.54
   5   9   0   74.85   13.85
  -5   9   0   90.73   19.23
  -5  -9   0   62.69   10.86
   5  -9   0   66.64    7.40
   5   9   1   65.36   12.88
  -5   9  -1  116.31   18.14
  -5   9  -1  120.52    8.44
   5  -9   1   83.10    8.05
  -5  -9  -1   77.64   18.76
  -5   9  -2  752.86   30.63
  -5  -9  -2  706.61   33.25
   5  -9   2  707.96   32.89
  -5   9  -3  530.54   27.88
  -5  -9  -3  496.97   27.80
   5  -9   3  488.31   23.14
   5  10  -6  346.96   26.04
  -5  10   6  347.70   19.16
   5  10  -5   29.33    6.04
   5  10  -5   14.71    7.43
  -5  10   5   25.28    9.08
  -5  10   5   18.36    8.65
   5  10  -4   11.98   10.88
   5  10  -4   16.71    7.52
  -5  10   4   19.98    7.26
  -5  10   4   17.40    5.39
   5 -10  -4   12.08    7.41
   5  10  -3  229.32   18.72
   5  10  -3  166.40   21.02
  -5  10   3  178.26   27.30
  -5  10   3  173.83   12.55
   5 -10  -3  174.56   11.89
   5  10  -2  319.66   18.20
   5  10  -2  329.75   18.56
  -5  10   2  354.41   23.04
  -5  10   2  348.17   36.41
   5 -10  -2  326.52   16.76
  -5 -10   2  329.78   25.42
   5  10  -1   74.98   13.73
  -5  10   1   66.65   10.47
  -5  10   1   73.40   20.81
   5 -10  -1   81.24    8.10
  -5 -10   1   79.68   16.04
   5  10   0  100.89    9.53
  -5  10   0  132.07   22.61
  -5 -10   0  131.91   19.50
   5 -10   0  134.03   13.38
   5  10   1  132.56   14.87
  -5  10  -1  158.09   20.37
  -5 -10  -1  153.48   21.04
   5 -10   1  159.38   13.86
   5  10   2  114.03    8.24
  -5  10  -2  143.76   12.89
  -5 -10  -2  147.89   11.73
   5 -10   2  141.99   11.99
  -5  10  -3   67.35    6.02
  -5 -10  -3   62.92   10.33
   5 -10   3   65.27    7.70
   5  11  -5    8.20    7.19
   5  11  -5    3.03    3.42
  -5  11   5    6.59    4.59
  -5  11   5    6.56    5.42
   5  11  -4   36.48    7.45
   5  11  -4   43.38    8.57
  -5  11   4    0.47   12.09
  -5  11   4   37.48    5.84
   5 -11  -4    5.74    6.93
   5  11  -3   16.90    5.41
   5  11  -3   18.48    7.68
  -5  11   3   19.28   11.53
  -5  11   3   18.21    7.15
   5 -11  -3    5.87    3.90
   5  11  -2   60.90    8.01
  -5  11   2   54.93    6.72
  -5  11   2   63.26   19.03
   5 -11  -2   66.44    6.93
  -5 -11   2   66.51    7.67
   5  11  -1   90.94   15.75
  -5  11   1  101.33   22.71
  -5 -11   1  111.45   10.77
   5 -11  -1  115.92    8.47
   5  11   0   73.98    8.65
  -5  11   0   94.17   19.34
  -5 -11   0   96.27   16.38
   5 -11   0  102.20   11.48
   5  11   1  497.03   21.88
  -5  11  -1  575.55   27.59
  -5 -11  -1  492.32   33.26
   5 -11   1  491.73   19.72
  -5  11  -2  166.42    8.15
  -5 -11  -2  156.77   11.86
   5 -11   2  146.19   11.09
   5  12  -4   94.52   14.57
  -5  12   4  105.85   12.58
  -5  12   4  104.73    9.90
   5  12  -3   88.95   13.35
   5  12  -3   78.58   12.87
  -5  12   3   87.97    7.48
  -5  12   3   91.63   11.62
   5  12  -2    9.32    5.12
  -5  12   2    5.61    5.98
  -5  12   2   12.32    7.30
   5 -12  -2    6.24    5.25
  -5 -12   2   24.39    3.89
   5  12  -1    9.99    3.90
  -5  12   1   10.34    5.97
  -5 -12   1    0.27    6.31
   5 -12  -1    1.03    4.41
   5  12   0  263.28   14.02
  -5  12   0  270.96   18.39
  -5 -12   0  234.36   21.23
   5 -12   0  224.16   10.66
   5  12   1   93.64   11.52
  -5  12  -1   97.95   15.29
  -5 -12  -1  115.21   15.06
   5 -12   1   98.58    8.84
   5  13  -3  192.15   16.25
  -5  13   3  172.50   13.19
  -5  13   3  181.16   20.09
   5  13  -2   97.37    8.76
  -5  13   2   78.40    7.72
  -5  13   2   87.28   18.00
   5  13  -1  186.82   11.60
  -5  13   1  188.35   23.56
  -5 -13   1  198.32   11.00
   5  13   0  197.21   15.93
  -5  13   0  202.73   21.66
  -5 -13   0  199.56   17.20
   6   0  -7    1.10    3.57
   6   0  -7    1.22    3.82
   6   0  -6   38.67    7.68
   6   0  -6   40.72    6.86
   6   0  -5  990.78   50.34
  -6   0   5  978.89   60.42
  -6   0   5 1016.84   42.37
   6   0  -4  111.95   16.13
  -6   0   4  114.04   15.41
  -6   0   4  119.10   17.47
   6   0  -3  135.33   16.05
  -6   0   3  125.45   19.81
  -6   0   3  140.95   23.38
   6   0  -2   10.21    6.96
  -6   0   2   12.85    6.56
  -6   0   2   13.90   10.02
   6   0  -1   64.57    6.88
  -6   0   1   64.43   15.23
  -6   0   1   62.68   14.09
  -6   0   1   63.85    6.64
   6   0   0  135.26   12.72
  -6   0   0  128.98   12.45
  -6   0   0  138.51   15.80
   6   0   1  606.66   28.44
  -6   0  -1  608.71   28.97
  -6   0  -1  677.90   30.05
   6   0   2  136.77   10.63
  -6   0  -2  153.63   11.98
   6   0   3    1.73    1.33
  -6   0  -3    2.71    4.67
   6   1  -7   93.01    7.05
   6   1  -7   87.07    8.20
   6  -1  -7   91.71    7.94
   6  -1  -7   93.75   11.65
   6   1  -6  386.78   24.69
   6   1  -6  392.66   30.14
  -6   1   6  388.11   21.75
   6  -1  -6  416.89   27.74
   6   1  -5  289.00   21.29
  -6   1   5  291.05   21.98
  -6   1   5  290.34   29.99
   6  -1  -5  233.10   22.55
  -6  -1   5  238.17   14.48
  -6  -1   5  240.42   19.92
   6   1  -4  932.40   38.90
  -6   1   4  935.52   60.41
  -6   1   4  943.81   41.73
   6  -1  -4  874.98   39.05
  -6  -1   4  858.89   45.04
  -6  -1   4  884.70   48.24
   6   1  -3  256.88   19.60
  -6   1   3  266.10   17.63
  -6   1   3  263.07   29.94
  -6  -1   3  233.37   28.56
  -6  -1   3  230.12   24.86
   6  -1  -3  234.91   15.19
  -6   1   2  565.96   31.40
   6   1  -2  562.86   29.35
  -6   1   2  583.24   39.54
  -6  -1   2  611.31   32.20
   6  -1  -2  610.22   26.83
  -6  -1   2  596.46   31.02
   6   1  -1    7.07    5.43
  -6   1   1    9.21    5.55
  -6   1   1   10.12    8.55
  -6   1   1    8.49    8.38
   6  -1  -1   10.07    6.56
  -6  -1   1    7.50    6.07
  -6  -1   1    9.55    5.81
  -6  -1   1    7.11    7.65
   6   1   0   99.38   10.36
  -6   1   0   95.48   15.95
  -6   1   0  105.73    9.22
   6  -1   0   96.18   11.92
  -6  -1   0  100.17   14.64
  -6  -1   0   91.05   17.73
  -6   1  -1 1281.93   60.30
  -6   1  -1 1135.83   55.96
  -6  -1  -1 1309.76   62.18
  -6  -1  -1 1239.20   61.81
   6  -1   1 1252.97   51.95
  -6   1  -2  217.22   20.62
   6  -1   2  225.65   10.82
  -6  -1  -2  232.69   21.20
  -6   1  -3   11.34    5.12
  -6  -1  -3   16.15    8.31
   6  -1   3   24.46    4.62
   6   2  -7    7.78    5.96
   6   2  -7    4.41    2.29
   6  -2  -7    7.79    5.79
   6  -2  -7    8.09    3.01
   6   2  -6  141.58   19.23
  -6   2   6  138.44    9.29
   6   2  -6  134.65   13.72
  -6   2   6  135.53   13.00
   6  -2  -6  124.43   17.39
   6   2  -5  226.52   13.41
   6   2  -5  233.19   17.36
  -6   2   5  233.76   19.66
  -6   2   5  242.68   21.26
   6  -2  -5  235.30   16.03
  -6  -2   5  256.90   14.22
   6   2  -4   32.13    5.64
  -6   2   4   35.74    7.54
  -6   2   4   42.36   10.08
  -6  -2   4   21.81   10.74
  -6  -2   4   22.87    9.31
   6  -2  -4   23.08   11.48
  -6   2   3  108.39   14.65
   6   2  -3  113.49    8.73
  -6   2   3  100.90   18.39
  -6  -2   3  117.89   13.32
   6  -2  -3  112.79   16.31
  -6  -2   3  108.57   18.25
  -6   2   2  182.34   25.57
  -6   2   2  174.94   14.46
  -6  -2   2  177.63   15.86
  -6  -2   2  187.52   10.56
   6  -2  -2  183.32   12.81
  -6  -2   2  179.13   14.86
  -6   2   1    0.31   12.07
  -6   2   1   38.55   11.29
  -6  -2   1   27.99    5.30
  -6  -2   1   22.65    7.64
   6  -2  -1   19.62    8.77
  -6   2   0  581.10   31.64
  -6   2   0  548.90   27.61
  -6  -2   0  639.45   28.16
  -6  -2   0  602.71   30.84
   6  -2   0  619.19   25.58
  -6   2  -1  302.77   17.12
  -6   2  -1  270.12   21.87
  -6  -2  -1  333.52   19.68
  -6  -2  -1  360.71   26.41
   6  -2   1  343.41   15.70
  -6   2  -2  399.86   20.82
   6  -2   2  488.57   23.65
  -6  -2  -2  490.84   30.68
  -6  -2  -2  433.22   20.55
  -6   2  -3  180.48   17.09
  -6  -2  -3  188.57   11.81
   6  -2   3  188.75    8.84
   6   3  -7  201.87   17.11
   6  -3  -7  192.53   16.63
   6   3  -6  241.94   16.60
  -6   3   6  242.68   23.44
   6   3  -6  226.42   15.03
  -6   3   6  242.34   12.76
   6  -3  -6  229.97   15.30
   6   3  -5  312.01   30.09
  -6   3   5  319.49   32.92
  -6   3   5  323.43   18.27
   6  -3  -5  371.52   27.70
  -6  -3   5  362.93   22.17
   6   3  -4  112.67   12.71
  -6   3   4  116.72   23.97
  -6   3   4  119.61   18.39
   6  -3  -4  140.29   18.36
  -6  -3   4  143.10   17.36
  -6   3   3  337.18   25.20
  -6   3   3  341.94   20.51
  -6  -3   3  314.53   27.91
  -6  -3   3  314.24   21.46
   6  -3  -3  319.05   26.90
  -6   3   2  282.59   32.10
  -6   3   2  296.70   26.76
  -6  -3   2  300.94   28.42
  -6  -3   2  298.24   18.92
   6  -3  -2  303.16   24.14
  -6   3   1   -0.43   12.67
  -6   3   1   27.04    6.83
  -6  -3   1   31.56    8.66
  -6  -3   1   31.37   13.08
   6  -3  -1   27.27    5.76
  -6   3   0   62.16   10.86
  -6   3   0   71.53   13.07
  -6  -3   0   68.88   12.70
  -6  -3   0   67.63   10.45
   6  -3   0   64.01    7.42
  -6   3  -1  374.30   24.62
   6  -3   1  343.21   16.34
  -6  -3  -1  345.61   19.11
  -6  -3  -1  324.18   27.41
  -6   3  -2  440.00   27.54
  -6  -3  -2  444.33   21.82
   6  -3   2  454.26   23.78
  -6  -3  -2  420.71   26.66
  -6   3  -3  386.21   23.86
  -6  -3  -3  377.22   22.92
   6  -3   3  370.00   14.48
   6   4  -6  418.31   23.07
  -6   4   6  440.02   24.49
  -6   4   6  429.07   29.46
   6  -4  -6  404.22   21.12
  -6   4   5   22.02   13.21
   6   4  -5   24.02   12.27
  -6   4   5   17.04    9.90
   6  -4  -5   26.46   10.66
   6   4  -4  158.69   22.62
  -6   4   4  169.08   26.69
  -6   4   4  163.98   13.57
   6  -4  -4  188.95   21.28
  -6  -4   4  186.12   18.93
   6   4  -3   13.05    2.99
   6   4  -3   11.42    8.93
  -6   4   3   17.57    9.03
  -6   4   3   17.22   12.73
   6  -4  -3    4.09    9.04
  -6  -4   3    3.74    9.15
   6   4  -2  151.42   16.91
  -6   4   2  165.51   13.48
  -6   4   2  154.98   16.34
   6  -4  -2  139.98   18.23
  -6  -4   2  145.97   21.88
  -6   4   1  455.46   27.15
  -6   4   1  444.22   30.67
  -6  -4   1  534.98   29.33
  -6  -4   1  506.26   37.93
   6  -4  -1  515.48   23.70
  -6   4   0  270.15   14.40
  -6   4   0  247.14   21.29
  -6  -4   0  337.10   24.08
  -6  -4   0  324.94   29.36
   6  -4   0  330.10   16.25
  -6   4  -1 1010.77   47.29
   6  -4   1  975.82   38.39
  -6  -4  -1 1001.22   41.91
  -6  -4  -1  959.88   53.07
  -6   4  -2  431.05   27.14
   6  -4   2  453.71   24.26
  -6  -4  -2  457.23   21.67
  -6  -4  -2  448.08   27.54
  -6   4  -3  567.43   23.27
  -6  -4  -3  550.58   27.70
   6  -4   3  549.44   20.10
   6   5  -6  364.21   20.83
  -6   5   6  361.79   25.40
  -6   5   6  385.56   22.29
   6  -5  -6  339.32   18.48
   6   5  -5  368.71   31.45
  -6   5   5  372.22   19.17
  -6   5   5  372.40   23.43
   6  -5  -5  363.01   28.23
   6   5  -4   43.45   14.95
  -6   5   4   46.85    8.49
  -6   5   4   51.14   18.35
   6  -5  -4   61.16   14.05
  -6  -5   4   60.01   11.77
   6   5  -3  214.08   22.90
  -6   5   3  236.42   15.82
  -6   5   3  225.97   30.11
   6  -5  -3  221.67   23.05
  -6  -5   3  217.43   23.13
   6   5  -2    9.65    6.70
   6   5  -2   18.37    8.58
  -6   5   2   23.91    6.29
  -6   5   2   20.55   12.90
   6  -5  -2   20.73    9.52
  -6  -5   2   14.68   11.25
  -6   5   1  307.39   17.67
  -6   5   1  303.91   31.04
   6  -5  -1  292.56   23.08
  -6  -5   1  321.44   17.02
  -6  -5   1  293.88   29.82
  -6   5   0  294.23   25.79
  -6   5   0  291.94   21.18
  -6  -5   0  325.43   17.43
  -6  -5   0  316.69   29.55
   6  -5   0  314.51   16.53
  -6   5  -1  204.23   16.92
   6  -5   1  199.33   17.01
  -6  -5  -1  209.47   19.52
  -6  -5  -1  201.78   15.26
  -6   5  -2  116.68   13.82
   6  -5   2  122.23    8.78
  -6  -5  -2  126.01    9.87
  -6  -5  -2  125.19   15.28
  -6   5  -3   75.00    7.03
  -6  -5  -3   85.67   10.59
   6  -5   3   85.88    6.08
   6   6  -6  319.48   18.88
  -6   6   6  334.11   15.09
  -6   6   6  333.17   22.72
   6  -6  -6  298.46   22.61
   6   6  -5  275.81   27.34
  -6   6   5  292.49   15.91
  -6   6   5  292.04   19.64
   6  -6  -5  256.83   16.27
   6   6  -4  311.99   28.09
  -6   6   4  325.63   25.30
  -6   6   4  338.88   23.67
   6  -6  -4  271.44   25.42
  -6  -6   4  276.82   15.61
   6   6  -3 1128.20   59.35
  -6   6   3 1173.04   50.25
  -6   6   3 1151.26   57.70
   6  -6  -3 1223.25   52.32
  -6  -6   3 1197.74   60.77
   6   6  -2  699.09   31.60
  -6   6   2  759.18   40.68
   6   6  -2  690.04   29.66
  -6   6   2  749.64   41.77
  -6  -6   2  776.60   46.58
   6  -6  -2  793.24   34.67
   6   6  -1  174.82   11.58
  -6   6   1  169.10   12.17
  -6   6   1  176.08   16.24
   6  -6  -1  154.58   17.54
  -6  -6   1  140.96   22.69
  -6   6   0  157.30   20.43
   6  -6   0  174.48   17.05
  -6  -6   0  181.62   12.89
  -6  -6   0  179.84   23.26
  -6   6  -1  268.73   18.68
  -6  -6  -1  327.18   23.99
   6  -6   1  337.91   22.10
  -6  -6  -1  316.15   19.47
  -6   6  -2  311.04   20.06
   6  -6   2  307.07   14.24
  -6  -6  -2  318.42   16.00
  -6  -6  -2  305.40   16.29
  -6   6  -3  305.80   13.10
   6  -6   3  312.57   16.72
   6   7  -6  102.43    9.89
  -6   7   6  101.71    7.30
  -6   7   6   85.77   10.84
   6  -7  -6   93.16    8.10
   6   7  -5  111.92   18.58
  -6   7   5  112.36    9.85
  -6   7   5  113.17   18.19
   6  -7  -5  122.10   15.25
   6   7  -4  246.19   17.22
  -6   7   4  255.07   20.31
  -6   7   4  242.77   22.31
   6  -7  -4  255.48   15.83
   6   7  -3  192.65   13.96
   6   7  -3  149.95   10.49
  -6   7   3  201.09   20.30
  -6   7   3  206.86   27.23
   6  -7  -3  217.38   14.48
  -6  -7   3  222.65   19.97
   6   7  -2   60.75    6.74
  -6   7   2   83.29   13.61
  -6   7   2   82.13   12.78
   6  -7  -2   94.86   14.03
  -6  -7   2   93.75   16.16
  -6   7   1   34.95   14.92
   6   7  -1   12.54   10.64
  -6   7   1   41.99    6.29
  -6  -7   1   44.55   13.97
   6  -7  -1   46.74    7.30
   6   7   0   72.08    8.55
  -6   7   0  124.51   11.60
  -6  -7   0  126.25   18.83
   6  -7   0  124.37   14.41
  -6   7  -1  152.61   12.30
  -6  -7  -1  149.19   19.62
   6  -7   1  152.36   10.16
   6   7   2  293.96   14.86
  -6   7  -2  412.89   20.71
  -6  -7  -2  410.47   18.25
   6  -7   2  432.34   22.00
   6   8  -5   19.55   12.32
  -6   8   5   48.56    6.50
  -6   8   5   47.90    7.52
   6  -8  -5   35.11    6.28
   6   8  -4  114.06   10.31
   6   8  -4  111.43   11.37
  -6   8   4  115.40   13.82
  -6   8   4  117.62   15.28
   6  -8  -4   99.60   15.01
   6   8  -3  418.75   18.34
   6   8  -3  403.10   21.00
  -6   8   3  429.17   27.77
  -6   8   3  425.45   36.88
   6  -8  -3  416.63   28.11
  -6  -8   3  391.28   19.68
   6   8  -2  218.12   13.34
  -6   8   2  249.63   19.81
  -6   8   2  249.27   29.29
   6  -8  -2  227.07   14.45
  -6  -8   2  230.37   15.85
   6   8  -1  111.96   12.74
  -6   8   1   64.72   11.36
  -6   8   1   75.62   18.68
   6  -8  -1  101.67   14.12
  -6  -8   1   89.96   16.92
   6   8   0  821.53   36.11
  -6   8   0  978.67   50.56
  -6  -8   0  923.86   51.47
   6  -8   0  937.79   36.87
   6   8   1  214.30   20.39
   6  -8   1  378.26   20.95
  -6  -8  -1  377.44   26.34
   6   8   2    0.06    1.67
   6  -8   2    0.59    2.76
  -6  -8  -2    1.34    1.98
   6   9  -5  326.62   17.77
  -6   9   5  347.11   15.80
  -6   9   5  344.53   17.05
   6  -9  -5  351.33   19.64
   6   9  -4  578.46   34.02
   6   9  -4  542.66   24.10
  -6   9   4  647.45   31.71
  -6   9   4  632.62   33.21
   6  -9  -4  624.02   31.60
   6   9  -3    8.49    6.84
  -6   9   3   16.30   10.15
   6   9  -3    7.15    5.94
  -6   9   3   10.25    4.32
  -6  -9   3    7.78    6.10
   6  -9  -3    9.84    6.93
   6   9  -2   46.70   10.78
  -6   9   2   61.58    7.17
  -6   9   2   59.25   17.95
   6  -9  -2   66.94   11.38
  -6  -9   2   69.30   12.95
  -6   9   1   49.16   16.11
   6   9  -1   72.80   11.34
  -6   9   1   49.84    8.63
  -6  -9   1   56.39   13.82
   6  -9  -1   56.39    7.09
   6   9   0   31.11    5.16
  -6   9   0   21.55   10.92
  -6  -9   0   18.77   11.51
   6  -9   0   33.03    5.58
   6   9   1   94.55    7.10
   6  -9   1   82.77   10.75
  -6  -9  -1   84.85   14.09
   6  10  -4   62.74    7.26
  -6  10   4   68.23   14.29
  -6  10   4   64.95    6.80
   6 -10  -4   61.92    9.07
   6  10  -3  130.01   12.50
   6  10  -3  103.19   11.50
  -6  10   3  116.30   12.69
  -6  10   3  113.14   19.24
   6 -10  -3  111.33    8.28
  -6 -10   3   96.34    9.60
   6  10  -2   23.56    4.30
  -6  10   2    9.37    6.18
  -6  10   2   13.58    6.86
   6 -10  -2    5.33    6.75
  -6 -10   2    3.94    7.23
   6  10  -1    0.69    5.85
  -6  10   1    7.82    8.28
  -6 -10   1    7.28    4.10
   6 -10  -1    7.07    3.32
   6  10   0  436.46   20.64
  -6  10   0  600.53   25.88
  -6 -10   0  565.07   32.35
   6 -10   0  565.79   26.62
   6  10   1  141.68    9.35
   6 -10   1  201.69   13.23
  -6 -10  -1  206.35   11.70
   6  11  -3    8.61    5.73
  -6  11   3    9.42    5.70
  -6  11   3   23.52    3.62
   6 -11  -3    4.62    4.75
   6  11  -2  119.89    8.48
  -6  11   2  117.57   12.15
  -6 -11   2  118.60   11.21
   6 -11  -2  125.63   10.94
   6  11  -1    0.17    1.69
  -6  11   1    0.69    2.38
  -6 -11   1   -0.04    2.97
   6 -11  -1    0.35    1.41
   6  11   0   39.30    8.23
  -6  11   0   51.94    8.79
  -6 -11   0   40.83    6.02
   6 -11   0   36.65    4.01
   7   0  -5    0.80    3.28
   7   0  -5    1.40    2.92
  -7   0   5    0.94    3.80
   7   0  -4  114.29   12.51
  -7   0   4  109.80   12.34
  -7   0   4  123.25   10.86
   7   0  -3  131.60   13.20
  -7   0   3  123.23   18.44
  -7   0   3  131.65   12.43
   7   0  -2   16.47    4.05
  -7   0   2   20.18    9.79
  -7   0   2    0.69    8.16
   7   0  -1    3.68    4.22
  -7   0   1    4.24    4.26
  -7   0   0    1.95    5.28
  -7   0   0    2.88    3.86
  -7   0  -1    1.42    2.99
  -7   0  -1    2.18    2.24
   7   1  -5  385.69   19.63
   7   1  -5  429.44   29.41
  -7   1   5  439.87   19.68
   7  -1  -5  498.54   25.54
  -7  -1   5  517.16   25.90
   7   1  -4    4.86    4.02
  -7   1   4    7.13    7.63
   7   1  -4    4.13    2.63
  -7   1   4    6.90    6.39
  -7  -1   4    1.79    6.08
   7  -1  -4    1.20    5.26
   7   1  -3  175.17   13.97
  -7   1   3  181.58   14.78
  -7   1   3  190.36   21.56
   7  -1  -3  197.52   11.80
  -7  -1   3  204.46   14.66
   7   1  -2  425.14   19.86
  -7   1   2  418.74   22.21
  -7   1   2  440.92   24.02
   7  -1  -2  512.34   26.66
  -7  -1   2  515.10   33.78
  -7   1   1  261.81   22.80
  -7  -1   1  273.02   12.31
   7  -1  -1  261.21   12.91
  -7  -1   1  267.13   24.57
  -7   1   0   86.92    6.84
  -7   1   0   91.32   13.47
  -7  -1   0  116.61    7.73
  -7  -1   0  112.36    9.99
   7  -1   0  106.40   10.24
  -7   1  -1   14.24    6.55
  -7  -1  -1   35.68    6.81
   7  -1   1   24.52    3.03
  -7  -1  -1   12.40    6.66
   7   2  -5   71.35   13.75
  -7   2   5   67.50    9.55
  -7   2   5   69.20   11.25
   7  -2  -5   68.11   11.08
  -7  -2   5   63.23    9.71
   7   2  -4  284.06   23.97
  -7   2   4  281.55   16.76
  -7   2   4  283.06   19.14
   7  -2  -4  287.31   21.07
  -7  -2   4  288.52   22.92
   7   2  -3   85.88   13.47
  -7   2   3   87.57   11.35
  -7   2   3   89.04   10.37
   7  -2  -3   83.80   12.85
  -7  -2   3   84.16   16.08
  -7   2   2  214.58   15.48
  -7   2   2  223.00   22.59
   7  -2  -2  227.08   13.14
  -7  -2   2  231.47   16.51
  -7   2   1  652.66   29.50
  -7  -2   1  682.39   32.54
   7  -2  -1  671.11   32.67
  -7   2   0  307.83   12.42
  -7   2   0  300.50   15.29
  -7  -2   0  297.79   18.45
  -7  -2   0  282.93   23.39
   7  -2   0  274.66   13.23
  -7   2  -1   82.95    9.34
  -7  -2  -1   87.10    6.85
   7  -2   1   82.98    8.56
  -7  -2  -1   75.26    7.00
   7   3  -5  469.21   28.79
  -7   3   5  472.08   31.12
  -7   3   5  486.10   20.35
   7  -3  -5  404.05   18.86
  -7  -3   5  353.25   18.74
   7   3  -4  373.59   25.95
  -7   3   4  364.98   30.65
  -7   3   4  358.21   25.55
   7  -3  -4  320.04   17.13
  -7  -3   4  318.55   23.59
   7   3  -3  716.26   37.63
  -7   3   3  738.87   45.49
  -7   3   3  738.71   42.04
   7  -3  -3  746.70   38.27
  -7  -3   3  757.41   42.56
  -7   3   2  311.07   26.14
  -7   3   2  303.39   24.93
   7  -3  -2  323.40   22.69
  -7  -3   2  314.86   19.51
   7   3  -1   -0.81    2.41
  -7   3   1    8.29    3.21
  -7   3   1    7.08    5.70
   7  -3  -1    8.22    5.14
  -7  -3   1   10.25    7.07
  -7   3   0  152.41    7.21
  -7   3   0  156.78    9.54
  -7  -3   0  149.16    9.40
  -7  -3   0  132.06   17.61
   7  -3   0  134.11   13.35
  -7   3  -1  599.33   24.53
   7  -3   1  599.26   26.28
  -7  -3  -1  645.54   29.60
  -7  -3  -1  583.29   28.98
   7   4  -5  420.46   27.08
  -7   4   5  448.32   25.01
  -7   4   5  444.73   29.57
   7  -4  -5  407.13   18.89
   7   4  -4  294.91   23.18
  -7   4   4  306.25   19.73
  -7   4   4  302.54   16.79
   7  -4  -4  283.86   15.85
  -7  -4   4  305.67   21.29
   7   4  -3   95.80   13.03
  -7   4   3   94.56   11.66
  -7   4   3  103.14   15.70
   7  -4  -3   97.56   14.23
  -7  -4   3  102.07   15.63
   7   4  -2   30.79    3.67
  -7   4   2   29.47    7.37
  -7   4   2   34.17    6.65
   7  -4  -2   36.75   10.07
  -7  -4   2   38.05   12.16
   7   4  -1   -0.52    4.54
  -7   4   1   10.30    6.43
  -7   4   1   11.46    6.04
   7  -4  -1   17.18    6.21
  -7  -4   1    5.68    8.25
  -7   4   0   50.71    5.31
  -7  -4   0   77.01    8.40
   7  -4   0   81.08   10.21
   7  -4   1  139.74   11.46
  -7  -4  -1  131.06    8.57
   7   5  -5   64.19   11.93
  -7   5   5   66.54   10.65
  -7   5   5   64.04    8.42
   7  -5  -5   84.37   11.31
   7   5  -4  233.75   19.77
  -7   5   4  234.62   24.84
  -7   5   4  246.99   14.65
   7  -5  -4  254.92   14.39
  -7  -5   4  256.04   12.94
  -7   5   3  613.27   39.44
  -7   5   3  614.18   27.52
   7  -5  -3  592.63   33.12
  -7  -5   3  604.53   34.72
  -7   5   2  397.86   29.01
  -7   5   2  399.54   19.59
   7  -5  -2  416.08   26.29
  -7  -5   2  406.47   29.57
   7   5  -1  618.69   25.74
  -7   5   1  783.03   35.68
  -7   5   1  783.14   31.01
   7  -5  -1  821.24   37.89
  -7  -5   1  783.40   42.84
   7  -5   0  273.12   18.12
  -7  -5   0  271.59   22.44
  -7   6   4  301.85   26.02
   7   6  -4  300.25   15.10
  -7   6   4  311.88   21.73
   7  -6  -4  289.68   21.28
  -7   6   3  115.72   17.81
   7   6  -3  100.89    7.31
  -7   6   3  117.89    9.70
   7  -6  -3  121.03   14.26
  -7  -6   3  116.52   14.16
  -7   6   2  121.99   16.56
  -7   6   2  114.04    9.32
   7  -6  -2  122.90    9.84
  -7  -6   2  129.72   16.38
   7   6  -1    2.22    2.54
  -7   6   1    9.94    5.35
  -7   6   1    7.18    4.42
   7  -6  -1    7.97    3.48
  -7  -6   1    8.85    6.82
   7   6   0   62.04    5.66
   7  -6   0   48.74    5.99
  -7  -6   0   48.32   11.63
  -7   7   3  457.53   19.45
  -7   7   3  450.72   30.08
   7  -7  -3  389.52   18.54
  -7  -7   3  407.25   23.58
  -7   7   2  184.11   12.19
   7   7  -2  128.08    7.83
  -7   7   2  173.93   13.76
   7  -7  -2  151.47   15.41
  -7  -7   2  151.90   16.56
  -7   7   1  125.50   11.62
   7   7  -1  100.39   10.42
   7  -7  -1  106.44   12.52
  -7  -7   1  111.10   15.18
  -7   8   2  109.56    9.46
   7  -8  -2  117.89    8.41
  -7  -8   2  115.66    8.52
;
_shelx_hkl_checksum              51700
loop_
_symmetry_equiv_pos_as_xyz
'x, y, z'
'-x, y+1/2, -z'
loop_
_atom_site_label
_atom_site_type_symbol
_atom_site_fract_x
_atom_site_fract_y
_atom_site_fract_z
_atom_site_U_iso_or_equiv
_atom_site_adp_type
_atom_site_occupancy
_atom_site_symmetry_multiplicity
_atom_site_calc_flag
_atom_site_refinement_flags
S1 S -0.16543(7) 0.38216(3) 0.52908(7) 0.01335(12) Uani 1 1 d .
O1 O 0.3247(2) 0.27955(10) 0.7467(2) 0.0149(3) Uani 1 1 d .
H2 H 0.4212 0.2612 0.8370 0.018 Uiso 1 1 calc R
O2 O 0.3434(2) 0.59551(10) 0.3456(2) 0.0165(3) Uani 1 1 d .
O3 O 0.9369(2) 0.71248(10) 0.7337(2) 0.0199(4) Uani 1 1 d .
O4 O 0.1439(2) 0.50358(10) 0.78656(19) 0.0132(3) Uani 1 1 d .
O5 O 0.4189(2) 0.44284(11) 1.1324(2) 0.0221(4) Uani 1 1 d .
H12 H 0.4099 0.4871 1.1984 0.027 Uiso 1 1 calc R
O6 O -0.2521(2) 0.47009(10) 0.5005(2) 0.0173(3) Uani 1 1 d .
O7 O -0.3013(2) 0.30923(11) 0.4500(2) 0.0188(3) Uani 1 1 d .
O8W O 0.6535(3) 0.26902(12) 1.0516(2) 0.0253(4) Uani 1 1 d D
H16W H 0.762(3) 0.2369(18) 1.090(4) 0.030 Uiso 1 1 d D
H17W H 0.613(4) 0.2869(19) 1.138(3) 0.030 Uiso 1 1 d D
N1 N 0.4069(3) 0.56500(12) 0.6554(2) 0.0129(4) Uani 1 1 d .
N2 N 0.6316(3) 0.65802(12) 0.5476(2) 0.0133(4) Uani 1 1 d .
H5 H 0.6542 0.6914 0.4575 0.016 Uiso 1 1 calc R
N3 N 0.0452(2) 0.37681(13) 0.4482(2) 0.0123(3) Uani 1 1 d .
H15 H 0.056(4) 0.3274(19) 0.397(3) 0.015 Uiso 1 1 d .
C1 C 0.3181(3) 0.37321(15) 0.7507(3) 0.0128(4) Uani 1 1 d .
H1 H 0.4625 0.3963 0.8153 0.015 Uiso 1 1 calc R
C2 C 0.2460(3) 0.41619(14) 0.5603(3) 0.0126(4) Uani 1 1 d .
H3 H 0.3605 0.4138 0.4924 0.015 Uiso 1 1 calc R
C3 C 0.2091(3) 0.51189(14) 0.6182(3) 0.0125(4) Uani 1 1 d .
H4 H 0.0947 0.5410 0.5203 0.015 Uiso 1 1 calc R
C4 C 0.4532(3) 0.60566(14) 0.5045(3) 0.0131(4) Uani 1 1 d .
C5 C 0.7792(3) 0.66391(14) 0.7167(3) 0.0146(4) Uani 1 1 d .
C6 C 0.7311(3) 0.61306(13) 0.8655(3) 0.0135(4) Uani 1 1 d .
C7 C 0.8848(4) 0.61459(15) 1.0545(3) 0.0185(5) Uani 1 1 d .
H6 H 1.0280 0.6000 1.0430 0.022 Uiso 1 1 calc R
H7 H 0.8408 0.5709 1.1349 0.022 Uiso 1 1 calc R
H8 H 0.8858 0.6738 1.1089 0.022 Uiso 1 1 calc R
C8 C 0.5466(3) 0.56881(14) 0.8299(3) 0.0146(4) Uani 1 1 d .
H9 H 0.5098 0.5385 0.9294 0.018 Uiso 1 1 calc R
C9 C 0.1532(3) 0.41162(15) 0.8447(3) 0.0141(4) Uani 1 1 d .
C10 C 0.2132(3) 0.40792(15) 1.0557(3) 0.0175(5) Uani 1 1 d .
H10 H 0.1078 0.4420 1.1031 0.021 Uiso 1 1 calc R
H11 H 0.2086 0.3456 1.0962 0.021 Uiso 1 1 calc R
C11 C -0.0657(3) 0.36717(14) 0.7728(3) 0.0152(4) Uani 1 1 d .
H13 H -0.1674 0.3929 0.8376 0.018 Uiso 1 1 calc R
H14 H -0.0528 0.3030 0.8013 0.018 Uiso 1 1 calc R
loop_
_atom_site_aniso_label
_atom_site_aniso_U_11
_atom_site_aniso_U_22
_atom_site_aniso_U_33
_atom_site_aniso_U_23
_atom_site_aniso_U_13
_atom_site_aniso_U_12
S1 0.0096(2) 0.0138(2) 0.0169(2) -0.0004(2) 0.00383(17) 0.00000(19)
O1 0.0157(7) 0.0117(7) 0.0152(7) 0.0013(6) 0.0001(6) 0.0031(6)
O2 0.0161(7) 0.0189(8) 0.0131(7) 0.0017(6) 0.0013(6) -0.0030(6)
O3 0.0150(7) 0.0176(8) 0.0240(9) 0.0036(6) -0.0011(6) -0.0042(7)
O4 0.0155(7) 0.0115(7) 0.0138(7) 0.0012(6) 0.0062(6) 0.0014(6)
O5 0.0237(9) 0.0250(9) 0.0142(8) -0.0027(7) -0.0015(7) -0.0015(7)
O6 0.0120(8) 0.0175(8) 0.0212(8) -0.0011(6) 0.0020(6) 0.0014(6)
O7 0.0134(7) 0.0195(8) 0.0236(8) -0.0020(6) 0.0047(6) -0.0035(7)
O8W 0.0203(9) 0.0350(11) 0.0182(9) -0.0023(8) 0.0004(7) 0.0075(8)
N1 0.0125(9) 0.0116(8) 0.0140(9) -0.0002(7) 0.0026(7) -0.0013(7)
N2 0.0138(9) 0.0112(8) 0.0146(9) 0.0037(7) 0.0033(7) -0.0004(7)
N3 0.0107(8) 0.0112(8) 0.0148(8) -0.0026(8) 0.0032(6) -0.0001(8)
C1 0.0113(9) 0.0109(10) 0.0165(10) -0.0030(9) 0.0042(8) -0.0019(9)
C2 0.0101(10) 0.0141(10) 0.0148(10) -0.0007(8) 0.0057(8) -0.0008(8)
C3 0.0102(10) 0.0142(10) 0.0131(10) -0.0006(8) 0.0026(8) -0.0020(8)
C4 0.0127(11) 0.0107(10) 0.0157(10) 0.0008(8) 0.0034(8) 0.0027(8)
C5 0.0128(10) 0.0106(10) 0.0193(11) -0.0013(9) 0.0019(8) 0.0015(9)
C6 0.0144(10) 0.0100(10) 0.0150(10) -0.0028(8) 0.0019(8) 0.0022(8)
C7 0.0197(11) 0.0166(11) 0.0165(11) -0.0014(9) -0.0002(9) 0.0006(9)
C8 0.0164(10) 0.0134(10) 0.0139(10) -0.0015(8) 0.0036(8) 0.0018(8)
C9 0.0160(11) 0.0116(9) 0.0157(11) 0.0015(8) 0.0056(9) 0.0016(8)
C10 0.0214(12) 0.0192(11) 0.0129(11) 0.0026(8) 0.0063(9) 0.0028(9)
C11 0.0147(10) 0.0158(12) 0.0169(10) 0.0021(9) 0.0074(8) 0.0005(9)
loop_
_atom_type_symbol
_atom_type_description
_atom_type_scat_dispersion_real
_atom_type_scat_dispersion_imag
_atom_type_scat_source
C C 0.0181 0.0091 'International Tables Vol C Tables 4.2.6.8 and 6.1.1.4'
H H 0.0000 0.0000 'International Tables Vol C Tables 4.2.6.8 and 6.1.1.4'
O O 0.0492 0.0322 'International Tables Vol C Tables 4.2.6.8 and 6.1.1.4'
N N 0.0311 0.0180 'International Tables Vol C Tables 4.2.6.8 and 6.1.1.4'
S S 0.3331 0.5567 'International Tables Vol C Tables 4.2.6.8 and 6.1.1.4'
loop_
_geom_angle_atom_site_label_1
_geom_angle_atom_site_label_2
_geom_angle_atom_site_label_3
_geom_angle
O6 S1 O7 118.02(9)
O6 S1 N3 108.96(9)
O7 S1 N3 107.23(10)
O6 S1 C11 107.20(10)
O7 S1 C11 110.22(10)
N3 S1 C11 104.36(9)
C1 O1 H2 109.5
C3 O4 C9 110.30(15)
C10 O5 H12 109.5
H16W O8W H17W 110(3)
C4 N1 C8 121.27(18)
C4 N1 C3 116.63(16)
C8 N1 C3 121.94(17)
C4 N2 C5 126.92(18)
C4 N2 H5 116.5
C5 N2 H5 116.5
C2 N3 S1 118.26(14)
C2 N3 H15 116.3(17)
S1 N3 H15 112.5(17)
O1 C1 C2 114.24(17)
O1 C1 C9 114.55(17)
C2 C1 C9 100.27(17)
O1 C1 H1 109.1
C2 C1 H1 109.1
C9 C1 H1 109.1
N3 C2 C1 111.81(17)
N3 C2 C3 110.84(17)
C1 C2 C3 99.90(16)
N3 C2 H3 111.3
C1 C2 H3 111.3
C3 C2 H3 111.3
O4 C3 N1 108.75(16)
O4 C3 C2 105.36(16)
N1 C3 C2 111.74(17)
O4 C3 H4 110.3
N1 C3 H4 110.3
C2 C3 H4 110.3
O2 C4 N2 123.14(18)
O2 C4 N1 122.46(19)
N2 C4 N1 114.40(17)
O3 C5 N2 119.75(19)
O3 C5 C6 124.8(2)
N2 C5 C6 115.46(19)
C8 C6 C5 118.10(19)
C8 C6 C7 122.7(2)
C5 C6 C7 119.15(19)
C6 C7 H6 109.5
C6 C7 H7 109.5
H6 C7 H7 109.5
C6 C7 H8 109.5
H6 C7 H8 109.5
H7 C7 H8 109.5
C6 C8 N1 123.15(19)
C6 C8 H9 118.4
N1 C8 H9 118.4
O4 C9 C10 108.87(17)
O4 C9 C1 101.91(16)
C10 C9 C1 115.58(18)
O4 C9 C11 110.43(17)
C10 C9 C11 108.31(17)
C1 C9 C11 111.55(17)
O5 C10 C9 111.75(17)
O5 C10 H10 109.3
C9 C10 H10 109.3
O5 C10 H11 109.3
C9 C10 H11 109.3
H10 C10 H11 107.9
C9 C11 S1 111.30(14)
C9 C11 H13 109.4
S1 C11 H13 109.4
C9 C11 H14 109.4
S1 C11 H14 109.4
H13 C11 H14 108.0
loop_
_geom_bond_atom_site_label_1
_geom_bond_atom_site_label_2
_geom_bond_distance
S1 O6 1.4354(16)
S1 O7 1.4387(16)
S1 N3 1.6299(16)
S1 C11 1.777(2)
O1 C1 1.414(3)
O1 H2 0.8400
O2 C4 1.225(3)
O3 C5 1.239(3)
O4 C3 1.425(2)
O4 C9 1.450(3)
O5 C10 1.413(3)
O5 H12 0.8400
O8W H16W 0.840(17)
O8W H17W 0.801(17)
N1 C4 1.378(3)
N1 C8 1.382(3)
N1 C3 1.478(3)
N2 C4 1.371(3)
N2 C5 1.376(3)
N2 H5 0.8800
N3 C2 1.481(3)
N3 H15 0.85(3)
C1 C2 1.519(3)
C1 C9 1.534(3)
C1 H1 1.0000
C2 C3 1.543(3)
C2 H3 1.0000
C3 H4 1.0000
C5 C6 1.444(3)
C6 C8 1.338(3)
C6 C7 1.502(3)
C7 H6 0.9800
C7 H7 0.9800
C7 H8 0.9800
C8 H9 0.9500
C9 C10 1.518(3)
C9 C11 1.538(3)
C10 H10 0.9900
C10 H11 0.9900
C11 H13 0.9900
C11 H14 0.9900
loop_
_geom_torsion_atom_site_label_1
_geom_torsion_atom_site_label_2
_geom_torsion_atom_site_label_3
_geom_torsion_atom_site_label_4
_geom_torsion
O6 S1 N3 C2 77.11(17)
O7 S1 N3 C2 -154.07(16)
C11 S1 N3 C2 -37.14(18)
S1 N3 C2 C1 59.9(2)
S1 N3 C2 C3 -50.6(2)
O1 C1 C2 N3 50.5(2)
C9 C1 C2 N3 -72.5(2)
O1 C1 C2 C3 167.84(16)
C9 C1 C2 C3 44.83(19)
C9 O4 C3 N1 -115.57(18)
C9 O4 C3 C2 4.4(2)
C4 N1 C3 O4 -158.16(17)
C8 N1 C3 O4 26.3(3)
C4 N1 C3 C2 86.0(2)
C8 N1 C3 C2 -89.6(2)
N3 C2 C3 O4 86.75(19)
C1 C2 C3 O4 -31.3(2)
N3 C2 C3 N1 -155.32(16)
C1 C2 C3 N1 86.65(18)
C5 N2 C4 O2 -170.6(2)
C5 N2 C4 N1 9.4(3)
C8 N1 C4 O2 172.08(18)
C3 N1 C4 O2 -3.5(3)
C8 N1 C4 N2 -7.9(3)
C3 N1 C4 N2 176.57(16)
C4 N2 C5 O3 177.9(2)
C4 N2 C5 C6 -4.0(3)
O3 C5 C6 C8 175.0(2)
N2 C5 C6 C8 -3.0(3)
O3 C5 C6 C7 -2.8(3)
N2 C5 C6 C7 179.22(18)
C5 C6 C8 N1 4.2(3)
C7 C6 C8 N1 -178.17(19)
C4 N1 C8 C6 1.6(3)
C3 N1 C8 C6 176.9(2)
C3 O4 C9 C10 146.85(16)
C3 O4 C9 C1 24.3(2)
C3 O4 C9 C11 -94.36(19)
O1 C1 C9 O4 -165.92(16)
C2 C1 C9 O4 -43.13(19)
O1 C1 C9 C10 76.2(2)
C2 C1 C9 C10 -161.00(18)
O1 C1 C9 C11 -48.1(2)
C2 C1 C9 C11 74.7(2)
O4 C9 C10 O5 -63.4(2)
C1 C9 C10 O5 50.5(2)
C11 C9 C10 O5 176.46(17)
O4 C9 C11 S1 52.69(19)
C10 C9 C11 S1 171.82(14)
C1 C9 C11 S1 -59.9(2)
O6 S1 C11 C9 -79.22(16)
O7 S1 C11 C9 151.13(14)
N3 S1 C11 C9 36.28(17)
