#------------------------------------------------------------------------------
#$Date: 2019-11-17 14:43:17 +0200 (Sun, 17 Nov 2019) $
#$Revision: 230579 $
#$URL: file:///home/coder/svn-repositories/cod/cif/7/15/63/7156307.cif $
#------------------------------------------------------------------------------
#
# This file is available in the Crystallography Open Database (COD),
# http://www.crystallography.net/
#
# All data on this site have been placed in the public domain by the
# contributors.
#
data_7156307
loop_
_publ_author_name
'Murugan, Arumugavel'
'Gorantla, Koteswar Rao'
'Mallik, Bhabani S.'
'Sharada, Duddu S.'
_publ_section_title
;
 Iron promoted C3-H nitration of 2H-indazole: direct access to
 3-nitro-2H-indazoles.
;
_journal_issue                   28
_journal_name_full               'Organic &amp; biomolecular chemistry'
_journal_page_first              5113
_journal_page_last               5118
_journal_paper_doi               10.1039/c8ob00931g
_journal_volume                  16
_journal_year                    2018
_chemical_formula_moiety         'C15 H11 N3 O3'
_chemical_formula_sum            'C15 H11 N3 O3'
_chemical_formula_weight         281.27
_chemical_melting_point          443.15
_chemical_name_systematic        1-(3-(3-nitro-2H-indazol-2-yl)phenyl)ethanone
_space_group_crystal_system      triclinic
_space_group_IT_number           2
_space_group_name_Hall           '-P 1'
_space_group_name_H-M_alt        'P -1'
_symmetry_Int_Tables_number      2
_symmetry_space_group_name_Hall  '-P 1'
_symmetry_space_group_name_H-M   'P -1'
_atom_sites_solution_primary     direct
_audit_creation_date             2018-02-23
_audit_creation_method
;
Olex2 1.2
(compiled 2017.08.10 svn.r3458 for OlexSys, GUI svn.r5381)
;
_audit_update_record
;
2018-02-23 deposited with the CCDC.
2018-06-29 downloaded from the CCDC.
;
_cell_angle_alpha                91.064(17)
_cell_angle_beta                 108.89(2)
_cell_angle_gamma                113.92(2)
_cell_formula_units_Z            2
_cell_length_a                   7.8053(18)
_cell_length_b                   8.2606(17)
_cell_length_c                   11.869(2)
_cell_measurement_reflns_used    916
_cell_measurement_temperature    293(2)
_cell_measurement_theta_max      28.9384
_cell_measurement_theta_min      2.9446
_cell_volume                     651.9(3)
_computing_cell_refinement
;
CrysAlisPro, Agilent Technologies,
Version 1.171.35.19 (release 27-10-2011 CrysAlis171 .NET)
(compiled Oct 27 2011,15:02:11)
;
_computing_data_collection
;
CrysAlisPro, Agilent Technologies,
Version 1.171.35.19 (release 27-10-2011 CrysAlis171 .NET)
(compiled Oct 27 2011,15:02:11)
;
_computing_data_reduction
;
CrysAlisPro, Agilent Technologies,
Version 1.171.35.19 (release 27-10-2011 CrysAlis171 .NET)
(compiled Oct 27 2011,15:02:11)
;
_computing_molecular_graphics    'Olex2 (Dolomanov et al., 2009)'
_computing_publication_material  'Olex2 (Dolomanov et al., 2009)'
_computing_structure_refinement  'olex2.refine (Bourhis et al., 2015)'
_computing_structure_solution    'ShelXS (Sheldrick, 2008)'
_diffrn_ambient_temperature      293(2)
_diffrn_detector_area_resol_mean 16.1293
_diffrn_measured_fraction_theta_full 1
_diffrn_measured_fraction_theta_max 1
_diffrn_measurement_details
;
#__ type_ start__ end____ width___ exp.time_
  1 omega  -82.00   11.00   1.0000   21.3500
omega____ theta____ kappa____ phi______ frames
    -      -18.3513  -77.0000    0.0000 93

#__ type_ start__ end____ width___ exp.time_
  2 omega  -86.00  -55.00   1.0000   21.3500
omega____ theta____ kappa____ phi______ frames
    -      -18.3513  -77.0000  -30.0000 31

#__ type_ start__ end____ width___ exp.time_
  3 omega   -4.00   23.00   1.0000   21.3500
omega____ theta____ kappa____ phi______ frames
    -      -18.3513  -99.0000 -150.0000 27

#__ type_ start__ end____ width___ exp.time_
  4 omega  -48.00   40.00   1.0000   21.3500
omega____ theta____ kappa____ phi______ frames
    -       20.2263  -57.0000   90.0000 88

#__ type_ start__ end____ width___ exp.time_
  5 omega    7.00   62.00   1.0000   21.3500
omega____ theta____ kappa____ phi______ frames
    -       20.2263   57.0000 -150.0000 55

#__ type_ start__ end____ width___ exp.time_
  6 omega   70.00   98.00   1.0000   21.3500
omega____ theta____ kappa____ phi______ frames
    -       20.2263  178.0000    0.0000 28

#__ type_ start__ end____ width___ exp.time_
  7 omega   30.00   89.00   1.0000   21.3500
omega____ theta____ kappa____ phi______ frames
    -       20.2263   57.0000 -120.0000 59

#__ type_ start__ end____ width___ exp.time_
  8 omega  -52.00   19.00   1.0000   21.3500
omega____ theta____ kappa____ phi______ frames
    -       20.2263  -38.0000 -120.0000 71
;
_diffrn_measurement_device_type  'SuperNova, Dual, Cu at zero, Eos'
_diffrn_measurement_method       '\w scans'
_diffrn_orient_matrix_UB_11      0.0878554000
_diffrn_orient_matrix_UB_12      0.0809461000
_diffrn_orient_matrix_UB_13      0.0102562000
_diffrn_orient_matrix_UB_21      0.0332397000
_diffrn_orient_matrix_UB_22      -0.0442613000
_diffrn_orient_matrix_UB_23      -0.0340362000
_diffrn_orient_matrix_UB_31      -0.0506083000
_diffrn_orient_matrix_UB_32      0.0240199000
_diffrn_orient_matrix_UB_33      -0.0533940000
_diffrn_radiation_monochromator  mirror
_diffrn_radiation_type           'Mo K\a'
_diffrn_radiation_wavelength     0.71073
_diffrn_reflns_av_R_equivalents  0.0387
_diffrn_reflns_av_unetI/netI     0.0936
_diffrn_reflns_limit_h_max       9
_diffrn_reflns_limit_h_min       -10
_diffrn_reflns_limit_k_max       11
_diffrn_reflns_limit_k_min       -10
_diffrn_reflns_limit_l_max       15
_diffrn_reflns_limit_l_min       -16
_diffrn_reflns_number            5672
_diffrn_reflns_theta_full        29.0056
_diffrn_reflns_theta_max         29.01
_diffrn_reflns_theta_min         2.95
_diffrn_source                   'SuperNova (Mo) X-ray Source'
_exptl_absorpt_coefficient_mu    0.103
_exptl_absorpt_correction_T_max  1.00000
_exptl_absorpt_correction_T_min  0.60417
_exptl_absorpt_correction_type   multi-scan
_exptl_absorpt_process_details
;
CrysAlisPro, Agilent Technologies,
Version 1.171.35.19 (release 27-10-2011 CrysAlis171 .NET)
(compiled Oct 27 2011,15:02:11)
Empirical absorption correction using spherical harmonics,
 implemented in SCALE3 ABSPACK scaling algorithm.
;
_exptl_crystal_colour            Yellow
_exptl_crystal_density_diffrn    1.4329
_exptl_crystal_description       irregular
_exptl_crystal_F_000             292.1382
_exptl_crystal_recrystallization_method
'Re-crystallisation from solvent: Dichloromethane'
_exptl_crystal_size_max          0.06
_exptl_crystal_size_mid          0.04
_exptl_crystal_size_min          0.02
_refine_diff_density_max         0.4258
_refine_diff_density_min         -0.4612
_refine_diff_density_rms         0.1180
_refine_ls_d_res_high            0.7329
_refine_ls_d_res_low             6.9117
_refine_ls_goodness_of_fit_ref   1.0545
_refine_ls_hydrogen_treatment    noref
_refine_ls_matrix_type           full
_refine_ls_number_constraints    0
_refine_ls_number_parameters     190
_refine_ls_number_reflns         2992
_refine_ls_number_restraints     0
_refine_ls_restrained_S_all      1.0545
_refine_ls_R_factor_all          0.1431
_refine_ls_R_factor_gt           0.0643
_refine_ls_shift/su_max          0.0002
_refine_ls_shift/su_mean         0.0001
_refine_ls_structure_factor_coef Fsqd
_refine_ls_weighting_details
'w=1/[\s^2^(Fo^2^)+(0.0344P)^2^] where P=(Fo^2^+2Fc^2^)/3'
_refine_ls_weighting_scheme      calc
_refine_ls_wR_factor_gt          0.1060
_refine_ls_wR_factor_ref         0.1402
_reflns_Friedel_coverage         0.0
_reflns_limit_h_max              9
_reflns_limit_h_min              -10
_reflns_limit_k_max              10
_reflns_limit_k_min              -11
_reflns_limit_l_max              16
_reflns_limit_l_min              0
_reflns_number_gt                1505
_reflns_number_total             2992
_reflns_threshold_expression     I>=2u(I)
_iucr_refine_instructions_details
;
TITL EXP_7218 OLEX2: imported from CIF
CELL 0.71073 7.8053 8.2606 11.869 91.064 108.89 113.92
ZERR 2 0.0018 0.0017 0.002 0.017 0.02 0.02
LATT 1
SFAC C H N O
DISP C 0.003 0.002
DISP H 0 0
DISP N 0.006 0.003
DISP O 0.011 0.006
UNIT 30 24 6 6

TEMP 20(2)
ACTA 
WGHT 0.034386 0
FVAR 5.639876
REM <olex2.extras>
REM <HklSrc "%.\\exp_7218.hkl">
REM </olex2.extras>

O1    4     0.35579  0.06148  0.14097  11.00000  0.05770  0.05245  0.05694 =
 0.01034  0.02088 -0.00244 
O2    4     0.30977  0.04548 -0.05037  11.00000  0.05385  0.04982  0.04752 =
 -0.01225  0.00479  0.00274 
O3    4     0.73930 -0.13070  0.41998  11.00000  0.09650  0.04534  0.06163 =
 0.00762  0.02224  0.03506 
N1    3     0.85132  0.53651  0.18696  11.00000  0.03759  0.03248  0.04429 =
 0.00617  0.01165  0.00495 
N2    3     0.70814  0.37736  0.19185  11.00000  0.04041  0.03033  0.03412 =
 0.00305  0.00978  0.01068 
N3    3     0.40611  0.11971  0.05672  11.00000  0.03882  0.03427  0.05477 =
 0.00242  0.01152  0.01031 
C1    1     0.58227  0.28356  0.07845  11.00000  0.03357  0.02859  0.03979 =
 0.00032  0.00870  0.00796 
C2    1     0.64267  0.38230 -0.00526  11.00000  0.03387  0.03229  0.04014 =
 0.00455  0.01180  0.01456 
C3    1     0.57974  0.36266 -0.13202  11.00000  0.04487  0.05151  0.04105 =
 0.00364  0.01116  0.01998 
C4    1     0.68863  0.49898 -0.17964  11.00000  0.05849  0.07242  0.04041 =
 0.01679  0.01874  0.03327 
C5    1     0.85641  0.65528 -0.10636  11.00000  0.05678  0.05826  0.06322 =
 0.02409  0.03049  0.02496 
C6    1     0.91973  0.67794  0.01550  11.00000  0.04029  0.04378  0.05703 =
 0.00938  0.01460  0.01063 
C7    1     0.81013  0.53967  0.06702  11.00000  0.03690  0.03370  0.04296 =
 0.00704  0.01194  0.01348 
C8    1     0.71911  0.33770  0.31120  11.00000  0.03726  0.03340  0.03613 =
 0.00267  0.01094  0.00992 
C9    1     0.73057  0.18227  0.34387  11.00000  0.03721  0.03303  0.03849 =
 -0.00224  0.00848  0.01106 
C10   1     0.75025  0.15276  0.46156  11.00000  0.03475  0.03337  0.03956 =
 0.00378  0.00907  0.01062 
C11   1     0.75725  0.27996  0.54273  11.00000  0.05031  0.05080  0.03703 =
 0.00541  0.01520  0.01864 
C12   1     0.74608  0.43504  0.50812  11.00000  0.06153  0.04784  0.04149 =
 -0.00251  0.01864  0.02398 
C13   1     0.72856  0.46549  0.39183  11.00000  0.04723  0.03503  0.04630 =
 0.00142  0.01304  0.01740 
C14   1     0.76617 -0.01439  0.49642  11.00000  0.04564  0.04218  0.04705 =
 0.00758  0.01229  0.01459 
C15   1     0.81658 -0.03775  0.62691  11.00000  0.08207  0.06670  0.05237 =
 0.02481  0.02353  0.03643 
H3    2     10.46860  10.26010  9.81810  11.00000  10.05700 
H4    2     10.65000  10.48850  9.73620  11.00000  10.06700 
H5    2     10.92480  10.74510  9.85660  11.00000  10.06700 
H6    2     11.03140  10.78070  10.06320  11.00000  10.06200 
H9    2     10.72450  10.09820  10.28800  11.00000  10.04800 
H11   2     10.77090  10.26100  10.62140  11.00000  10.05800 
H12   2     10.75010  10.51960  10.56280  11.00000  10.06100 
H13   2     10.72330  10.57070  10.36840  11.00000  10.05400 
H15a  2     10.94610  10.05790  10.67500  11.00000  10.10000 
H15b  2     10.82110  9.84910  10.63500  11.00000  10.10000 
H15c  2     10.71670  9.96810  10.65560  11.00000  10.10000 
HKLF 4

END
Q31 1 0.555556 -0.333333 0.488889 11 0.05 0.35
Q42 1 0.592593 0.433333 0.533333 11 0.05 0.34
Q1 1 0.777778 0.366667 -0.222222 11 0.05 0.43
Q4 1 0.62963 -0.066667 0.333333 11 0.05 0.41
Q10 1 0.518519 0.233333 0.066667 11 0.05 0.4
Q8 1 0.851852 -0.266667 0.644444 11 0.05 0.4
Q9 1 0.814815 0.4 0.533333 11 0.05 0.4
Q12 1 0.481481 0.566667 -0.444444 11 0.05 0.39
Q13 1 0.962963 0.533333 -0.066667 11 0.05 0.39
Q16 1 0.333333 -0.066667 -0.088889 11 0.05 0.38
Q20 1 0.592593 -0.2 0.311111 11 0.05 0.37
Q22 1 0.62963 0.2 0.622222 11 0.05 0.37
Q18 1 0.888889 0.166667 0.222222 11 0.05 0.37
Q26 1 0.37037 0.3 -0.288889 11 0.05 0.36
Q27 1 0.592593 0.366667 -0.066667 11 0.05 0.36
Q28 1 0.962963 0.6 0.511111 11 0.05 0.36
Q29 1 1.148148 0.033333 0.711111 11 0.05 0.36
Q36 1 0.592593 0.366667 0.311111 11 0.05 0.35
Q37 1 1 -0.033333 0.644444 11 0.05 0.35
Q38 1 0.592593 0.633333 -0.088889 11 0.05 0.35
Q33 1 0.518519 0.133333 -0.244444 11 0.05 0.35
Q32 1 0.592593 -0.3 0.4 11 0.05 0.35

  REM The information below was added by Olex2.
  REM
  REM R1 = 0.0643 for 1505 Fo > 4sig(Fo) and 0.1431 for all 2992 data
  REM 190 parameters refined using 0 restraints
  REM Highest difference peak 0.4258, deepest hole -0.4612
  REM Mean Shift 0.0001, Max Shift 0.0002.

  REM +++ Tabular Listing of Refinement Information +++
  REM R1_all = 0.1431
  REM R1_gt = 0.0643
  REM wR_ref = 0.1402
  REM GOOF = 1.0545
  REM Shift_max = 0.0002
  REM Shift_mean = 0.0001
  REM Reflections_all = 2992
  REM Reflections_gt = 1505
  REM Parameters = 190
  REM Hole = -0.4612
  REM Peak = 0.4258
  REM Flack = n/a

  
;
_cod_data_source_file            c8ob00931g2.cif
_cod_data_source_block           exp_7218
_cod_depositor_comments          'Adding full bibliography for 7156307.cif.'
_cod_database_code               7156307
_chemical_oxdiff_formula         'C23 H14 N2 O2'
_reflns_odcompleteness_completeness 99.85
_reflns_odcompleteness_iscentric 1
_reflns_odcompleteness_theta     26.32
_olex2_refinement_description
;
1. Others
 Fixed Uiso: H1AA(0.053) H9(0.048) H13(0.054) H11(0.058) H3(0.057) H12(0.061)
 H6(0.062) H5(0.067) H15a(0.1) H15b(0.1) H15c(0.1) H4(0.067)
 Fixed X: H1AA(0.9446) H9(0.7245) H13(0.7233) H11(0.7709) H3(0.4686)
 H12(0.7501) H6(1.0314) H5(0.9248) H15a(0.9461) H15b(0.8211) H15c(0.7167)
 H4(0.65)
 Fixed Y: H1AA(0.6155) H9(0.0982) H13(0.5707) H11(0.261) H3(0.2601)
 H12(0.5196) H6(0.7807) H5(0.7451) H15a(0.0579) H15b(-0.1509) H15c(-0.0319)
 H4(0.4885)
 Fixed Z: H1AA(0.245) H9(0.288) H13(0.3684) H11(0.6214) H3(-0.1819)
 H12(0.5628) H6(0.0632) H5(-0.1434) H15a(0.675) H15b(0.635) H15c(0.6556) H4(-
 0.2638)
;
_iucr_refine_fcf_details
;
data_exp_7218_CCDC1
_computing_structure_refinement   'olex2.refine (Bourhis et al., 2015)'
_shelx_refln_list_code            4
loop_
  _space_group_symop_id
  _space_group_symop_operation_xyz
  1  x,y,z
  2  -x,-y,-z

_space_group_crystal_system       triclinic
_space_group_IT_number            2
_space_group_name_H-M_alt         'P -1'
_space_group_name_Hall            '-P 1'
_symmetry_space_group_name_H-M    'P -1'
_symmetry_space_group_name_Hall   '-P 1'
_symmetry_Int_Tables_number       2
_cell_length_a                    7.8053(18)
_cell_length_b                    8.2606(17)
_cell_length_c                    11.869(2)
_cell_angle_alpha                 91.064(17)
_cell_angle_beta                  108.89(2)
_cell_angle_gamma                 113.92(2)
_cell_volume                      651.9(3)
loop_
  _refln_index_h
  _refln_index_k
  _refln_index_l
  _refln_F_squared_calc
  _refln_F_squared_meas
  _refln_F_squared_sigma
  _refln_F_squared_weight
  _refln_observed_status
-10 2 3 0.315 13.916 11.699 9.367 o
-10 3 2 0.228 1.795 7.387 23.500 o
-10 3 3 0.183 8.445 8.418 18.094 o
-10 3 4 1.054 -0.027 5.572 41.307 o
-10 4 1 0.289 -1.313 6.336 31.948 o
-10 4 2 1.233 8.345 8.885 16.240 o
-10 4 3 0.903 7.081 3.778 89.765 o
-10 4 4 0.724 -0.855 4.267 70.443 o
-10 4 5 4.958 -3.598 5.636 40.355 o
-10 5 1 3.303 9.286 5.914 36.635 o
-10 5 2 0.067 -2.512 8.747 16.762 o
-10 5 3 9.502 1.274 3.831 87.056 o
-10 5 4 1.687 7.819 7.797 21.087 o
-10 6 1 12.765 19.182 8.327 18.423 o
-10 6 2 1.355 -5.323 4.697 58.133 o
-9 -1 5 0.481 -0.790 4.532 62.443 o
-9 -1 6 4.144 1.772 5.465 42.918 o
-9 -1 7 1.971 13.256 8.720 16.858 o
-9 -1 8 6.916 14.611 7.307 23.971 o
-9 0 3 0.140 6.786 7.232 24.513 o
-9 0 4 20.968 14.200 10.313 12.010 o
-9 0 5 1.890 -3.176 5.203 47.361 o
-9 0 6 0.029 4.139 4.096 76.443 o
-9 0 7 0.566 -4.488 5.367 44.527 o
-9 0 8 3.203 8.282 6.559 29.788 o
-9 0 9 0.134 -5.643 5.619 40.617 o
-9 0 10 0.129 0.180 3.260 120.642 o
-9 0 11 0.047 5.253 6.190 33.464 o
-9 1 1 6.755 10.008 9.166 15.249 o
-9 1 2 11.768 8.894 5.618 40.454 o
-9 1 3 27.587 40.603 9.400 14.319 o
-9 1 4 20.836 39.298 9.643 13.665 o
-9 1 5 32.082 33.371 11.712 9.264 o
-9 1 6 2.490 -1.999 5.504 42.321 o
-9 1 7 0.142 -4.332 5.330 45.137 o
-9 1 8 0.364 1.146 4.368 67.223 o
-9 1 9 5.931 1.074 3.751 91.013 o
-9 1 10 20.356 20.275 10.103 12.504 o
-9 1 11 2.592 5.547 8.145 19.325 o
-9 2 1 4.133 -2.976 4.392 66.444 o
-9 2 2 1.808 -3.810 4.016 79.505 o
-9 2 3 12.886 15.350 4.554 61.184 o
-9 2 4 41.144 41.272 9.188 14.839 o
-9 2 5 1.687 2.760 5.439 43.343 o
-9 2 6 17.785 9.258 12.637 8.017 o
-9 2 7 4.090 2.469 4.797 55.685 o
-9 2 8 7.489 4.515 4.566 61.367 o
-9 2 9 14.991 23.925 7.947 20.184 o
-9 2 10 3.130 2.328 5.292 45.781 o
-9 3 1 0.258 -6.546 3.081 135.120 o
-9 3 2 0.280 -1.351 2.835 159.527 o
-9 3 3 1.493 12.447 5.458 42.995 o
-9 3 4 8.333 21.158 7.357 23.610 o
-9 3 5 9.427 5.735 8.254 18.802 o
-9 3 6 10.978 13.648 5.752 38.568 o
-9 3 7 13.996 11.443 5.889 36.765 o
-9 3 8 1.373 6.621 6.888 27.022 o
-9 3 9 0.165 -2.680 3.817 88.031 o
-9 3 10 6.571 -2.485 4.636 59.613 o
-9 4 1 0.418 4.292 2.432 216.776 o
-9 4 2 5.374 1.226 3.456 107.215 o
-9 4 3 1.434 4.560 4.137 74.910 o
-9 4 4 4.400 4.293 4.413 65.763 o
-9 4 5 0.762 2.554 3.316 116.595 o
-9 4 6 9.831 18.606 6.581 29.476 o
-9 4 7 2.799 2.009 3.842 86.841 o
-9 4 8 4.241 8.256 4.643 59.399 o
-9 4 9 0.037 0.244 3.171 127.563 o
-9 4 10 0.036 -3.585 3.662 95.640 o
-9 5 1 0.959 3.814 3.689 94.208 o
-9 5 2 1.458 0.617 3.496 104.924 o
-9 5 3 0.230 -6.450 4.592 60.806 o
-9 5 4 0.006 0.786 3.547 101.914 o
-9 5 5 2.462 3.859 4.029 78.963 o
-9 5 6 13.912 16.295 6.801 27.574 o
-9 5 7 0.401 -2.177 4.576 61.244 o
-9 5 8 8.400 13.950 6.425 30.970 o
-9 5 9 0.009 -2.475 9.493 14.231 o
-9 6 1 0.413 -4.267 3.108 132.770 o
-9 6 2 9.062 8.719 4.670 58.548 o
-9 6 3 44.353 47.993 9.592 13.577 o
-9 6 4 8.669 14.855 5.609 40.584 o
-9 6 5 9.606 10.532 5.312 45.259 o
-9 6 6 0.119 -2.134 3.906 84.066 o
-9 6 7 3.131 6.610 4.605 60.419 o
-9 6 8 0.364 -2.960 3.925 83.222 o
-9 7 1 0.948 1.431 3.260 120.659 o
-9 7 2 6.691 5.037 3.405 110.200 o
-9 7 3 0.178 -3.475 7.283 24.175 o
-9 7 4 7.159 9.800 5.785 38.233 o
-9 7 5 7.758 12.383 5.848 37.381 o
-9 7 6 1.003 3.812 3.639 96.826 o
-9 7 7 0.027 2.391 4.886 53.720 o
-9 7 8 0.149 16.439 8.000 20.026 o
-9 8 1 0.265 -1.654 2.214 261.555 o
-9 8 2 0.001 -9.345 4.547 62.015 o
-9 8 3 0.026 2.136 3.336 115.221 o
-9 8 4 2.462 4.787 4.401 66.165 o
-9 8 5 3.937 -13.246 7.914 20.475 o
-9 8 6 0.384 -3.621 4.450 64.749 o
-9 8 7 2.454 -1.494 5.507 42.285 o
-9 9 2 5.597 9.269 5.942 36.270 o
-9 9 3 5.028 -3.962 5.662 39.990 o
-9 9 6 1.693 -3.236 5.731 39.040 o
-8 -3 3 0.019 3.683 6.221 33.130 o
-8 -3 4 1.452 2.140 4.232 71.595 o
-8 -2 2 3.437 6.410 4.074 77.169 o
-8 -2 3 1.463 -11.007 7.116 25.323 o
-8 -2 4 1.383 5.440 5.495 42.458 o
-8 -2 5 4.671 8.708 6.754 28.090 o
-8 -2 6 0.874 5.483 7.412 23.340 o
-8 -2 7 21.198 14.395 7.592 22.086 o
-8 -1 1 4.401 5.135 4.119 75.486 o
-8 -1 2 4.336 -5.418 6.771 27.966 o
-8 -1 3 1.159 -3.597 5.225 46.980 o
-8 -1 4 2.549 0.729 3.965 81.558 o
-8 -1 5 3.446 -7.131 7.370 23.609 o
-8 -1 6 18.616 15.058 7.945 20.199 o
-8 -1 7 2.335 -13.602 7.389 23.485 o
-8 -1 8 4.682 4.749 4.181 73.256 o
-8 -1 9 1.799 -5.895 5.114 49.036 o
-8 -1 10 3.324 -4.117 5.278 46.017 o
-8 -1 12 0.741 -11.009 6.746 28.176 o
-8 0 1 102.105 95.849 17.820 3.893 o
-8 0 2 13.688 13.728 8.667 17.021 o
-8 0 3 1.477 -0.409 4.486 63.726 o
-8 0 4 14.758 21.038 9.182 15.149 o
-8 0 5 1.653 3.424 6.429 31.026 o
-8 0 6 2.435 7.386 6.648 29.005 o
-8 0 7 0.395 1.764 3.784 89.574 o
-8 0 8 13.947 17.814 8.177 19.101 o
-8 0 9 35.301 24.912 10.280 11.999 o
-8 0 10 3.395 5.837 5.330 45.104 o
-8 0 11 0.129 1.846 5.069 49.906 o
-8 0 12 0.011 -13.090 7.136 25.186 o
-8 1 1 3.262 7.260 3.297 117.704 o
-8 1 2 0.676 -0.120 6.674 28.788 o
-8 1 3 25.214 30.860 6.579 29.043 o
-8 1 4 1.878 -1.897 4.288 69.724 o
-8 1 5 4.631 9.264 5.990 35.701 o
-8 1 6 7.157 10.922 6.758 28.028 o
-8 1 7 8.182 2.766 5.121 48.804 o
-8 1 8 1.348 0.385 4.275 70.161 o
-8 1 9 28.038 38.459 12.081 8.717 o
-8 1 10 30.115 37.639 11.954 8.897 o
-8 1 11 4.345 -13.569 7.601 22.192 o
-8 1 12 0.004 3.364 3.952 82.080 o
-8 2 1 0.349 -0.661 2.872 155.525 o
-8 2 2 0.328 2.060 2.602 189.391 o
-8 2 3 0.175 7.222 5.256 46.409 o
-8 2 4 36.681 42.638 9.572 13.731 o
-8 2 5 0.849 2.187 7.004 26.139 o
-8 2 6 1.195 8.062 4.373 67.003 o
-8 2 7 11.155 11.312 4.828 54.658 o
-8 2 8 0.272 -2.619 3.774 90.057 o
-8 2 9 21.725 25.123 6.763 27.663 o
-8 2 10 21.369 22.955 6.473 30.196 o
-8 2 11 40.731 42.386 9.281 14.547 o
-8 2 12 0.371 4.222 7.993 20.072 o
-8 2 13 0.789 3.473 4.569 61.420 o
-8 3 1 24.084 13.339 3.945 79.862 o
-8 3 2 1.014 1.096 5.391 44.127 o
-8 3 3 0.006 -2.632 3.115 132.191 o
-8 3 4 3.149 1.698 3.715 92.863 o
-8 3 5 34.630 40.220 8.252 18.407 o
-8 3 6 1.059 10.778 4.873 53.954 o
-8 3 7 14.469 18.461 5.906 36.454 o
-8 3 8 1.831 7.420 4.459 64.445 o
-8 3 9 3.768 4.482 11.941 8.992 o
-8 3 10 6.850 9.758 8.471 17.853 o
-8 3 11 16.730 12.890 5.730 38.724 o
-8 3 12 40.621 37.764 8.384 17.773 o
-8 3 13 7.851 24.771 11.440 9.784 o
-8 4 1 21.653 27.017 5.123 47.682 o
-8 4 2 49.871 61.665 9.751 13.019 o
-8 4 3 10.323 17.050 5.217 46.788 o
-8 4 4 10.084 22.350 5.988 35.524 o
-8 4 5 0.126 -0.586 2.729 172.230 o
-8 4 6 0.521 -0.129 4.384 66.712 o
-8 4 7 0.049 5.438 3.661 95.661 o
-8 4 8 0.023 3.954 2.694 176.681 o
-8 4 9 2.655 6.155 3.835 87.085 o
-8 4 10 6.302 10.414 4.951 52.172 o
-8 4 11 5.882 2.156 3.421 109.366 o
-8 4 12 1.596 5.312 5.380 44.295 o
-8 4 13 3.974 17.313 8.718 16.855 o
-8 5 1 3.803 0.733 2.467 210.383 o
-8 5 2 14.497 11.056 4.345 67.176 o
-8 5 3 3.545 1.901 2.878 154.593 o
-8 5 4 0.372 -0.474 2.912 151.193 o
-8 5 5 0.829 -2.296 3.686 94.381 o
-8 5 6 0.000 -4.338 3.023 140.288 o
-8 5 7 3.969 2.334 3.330 115.508 o
-8 5 8 21.321 25.360 6.926 26.400 o
-8 5 9 7.040 4.719 4.197 72.615 o
-8 5 10 0.270 -1.482 3.437 108.528 o
-8 5 11 7.544 17.244 6.507 30.192 o
-8 5 12 0.349 0.687 4.221 71.969 o
-8 6 1 6.168 3.812 4.545 61.969 o
-8 6 2 28.837 22.584 7.222 24.193 o
-8 6 3 24.128 24.092 6.972 26.012 o
-8 6 4 0.866 5.051 3.115 132.055 o
-8 6 5 0.000 1.955 5.567 41.384 o
-8 6 6 2.458 8.681 6.039 35.138 o
-8 6 7 2.757 1.942 4.642 59.486 o
-8 6 8 10.986 7.423 3.911 83.228 o
-8 6 9 4.546 11.756 5.113 48.947 o
-8 6 10 0.075 1.079 6.724 28.366 o
-8 6 11 5.940 7.403 5.502 42.297 o
-8 7 1 19.668 13.654 4.248 69.643 o
-8 7 2 11.682 14.698 3.920 82.454 o
-8 7 3 194.225 183.602 19.752 2.961 o
-8 7 4 0.014 -1.276 3.509 104.173 o
-8 7 5 4.953 2.971 3.094 133.662 o
-8 7 6 1.663 0.677 6.237 32.964 o
-8 7 7 0.085 4.302 3.506 104.313 o
-8 7 8 0.689 16.483 6.092 34.514 o
-8 7 9 1.253 5.370 4.271 70.285 o
-8 8 1 2.524 -1.385 3.398 111.007 o
-8 8 2 12.463 9.410 4.398 65.765 o
-8 8 3 72.155 74.614 11.396 9.418 o
-8 8 4 22.366 41.657 12.309 8.410 o
-8 8 5 1.888 6.228 3.648 96.252 o
-8 8 6 1.206 -3.696 3.577 100.234 o
-8 8 7 5.614 1.263 7.154 25.048 o
-8 8 8 0.116 12.524 8.069 19.689 o
-8 9 1 2.278 -0.978 14.688 5.944 o
-8 9 2 0.078 1.774 2.825 160.730 o
-8 9 5 0.063 1.052 4.528 62.543 o
-8 9 6 5.397 3.159 6.217 33.152 o
-8 9 7 1.322 6.341 4.835 54.821 o
-7 -4 1 0.232 -7.000 6.139 34.031 o
-7 -4 2 12.121 8.701 5.619 40.438 o
-7 -4 6 9.592 15.952 7.045 25.757 o
-7 -4 7 0.039 -8.281 5.993 35.707 o
-7 -4 8 1.588 -10.346 6.863 27.229 o
-7 -4 9 10.748 16.015 7.921 20.380 o
-7 -4 10 0.002 -1.457 4.295 69.523 o
-7 -3 1 1.564 -3.211 3.894 84.562 o
-7 -3 2 3.652 1.149 3.543 102.074 o
-7 -3 3 4.172 0.920 4.723 57.469 o
-7 -3 4 2.012 -0.314 3.294 118.175 o
-7 -3 5 6.242 5.868 4.721 57.433 o
-7 -3 6 0.409 4.711 4.320 68.697 o
-7 -3 7 2.475 6.087 4.814 55.292 o
-7 -3 8 7.173 4.200 4.755 56.594 o
-7 -3 9 0.264 5.738 4.155 74.267 o
-7 -3 10 0.226 -2.142 3.564 100.974 o
-7 -3 11 0.110 -2.692 5.305 45.565 o
-7 -3 12 2.685 13.488 7.825 20.927 o
-7 -2 1 2.614 -0.758 2.510 203.443 o
-7 -2 2 7.636 8.803 7.962 20.207 o
-7 -2 3 9.864 -0.245 5.123 48.766 o
-7 -2 4 9.402 10.165 6.764 27.965 o
-7 -2 5 2.070 -2.250 3.823 87.740 o
-7 -2 6 3.173 -0.625 5.253 46.471 o
-7 -2 7 2.618 7.021 3.590 99.332 o
-7 -2 8 2.372 2.403 2.229 257.676 o
-7 -2 9 0.222 -4.802 5.484 42.646 o
-7 -2 10 0.413 5.135 5.028 50.727 o
-7 -2 11 0.734 11.861 4.507 63.052 o
-7 -2 12 0.023 -20.514 8.746 16.764 o
-7 -2 13 3.245 2.301 3.968 81.378 o
-7 -1 1 64.999 54.116 19.001 3.509 o
-7 -1 2 2.842 9.773 4.789 55.842 o
-7 -1 3 125.541 140.469 20.396 2.940 o
-7 -1 4 49.527 38.950 10.930 10.514 o
-7 -1 5 24.794 13.590 7.030 25.675 o
-7 -1 6 13.883 13.544 7.017 25.925 o
-7 -1 7 13.396 16.937 4.706 57.250 o
-7 -1 8 22.603 17.072 4.815 54.122 o
-7 -1 9 0.685 8.326 3.356 113.739 o
-7 -1 10 5.536 1.157 7.123 25.265 o
-7 -1 11 0.060 -3.455 4.468 64.231 o
-7 -1 12 9.175 11.430 7.621 22.034 o
-7 -1 13 0.970 -1.279 6.161 33.787 o
-7 -1 14 7.428 21.352 9.386 14.527 o
-7 0 1 1.584 1.943 1.574 516.708 o
-7 0 2 128.838 123.731 11.478 8.500 o
-7 0 3 8.251 12.687 5.386 44.035 o
-7 0 4 89.562 84.883 15.713 5.008 o
-7 0 5 34.954 30.311 9.840 13.066 o
-7 0 6 13.028 6.564 4.879 53.550 o
-7 0 7 50.485 87.141 16.363 4.708 o
-7 0 8 61.826 59.610 13.649 6.725 o
-7 0 9 1.702 1.834 2.415 219.768 o
-7 0 10 5.624 9.833 3.707 92.912 o
-7 0 11 1.357 3.227 2.086 294.458 o
-7 0 12 0.321 -3.975 3.080 135.201 o
-7 0 13 0.313 7.034 3.877 85.273 o
-7 0 14 1.935 -2.563 4.652 59.256 o
-7 1 1 16.755 11.446 3.051 133.942 o
-7 1 2 27.938 26.597 7.256 23.949 o
-7 1 3 35.584 33.188 9.900 12.895 o
-7 1 4 6.924 6.364 3.316 116.065 o
-7 1 5 21.682 20.078 8.035 19.703 o
-7 1 6 47.664 56.443 13.170 7.266 o
-7 1 7 13.038 29.245 9.829 13.219 o
-7 1 8 1.140 2.006 4.727 57.378 o
-7 1 9 59.514 62.018 13.887 6.504 o
-7 1 10 30.577 56.128 13.325 7.150 o
-7 1 11 2.909 5.538 7.067 25.667 o
-7 1 12 2.358 9.864 4.020 79.217 o
-7 1 13 0.483 0.382 4.873 53.997 o
-7 1 14 0.174 -5.310 6.897 26.959 o
-7 2 1 0.713 -0.822 2.522 201.681 o
-7 2 2 18.570 15.905 5.266 45.640 o
-7 2 3 0.030 -1.101 3.226 123.256 o
-7 2 4 9.150 3.735 6.799 27.706 o
-7 2 5 62.304 63.279 9.559 13.355 o
-7 2 6 7.494 12.020 4.815 55.096 o
-7 2 7 2.561 0.363 3.977 81.070 o
-7 2 8 2.761 4.469 2.712 173.984 o
-7 2 9 0.372 2.134 3.223 123.467 o
-7 2 10 0.153 -1.330 3.102 133.315 o
-7 2 11 83.826 82.968 13.815 6.441 o
-7 2 12 0.892 3.364 4.929 52.772 o
-7 2 13 2.234 2.121 4.026 79.075 o
-7 2 14 0.234 11.294 7.185 24.832 o
-7 3 1 2.931 -1.088 5.039 50.497 o
-7 3 2 2.429 4.265 3.428 109.026 o
-7 3 3 0.641 1.377 3.876 85.359 o
-7 3 4 3.317 0.564 2.528 200.516 o
-7 3 5 78.259 79.711 10.845 10.263 o
-7 3 6 16.411 13.230 4.398 65.350 o
-7 3 7 17.528 14.427 6.219 32.883 o
-7 3 8 0.110 1.624 2.829 160.238 o
-7 3 9 1.305 -0.422 3.674 95.020 o
-7 3 10 1.961 -2.827 3.086 134.625 o
-7 3 11 23.863 23.697 6.382 30.980 o
-7 3 12 14.946 10.891 11.481 9.713 o
-7 3 13 0.770 0.942 2.813 162.039 o
-7 3 14 0.256 -1.927 5.792 38.222 o
-7 4 1 20.622 18.325 5.397 43.333 o
-7 4 2 2.734 -1.604 2.468 210.487 o
-7 4 3 26.893 23.109 5.637 39.391 o
-7 4 4 2.639 5.285 2.894 152.878 o
-7 4 5 0.437 1.833 2.411 220.661 o
-7 4 6 10.547 8.710 4.985 51.370 o
-7 4 7 0.119 -0.711 2.259 251.202 o
-7 4 8 8.627 17.131 5.629 40.280 o
-7 4 9 11.925 13.196 4.836 54.417 o
-7 4 10 1.444 0.492 2.454 212.909 o
-7 4 11 5.346 15.346 5.890 36.876 o
-7 4 12 0.701 10.245 6.320 32.096 o
-7 4 13 3.599 11.488 5.740 38.872 o
-7 5 1 18.367 10.608 3.704 91.512 o
-7 5 2 1.343 0.830 2.123 284.305 o
-7 5 3 0.461 0.790 1.934 342.744 o
-7 5 4 2.542 8.067 4.617 60.099 o
-7 5 5 4.417 2.333 2.520 201.406 o
-7 5 6 0.408 1.127 2.594 190.496 o
-7 5 7 8.451 7.108 4.546 61.823 o
-7 5 8 15.582 23.268 6.239 32.616 o
-7 5 9 2.468 7.096 4.315 68.792 o
-7 5 10 0.584 -0.542 2.453 213.094 o
-7 5 11 0.830 -4.394 3.147 129.497 o
-7 5 12 0.468 2.964 7.359 23.681 o
-7 5 13 5.857 10.859 6.110 34.286 o
-7 6 1 17.105 9.513 3.265 117.539 o
-7 6 2 26.233 30.897 4.229 68.219 o
-7 6 3 142.011 157.614 11.264 8.409 o
-7 6 4 15.541 14.453 3.841 85.358 o
-7 6 5 19.508 26.681 8.146 19.160 o
-7 6 6 0.353 3.475 2.957 146.632 o
-7 6 7 16.820 7.018 12.277 8.497 o
-7 6 8 0.684 -1.322 2.736 171.314 o
-7 6 9 34.297 30.663 7.302 23.482 o
-7 6 10 14.339 9.652 4.822 54.696 o
-7 6 11 5.813 4.970 5.563 41.389 o
-7 6 12 18.109 24.578 9.501 14.131 o
-7 6 13 3.180 6.409 5.582 41.135 o
-7 7 1 0.241 1.261 1.951 336.962 o
-7 7 2 47.878 47.018 5.593 37.756 o
-7 7 3 13.779 20.485 3.650 94.097 o
-7 7 4 21.646 19.964 4.402 64.432 o
-7 7 5 12.701 13.718 4.829 54.532 o
-7 7 6 5.663 12.885 5.224 46.861 o
-7 7 7 6.102 25.138 13.020 7.557 o
-7 7 8 1.573 9.908 4.571 61.316 o
-7 7 9 11.460 6.137 5.524 41.873 o
-7 7 10 3.945 0.936 3.977 81.028 o
-7 7 11 0.033 3.459 3.604 98.721 o
-7 8 1 0.700 0.581 2.035 309.568 o
-7 8 2 3.007 2.799 2.264 249.592 o
-7 8 3 5.623 5.009 2.282 244.542 o
-7 8 4 0.519 2.880 2.553 196.731 o
-7 8 5 3.500 4.553 2.919 150.150 o
-7 8 6 5.536 3.562 3.290 118.178 o
-7 8 7 0.168 4.479 3.116 132.005 o
-7 8 8 0.456 0.665 8.318 18.534 o
-7 8 9 0.425 -2.569 3.233 122.661 o
-7 9 1 0.008 2.277 3.221 123.618 o
-7 9 2 0.172 -0.793 4.993 51.446 o
-7 9 3 0.573 -0.434 3.621 97.812 o
-7 9 4 3.422 -3.302 3.988 80.600 o
-7 9 5 0.057 2.666 3.850 86.519 o
-7 9 6 2.655 2.114 2.925 149.738 o
-7 9 7 8.352 6.709 7.876 20.649 o
-7 9 8 3.578 -1.914 4.223 71.888 o
-7 10 1 1.234 1.275 6.891 27.004 o
-7 10 2 1.206 0.576 3.829 87.458 o
-7 10 3 0.010 -11.538 7.318 23.945 o
-7 10 4 1.641 13.825 6.904 26.886 o
-6 -5 1 3.977 -4.159 7.343 23.777 o
-6 -5 2 3.648 0.159 12.403 8.335 o
-6 -5 3 5.308 2.493 6.470 30.617 o
-6 -5 4 1.760 7.697 6.240 32.924 o
-6 -5 5 1.920 3.617 5.771 38.493 o
-6 -5 6 3.101 6.470 3.648 96.230 o
-6 -5 7 5.414 17.879 8.873 16.266 o
-6 -5 8 40.838 55.445 14.975 5.657 o
-6 -5 9 10.210 19.241 9.261 14.917 o
-6 -4 1 6.423 3.231 6.671 28.792 o
-6 -4 2 0.047 -2.228 3.743 91.532 o
-6 -4 3 14.803 18.855 5.090 48.919 o
-6 -4 4 19.261 15.710 6.109 34.005 o
-6 -4 5 2.159 0.937 3.912 83.796 o
-6 -4 6 15.401 31.314 10.677 11.200 o
-6 -4 7 16.003 33.075 10.878 10.787 o
-6 -4 8 13.221 6.550 5.166 47.802 o
-6 -4 9 9.232 6.367 5.824 37.724 o
-6 -4 10 6.230 4.287 4.570 61.282 o
-6 -4 11 1.746 -13.414 7.776 21.209 o
-6 -3 1 0.899 4.790 4.716 57.633 o
-6 -3 2 17.695 12.887 3.428 106.386 o
-6 -3 3 12.890 11.256 4.180 72.645 o
-6 -3 4 1.013 -0.816 2.659 181.324 o
-6 -3 5 4.196 4.232 5.114 48.998 o
-6 -3 6 19.323 19.521 8.404 18.044 o
-6 -3 7 0.168 2.873 14.098 6.452 o
-6 -3 8 7.599 6.510 4.606 60.264 o
-6 -3 9 6.845 4.494 2.903 151.345 o
-6 -3 10 0.795 1.760 4.189 73.061 o
-6 -3 11 0.029 11.947 6.095 34.504 o
-6 -3 12 4.350 17.991 7.298 24.035 o
-6 -3 13 1.364 -7.013 6.150 33.906 o
-6 -2 1 16.823 19.892 8.707 16.831 o
-6 -2 2 1.201 0.159 3.519 103.534 o
-6 -2 3 2.198 1.580 2.929 149.366 o
-6 -2 4 18.905 22.261 12.098 8.734 o
-6 -2 5 3.894 -0.108 2.318 238.217 o
-6 -2 6 5.186 3.004 2.348 231.560 o
-6 -2 7 39.198 34.952 8.640 16.797 o
-6 -2 8 26.314 23.701 5.379 43.175 o
-6 -2 9 16.736 12.088 5.874 36.871 o
-6 -2 10 3.764 4.282 4.417 65.674 o
-6 -2 11 8.298 6.564 2.937 147.496 o
-6 -2 12 4.057 1.670 4.124 75.339 o
-6 -2 13 2.838 6.190 5.844 37.526 o
-6 -2 14 0.126 5.367 5.068 49.916 o
-6 -1 1 0.355 1.735 1.305 752.129 o
-6 -1 2 55.609 65.616 5.444 37.997 o
-6 -1 3 35.239 34.383 4.311 64.019 o
-6 -1 4 5.215 1.735 1.900 353.256 o
-6 -1 5 0.598 4.656 3.070 135.977 o
-6 -1 6 54.585 59.739 7.875 19.498 o
-6 -1 7 1.439 -1.210 2.050 305.079 o
-6 -1 8 126.345 144.841 12.786 6.961 o
-6 -1 9 54.138 52.044 7.897 19.507 o
-6 -1 10 8.065 13.043 4.756 56.414 o
-6 -1 11 4.009 3.031 6.327 32.027 o
-6 -1 12 2.727 0.514 4.938 52.585 o
-6 -1 13 0.005 8.366 4.743 56.991 o
-6 -1 14 0.199 3.952 8.755 16.729 o
-6 0 1 300.608 294.365 14.232 4.165 o
-6 0 2 151.784 143.930 9.794 10.491 o
-6 0 3 0.380 10.190 6.187 33.487 o
-6 0 4 24.808 26.149 8.128 19.192 o
-6 0 5 15.980 19.740 7.440 23.022 o
-6 0 6 20.739 29.623 8.383 18.079 o
-6 0 7 47.004 52.604 7.125 23.930 o
-6 0 8 2.514 2.926 3.464 106.800 o
-6 0 9 2.862 4.922 3.804 88.523 o
-6 0 10 4.095 0.065 2.511 203.057 o
-6 0 11 16.775 14.415 5.239 46.206 o
-6 0 12 0.419 1.412 2.606 188.872 o
-6 0 13 4.808 8.601 15.566 5.291 o
-6 0 14 1.490 -2.541 3.733 92.025 o
-6 0 15 3.934 2.239 3.144 129.593 o
-6 1 1 0.131 -1.060 1.974 329.118 o
-6 1 2 0.052 -1.599 3.378 112.409 o
-6 1 3 107.573 104.674 8.175 15.977 o
-6 1 4 38.870 46.929 5.494 39.800 o
-6 1 5 2.226 0.298 1.656 466.970 o
-6 1 6 44.433 47.964 10.767 10.832 o
-6 1 7 7.854 2.186 2.541 197.261 o
-6 1 8 1.667 2.196 3.482 105.719 o
-6 1 9 7.725 9.773 3.653 95.512 o
-6 1 10 26.531 26.442 5.986 34.981 o
-6 1 11 151.561 147.942 13.950 5.794 o
-6 1 12 28.176 21.349 6.698 28.089 o
-6 1 13 0.355 -2.883 2.729 172.162 o
-6 1 14 0.001 2.774 2.732 171.821 o
-6 1 15 0.377 -1.948 6.242 32.913 o
-6 2 1 132.638 131.536 9.928 10.753 o
-6 2 2 60.769 53.917 7.952 19.059 o
-6 2 3 70.459 72.765 9.046 14.601 o
-6 2 4 7.715 7.853 1.912 343.950 o
-6 2 5 19.276 15.517 2.665 171.296 o
-6 2 6 1.144 1.893 1.608 495.224 o
-6 2 7 5.723 4.838 2.508 202.815 o
-6 2 8 1.520 0.144 2.316 238.937 o
-6 2 9 164.070 183.471 11.707 7.480 o
-6 2 10 25.724 17.554 3.917 80.309 o
-6 2 11 111.513 117.259 10.267 10.632 o
-6 2 12 0.004 0.459 2.578 192.919 o
-6 2 13 1.283 1.600 2.288 244.933 o
-6 2 14 1.372 9.111 4.446 64.813 o
-6 2 15 1.426 -7.157 3.663 95.548 o
-6 3 1 33.847 30.909 5.780 36.975 o
-6 3 2 15.504 17.171 5.161 47.602 o
-6 3 3 4.090 39.860 11.493 9.687 o
-6 3 4 22.944 15.681 4.294 67.716 o
-6 3 5 63.976 66.591 5.113 41.215 o
-6 3 6 0.004 -0.486 1.381 672.362 o
-6 3 7 68.603 76.718 10.019 12.053 o
-6 3 8 10.511 10.338 4.238 70.888 o
-6 3 9 19.372 19.605 5.118 48.135 o
-6 3 10 26.342 27.845 6.178 32.864 o
-6 3 11 0.390 2.531 4.095 76.457 o
-6 3 12 9.686 2.845 3.747 90.916 o
-6 3 13 1.521 5.058 3.784 89.488 o
-6 3 14 0.813 0.294 6.107 34.380 o
-6 4 1 43.052 43.421 5.381 41.158 o
-6 4 2 37.320 43.736 8.843 16.024 o
-6 4 3 26.023 22.839 5.320 44.162 o
-6 4 4 12.494 17.896 4.961 51.598 o
-6 4 5 25.835 25.750 6.441 30.339 o
-6 4 6 3.468 5.166 5.960 36.088 o
-6 4 7 2.650 2.934 3.368 112.968 o
-6 4 8 18.843 22.918 6.083 34.212 o
-6 4 9 3.001 4.496 3.520 103.366 o
-6 4 10 2.429 2.407 3.501 104.594 o
-6 4 11 6.401 2.059 2.787 164.433 o
-6 4 12 22.180 30.757 7.446 22.825 o
-6 4 13 0.534 6.126 3.904 84.110 o
-6 5 1 59.058 56.575 5.186 41.490 o
-6 5 2 407.339 400.491 13.381 3.438 o
-6 5 3 71.029 63.755 6.518 26.686 o
-6 5 4 1.204 9.260 3.742 91.466 o
-6 5 5 0.080 2.655 3.791 89.210 o
-6 5 6 6.442 2.147 3.848 86.442 o
-6 5 7 2.217 0.407 2.804 163.099 o
-6 5 8 45.340 34.035 7.207 23.754 o
-6 5 9 14.453 21.834 6.043 34.794 o
-6 5 10 2.820 0.435 3.476 106.077 o
-6 5 11 0.342 0.864 2.785 165.295 o
-6 5 12 14.504 5.933 10.137 12.461 o
-6 6 1 54.655 54.100 5.319 40.325 o
-6 6 2 407.369 433.258 14.983 2.988 o
-6 6 3 218.516 292.429 21.907 2.332 o
-6 6 4 6.937 6.572 2.094 288.923 o
-6 6 5 1.076 1.007 2.944 147.948 o
-6 6 6 1.018 26.967 27.496 1.696 o
-6 6 7 0.057 2.290 2.613 187.790 o
-6 6 8 10.986 6.091 4.124 74.954 o
-6 6 9 0.091 1.470 4.060 77.816 o
-6 6 10 33.003 33.279 7.709 21.118 o
-6 6 11 3.203 6.161 3.215 123.800 o
-6 6 12 0.778 1.650 4.671 58.768 o
-6 7 1 2.943 0.083 2.130 282.442 o
-6 7 2 43.185 43.130 6.209 31.470 o
-6 7 3 139.176 143.465 9.386 11.504 o
-6 7 4 58.075 53.305 7.053 23.964 o
-6 7 5 0.707 1.765 2.860 156.715 o
-6 7 6 0.570 -1.035 4.023 79.254 o
-6 7 7 7.749 9.030 4.034 78.421 o
-6 7 8 8.663 1.650 3.776 89.663 o
-6 7 9 0.885 -1.216 3.340 114.929 o
-6 7 10 0.627 -1.847 8.644 17.163 o
-6 7 11 12.087 16.271 6.035 35.005 o
-6 8 1 3.850 4.501 2.665 180.065 o
-6 8 2 6.153 7.323 2.721 172.006 o
-6 8 3 0.011 2.765 2.387 225.014 o
-6 8 4 8.443 6.861 4.195 72.552 o
-6 8 5 14.354 13.776 4.448 64.049 o
-6 8 6 20.938 26.619 7.099 25.137 o
-6 8 7 2.926 7.076 3.878 85.143 o
-6 8 8 5.697 7.159 3.572 100.148 o
-6 8 9 3.187 4.845 9.535 14.102 o
-6 8 10 4.779 6.999 5.016 50.892 o
-6 8 11 7.865 4.402 4.611 60.170 o
-6 9 1 2.302 5.659 4.024 79.122 o
-6 9 2 4.849 5.256 5.966 35.998 o
-6 9 3 9.215 12.001 5.088 49.314 o
-6 9 4 7.921 4.076 6.813 27.595 o
-6 9 5 0.006 0.509 2.806 162.874 o
-6 9 6 8.962 2.474 3.053 136.746 o
-6 9 7 0.185 -0.377 5.188 47.647 o
-6 9 8 1.076 -4.973 14.486 6.111 o
-6 9 9 0.447 11.541 7.806 21.039 o
-6 10 1 15.944 18.678 10.414 11.787 o
-6 10 2 13.713 22.816 6.942 26.427 o
-6 10 3 1.652 11.295 8.279 18.703 o
-6 10 4 16.767 19.261 10.037 12.684 o
-5 -6 1 4.893 2.496 4.151 74.354 o
-5 -6 2 1.080 -2.849 4.787 55.963 o
-5 -6 3 3.445 -3.901 6.268 32.633 o
-5 -6 4 10.163 19.499 8.677 16.987 o
-5 -6 5 6.069 7.757 8.914 16.128 o
-5 -6 6 0.785 5.429 9.757 13.469 o
-5 -6 7 4.315 17.555 9.527 14.114 o
-5 -5 1 10.507 4.734 4.095 76.077 o
-5 -5 2 9.730 12.442 5.233 46.600 o
-5 -5 3 0.309 6.259 6.567 29.735 o
-5 -5 4 3.939 7.154 6.265 32.644 o
-5 -5 5 6.452 1.282 5.861 37.297 o
-5 -5 6 1.287 7.636 6.867 27.183 o
-5 -5 7 8.560 -1.099 4.681 58.411 o
-5 -5 8 20.400 19.284 7.755 21.155 o
-5 -5 9 10.140 2.897 8.037 19.834 o
-5 -5 10 11.369 11.083 8.891 16.192 o
-5 -4 1 29.013 28.380 6.625 28.576 o
-5 -4 2 0.558 5.320 6.799 27.735 o
-5 -4 3 22.350 22.426 5.396 43.169 o
-5 -4 4 3.536 2.801 5.739 38.926 o
-5 -4 5 0.184 -1.625 2.020 314.182 o
-5 -4 6 0.961 -7.026 5.511 42.216 o
-5 -4 7 35.685 28.949 9.498 14.011 o
-5 -4 8 3.502 -1.624 4.537 62.275 o
-5 -4 9 7.416 2.822 4.264 70.365 o
-5 -4 10 0.076 12.481 6.897 26.949 o
-5 -4 11 0.035 -3.711 4.502 63.275 o
-5 -4 12 0.953 0.126 4.261 70.646 o
-5 -3 1 52.008 51.124 8.139 18.478 o
-5 -3 2 179.814 191.119 15.627 4.514 o
-5 -3 3 49.649 52.556 7.354 22.453 o
-5 -3 4 92.297 98.363 10.156 11.282 o
-5 -3 5 5.846 3.755 2.899 152.072 o
-5 -3 6 5.581 7.141 2.525 199.773 o
-5 -3 7 1.550 8.342 3.309 116.907 o
-5 -3 8 40.740 59.070 8.204 18.348 o
-5 -3 9 6.353 3.438 4.647 59.299 o
-5 -3 10 0.337 -9.494 5.953 36.193 o
-5 -3 11 13.659 17.021 9.199 15.108 o
-5 -3 12 3.400 19.093 6.987 26.222 o
-5 -3 13 13.707 17.159 9.195 15.123 o
-5 -2 1 62.940 72.256 9.031 14.787 o
-5 -2 2 88.820 99.265 10.321 10.998 o
-5 -2 3 116.007 120.083 10.564 10.028 o
-5 -2 4 90.150 85.396 10.892 10.027 o
-5 -2 5 25.243 28.010 5.421 42.473 o
-5 -2 6 176.607 183.947 13.193 6.050 o
-5 -2 7 100.362 96.645 9.943 11.607 o
-5 -2 8 28.170 30.343 5.779 37.298 o
-5 -2 9 4.433 -0.633 2.251 252.552 o
-5 -2 10 26.175 34.045 10.764 10.976 o
-5 -2 11 1.430 -1.875 2.320 238.137 o
-5 -2 12 0.004 1.297 2.504 204.527 o
-5 -2 13 5.339 9.729 6.831 27.449 o
-5 -2 14 0.260 -5.398 8.354 18.376 o
-5 -1 1 259.302 240.728 8.507 8.657 o
-5 -1 2 15.622 15.440 3.469 104.065 o
-5 -1 3 52.342 52.191 10.476 11.351 o
-5 -1 4 39.398 39.997 8.770 16.280 o
-5 -1 5 31.218 28.997 4.861 51.863 o
-5 -1 6 241.546 221.222 18.319 3.200 o
-5 -1 7 93.823 89.636 9.616 12.503 o
-5 -1 8 3.063 4.378 2.628 185.232 o
-5 -1 9 9.975 11.422 4.120 74.969 o
-5 -1 10 3.179 3.299 2.499 204.979 o
-5 -1 11 8.632 12.644 11.539 9.622 o
-5 -1 12 6.328 3.784 3.457 106.967 o
-5 -1 13 3.407 5.014 3.912 83.695 o
-5 -1 14 1.951 0.578 3.258 120.770 o
-5 0 1 20.966 25.494 4.541 60.428 o
-5 0 2 189.443 187.521 9.768 9.322 o
-5 0 3 95.332 105.971 8.419 15.554 o
-5 0 4 24.555 23.989 4.210 69.611 o
-5 0 5 28.176 44.651 9.365 14.403 o
-5 0 6 40.339 50.245 9.944 12.681 o
-5 0 7 0.075 0.922 2.063 301.251 o
-5 0 8 12.889 19.271 4.709 57.139 o
-5 0 9 9.017 5.364 2.817 160.148 o
-5 0 10 64.342 63.395 8.921 15.190 o
-5 0 11 6.162 12.330 7.331 23.823 o
-5 0 12 1.302 0.925 2.852 157.624 o
-5 0 13 1.461 3.583 2.359 230.177 o
-5 0 14 6.381 1.663 4.840 54.671 o
-5 0 15 0.087 0.369 2.410 220.840 o
-5 1 1 0.728 2.290 0.959 1392.540 o
-5 1 2 80.366 82.930 4.562 44.819 o
-5 1 3 32.103 30.531 2.928 131.485 o
-5 1 4 132.028 131.988 8.478 13.866 o
-5 1 5 151.008 156.447 10.203 9.736 o
-5 1 6 48.819 49.352 4.527 54.967 o
-5 1 7 1.581 0.786 1.126 1010.260 o
-5 1 8 9.652 6.325 3.581 99.322 o
-5 1 9 75.487 101.250 10.225 11.359 o
-5 1 10 132.333 130.748 12.317 7.445 o
-5 1 11 18.335 18.201 3.924 81.215 o
-5 1 12 20.630 21.070 4.510 61.495 o
-5 1 13 0.019 3.579 4.301 69.310 o
-5 1 14 0.450 2.191 5.924 36.545 o
-5 1 15 22.677 50.112 19.456 3.377 o
-5 2 1 239.025 249.070 12.083 5.952 o
-5 2 2 23.036 24.259 4.878 52.456 o
-5 2 3 188.620 183.200 8.892 10.658 o
-5 2 4 1.231 2.296 1.065 1128.380 o
-5 2 5 56.862 55.557 4.006 64.729 o
-5 2 6 12.989 13.925 4.939 52.121 o
-5 2 7 3.377 3.650 3.005 141.814 o
-5 2 8 47.650 43.369 6.685 27.157 o
-5 2 9 6.507 5.462 2.981 143.553 o
-5 2 10 28.868 28.296 11.787 9.167 o
-5 2 11 51.256 46.398 8.067 18.863 o
-5 2 12 21.760 20.888 5.320 44.460 o
-5 2 13 1.375 8.066 4.358 67.480 o
-5 2 14 1.682 0.268 3.406 110.530 o
-5 3 1 127.908 144.106 10.975 9.065 o
-5 3 2 27.942 37.016 5.928 35.350 o
-5 3 3 7.014 3.027 3.877 85.099 o
-5 3 4 169.088 179.910 12.258 6.912 o
-5 3 5 13.480 6.283 13.226 7.325 o
-5 3 6 47.187 57.470 7.860 19.786 o
-5 3 7 3.887 2.961 6.167 33.705 o
-5 3 8 6.864 8.446 3.657 95.408 o
-5 3 9 26.563 29.232 6.135 33.283 o
-5 3 10 3.906 11.766 8.830 16.437 o
-5 3 11 14.239 13.600 6.309 32.028 o
-5 3 12 9.062 32.640 17.615 4.129 o
-5 3 13 1.373 7.985 7.331 23.857 o
-5 3 14 0.013 9.109 5.434 43.406 o
-5 4 1 148.320 158.172 7.557 15.216 o
-5 4 2 29.052 26.411 4.094 72.470 o
-5 4 3 52.268 46.903 5.887 34.047 o
-5 4 4 12.257 11.605 1.956 320.723 o
-5 4 5 9.647 8.658 2.224 253.896 o
-5 4 6 47.153 49.792 10.431 11.497 o
-5 4 7 22.449 25.310 5.451 42.231 o
-5 4 8 12.535 10.131 3.711 92.022 o
-5 4 9 13.270 15.285 4.897 52.970 o
-5 4 10 90.263 92.825 14.906 5.527 o
-5 4 11 23.084 19.247 5.712 38.645 o
-5 4 12 37.192 39.777 7.380 22.827 o
-5 4 13 1.196 7.558 7.301 24.054 o
-5 5 1 103.093 107.660 5.381 30.612 o
-5 5 2 32.918 29.747 2.986 126.794 o
-5 5 3 10.338 11.082 2.093 284.116 o
-5 5 4 0.002 2.673 2.324 237.311 o
-5 5 5 0.001 2.925 1.642 475.254 o
-5 5 6 24.300 19.320 3.223 116.652 o
-5 5 7 0.103 2.807 3.240 122.122 o
-5 5 8 85.791 100.594 11.279 9.364 o
-5 5 9 9.484 5.821 3.257 119.973 o
-5 5 10 0.006 1.011 3.019 140.653 o
-5 5 11 1.402 3.363 4.639 59.579 o
-5 5 12 18.217 22.860 8.954 15.902 o
-5 6 1 13.400 19.506 3.723 90.694 o
-5 6 2 250.354 281.133 13.875 4.700 o
-5 6 3 115.265 123.290 8.046 15.796 o
-5 6 4 43.572 44.205 5.627 37.800 o
-5 6 5 14.990 15.827 4.207 71.334 o
-5 6 6 5.752 6.265 3.592 99.060 o
-5 6 7 19.067 13.058 4.148 73.081 o
-5 6 8 29.097 25.642 6.588 28.929 o
-5 6 9 31.370 22.093 6.176 32.807 o
-5 6 10 18.076 11.677 4.465 63.377 o
-5 6 11 0.710 0.242 2.715 173.966 o
-5 6 12 3.704 -1.819 3.884 84.949 o
-5 7 1 24.043 27.237 3.919 79.619 o
-5 7 2 0.874 0.121 2.049 305.303 o
-5 7 3 3.653 7.726 3.699 93.533 o
-5 7 4 89.338 87.797 8.446 15.898 o
-5 7 5 22.607 10.653 4.422 64.249 o
-5 7 6 4.563 3.963 12.596 8.082 o
-5 7 7 9.505 11.415 4.613 59.926 o
-5 7 8 33.496 33.470 11.562 9.498 o
-5 7 9 7.768 10.414 7.658 21.834 o
-5 7 10 0.765 -5.356 3.646 96.489 o
-5 7 11 0.015 -1.016 3.729 92.228 o
-5 8 1 0.018 -0.226 2.738 171.063 o
-5 8 2 1.478 3.140 2.118 285.439 o
-5 8 3 0.074 -0.902 1.842 377.997 o
-5 8 4 1.180 -1.998 2.942 148.199 o
-5 8 5 25.021 24.487 5.122 47.550 o
-5 8 6 0.370 0.758 3.466 106.764 o
-5 8 7 1.319 4.793 7.294 24.103 o
-5 8 8 5.363 1.525 3.115 131.891 o
-5 8 9 5.010 13.156 4.861 54.111 o
-5 8 10 13.592 16.311 5.661 39.702 o
-5 9 1 4.413 8.692 4.340 67.934 o
-5 9 2 26.720 25.426 6.801 27.245 o
-5 9 3 0.196 5.485 11.191 10.239 o
-5 9 4 2.196 0.407 4.202 72.630 o
-5 9 5 0.511 4.771 3.722 92.517 o
-5 9 6 4.569 9.640 4.718 57.502 o
-5 9 7 3.507 9.556 5.060 50.016 o
-5 9 8 4.630 2.443 3.248 121.340 o
-5 9 9 1.579 1.220 4.417 65.715 o
-5 10 1 17.255 19.141 11.461 9.735 o
-5 10 2 1.264 -16.912 9.005 15.815 o
-5 10 3 1.223 2.760 6.621 29.247 o
-5 10 4 3.383 6.581 7.241 24.451 o
-4 -7 2 0.042 7.920 5.590 41.028 o
-4 -7 3 4.518 -4.447 6.738 28.240 o
-4 -7 4 0.000 4.797 3.791 89.228 o
-4 -7 5 5.617 -2.599 4.731 57.245 o
-4 -6 1 38.175 40.308 8.678 16.635 o
-4 -6 2 0.941 2.008 2.066 300.372 o
-4 -6 3 1.538 4.017 6.130 34.122 o
-4 -6 4 1.531 -2.054 4.103 76.175 o
-4 -6 5 12.842 21.114 10.578 11.431 o
-4 -6 6 32.090 49.572 13.907 6.573 o
-4 -6 7 3.627 8.742 6.440 30.898 o
-4 -6 8 0.281 -5.049 5.361 44.624 o
-4 -6 9 0.811 12.605 7.589 22.254 o
-4 -6 10 0.066 6.599 6.444 30.877 o
-4 -5 1 29.680 32.645 5.610 39.355 o
-4 -5 2 6.370 9.122 4.165 73.666 o
-4 -5 3 17.535 14.695 4.265 69.254 o
-4 -5 4 0.737 -1.932 3.481 105.839 o
-4 -5 5 9.121 8.121 5.122 48.709 o
-4 -5 6 30.342 27.180 9.701 13.483 o
-4 -5 7 105.862 112.677 18.861 3.470 o
-4 -5 8 28.564 39.091 11.133 10.247 o
-4 -5 9 36.854 28.206 10.688 11.093 o
-4 -5 10 5.971 5.906 5.068 49.847 o
-4 -5 11 1.340 5.764 4.884 53.732 o
-4 -4 1 12.805 12.427 3.201 122.905 o
-4 -4 2 43.456 37.769 6.747 26.965 o
-4 -4 3 2.055 2.336 2.801 163.376 o
-4 -4 4 28.809 30.216 5.403 42.457 o
-4 -4 5 2.077 1.241 4.323 68.606 o
-4 -4 6 6.600 8.405 3.546 101.475 o
-4 -4 7 21.398 20.479 7.635 21.802 o
-4 -4 8 88.081 89.319 16.539 4.535 o
-4 -4 9 24.283 23.300 10.845 10.840 o
-4 -4 10 6.143 15.697 6.400 31.227 o
-4 -4 11 1.415 1.526 6.288 32.434 o
-4 -4 12 1.113 -4.732 4.805 55.533 o
-4 -4 13 1.727 2.651 4.075 77.202 o
-4 -3 1 15.809 24.382 5.437 42.779 o
-4 -3 2 146.201 163.192 18.398 3.506 o
-4 -3 3 18.424 23.721 6.198 32.971 o
-4 -3 4 21.983 22.502 4.477 62.179 o
-4 -3 5 19.018 17.466 3.704 90.788 o
-4 -3 6 1.611 -0.566 2.381 226.178 o
-4 -3 7 172.200 168.747 12.181 7.008 o
-4 -3 8 181.334 166.829 12.542 6.605 o
-4 -3 9 61.424 61.608 8.192 17.916 o
-4 -3 10 8.404 4.566 4.545 61.900 o
-4 -3 11 3.706 5.491 3.778 89.709 o
-4 -3 12 0.516 0.810 5.284 45.932 o
-4 -3 13 0.408 7.498 5.489 42.543 o
-4 -3 14 0.445 -2.496 3.771 90.197 o
-4 -2 1 17.806 20.437 4.350 66.314 o
-4 -2 2 95.638 96.341 5.372 32.278 o
-4 -2 3 1.243 1.368 1.500 569.519 o
-4 -2 4 1.072 2.235 2.234 256.899 o
-4 -2 5 64.471 73.901 11.024 10.102 o
-4 -2 6 205.417 202.126 12.780 6.030 o
-4 -2 7 1.061 2.644 1.596 502.736 o
-4 -2 8 0.908 2.336 2.112 287.314 o
-4 -2 9 2.482 0.041 1.908 351.858 o
-4 -2 10 0.481 -2.213 3.377 112.463 o
-4 -2 11 13.990 19.100 5.304 45.118 o
-4 -2 12 32.550 30.595 6.606 28.601 o
-4 -2 13 3.590 9.408 5.962 36.039 o
-4 -2 14 4.944 8.290 6.366 31.607 o
-4 -1 1 32.941 31.648 4.247 66.482 o
-4 -1 2 186.584 195.231 9.779 9.287 o
-4 -1 3 227.167 247.066 12.614 5.731 o
-4 -1 4 0.495 3.253 2.853 157.547 o
-4 -1 5 150.185 170.406 15.374 4.830 o
-4 -1 6 21.459 21.947 5.628 39.791 o
-4 -1 7 15.757 21.682 4.444 63.741 o
-4 -1 8 25.464 30.338 8.461 17.698 o
-4 -1 9 68.961 67.103 8.378 16.939 o
-4 -1 10 173.233 163.133 13.653 5.816 o
-4 -1 11 128.542 135.757 21.150 2.743 o
-4 -1 12 6.985 6.392 6.415 31.121 o
-4 -1 13 1.968 2.009 7.905 20.519 o
-4 -1 14 1.165 -3.525 3.207 124.672 o
-4 -1 15 0.333 3.610 7.265 24.299 o
-4 0 1 2449.590 2394.430 27.975 0.165 o
-4 0 2 299.067 299.167 11.594 5.339 o
-4 0 3 124.062 129.693 6.507 20.992 o
-4 0 4 0.074 8.765 3.446 107.893 o
-4 0 5 26.366 37.126 5.072 47.868 o
-4 0 6 14.368 8.879 3.791 88.103 o
-4 0 7 62.852 56.128 10.614 10.960 o
-4 0 8 53.825 66.062 7.905 19.298 o
-4 0 9 49.012 59.696 8.013 19.005 o
-4 0 10 30.254 28.838 6.164 32.848 o
-4 0 11 55.827 50.242 8.222 18.050 o
-4 0 12 0.075 1.926 2.972 145.186 o
-4 0 13 1.690 1.731 2.512 203.083 o
-4 0 14 1.439 1.577 7.346 23.765 o
-4 0 15 1.439 -6.916 4.012 79.673 o
-4 0 16 0.573 2.921 3.505 104.383 o
-4 1 1 0.242 0.483 0.872 1685.220 o
-4 1 2 237.185 231.658 7.455 10.592 o
-4 1 3 2.507 -0.041 0.925 1492.490 o
-4 1 4 16.322 14.426 2.219 246.008 o
-4 1 5 2.370 1.627 1.159 950.296 o
-4 1 6 403.495 400.836 10.699 4.189 o
-4 1 7 32.515 28.634 8.412 17.832 o
-4 1 8 15.664 9.569 4.857 53.857 o
-4 1 9 65.283 95.199 14.389 6.000 o
-4 1 10 22.697 18.426 4.887 52.513 o
-4 1 11 40.669 34.829 12.351 8.310 o
-4 1 12 0.753 4.643 4.855 54.400 o
-4 1 13 0.300 5.738 4.583 61.051 o
-4 1 14 6.071 4.529 6.212 33.205 o
-4 1 15 2.483 3.866 5.864 37.279 o
-4 2 1 205.970 211.353 11.829 6.715 o
-4 2 2 313.341 317.599 14.706 3.846 o
-4 2 3 93.648 92.441 4.242 45.348 o
-4 2 4 14.735 14.041 3.977 79.835 o
-4 2 5 68.579 60.308 11.818 8.857 o
-4 2 6 0.098 -0.929 5.125 48.823 o
-4 2 7 6.608 3.790 1.958 331.228 o
-4 2 8 172.398 186.921 13.407 5.912 o
-4 2 9 188.097 167.947 19.787 2.979 o
-4 2 10 278.739 282.818 17.446 3.229 o
-4 2 11 14.423 16.839 10.395 11.837 o
-4 2 12 21.453 22.722 17.940 3.978 o
-4 2 13 0.949 18.410 7.222 24.562 o
-4 2 14 0.617 19.252 8.599 17.331 o
-4 3 1 287.770 302.763 8.949 7.068 o
-4 3 2 626.070 594.983 12.682 2.105 o
-4 3 3 6.132 5.640 1.760 408.628 o
-4 3 4 261.405 270.281 9.575 7.356 o
-4 3 5 44.013 52.770 6.875 25.715 o
-4 3 6 0.268 6.628 3.069 136.058 o
-4 3 7 95.567 102.813 9.838 11.858 o
-4 3 8 15.833 14.104 4.362 66.423 o
-4 3 9 0.614 -1.041 2.279 247.007 o
-4 3 10 0.379 0.641 2.239 255.735 o
-4 3 11 121.425 119.362 11.758 8.248 o
-4 3 12 38.445 57.862 13.714 6.733 o
-4 3 13 4.402 -4.116 6.102 34.437 o
-4 3 14 7.347 10.347 6.681 28.674 o
-4 4 1 2257.190 2269.370 22.650 0.196 o
-4 4 2 1560.520 1578.990 19.876 0.389 o
-4 4 3 289.374 271.591 8.938 7.332 o
-4 4 4 13.621 25.387 5.007 50.413 o
-4 4 5 26.476 21.222 4.342 65.500 o
-4 4 6 4.220 2.752 2.385 224.737 o
-4 4 7 6.228 3.624 2.167 271.131 o
-4 4 8 3.255 1.197 5.244 46.618 o
-4 4 9 46.553 46.037 7.319 22.855 o
-4 4 10 36.941 40.785 7.115 24.494 o
-4 4 11 7.797 4.938 8.151 19.288 o
-4 4 12 8.345 1.746 4.675 58.563 o
-4 4 13 0.209 -1.976 4.943 52.476 o
-4 5 1 10.617 9.043 1.444 581.699 o
-4 5 2 76.559 85.820 7.002 22.688 o
-4 5 3 6.771 9.422 2.856 155.887 o
-4 5 4 76.177 79.122 7.011 22.820 o
-4 5 5 27.622 36.309 5.918 35.503 o
-4 5 6 18.545 21.147 4.969 51.017 o
-4 5 7 19.549 32.606 6.223 32.545 o
-4 5 8 55.664 42.709 9.875 12.743 o
-4 5 9 36.195 30.212 7.776 20.736 o
-4 5 10 1.514 2.024 4.120 75.516 o
-4 5 11 0.739 3.715 6.137 34.041 o
-4 5 12 2.773 1.161 3.715 92.861 o
-4 6 1 5.701 3.679 1.422 624.763 o
-4 6 2 32.322 34.760 4.835 51.971 o
-4 6 3 23.321 25.259 3.979 77.655 o
-4 6 4 73.978 82.019 7.475 20.411 o
-4 6 5 41.163 47.333 6.159 31.943 o
-4 6 6 2.102 2.378 2.489 206.743 o
-4 6 7 3.637 3.775 3.565 100.753 o
-4 6 8 2.085 1.817 4.720 57.545 o
-4 6 9 12.302 17.248 5.493 42.182 o
-4 6 10 75.494 83.932 10.820 10.314 o
-4 6 11 10.349 11.226 6.948 26.488 o
-4 6 12 2.221 -0.169 5.120 48.918 o
-4 7 1 7.373 6.283 2.175 267.830 o
-4 7 2 373.462 375.687 15.754 3.099 o
-4 7 3 78.271 76.029 7.397 20.746 o
-4 7 4 136.196 130.835 9.781 10.959 o
-4 7 5 0.582 -0.744 2.090 293.479 o
-4 7 6 0.476 2.892 2.400 222.599 o
-4 7 7 3.971 1.845 4.636 59.640 o
-4 7 8 4.583 1.050 2.729 171.876 o
-4 7 9 1.556 1.663 4.969 51.924 o
-4 7 10 0.025 6.666 3.095 133.799 o
-4 7 11 1.092 -1.454 3.972 81.281 o
-4 8 1 7.220 8.290 3.846 86.315 o
-4 8 2 30.823 28.090 4.624 57.158 o
-4 8 3 16.602 17.070 4.099 74.837 o
-4 8 4 3.576 1.647 2.695 176.376 o
-4 8 5 0.616 3.929 2.215 261.111 o
-4 8 6 22.367 17.901 4.102 73.963 o
-4 8 7 0.023 7.674 3.599 98.954 o
-4 8 8 23.984 27.694 9.437 14.279 o
-4 8 9 8.016 16.874 8.234 18.877 o
-4 8 10 0.333 8.992 6.862 27.230 o
-4 9 1 12.748 13.896 4.580 60.541 o
-4 9 2 1.157 4.415 4.463 64.367 o
-4 9 3 0.267 -4.302 5.766 38.568 o
-4 9 4 0.927 -8.220 6.979 26.328 o
-4 9 5 6.157 9.819 10.142 12.460 o
-4 9 6 7.192 3.880 4.516 62.750 o
-4 9 7 7.818 4.400 5.874 37.114 o
-4 9 8 9.432 8.680 3.732 91.437 o
-4 9 9 0.439 -0.704 4.805 55.539 o
-4 10 1 25.885 41.742 12.952 7.592 o
-4 10 2 16.496 29.072 11.165 10.245 o
-4 10 3 2.537 2.008 5.271 46.140 o
-3 -8 1 1.972 8.130 5.159 48.140 o
-3 -8 2 1.913 3.312 6.291 32.401 o
-3 -7 1 0.073 -1.094 5.273 46.130 o
-3 -7 2 2.854 13.795 8.127 19.401 o
-3 -7 3 5.424 7.332 6.189 33.444 o
-3 -7 4 1.197 -2.511 5.321 45.300 o
-3 -7 5 2.480 8.555 5.753 38.724 o
-3 -7 6 17.941 23.561 9.647 13.710 o
-3 -7 7 5.401 -0.555 6.173 33.645 o
-3 -7 8 0.085 3.527 4.280 69.984 o
-3 -6 1 4.183 6.018 3.042 138.208 o
-3 -6 2 1.611 -0.949 2.472 209.736 o
-3 -6 3 0.630 10.495 5.221 47.019 o
-3 -6 4 5.261 4.641 4.098 76.213 o
-3 -6 5 2.634 5.294 5.013 50.995 o
-3 -6 6 24.215 30.839 9.649 13.653 o
-3 -6 7 0.604 -1.546 3.515 103.805 o
-3 -6 8 10.589 14.690 7.777 21.145 o
-3 -6 9 0.916 0.230 4.124 75.390 o
-3 -6 10 1.205 9.398 5.121 48.858 o
-3 -6 11 0.041 -0.691 3.479 105.958 o
-3 -5 1 119.166 103.058 11.192 9.123 o
-3 -5 2 104.135 82.762 9.698 12.193 o
-3 -5 3 89.238 85.601 14.294 6.007 o
-3 -5 4 0.543 6.107 6.207 33.279 o
-3 -5 5 17.468 10.589 5.930 36.189 o
-3 -5 6 2.049 12.991 6.436 30.934 o
-3 -5 7 22.735 15.318 8.052 19.635 o
-3 -5 8 80.684 84.645 16.016 4.849 o
-3 -5 9 12.578 11.238 6.733 28.181 o
-3 -5 10 0.070 3.932 3.928 83.113 o
-3 -5 11 14.756 17.730 8.961 15.912 o
-3 -5 12 11.811 17.348 9.071 15.544 o
-3 -4 1 340.258 351.437 18.999 2.560 o
-3 -4 2 11.552 6.215 2.385 221.104 o
-3 -4 3 223.236 223.156 21.120 2.540 o
-3 -4 4 27.992 28.597 4.737 54.849 o
-3 -4 5 176.144 187.049 11.478 7.545 o
-3 -4 6 98.505 93.666 7.966 17.200 o
-3 -4 7 174.411 171.898 20.857 2.725 o
-3 -4 8 56.368 57.584 12.465 8.056 o
-3 -4 9 2.396 7.145 5.715 39.246 o
-3 -4 10 5.673 5.760 6.253 32.764 o
-3 -4 11 2.257 -2.695 3.826 87.591 o
-3 -4 12 5.677 4.136 6.431 30.985 o
-3 -4 13 3.680 5.770 4.424 65.451 o
-3 -3 1 132.369 142.808 11.198 8.711 o
-3 -3 2 456.268 459.148 19.711 2.017 o
-3 -3 3 62.880 74.809 7.445 21.123 o
-3 -3 4 4.667 1.017 1.950 336.065 o
-3 -3 5 85.824 88.753 9.505 12.919 o
-3 -3 6 5.948 8.394 2.787 163.908 o
-3 -3 7 91.067 89.633 14.617 5.741 o
-3 -3 8 0.510 2.674 1.941 340.078 o
-3 -3 9 0.885 1.919 2.280 246.598 o
-3 -3 10 3.920 5.282 2.612 187.380 o
-3 -3 11 1.467 4.009 5.170 47.973 o
-3 -3 12 3.774 10.223 7.196 24.748 o
-3 -3 13 1.682 14.074 7.898 20.543 o
-3 -3 14 1.382 8.024 7.199 24.740 o
-3 -2 1 67.084 64.497 10.660 10.793 o
-3 -2 2 67.643 60.925 3.677 69.025 o
-3 -2 3 81.368 94.514 10.348 11.077 o
-3 -2 4 92.190 108.591 10.588 10.393 o
-3 -2 5 189.511 218.130 15.002 4.716 o
-3 -2 6 30.235 31.798 4.795 53.181 o
-3 -2 7 0.093 2.234 3.363 113.359 o
-3 -2 8 2.145 8.387 3.333 115.213 o
-3 -2 9 35.070 40.866 6.464 29.547 o
-3 -2 10 91.766 98.305 10.297 11.011 o
-3 -2 11 7.620 8.024 3.377 111.757 o
-3 -2 12 0.395 -0.149 2.100 290.736 o
-3 -2 13 7.413 4.020 7.123 25.253 o
-3 -2 14 0.964 1.361 4.500 63.325 o
-3 -1 1 1239.420 1288.190 18.339 0.583 o
-3 -1 2 50.184 49.135 6.463 28.687 o
-3 -1 3 18.784 19.434 3.147 124.110 o
-3 -1 4 549.845 563.203 17.426 1.923 o
-3 -1 5 3.859 0.283 1.816 387.685 o
-3 -1 6 518.327 581.039 26.551 1.223 o
-3 -1 7 370.013 362.015 16.745 2.915 o
-3 -1 8 10.354 8.851 3.226 121.858 o
-3 -1 9 11.656 8.745 3.059 135.110 o
-3 -1 10 52.519 45.094 7.108 23.978 o
-3 -1 11 134.605 139.184 12.814 6.891 o
-3 -1 12 1.200 -1.261 2.734 171.589 o
-3 -1 13 2.198 3.920 3.752 91.014 o
-3 -1 14 5.622 6.919 3.132 130.170 o
-3 -1 15 2.443 8.729 5.254 46.421 o
-3 0 1 1455.400 1467.540 18.751 0.447 o
-3 0 2 3.631 4.681 1.189 894.743 o
-3 0 3 657.110 650.623 13.190 1.883 o
-3 0 4 141.015 137.138 14.707 5.357 o
-3 0 5 15.215 16.574 3.358 110.880 o
-3 0 6 94.473 104.460 12.643 7.493 o
-3 0 7 119.478 146.806 14.796 5.378 o
-3 0 8 4.489 5.173 4.261 70.515 o
-3 0 9 2.828 2.218 3.519 103.492 o
-3 0 10 19.692 21.643 7.159 24.788 o
-3 0 11 18.199 22.093 7.341 23.597 o
-3 0 12 7.699 3.310 2.272 246.263 o
-3 0 13 6.309 5.046 4.350 67.630 o
-3 0 14 16.641 -5.167 5.203 47.116 o
-3 0 15 0.010 5.242 3.898 84.382 o
-3 1 1 32.202 27.763 1.620 342.733 o
-3 1 2 134.849 125.549 4.715 29.994 o
-3 1 3 157.773 149.023 5.642 21.307 o
-3 1 4 42.151 39.728 3.444 92.389 o
-3 1 5 47.457 42.550 5.194 43.533 o
-3 1 6 19.052 25.526 8.504 17.603 o
-3 1 7 1.157 -0.449 3.345 114.623 o
-3 1 8 124.715 130.492 10.375 10.129 o
-3 1 9 42.821 40.956 6.447 29.368 o
-3 1 10 86.540 101.485 9.894 11.896 o
-3 1 11 18.801 23.699 5.176 46.992 o
-3 1 12 11.856 13.030 6.597 29.345 o
-3 1 13 0.663 -2.173 3.301 117.667 o
-3 1 14 10.106 11.367 6.317 32.033 o
-3 1 15 14.745 12.418 6.361 31.512 o
-3 2 1 1262.540 1210.240 13.683 0.635 o
-3 2 2 9.765 10.906 1.680 435.397 o
-3 2 3 116.497 108.481 4.646 34.750 o
-3 2 4 55.386 54.672 6.081 31.606 o
-3 2 5 44.289 46.848 5.786 35.729 o
-3 2 6 179.790 179.408 11.295 7.737 o
-3 2 7 78.061 68.718 7.396 20.907 o
-3 2 8 53.283 59.973 13.056 7.365 o
-3 2 9 22.168 21.777 4.647 57.835 o
-3 2 10 332.230 325.789 17.194 3.021 o
-3 2 11 0.000 -1.304 2.025 312.788 o
-3 2 12 33.683 37.270 10.921 10.624 o
-3 2 13 0.021 1.754 3.760 90.714 o
-3 2 14 1.010 5.594 6.868 27.181 o
-3 3 1 220.200 211.446 5.547 14.809 o
-3 3 2 14.682 15.975 1.963 311.116 o
-3 3 3 502.712 539.930 14.885 2.396 o
-3 3 4 280.368 298.622 17.701 3.125 o
-3 3 5 136.725 148.315 10.178 10.101 o
-3 3 6 0.108 -0.597 1.433 624.679 o
-3 3 7 76.401 74.858 7.797 18.970 o
-3 3 8 41.182 38.560 5.802 36.039 o
-3 3 9 38.611 40.176 8.017 19.404 o
-3 3 10 62.436 54.638 7.384 21.828 o
-3 3 11 3.654 1.668 2.589 191.042 o
-3 3 12 1.038 -0.531 3.136 130.428 o
-3 3 13 0.696 4.233 6.469 30.639 o
-3 3 14 0.964 2.463 4.967 51.968 o
-3 4 1 5.119 5.064 0.999 1246.500 o
-3 4 2 45.613 45.311 3.659 80.979 o
-3 4 3 6.553 6.961 2.216 258.248 o
-3 4 4 76.373 70.991 5.928 30.744 o
-3 4 5 11.677 19.258 4.398 65.485 o
-3 4 6 66.762 77.546 8.148 17.751 o
-3 4 7 39.545 36.827 5.868 35.428 o
-3 4 8 0.487 -1.646 2.236 256.405 o
-3 4 9 23.029 31.393 5.737 38.055 o
-3 4 10 42.097 44.602 7.393 22.564 o
-3 4 11 0.799 5.339 4.871 54.026 o
-3 4 12 6.674 11.582 6.047 34.993 o
-3 4 13 6.170 9.030 6.498 30.331 o
-3 5 1 8.449 8.290 2.076 291.861 o
-3 5 2 3.727 5.323 1.865 366.381 o
-3 5 3 159.534 141.256 8.717 12.350 o
-3 5 4 2.879 2.417 2.355 230.824 o
-3 5 5 76.515 74.928 6.844 23.895 o
-3 5 6 17.677 30.221 5.497 41.665 o
-3 5 7 203.502 192.078 13.825 5.382 o
-3 5 8 2.430 -0.451 2.170 272.256 o
-3 5 9 15.054 23.023 8.773 16.584 o
-3 5 10 5.960 4.246 3.812 88.049 o
-3 5 11 0.148 -3.864 5.417 43.708 o
-3 5 12 14.523 10.148 6.944 26.482 o
-3 6 1 20.729 16.686 2.674 168.890 o
-3 6 2 296.307 287.499 10.930 5.796 o
-3 6 3 193.135 199.242 10.980 7.743 o
-3 6 4 0.011 0.376 1.941 340.244 o
-3 6 5 55.556 49.172 5.936 33.216 o
-3 6 6 11.261 7.090 6.307 32.142 o
-3 6 7 5.495 2.479 2.531 199.379 o
-3 6 8 137.815 135.835 12.900 6.797 o
-3 6 9 10.413 14.573 4.792 55.441 o
-3 6 10 3.922 10.080 5.942 36.277 o
-3 6 11 3.863 0.723 3.753 90.988 o
-3 7 1 145.513 136.504 9.405 11.402 o
-3 7 2 14.235 16.345 2.905 147.327 o
-3 7 3 29.792 37.570 5.166 45.922 o
-3 7 4 47.225 43.072 5.824 35.230 o
-3 7 5 22.927 23.032 4.497 61.507 o
-3 7 6 4.319 2.033 2.508 203.336 o
-3 7 7 7.617 6.882 3.658 95.367 o
-3 7 8 41.786 37.402 11.407 9.712 o
-3 7 9 25.374 8.223 5.362 43.914 o
-3 7 10 3.428 6.153 6.026 35.292 o
-3 8 1 22.586 21.665 5.520 41.295 o
-3 8 2 5.453 2.837 1.898 353.480 o
-3 8 3 0.001 -3.059 2.899 152.600 o
-3 8 4 2.471 7.459 3.881 85.010 o
-3 8 5 61.272 58.873 8.773 15.775 o
-3 8 6 25.758 34.511 7.336 23.409 o
-3 8 7 15.821 19.626 7.750 21.227 o
-3 8 8 3.286 1.548 2.692 176.802 o
-3 8 9 1.319 2.655 4.436 65.167 o
-3 9 1 12.962 5.343 8.366 18.291 o
-3 9 2 20.325 30.053 11.330 9.939 o
-3 9 3 21.877 16.710 9.579 13.905 o
-3 9 4 8.046 11.466 8.466 17.869 o
-3 9 5 1.705 -10.206 7.146 25.112 o
-3 9 6 21.897 15.419 9.109 15.370 o
-3 9 8 1.138 6.841 5.580 41.173 o
-3 10 1 65.335 69.996 11.828 8.832 o
-3 10 2 7.007 4.233 8.208 19.020 o
-2 -8 1 7.855 13.736 8.292 18.618 o
-2 -8 2 1.997 19.044 9.290 14.847 o
-2 -8 3 0.909 -5.943 5.490 42.550 o
-2 -8 4 14.223 19.939 8.511 17.627 o
-2 -8 5 15.937 31.563 12.050 8.800 o
-2 -8 6 1.272 11.794 7.863 20.735 o
-2 -8 7 2.147 4.084 6.140 34.010 o
-2 -7 1 33.855 18.322 8.276 18.462 o
-2 -7 2 11.214 11.465 8.759 16.681 o
-2 -7 3 3.399 3.540 4.884 53.733 o
-2 -7 4 19.252 10.174 5.340 44.490 o
-2 -7 5 2.003 4.969 6.622 29.235 o
-2 -7 6 0.145 4.228 5.892 36.939 o
-2 -7 7 8.706 7.007 4.554 61.590 o
-2 -7 8 0.635 20.738 9.374 14.584 o
-2 -7 9 0.497 5.536 6.315 32.148 o
-2 -7 10 0.561 11.949 7.502 22.774 o
-2 -6 1 3.005 4.205 2.182 268.477 o
-2 -6 2 7.937 3.094 9.360 14.631 o
-2 -6 3 25.301 32.795 9.483 14.117 o
-2 -6 4 7.055 14.569 6.697 28.527 o
-2 -6 5 0.084 -6.422 4.736 57.168 o
-2 -6 6 40.698 30.085 9.652 13.527 o
-2 -6 7 15.226 12.642 6.920 26.648 o
-2 -6 8 0.322 7.929 5.038 50.511 o
-2 -6 9 0.183 1.814 4.097 76.413 o
-2 -6 10 1.363 3.506 6.569 29.712 o
-2 -6 11 1.684 -3.698 3.441 108.285 o
-2 -5 1 148.183 146.113 11.952 7.607 o
-2 -5 2 46.501 48.523 6.850 25.879 o
-2 -5 3 1.622 1.764 2.627 185.771 o
-2 -5 4 14.426 20.510 3.350 111.095 o
-2 -5 5 4.804 -1.602 2.511 202.964 o
-2 -5 6 1.532 0.386 3.975 81.155 o
-2 -5 7 858.763 873.794 48.250 0.399 o
-2 -5 8 1.289 6.874 5.542 41.743 o
-2 -5 9 45.885 52.660 13.022 7.443 o
-2 -5 10 16.938 7.809 6.002 35.373 o
-2 -5 11 2.083 8.521 7.481 22.908 o
-2 -5 12 2.718 3.824 4.359 67.445 o
-2 -4 1 4.162 0.993 1.716 434.070 o
-2 -4 2 147.154 148.199 20.929 2.765 o
-2 -4 3 59.271 69.976 11.079 10.065 o
-2 -4 4 32.162 33.986 3.132 115.769 o
-2 -4 5 211.385 195.181 9.509 9.121 o
-2 -4 6 18.294 23.805 3.647 93.053 o
-2 -4 7 13.567 15.854 3.390 109.260 o
-2 -4 8 94.778 100.882 8.190 16.407 o
-2 -4 9 91.612 101.054 17.008 4.276 o
-2 -4 10 1.973 0.259 3.394 111.279 o
-2 -4 11 11.862 21.130 8.826 16.407 o
-2 -4 12 3.545 -0.554 3.934 82.843 o
-2 -4 13 11.182 17.780 8.107 19.451 o
-2 -3 1 72.691 84.909 10.734 10.495 o
-2 -3 2 432.336 437.082 23.784 1.627 o
-2 -3 3 48.518 52.642 6.563 27.870 o
-2 -3 4 0.569 1.570 1.016 1240.690 o
-2 -3 5 118.729 120.941 6.195 23.209 o
-2 -3 6 14.143 18.175 3.351 111.384 o
-2 -3 7 104.482 107.441 6.269 24.446 o
-2 -3 8 16.506 11.981 3.541 100.158 o
-2 -3 9 125.237 103.505 9.347 12.350 o
-2 -3 10 203.083 194.905 13.394 5.652 o
-2 -3 11 34.981 27.970 5.680 38.256 o
-2 -3 12 8.000 18.692 8.962 15.935 o
-2 -3 13 2.460 8.474 6.380 31.484 o
-2 -3 14 2.062 -3.805 5.057 50.145 o
-2 -2 1 218.016 206.955 15.508 4.350 o
-2 -2 2 172.893 196.333 15.028 4.849 o
-2 -2 3 19.051 24.813 4.295 67.621 o
-2 -2 4 5.834 5.267 2.429 216.025 o
-2 -2 5 19.949 16.798 2.675 169.248 o
-2 -2 6 172.249 192.215 9.313 10.294 o
-2 -2 7 78.734 84.862 9.595 12.853 o
-2 -2 8 58.509 56.822 8.045 18.668 o
-2 -2 9 129.856 127.826 10.628 9.665 o
-2 -2 10 41.875 34.110 7.064 24.793 o
-2 -2 11 38.493 24.429 5.440 41.446 o
-2 -2 12 9.408 7.308 3.012 139.937 o
-2 -2 13 1.075 1.868 3.808 88.418 o
-2 -2 14 0.860 -0.338 4.129 75.211 o
-2 -1 1 185.017 169.328 6.674 15.494 o
-2 -1 2 327.488 353.944 11.427 4.852 o
-2 -1 3 0.973 1.503 1.000 1281.410 o
-2 -1 4 13.488 20.061 2.924 145.094 o
-2 -1 5 767.773 827.405 19.207 1.163 o
-2 -1 6 153.141 146.896 12.273 7.221 o
-2 -1 7 10.998 15.724 4.698 57.617 o
-2 -1 8 50.359 53.396 8.817 15.859 o
-2 -1 9 157.407 166.330 16.182 4.388 o
-2 -1 10 37.598 39.673 8.264 18.312 o
-2 -1 11 18.980 15.280 3.527 100.111 o
-2 -1 12 1.276 6.737 4.914 53.080 o
-2 -1 13 0.035 0.816 2.786 165.160 o
-2 -1 14 5.748 13.796 6.738 28.195 o
-2 -1 15 0.038 3.610 3.529 102.961 o
-2 0 1 2355.190 2192.330 18.477 0.194 o
-2 0 2 2807.860 2715.640 21.886 0.134 o
-2 0 3 428.868 428.731 10.217 3.985 o
-2 0 4 185.522 187.571 9.099 10.359 o
-2 0 5 0.096 0.718 1.830 383.087 o
-2 0 6 81.593 95.058 10.534 10.712 o
-2 0 7 0.169 3.549 3.894 84.551 o
-2 0 8 6.879 13.381 2.581 189.707 o
-2 0 9 0.001 3.647 2.943 148.059 o
-2 0 10 25.152 19.988 2.838 147.302 o
-2 0 11 0.254 -0.195 1.585 510.259 o
-2 0 12 0.565 2.026 3.574 100.386 o
-2 0 13 3.861 2.768 5.145 48.425 o
-2 0 14 14.050 20.397 7.827 20.826 o
-2 0 15 1.098 9.353 6.382 31.472 o
-2 1 1 3065.640 2850.270 17.787 0.117 o
-2 1 2 323.757 293.939 9.026 6.479 o
-2 1 3 489.414 459.174 20.132 1.894 o
-2 1 4 10.087 9.338 2.494 202.449 o
-2 1 5 77.361 66.974 5.884 31.214 o
-2 1 6 521.415 495.010 16.745 2.169 o
-2 1 7 92.513 102.626 8.146 16.606 o
-2 1 8 9.848 7.680 2.641 181.306 o
-2 1 9 7.751 9.422 2.698 174.232 o
-2 1 10 161.751 161.642 10.885 8.584 o
-2 1 11 99.152 88.778 14.370 5.901 o
-2 1 12 52.769 36.202 10.230 11.953 o
-2 1 13 8.497 10.144 5.481 42.556 o
-2 1 14 4.910 34.871 9.983 12.834 o
-2 1 15 0.003 -0.263 3.513 103.899 o
-2 2 1 9708.740 8877.540 33.897 0.012 o
-2 2 2 5045.140 4703.930 35.809 0.043 o
-2 2 3 50.975 50.955 3.859 71.382 o
-2 2 4 152.589 127.271 7.819 14.963 o
-2 2 5 0.309 0.393 1.422 633.914 o
-2 2 6 37.988 31.807 4.572 57.165 o
-2 2 7 18.250 17.202 3.335 111.501 o
-2 2 8 95.898 94.335 8.100 16.793 o
-2 2 9 840.798 849.449 28.323 0.780 o
-2 2 10 89.513 69.181 7.483 20.009 o
-2 2 11 24.694 30.238 9.083 15.389 o
-2 2 12 8.246 11.600 5.856 37.281 o
-2 2 13 0.166 6.212 5.834 37.674 o
-2 2 14 2.263 -0.483 3.582 99.916 o
-2 3 1 53.371 49.905 2.734 119.864 o
-2 3 2 86.887 92.079 5.132 36.003 o
-2 3 3 8.654 8.689 2.361 226.409 o
-2 3 4 128.760 148.129 9.123 12.230 o
-2 3 5 321.912 351.201 14.738 3.693 o
-2 3 6 25.069 15.845 4.571 59.741 o
-2 3 7 61.824 69.429 4.791 46.049 o
-2 3 8 6.267 4.168 2.493 205.057 o
-2 3 9 9.453 7.042 2.633 182.649 o
-2 3 10 25.329 26.011 5.113 47.643 o
-2 3 11 65.434 40.625 10.434 11.375 o
-2 3 12 15.489 22.268 9.846 13.179 o
-2 3 13 1.843 3.659 3.259 120.634 o
-2 4 1 155.574 151.424 6.029 19.895 o
-2 4 2 3.694 3.333 1.777 404.171 o
-2 4 3 150.877 144.018 9.355 11.286 o
-2 4 4 201.335 223.435 12.171 6.424 o
-2 4 5 0.422 2.034 2.048 305.577 o
-2 4 6 39.898 38.682 7.775 20.585 o
-2 4 7 4.050 4.504 3.246 121.449 o
-2 4 8 14.448 17.808 4.160 72.884 o
-2 4 9 142.888 130.709 11.408 8.385 o
-2 4 10 73.334 74.260 14.452 5.957 o
-2 4 11 16.805 26.903 8.926 15.998 o
-2 4 12 2.800 12.425 7.372 23.578 o
-2 5 1 185.641 199.136 9.032 10.314 o
-2 5 2 87.034 86.155 6.462 25.320 o
-2 5 3 10.195 10.015 3.181 125.248 o
-2 5 4 148.462 161.602 9.586 10.730 o
-2 5 5 0.492 -1.549 2.469 210.385 o
-2 5 6 9.426 9.806 4.321 68.304 o
-2 5 7 35.265 35.423 5.912 35.201 o
-2 5 8 0.419 4.027 3.260 120.639 o
-2 5 9 24.892 31.108 5.823 36.885 o
-2 5 10 0.197 0.626 3.992 80.485 o
-2 5 11 1.072 20.509 10.616 11.373 o
-2 5 12 0.890 1.044 3.300 117.759 o
-2 6 1 178.988 175.791 10.369 8.847 o
-2 6 2 16.577 16.871 5.004 50.548 o
-2 6 3 52.742 59.116 7.314 22.474 o
-2 6 4 7.335 3.134 2.251 251.048 o
-2 6 5 2.495 0.426 4.799 55.669 o
-2 6 6 2.287 0.256 2.258 251.367 o
-2 6 7 30.573 29.930 8.584 17.149 o
-2 6 8 10.114 15.271 7.034 25.833 o
-2 6 9 0.064 10.357 6.498 30.365 o
-2 6 10 2.004 4.556 5.302 45.599 o
-2 6 11 3.454 7.716 5.684 39.663 o
-2 7 1 232.418 217.102 8.506 9.609 o
-2 7 2 286.656 289.609 13.451 4.600 o
-2 7 3 153.091 163.726 12.597 6.832 o
-2 7 4 43.701 43.671 7.037 24.768 o
-2 7 5 6.841 5.373 3.174 126.678 o
-2 7 6 24.164 24.772 8.066 19.503 o
-2 7 7 45.468 37.793 9.757 13.170 o
-2 7 8 27.004 24.071 8.779 16.466 o
-2 7 9 0.029 5.770 4.558 61.724 o
-2 7 10 5.262 9.485 6.104 34.372 o
-2 8 1 6.716 6.869 7.203 24.688 o
-2 8 2 10.668 28.827 10.749 11.067 o
-2 8 3 0.713 1.219 2.200 264.865 o
-2 8 4 32.011 30.285 6.490 29.627 o
-2 8 5 46.306 51.621 8.758 16.142 o
-2 8 6 0.000 1.661 3.062 136.812 o
-2 8 7 8.416 10.237 4.974 51.623 o
-2 8 8 0.177 -5.769 4.857 54.359 o
-2 8 9 0.011 -4.090 4.934 52.685 o
-2 9 1 2.593 -1.286 4.358 67.500 o
-2 9 2 14.326 8.060 6.546 29.804 o
-2 9 3 26.921 40.794 12.891 7.663 o
-2 9 4 25.830 28.385 12.162 8.621 o
-2 9 5 0.328 -0.217 5.271 46.156 o
-2 10 1 21.193 29.821 11.424 9.775 o
-1 -9 1 3.119 -0.637 3.855 86.274 o
-1 -8 1 0.912 0.212 3.557 101.351 o
-1 -8 2 0.327 -6.316 4.860 54.294 o
-1 -8 3 25.229 22.647 9.218 14.967 o
-1 -8 4 22.934 20.697 8.588 17.250 o
-1 -8 5 4.215 9.759 6.091 34.522 o
-1 -8 6 8.143 17.607 8.642 17.136 o
-1 -8 7 5.124 8.175 6.876 27.097 o
-1 -8 8 1.435 3.315 5.088 49.524 o
-1 -7 1 133.861 130.339 19.012 3.355 o
-1 -7 2 44.572 36.529 9.449 14.037 o
-1 -7 3 1.946 3.733 4.331 68.351 o
-1 -7 4 1.125 -0.965 2.976 144.810 o
-1 -7 5 1.125 1.641 4.109 75.959 o
-1 -7 6 21.104 30.107 9.680 13.587 o
-1 -7 7 40.045 36.067 11.071 10.314 o
-1 -7 8 0.275 5.385 5.371 44.450 o
-1 -7 9 0.284 -2.665 6.072 34.786 o
-1 -7 10 10.272 17.595 8.996 15.808 o
-1 -6 1 122.299 115.766 10.330 10.361 o
-1 -6 2 82.164 79.836 8.369 16.467 o
-1 -6 3 45.483 58.766 12.276 8.346 o
-1 -6 4 46.436 47.923 10.691 10.971 o
-1 -6 5 116.308 128.579 18.042 3.742 o
-1 -6 6 77.010 91.262 15.473 5.185 o
-1 -6 7 7.200 13.465 6.844 27.317 o
-1 -6 8 20.135 22.648 9.419 14.371 o
-1 -6 9 0.298 -2.844 3.372 112.816 o
-1 -6 10 0.019 -4.150 4.654 59.219 o
-1 -6 11 1.381 0.337 5.214 47.172 o
-1 -6 12 28.098 20.997 9.743 13.398 o
-1 -5 1 257.800 267.435 14.294 4.502 o
-1 -5 2 24.690 20.077 2.796 151.786 o
-1 -5 3 0.522 0.749 1.824 385.506 o
-1 -5 4 11.787 6.880 4.649 59.005 o
-1 -5 5 5.876 0.771 2.708 174.384 o
-1 -5 6 85.063 89.569 14.510 5.845 o
-1 -5 7 15.804 11.595 6.520 29.997 o
-1 -5 8 32.561 37.935 10.508 11.469 o
-1 -5 9 11.917 3.006 4.029 78.555 o
-1 -5 10 5.436 3.224 6.605 29.378 o
-1 -5 11 0.504 -6.300 6.459 30.738 o
-1 -5 12 0.342 -1.316 3.623 97.716 o
-1 -5 13 0.013 4.703 6.486 30.479 o
-1 -4 1 179.840 186.393 9.030 10.623 o
-1 -4 2 620.550 641.350 15.186 1.842 o
-1 -4 3 28.502 30.988 2.325 199.671 o
-1 -4 4 229.818 226.034 7.484 10.889 o
-1 -4 5 2.223 1.585 1.951 336.444 o
-1 -4 6 18.188 16.724 2.483 196.146 o
-1 -4 7 86.780 88.225 6.279 26.480 o
-1 -4 8 227.469 209.347 12.350 6.093 o
-1 -4 9 9.103 20.587 8.113 19.424 o
-1 -4 10 3.767 5.237 3.379 112.100 o
-1 -4 11 3.275 1.513 4.665 58.899 o
-1 -4 12 8.120 10.672 7.272 24.207 o
-1 -4 13 2.951 12.359 8.272 18.731 o
-1 -3 1 75.884 83.362 4.468 47.101 o
-1 -3 2 539.017 540.341 10.689 2.798 o
-1 -3 3 961.761 1014.630 15.366 0.936 o
-1 -3 4 127.709 149.968 7.185 17.516 o
-1 -3 5 18.658 26.315 2.873 145.911 o
-1 -3 6 2.729 4.087 1.319 731.807 o
-1 -3 7 141.664 143.709 6.722 18.547 o
-1 -3 8 7.125 3.743 1.734 420.724 o
-1 -3 9 88.660 83.346 8.154 17.004 o
-1 -3 10 92.665 103.097 20.281 3.037 o
-1 -3 11 4.215 4.938 2.546 197.115 o
-1 -3 12 9.254 5.971 5.413 43.657 o
-1 -3 13 7.775 2.266 3.758 90.554 o
-1 -3 14 0.509 7.185 6.689 28.654 o
-1 -2 1 43.343 42.283 2.608 142.700 o
-1 -2 2 1192.770 1199.110 12.096 0.699 o
-1 -2 3 331.657 342.138 10.730 5.172 o
-1 -2 4 35.015 35.978 2.820 135.987 o
-1 -2 5 622.819 678.360 18.164 1.571 o
-1 -2 6 13.876 22.355 2.979 139.293 o
-1 -2 7 75.552 88.897 9.374 13.437 o
-1 -2 8 17.008 17.304 3.946 80.585 o
-1 -2 9 7.720 2.042 1.801 390.322 o
-1 -2 10 19.198 8.505 8.485 17.739 o
-1 -2 11 46.894 44.725 5.580 38.099 o
-1 -2 12 13.286 11.040 3.048 135.296 o
-1 -2 13 12.049 21.870 5.768 38.224 o
-1 -2 14 2.376 -5.866 7.825 20.941 o
-1 -1 1 1071.320 1054.610 19.196 0.749 o
-1 -1 2 172.944 167.216 4.726 22.526 o
-1 -1 3 97.535 88.878 4.446 42.242 o
-1 -1 4 23.749 22.408 4.136 72.248 o
-1 -1 5 1311.890 1436.510 23.744 0.470 o
-1 -1 6 631.136 682.076 25.493 1.118 o
-1 -1 7 179.950 174.816 14.295 5.301 o
-1 -1 8 25.509 35.087 7.107 24.906 o
-1 -1 9 44.957 41.935 8.869 15.843 o
-1 -1 10 6.583 4.225 2.224 257.145 o
-1 -1 11 92.566 93.701 20.893 2.871 o
-1 -1 12 4.810 -0.652 2.828 160.127 o
-1 -1 13 0.585 -2.915 3.484 105.630 o
-1 -1 14 0.381 3.117 4.643 59.477 o
-1 -1 15 0.001 -2.835 2.770 167.107 o
-1 0 1 2263.530 2069.860 22.083 0.207 o
-1 0 2 452.036 416.185 13.439 3.131 o
-1 0 3 0.004 -0.524 1.363 690.501 o
-1 0 4 1.351 1.226 1.036 1192.040 o
-1 0 5 180.560 210.453 14.046 5.339 o
-1 0 6 361.883 368.031 13.232 3.866 o
-1 0 7 228.345 257.043 10.928 6.882 o
-1 0 8 4.640 2.776 1.884 359.216 o
-1 0 9 310.728 326.794 10.659 5.533 o
-1 0 10 14.814 12.756 6.557 29.666 o
-1 0 11 27.165 30.679 8.330 18.231 o
-1 0 12 0.572 6.231 5.032 50.641 o
-1 0 13 5.471 17.442 7.549 22.460 o
-1 0 14 0.838 -1.672 3.358 113.733 o
-1 0 15 1.757 -1.144 4.006 79.910 o
-1 1 1 1060.690 931.811 13.536 0.911 o
-1 1 2 18.654 21.257 1.886 320.001 o
-1 1 3 38.112 37.471 3.442 94.669 o
-1 1 4 10.661 13.245 1.504 530.449 o
-1 1 5 0.316 1.442 1.393 661.059 o
-1 1 6 102.266 110.420 6.851 21.384 o
-1 1 7 40.492 41.500 4.603 55.383 o
-1 1 8 99.626 98.361 7.004 21.130 o
-1 1 9 124.399 124.188 8.059 15.408 o
-1 1 10 9.568 6.824 4.630 59.587 o
-1 1 11 7.627 0.568 3.255 120.669 o
-1 1 12 0.208 -4.343 4.461 64.444 o
-1 1 13 10.641 18.073 7.443 23.062 o
-1 1 14 11.521 8.971 6.550 29.797 o
-1 2 1 21.362 17.017 1.566 439.032 o
-1 2 2 160.102 160.620 5.260 22.095 o
-1 2 3 48.737 46.532 3.403 89.626 o
-1 2 4 0.009 -0.579 0.847 1788.680 o
-1 2 5 232.150 240.976 8.389 9.448 o
-1 2 6 285.376 289.492 9.248 7.017 o
-1 2 7 36.061 36.837 3.502 92.784 o
-1 2 8 40.911 48.081 7.282 23.212 o
-1 2 9 0.007 -1.480 4.302 69.299 o
-1 2 10 114.991 127.970 17.593 3.930 o
-1 2 11 27.053 34.833 10.072 12.514 o
-1 2 12 2.223 -3.296 5.329 45.150 o
-1 2 13 0.245 4.168 4.760 56.593 o
-1 3 1 321.557 291.334 6.581 8.114 o
-1 3 2 5.982 5.360 1.284 759.794 o
-1 3 3 905.263 964.580 21.453 0.871 o
-1 3 4 806.613 900.790 21.871 0.980 o
-1 3 5 72.032 64.334 6.242 28.713 o
-1 3 6 251.205 269.904 13.177 5.089 o
-1 3 7 72.346 76.579 7.278 21.587 o
-1 3 8 66.066 70.803 9.638 13.046 o
-1 3 9 6.281 1.564 4.184 73.131 o
-1 3 10 67.436 69.553 13.374 6.956 o
-1 3 11 1.831 2.226 3.881 85.122 o
-1 3 12 0.279 2.950 4.936 52.629 o
-1 3 13 1.659 2.508 3.871 85.569 o
-1 4 1 97.656 92.400 5.091 34.849 o
-1 4 2 1.390 1.043 3.005 141.979 o
-1 4 3 8.612 8.901 2.310 236.376 o
-1 4 4 288.364 292.173 13.846 4.408 o
-1 4 5 3.057 6.343 3.008 141.382 o
-1 4 6 1.337 3.616 4.381 66.809 o
-1 4 7 13.354 19.703 7.051 25.646 o
-1 4 8 71.028 76.903 13.673 6.636 o
-1 4 9 18.119 22.477 8.505 17.618 o
-1 4 10 0.601 2.915 4.745 56.958 o
-1 4 11 8.142 16.744 7.939 20.301 o
-1 4 12 1.665 0.406 3.673 95.057 o
-1 5 1 168.287 162.279 9.456 10.502 o
-1 5 2 14.207 13.647 3.095 130.689 o
-1 5 3 21.921 24.424 4.486 61.840 o
-1 5 4 12.243 12.268 4.691 57.809 o
-1 5 5 64.314 58.804 7.896 19.151 o
-1 5 6 1.856 1.191 3.781 89.662 o
-1 5 7 213.666 194.183 20.839 2.644 o
-1 5 8 31.836 38.334 9.714 13.396 o
-1 5 9 23.793 22.560 7.829 20.703 o
-1 5 10 10.488 14.610 7.503 22.713 o
-1 5 11 0.756 -3.505 3.135 130.498 o
-1 6 1 150.483 156.540 7.346 15.741 o
-1 6 2 136.792 138.981 9.070 12.257 o
-1 6 3 120.932 130.942 11.025 9.172 o
-1 6 4 18.295 17.651 5.008 50.363 o
-1 6 5 130.040 131.796 14.834 5.338 o
-1 6 6 4.146 8.569 5.071 49.796 o
-1 6 7 55.760 53.899 11.911 8.816 o
-1 6 8 48.935 43.772 10.866 10.624 o
-1 6 9 19.558 25.070 8.585 17.271 o
-1 6 10 0.363 3.723 4.666 58.897 o
-1 7 1 97.112 102.659 6.436 24.195 o
-1 7 2 3.681 8.005 2.507 203.109 o
-1 7 3 136.901 149.674 9.785 10.749 o
-1 7 4 21.175 20.277 6.001 35.113 o
-1 7 5 7.862 4.689 2.360 228.061 o
-1 7 6 40.157 31.486 8.737 16.445 o
-1 7 7 26.276 55.954 12.323 8.359 o
-1 7 8 0.309 -3.051 4.253 70.889 o
-1 7 9 0.792 5.631 4.296 69.460 o
-1 8 1 48.355 45.337 7.918 19.623 o
-1 8 2 6.518 -1.449 4.130 75.086 o
-1 8 3 22.226 22.794 9.865 13.098 o
-1 8 4 13.181 14.708 5.793 37.966 o
-1 8 5 3.236 8.473 4.271 70.184 o
-1 8 6 0.180 2.409 3.686 94.359 o
-1 8 7 0.006 3.853 5.354 44.730 o
-1 8 8 0.317 0.573 2.504 204.554 o
-1 9 1 4.693 8.170 4.976 51.703 o
-1 9 2 18.165 11.127 6.982 26.149 o
-1 9 3 0.224 6.230 6.592 29.508 o
-1 9 4 0.186 10.212 9.068 15.593 o
0 -9 1 6.110 7.048 11.852 9.126 o
0 -9 2 3.442 21.282 9.437 14.384 o
0 -9 3 0.876 1.826 5.787 38.296 o
0 -9 4 0.019 8.909 6.340 31.895 o
0 -9 5 3.186 4.120 6.432 30.984 o
0 -9 6 1.216 3.735 5.117 48.959 o
0 -8 1 2.904 5.066 4.511 62.965 o
0 -8 2 28.561 17.574 8.191 18.907 o
0 -8 3 8.288 0.672 3.179 126.386 o
0 -8 4 0.951 4.694 5.460 43.002 o
0 -8 5 11.691 12.617 7.415 23.253 o
0 -8 6 2.597 4.976 4.818 55.221 o
0 -8 7 7.759 7.885 5.356 44.598 o
0 -8 8 12.521 21.666 9.677 13.652 o
0 -8 9 0.000 -0.039 3.829 87.484 o
0 -7 1 72.437 106.251 16.346 4.655 o
0 -7 2 5.163 -1.611 3.813 88.122 o
0 -7 3 0.296 8.042 5.827 37.757 o
0 -7 4 19.509 9.633 5.944 35.975 o
0 -7 5 95.226 95.632 16.370 4.601 o
0 -7 6 122.417 116.928 18.122 3.711 o
0 -7 7 109.756 90.956 16.713 4.392 o
0 -7 8 7.073 -2.536 7.113 25.331 o
0 -7 9 2.311 -1.188 4.175 73.563 o
0 -7 10 1.137 0.768 3.771 90.152 o
0 -7 11 1.810 6.657 7.111 25.355 o
0 -6 1 15.693 21.395 3.783 87.383 o
0 -6 2 8.773 13.907 2.821 158.580 o
0 -6 3 1.459 3.918 1.612 492.526 o
0 -6 4 154.396 174.989 19.454 3.134 o
0 -6 5 50.615 41.138 9.881 12.787 o
0 -6 6 15.971 10.904 5.336 44.660 o
0 -6 7 10.484 -2.412 3.282 118.425 o
0 -6 8 7.944 10.237 6.246 32.797 o
0 -6 9 0.284 0.648 3.571 100.556 o
0 -6 10 1.841 2.918 3.207 124.626 o
0 -6 11 1.875 -5.927 3.848 86.592 o
0 -6 12 15.124 16.192 8.890 16.168 o
0 -5 1 176.314 193.155 7.536 13.368 o
0 -5 2 87.557 82.910 4.121 49.834 o
0 -5 3 7.783 9.849 2.600 187.288 o
0 -5 4 3.822 4.964 4.536 62.258 o
0 -5 5 136.869 127.921 17.433 3.945 o
0 -5 6 64.089 61.692 11.744 8.989 o
0 -5 7 353.165 403.987 30.993 1.142 o
0 -5 8 344.560 315.598 28.786 1.334 o
0 -5 9 53.169 53.201 13.008 7.432 o
0 -5 10 45.844 45.329 12.336 8.293 o
0 -5 11 1.429 5.670 4.614 60.209 o
0 -5 12 0.085 -6.704 7.104 25.407 o
0 -5 13 11.761 12.143 8.347 18.362 o
0 -4 1 16.575 16.450 2.082 275.298 o
0 -4 2 190.821 199.804 7.120 13.483 o
0 -4 3 43.188 48.135 3.599 83.646 o
0 -4 4 0.547 0.088 1.260 807.588 o
0 -4 5 115.639 123.320 14.561 5.611 o
0 -4 6 6.173 10.088 3.404 110.067 o
0 -4 7 264.984 270.833 12.681 5.233 o
0 -4 8 0.007 3.101 1.644 474.350 o
0 -4 9 257.849 244.718 13.388 5.025 o
0 -4 10 22.350 23.551 8.912 16.024 o
0 -4 11 2.168 8.585 6.667 28.836 o
0 -4 12 0.672 -5.192 6.224 33.108 o
0 -4 13 0.006 -1.499 4.621 60.048 o
0 -3 1 970.240 973.580 10.500 1.046 o
0 -3 2 5.864 4.691 1.174 906.662 o
0 -3 3 5.411 7.695 1.991 319.743 o
0 -3 4 38.145 33.243 4.401 61.239 o
0 -3 5 494.721 492.703 9.754 3.342 o
0 -3 6 35.956 43.476 4.432 59.938 o
0 -3 7 20.527 25.273 3.818 84.621 o
0 -3 8 153.887 161.691 10.414 9.333 o
0 -3 9 99.946 108.598 9.372 12.782 o
0 -3 10 16.450 14.924 3.772 88.279 o
0 -3 11 1.664 4.185 2.818 161.385 o
0 -3 12 4.322 2.121 2.075 296.828 o
0 -3 13 0.113 -0.990 5.553 41.593 o
0 -3 14 9.885 17.908 10.492 11.630 o
0 -2 1 25.608 28.249 2.030 258.942 o
0 -2 2 102.374 96.563 3.863 47.757 o
0 -2 3 79.050 77.657 3.851 57.945 o
0 -2 4 2.363 1.696 0.824 1875.260 o
0 -2 5 51.745 62.589 5.098 43.308 o
0 -2 6 26.627 28.572 5.047 48.672 o
0 -2 7 3.063 5.203 2.475 208.692 o
0 -2 8 0.258 0.247 1.504 566.766 o
0 -2 9 0.040 2.651 3.715 92.918 o
0 -2 10 1.040 -0.144 2.166 273.239 o
0 -2 11 18.819 19.622 4.611 59.111 o
0 -2 12 0.605 2.320 2.592 190.887 o
0 -2 13 29.662 48.947 10.923 10.611 o
0 -2 14 0.135 6.114 6.481 30.523 o
0 -1 1 2.308 4.056 0.981 1317.920 o
0 -1 2 946.906 944.189 10.321 1.101 o
0 -1 3 316.924 299.469 7.998 7.188 o
0 -1 4 180.776 172.404 7.371 13.971 o
0 -1 5 750.108 807.587 18.193 1.244 o
0 -1 6 88.439 95.576 12.956 7.220 o
0 -1 7 0.014 0.204 1.581 513.073 o
0 -1 8 21.824 25.079 4.722 55.946 o
0 -1 9 47.732 44.410 4.222 62.878 o
0 -1 10 277.329 279.043 15.393 3.906 o
0 -1 11 64.008 68.543 8.180 17.815 o
0 -1 12 14.960 11.401 6.171 33.480 o
0 -1 13 0.043 -1.171 4.263 70.577 o
0 -1 14 3.605 5.239 4.048 78.153 o
0 -1 15 5.301 11.642 6.408 31.182 o
0 0 2 3596.070 3403.240 36.460 0.080 o
0 0 3 258.699 254.007 7.974 9.046 o
0 0 4 179.304 197.926 6.097 16.470 o
0 0 5 19.165 20.613 1.959 298.598 o
0 0 6 256.770 319.894 7.713 8.506 o
0 0 7 68.865 94.188 4.358 49.206 o
0 0 8 65.017 70.226 6.680 25.704 o
0 0 9 49.067 58.629 10.896 10.515 o
0 0 10 5.087 6.644 5.049 50.233 o
0 0 11 1.489 5.771 3.887 84.826 o
0 0 12 0.000 1.166 2.645 183.329 o
0 0 13 0.024 22.609 8.832 16.426 o
0 0 14 0.062 8.018 5.865 37.276 o
0 1 1 2725.720 2606.190 20.163 0.143 o
0 1 2 221.432 211.566 4.561 16.638 o
0 1 3 393.351 374.750 13.149 3.663 o
0 1 4 611.814 607.434 8.503 2.501 o
0 1 5 2.265 3.528 1.047 1160.560 o
0 1 6 97.613 96.922 7.364 19.595 o
0 1 7 2.707 2.374 1.115 1024.690 o
0 1 8 122.213 140.611 16.661 4.317 o
0 1 9 11.100 10.782 4.799 55.344 o
0 1 10 68.282 69.027 13.035 7.308 o
0 1 11 24.398 25.898 9.051 15.515 o
0 1 12 3.387 1.745 4.605 60.438 o
0 1 13 1.056 -4.864 5.464 42.958 o
0 2 0 1420.510 1405.670 11.659 0.512 o
0 2 1 1.032 0.413 1.078 1101.910 o
0 2 2 89.167 86.505 4.046 50.127 o
0 2 3 571.798 597.424 14.833 2.074 o
0 2 4 27.364 25.584 3.447 100.738 o
0 2 5 154.249 157.570 8.237 13.304 o
0 2 6 109.747 104.674 6.980 20.511 o
0 2 7 186.103 190.837 18.570 3.318 o
0 2 8 18.461 21.162 7.254 24.166 o
0 2 9 835.573 826.812 43.279 0.476 o
0 2 10 15.441 14.400 6.224 32.880 o
0 2 11 9.763 5.030 4.953 52.101 o
0 2 12 1.005 2.907 3.538 102.405 o
0 2 13 2.204 -0.701 3.222 123.507 o
0 3 0 87.043 87.772 3.973 51.721 o
0 3 1 382.615 401.451 11.882 4.007 o
0 3 2 108.182 117.706 10.155 10.888 o
0 3 3 61.754 103.685 10.848 10.304 o
0 3 4 222.484 276.942 18.781 3.045 o
0 3 5 8.743 4.326 2.306 238.279 o
0 3 6 105.261 111.953 14.287 5.889 o
0 3 7 24.743 28.981 7.897 20.298 o
0 3 8 40.191 41.720 10.305 11.857 o
0 3 9 0.159 5.305 4.347 67.841 o
0 3 10 16.039 18.520 7.867 20.609 o
0 3 11 23.979 13.755 7.604 21.991 o
0 3 12 4.105 4.784 3.873 85.379 o
0 4 0 58.429 65.573 3.967 63.778 o
0 4 1 253.798 260.652 10.939 6.503 o
0 4 2 262.887 269.113 16.864 3.490 o
0 4 3 10.620 16.083 5.687 39.435 o
0 4 4 1.554 12.064 3.715 92.700 o
0 4 5 11.902 12.401 5.170 47.676 o
0 4 6 6.629 5.218 3.527 102.738 o
0 4 7 28.715 21.803 7.106 24.990 o
0 4 8 0.007 -0.798 5.167 48.030 o
0 4 9 0.445 9.924 6.611 29.331 o
0 4 10 1.444 4.759 4.183 73.258 o
0 4 11 1.095 5.917 4.663 58.947 o
0 5 0 71.297 80.259 5.358 36.402 o
0 5 1 0.043 -1.101 1.091 1077.090 o
0 5 2 11.270 12.614 2.393 217.798 o
0 5 3 4.110 7.845 4.100 76.126 o
0 5 4 97.414 93.096 9.303 13.162 o
0 5 5 64.816 65.791 8.403 16.955 o
0 5 6 122.404 108.438 15.489 5.004 o
0 5 7 112.822 115.364 16.676 4.371 o
0 5 8 0.013 -4.505 4.515 62.909 o
0 5 9 0.106 9.201 6.456 30.760 o
0 5 10 5.467 7.504 5.849 37.436 o
0 6 0 86.533 97.551 6.504 24.699 o
0 6 1 119.894 117.944 7.020 19.402 o
0 6 2 2.930 2.869 1.526 548.103 o
0 6 3 50.486 46.724 5.602 37.440 o
0 6 4 89.115 96.190 8.337 16.152 o
0 6 5 24.610 20.125 4.926 51.517 o
0 6 6 19.044 22.620 7.661 21.669 o
0 6 7 6.146 4.318 4.406 65.933 o
0 6 8 1.834 4.275 5.086 49.568 o
0 6 9 16.891 35.195 10.246 12.142 o
0 7 0 1.451 9.910 6.462 30.696 o
0 7 1 92.025 96.279 6.843 22.439 o
0 7 2 437.773 447.368 17.227 2.435 o
0 7 3 9.602 8.926 2.821 159.085 o
0 7 4 33.910 29.278 5.018 48.532 o
0 7 5 6.542 6.191 2.868 155.032 o
0 7 6 3.077 3.333 2.219 259.897 o
0 7 7 0.028 0.932 6.051 35.025 o
0 7 8 0.187 5.980 3.756 90.869 o
0 8 0 1.443 0.420 2.931 149.252 o
0 8 1 0.043 0.827 5.240 46.705 o
0 8 2 12.539 10.407 6.506 30.177 o
0 8 3 9.966 10.702 7.669 21.759 o
0 8 4 5.740 22.577 12.489 8.214 o
0 8 5 9.888 16.949 7.567 22.328 o
0 8 6 2.158 -6.115 4.728 57.371 o
0 8 7 1.446 -12.389 6.726 28.345 o
0 9 0 1.314 2.170 4.300 69.334 o
0 9 1 0.173 -0.327 7.413 23.335 o
0 9 2 4.292 9.517 6.687 28.650 o
0 9 3 2.352 8.956 5.231 46.829 o
1 -10 2 10.797 3.568 4.442 64.724 o
1 -10 3 0.012 15.765 8.415 18.099 o
1 -9 0 40.543 44.057 8.534 17.126 o
1 -9 1 17.200 21.902 9.059 15.547 o
1 -9 2 1.238 7.005 7.238 24.474 o
1 -9 3 0.419 5.042 4.150 74.452 o
1 -9 4 0.402 4.224 6.805 27.692 o
1 -9 5 8.346 8.940 7.345 23.735 o
1 -9 6 4.231 7.326 5.640 40.271 o
1 -9 7 12.977 10.890 7.071 25.559 o
1 -9 8 3.906 3.983 3.786 89.358 o
1 -8 0 40.008 25.765 8.880 15.966 o
1 -8 1 58.189 53.799 12.579 7.914 o
1 -8 2 56.520 44.477 11.158 10.038 o
1 -8 3 0.692 -0.401 3.209 124.523 o
1 -8 4 136.338 164.061 21.426 2.649 o
1 -8 5 1.742 -4.506 4.664 58.955 o
1 -8 6 0.041 -3.823 4.869 54.087 o
1 -8 7 1.718 2.731 3.829 87.437 o
1 -8 8 25.978 36.987 11.755 9.212 o
1 -8 9 10.838 -1.608 6.342 31.837 o
1 -8 10 0.145 2.624 4.781 56.104 o
1 -7 0 34.504 37.914 4.970 48.949 o
1 -7 1 118.155 116.532 16.581 4.402 o
1 -7 2 4.516 6.175 2.216 259.538 o
1 -7 3 0.024 0.872 2.472 209.928 o
1 -7 4 3.765 1.823 3.962 81.623 o
1 -7 5 34.358 33.137 9.135 15.120 o
1 -7 6 22.997 24.638 8.506 17.565 o
1 -7 7 11.534 16.718 7.454 22.995 o
1 -7 8 3.732 6.310 6.329 31.996 o
1 -7 9 0.712 10.387 7.137 25.167 o
1 -7 10 0.111 0.562 5.151 48.339 o
1 -7 11 0.945 3.368 4.539 62.239 o
1 -6 0 5.121 4.853 1.350 692.676 o
1 -6 1 24.259 24.695 2.105 249.797 o
1 -6 2 74.241 72.296 7.109 22.518 o
1 -6 3 88.428 90.258 8.019 17.407 o
1 -6 4 32.326 36.791 12.368 8.310 o
1 -6 5 6.216 5.196 3.742 91.306 o
1 -6 6 0.830 -0.106 2.493 206.356 o
1 -6 7 15.583 11.487 5.978 35.642 o
1 -6 8 52.097 51.193 12.199 8.438 o
1 -6 9 0.248 1.730 4.788 55.940 o
1 -6 10 2.309 0.599 3.373 112.690 o
1 -6 11 0.111 2.874 4.591 60.847 o
1 -6 12 23.638 18.340 9.971 12.825 o
1 -6 13 5.324 7.793 5.963 36.023 o
1 -5 0 263.305 249.830 7.089 9.905 o
1 -5 1 83.988 78.472 3.336 67.120 o
1 -5 2 102.876 106.544 5.057 33.409 o
1 -5 3 80.962 96.867 7.837 18.263 o
1 -5 4 20.302 20.611 4.139 72.768 o
1 -5 5 13.588 10.771 8.095 19.515 o
1 -5 6 116.222 105.150 15.039 5.318 o
1 -5 7 3.914 1.925 3.073 135.623 o
1 -5 8 104.194 104.710 16.453 4.522 o
1 -5 9 6.479 -2.977 3.738 91.635 o
1 -5 10 41.380 42.066 11.570 9.435 o
1 -5 11 0.139 -9.854 7.051 25.796 o
1 -5 12 0.048 7.290 4.616 60.169 o
1 -5 13 1.917 7.748 5.102 49.227 o
1 -4 0 934.091 939.603 14.912 1.019 o
1 -4 1 52.041 55.865 3.022 102.618 o
1 -4 2 1155.820 1272.280 24.496 0.561 o
1 -4 3 37.933 33.858 9.941 12.771 o
1 -4 4 252.810 253.034 9.646 7.603 o
1 -4 5 13.429 12.086 2.028 297.505 o
1 -4 6 312.175 311.333 12.977 4.525 o
1 -4 7 92.930 84.299 5.278 34.244 o
1 -4 8 128.400 122.025 11.530 8.448 o
1 -4 9 0.920 0.399 2.582 192.386 o
1 -4 10 5.921 18.330 7.745 21.335 o
1 -4 11 8.654 9.924 3.906 83.521 o
1 -4 12 12.719 19.455 6.008 35.265 o
1 -4 13 8.865 12.861 5.514 42.007 o
1 -3 0 504.328 503.096 7.934 3.531 o
1 -3 1 245.343 239.438 5.073 13.389 o
1 -3 2 835.809 819.181 10.752 1.378 o
1 -3 3 71.619 66.213 2.814 93.734 o
1 -3 4 55.182 59.355 4.816 47.536 o
1 -3 5 42.119 36.529 3.034 115.327 o
1 -3 6 27.377 26.499 3.866 81.098 o
1 -3 7 2.939 0.803 2.309 240.317 o
1 -3 8 2.999 0.111 3.045 138.237 o
1 -3 9 41.430 34.413 4.646 54.819 o
1 -3 10 41.489 44.949 5.534 39.126 o
1 -3 11 2.493 2.507 2.135 280.844 o
1 -3 12 1.342 -2.351 2.522 201.551 o
1 -3 13 3.535 3.900 3.569 100.576 o
1 -2 0 2263.200 2180.180 15.805 0.208 o
1 -2 1 464.968 448.292 7.090 4.277 o
1 -2 2 5.047 4.278 0.793 1953.300 o
1 -2 3 3.115 1.696 0.790 2027.830 o
1 -2 4 53.285 53.993 3.444 84.101 o
1 -2 5 788.163 803.336 15.945 1.285 o
1 -2 6 151.508 162.911 7.511 15.098 o
1 -2 7 0.592 0.140 0.743 2321.480 o
1 -2 8 23.330 23.494 4.094 73.662 o
1 -2 9 146.033 141.570 11.002 8.798 o
1 -2 10 1.976 -1.142 2.129 282.747 o
1 -2 11 2.995 1.368 2.018 314.455 o
1 -2 12 0.574 1.733 1.948 337.828 o
1 -2 13 0.538 -3.189 4.507 63.145 o
1 -2 14 3.514 7.840 5.353 44.710 o
1 -1 1 339.325 315.535 5.880 7.799 o
1 -1 2 129.309 121.766 2.967 46.106 o
1 -1 3 17.170 20.046 1.704 389.460 o
1 -1 4 539.598 576.671 10.806 2.688 o
1 -1 5 328.745 339.593 12.987 4.285 o
1 -1 6 805.878 861.258 23.442 0.948 o
1 -1 7 17.824 13.287 3.288 115.272 o
1 -1 8 32.004 32.233 5.110 46.932 o
1 -1 9 18.391 22.195 4.647 58.148 o
1 -1 10 64.567 67.700 11.859 8.800 o
1 -1 11 3.245 3.033 3.209 124.353 o
1 -1 12 12.126 3.465 3.904 83.572 o
1 -1 13 0.055 -5.167 4.633 59.748 o
1 -1 14 0.051 1.224 3.323 116.140 o
1 0 0 803.656 737.976 12.398 1.463 o
1 0 1 0.020 -0.001 0.445 6464.060 o
1 0 2 619.689 604.086 13.358 2.052 o
1 0 3 105.259 107.619 6.379 23.752 o
1 0 4 168.346 188.019 13.454 5.904 o
1 0 5 386.891 415.509 21.867 1.931 o
1 0 6 287.202 314.526 20.663 2.416 o
1 0 7 70.586 81.309 11.687 8.962 o
1 0 8 4.427 6.673 4.001 79.937 o
1 0 9 81.091 87.267 13.506 6.728 o
1 0 10 4.725 10.418 5.625 40.471 o
1 0 11 1.666 5.778 4.277 70.060 o
1 0 12 0.505 0.450 4.933 52.699 o
1 0 13 0.001 -3.404 4.249 71.042 o
1 1 0 87.428 89.266 3.058 69.249 o
1 1 1 3018.020 2907.660 21.773 0.117 o
1 1 2 174.709 183.383 8.157 12.350 o
1 1 3 80.235 83.568 4.122 51.679 o
1 1 4 219.642 238.892 7.835 10.527 o
1 1 5 306.424 285.577 18.206 2.931 o
1 1 6 104.237 131.663 14.594 5.620 o
1 1 7 68.204 77.892 12.046 8.485 o
1 1 8 0.061 6.185 4.066 77.558 o
1 1 9 82.016 99.067 15.304 5.271 o
1 1 10 9.631 3.944 3.406 109.895 o
1 1 11 5.006 0.015 2.701 175.407 o
1 1 12 0.316 -5.575 4.529 62.526 o
1 1 13 18.099 31.859 10.884 10.771 o
1 2 0 1639.270 1640.810 16.819 0.370 o
1 2 1 51.317 56.461 3.445 84.390 o
1 2 2 16.606 17.486 3.038 134.082 o
1 2 3 259.202 256.646 10.382 6.869 o
1 2 4 1.494 -0.057 1.307 749.630 o
1 2 5 0.364 -0.277 1.109 1042.690 o
1 2 6 13.868 18.791 3.944 80.965 o
1 2 7 110.813 93.307 13.782 6.318 o
1 2 8 1.598 5.382 3.211 124.295 o
1 2 9 32.954 31.752 8.970 15.693 o
1 2 10 5.471 5.638 5.310 45.428 o
1 2 11 33.130 46.268 12.205 8.514 o
1 2 12 1.763 0.054 3.445 108.020 o
1 3 0 535.436 541.428 12.186 2.617 o
1 3 1 222.849 243.430 9.366 8.542 o
1 3 2 175.801 166.941 15.181 4.825 o
1 3 3 191.077 230.510 17.379 3.650 o
1 3 4 258.669 284.542 20.645 2.511 o
1 3 5 30.921 27.454 6.842 26.794 o
1 3 6 126.290 114.716 15.236 5.132 o
1 3 7 93.562 66.518 12.182 8.176 o
1 3 8 141.119 134.231 18.375 3.558 o
1 3 9 8.459 12.459 6.108 34.266 o
1 3 10 31.698 23.436 8.434 17.782 o
1 3 11 3.135 4.540 3.952 82.038 o
1 4 0 43.316 39.581 7.142 24.151 o
1 4 1 1.067 1.791 1.547 535.593 o
1 4 2 21.335 19.939 3.403 106.010 o
1 4 3 13.052 13.657 3.038 135.890 o
1 4 4 238.294 234.698 12.026 6.075 o
1 4 5 9.571 1.482 2.350 229.885 o
1 4 6 0.053 -2.100 3.435 108.663 o
1 4 7 1.170 3.271 4.483 63.810 o
1 4 8 15.387 17.017 7.560 22.319 o
1 4 9 13.024 11.564 5.449 42.922 o
1 4 10 3.675 -4.638 6.201 33.346 o
1 5 0 148.744 155.572 11.468 8.092 o
1 5 1 4.728 4.760 2.700 175.315 o
1 5 2 152.995 150.795 9.422 11.037 o
1 5 3 0.301 4.239 2.098 291.034 o
1 5 4 62.979 68.572 6.983 23.863 o
1 5 5 55.454 55.269 8.015 18.894 o
1 5 6 157.175 155.072 13.885 5.783 o
1 5 7 0.320 1.613 2.795 164.180 o
1 5 8 0.648 4.340 3.465 106.781 o
1 5 9 1.290 6.917 3.662 95.522 o
1 6 0 27.628 25.163 4.728 55.276 o
1 6 1 111.554 122.891 9.595 11.896 o
1 6 2 158.856 169.014 10.707 8.797 o
1 6 3 1.731 3.189 2.607 188.565 o
1 6 4 8.492 8.601 4.367 66.938 o
1 6 5 7.501 0.930 2.058 300.354 o
1 6 6 8.018 11.734 4.269 69.966 o
1 6 7 13.376 7.819 3.217 122.057 o
1 6 8 18.927 23.688 6.949 26.290 o
1 7 0 11.472 11.805 5.008 50.814 o
1 7 1 49.064 45.379 6.301 30.239 o
1 7 2 2.940 2.928 4.178 73.436 o
1 7 3 16.313 16.207 3.816 86.192 o
1 7 4 41.390 38.023 5.905 34.864 o
1 7 5 7.885 12.750 4.410 65.593 o
1 7 6 0.383 6.187 2.892 153.213 o
1 7 7 1.306 0.964 2.986 143.768 o
1 8 0 0.768 -0.708 3.863 85.921 o
1 8 1 1.559 7.862 6.679 28.739 o
1 8 2 1.375 0.748 5.668 39.917 o
1 8 3 18.868 4.545 4.282 69.070 o
1 8 4 18.345 21.373 9.776 13.356 o
1 9 0 1.558 -0.239 4.483 63.812 o
1 9 1 7.780 18.787 8.400 18.137 o
2 -10 0 0.386 0.004 4.914 53.111 o
2 -10 1 5.576 5.358 3.991 80.332 o
2 -10 2 4.122 12.452 8.354 18.361 o
2 -10 3 3.277 17.371 8.896 16.190 o
2 -10 4 5.101 4.957 5.318 45.292 o
2 -10 5 5.951 8.841 5.816 37.852 o
2 -10 6 0.011 8.811 7.500 22.796 o
2 -9 0 14.610 22.514 5.991 35.383 o
2 -9 1 7.950 15.462 7.132 25.151 o
2 -9 2 0.029 -2.213 4.336 68.207 o
2 -9 3 0.193 0.370 3.281 119.112 o
2 -9 4 7.003 15.370 7.935 20.331 o
2 -9 5 67.401 63.902 14.504 5.950 o
2 -9 6 51.038 54.316 13.991 6.445 o
2 -9 7 5.890 12.518 7.603 22.153 o
2 -9 8 0.064 7.384 6.306 32.243 o
2 -8 0 13.226 12.798 6.557 29.689 o
2 -8 1 1.122 8.877 5.633 40.390 o
2 -8 2 1.012 -3.573 2.543 198.267 o
2 -8 3 80.454 73.642 8.676 15.545 o
2 -8 4 7.829 10.068 5.152 48.148 o
2 -8 5 10.768 11.701 6.707 28.418 o
2 -8 6 1.071 -7.448 5.322 45.279 o
2 -8 7 16.424 31.697 10.491 11.594 o
2 -8 8 17.347 11.506 7.011 25.944 o
2 -8 9 1.373 7.119 4.507 63.104 o
2 -8 10 2.917 6.813 6.023 35.328 o
2 -7 0 6.029 9.037 2.592 189.274 o
2 -7 1 37.264 53.160 10.235 11.996 o
2 -7 2 0.068 2.031 1.627 484.181 o
2 -7 3 1.216 2.672 1.780 404.239 o
2 -7 4 17.845 12.822 4.105 74.743 o
2 -7 5 39.958 37.018 6.221 31.663 o
2 -7 6 4.109 0.530 2.715 173.801 o
2 -7 7 9.416 6.282 4.789 55.712 o
2 -7 8 41.535 28.406 9.462 14.067 o
2 -7 9 34.118 16.537 8.349 18.153 o
2 -7 10 0.011 -5.885 5.532 41.912 o
2 -7 11 2.675 11.536 6.606 29.361 o
2 -6 0 79.000 71.379 4.144 53.252 o
2 -6 1 62.696 59.935 4.085 60.481 o
2 -6 2 7.996 5.999 1.785 394.724 o
2 -6 3 20.272 23.220 4.271 68.299 o
2 -6 4 11.499 8.381 3.731 91.286 o
2 -6 5 37.444 33.424 9.308 14.542 o
2 -6 6 7.892 3.612 3.733 91.711 o
2 -6 7 20.247 23.536 6.941 26.325 o
2 -6 8 121.682 116.782 18.252 3.662 o
2 -6 9 26.292 31.897 10.212 12.186 o
2 -6 10 0.065 -4.167 4.825 55.080 o
2 -6 11 2.114 -11.409 7.152 25.068 o
2 -6 12 3.605 4.251 3.954 81.946 o
2 -5 0 87.830 88.481 4.806 39.749 o
2 -5 1 125.725 122.733 6.873 19.540 o
2 -5 2 0.095 -0.069 0.729 2411.230 o
2 -5 3 0.681 1.594 0.603 3514.090 o
2 -5 4 11.947 13.148 2.054 291.426 o
2 -5 5 132.045 119.739 6.341 21.531 o
2 -5 6 434.029 447.993 19.216 2.149 o
2 -5 7 24.332 20.057 7.057 25.436 o
2 -5 8 263.892 275.849 26.477 1.632 o
2 -5 9 16.379 22.590 8.318 18.427 o
2 -5 10 2.387 -2.918 2.558 195.957 o
2 -5 11 6.958 5.376 8.786 16.602 o
2 -5 12 6.123 6.330 4.238 71.229 o
2 -5 13 5.030 4.237 5.894 36.882 o
2 -4 0 73.025 79.101 4.143 53.829 o
2 -4 1 26.479 23.459 2.312 209.853 o
2 -4 2 65.775 77.595 4.349 52.004 o
2 -4 3 15.847 17.060 1.469 519.233 o
2 -4 4 154.333 164.804 5.036 23.397 o
2 -4 5 0.098 0.180 0.827 1873.150 o
2 -4 6 28.095 23.447 7.009 25.669 o
2 -4 7 83.685 70.702 12.414 7.938 o
2 -4 8 34.762 21.834 7.520 22.247 o
2 -4 9 25.235 23.799 7.746 21.120 o
2 -4 10 4.005 -1.431 2.975 144.732 o
2 -4 11 2.236 1.485 3.201 125.070 o
2 -4 12 14.740 6.161 3.962 80.851 o
2 -4 13 6.219 0.812 6.251 32.798 o
2 -3 0 201.864 201.862 4.581 18.540 o
2 -3 1 1512.590 1473.500 16.244 0.439 o
2 -3 2 160.319 145.954 4.540 26.058 o
2 -3 3 20.368 22.235 1.891 313.044 o
2 -3 4 0.265 0.189 0.640 3127.680 o
2 -3 5 362.891 362.456 21.169 2.124 o
2 -3 6 4.307 3.424 1.916 347.595 o
2 -3 7 1.096 1.810 1.166 941.685 o
2 -3 8 55.317 52.895 6.696 26.523 o
2 -3 9 95.647 92.866 9.156 13.580 o
2 -3 10 97.146 106.213 10.565 10.385 o
2 -3 11 12.600 4.787 2.423 214.170 o
2 -3 12 0.085 -0.161 2.339 234.305 o
2 -3 13 0.012 -2.806 4.882 53.796 o
2 -2 0 9934.280 9412.260 27.271 0.011 o
2 -2 1 790.431 769.153 9.047 1.588 o
2 -2 2 8.246 8.985 1.173 877.834 o
2 -2 3 169.327 166.418 4.852 22.477 o
2 -2 4 50.171 48.256 5.180 43.135 o
2 -2 5 56.590 59.520 3.980 64.897 o
2 -2 6 8.721 7.594 1.501 549.343 o
2 -2 7 43.896 37.148 5.455 40.323 o
2 -2 8 20.437 18.933 4.319 67.059 o
2 -2 9 2.633 2.462 2.522 201.350 o
2 -2 10 19.416 23.447 5.402 43.188 o
2 -2 11 2.865 11.912 6.385 31.428 o
2 -2 12 3.525 7.087 4.792 55.779 o
2 -2 13 2.316 -9.905 5.886 37.012 o
2 -1 0 1153.210 1047.920 14.458 0.760 o
2 -1 1 0.625 0.955 0.640 3125.720 o
2 -1 2 78.016 79.762 4.107 53.049 o
2 -1 3 101.992 108.492 5.261 31.657 o
2 -1 4 8.292 7.359 1.285 742.319 o
2 -1 5 262.103 262.061 13.080 5.082 o
2 -1 6 8.332 9.353 2.760 166.344 o
2 -1 7 112.675 122.642 14.304 5.816 o
2 -1 8 5.156 3.895 3.970 81.234 o
2 -1 9 0.021 -2.152 3.956 81.953 o
2 -1 10 85.732 92.712 14.921 5.532 o
2 -1 11 5.738 14.173 7.200 24.696 o
2 -1 12 0.147 2.829 4.659 59.076 o
2 -1 13 0.325 -7.633 5.466 42.925 o
2 0 0 8988.880 8693.200 33.219 0.014 o
2 0 1 2749.880 2687.080 19.911 0.139 o
2 0 2 110.949 104.236 4.866 34.057 o
2 0 3 39.325 43.313 4.936 48.732 o
2 0 4 111.640 111.641 4.754 34.348 o
2 0 5 41.262 44.960 8.381 17.720 o
2 0 6 95.560 122.893 14.140 6.023 o
2 0 7 153.686 132.287 15.755 4.687 o
2 0 8 131.228 112.048 15.352 5.047 o
2 0 9 49.176 51.878 11.357 9.719 o
2 0 10 0.043 -3.575 3.980 80.972 o
2 0 11 0.788 4.942 4.697 58.111 o
2 0 12 0.196 2.282 3.482 105.784 o
2 1 0 472.199 480.577 8.758 3.733 o
2 1 1 0.075 2.343 1.530 547.830 o
2 1 2 207.911 225.885 7.041 12.369 o
2 1 3 264.890 282.845 10.367 6.602 o
2 1 4 16.779 16.148 3.817 86.096 o
2 1 5 109.436 93.592 12.565 7.512 o
2 1 6 104.137 119.774 14.790 5.507 o
2 1 7 20.086 20.996 7.377 23.351 o
2 1 8 70.861 61.925 12.124 8.413 o
2 1 9 19.363 15.650 6.674 28.545 o
2 1 10 15.611 23.939 8.781 16.545 o
2 1 11 1.234 1.711 4.048 78.262 o
2 1 12 1.685 4.235 5.213 47.179 o
2 2 0 316.191 359.222 20.820 2.279 o
2 2 1 670.879 690.484 13.504 1.769 o
2 2 2 104.658 113.021 5.428 29.747 o
2 2 3 5.693 12.321 3.404 109.964 o
2 2 4 26.704 24.851 3.373 105.269 o
2 2 5 25.971 25.328 3.313 109.027 o
2 2 6 20.636 26.099 8.011 19.797 o
2 2 7 111.430 112.633 16.180 4.636 o
2 2 8 137.496 134.443 19.515 3.183 o
2 2 9 83.829 85.250 15.486 5.167 o
2 2 10 53.761 77.211 15.416 5.296 o
2 2 11 2.014 -3.033 4.332 68.314 o
2 3 0 71.217 71.357 10.221 11.608 o
2 3 1 14.181 15.917 3.122 128.170 o
2 3 2 3.504 5.661 1.581 508.993 o
2 3 3 11.299 8.050 2.751 166.745 o
2 3 4 314.074 295.254 16.724 3.274 o
2 3 5 91.665 92.349 9.943 11.780 o
2 3 6 209.392 199.775 15.299 4.510 o
2 3 7 26.212 29.204 6.085 33.830 o
2 3 8 0.030 4.148 3.171 127.483 o
2 3 9 18.474 17.699 5.751 38.318 o
2 3 10 4.467 5.982 3.622 97.547 o
2 4 0 22.931 23.506 4.659 57.403 o
2 4 1 15.467 13.497 1.990 303.785 o
2 4 2 9.978 9.113 2.365 224.815 o
2 4 3 224.276 230.470 12.339 6.025 o
2 4 4 53.881 51.468 8.207 18.144 o
2 4 5 7.162 6.715 3.399 110.412 o
2 4 6 1.752 1.873 2.306 241.078 o
2 4 7 2.615 -1.401 3.075 135.538 o
2 4 8 14.602 24.240 6.578 29.386 o
2 4 9 12.083 6.951 10.470 11.686 o
2 5 0 0.697 1.880 3.898 84.392 o
2 5 1 36.860 37.536 5.448 40.966 o
2 5 2 60.635 54.581 7.828 19.624 o
2 5 3 1.690 0.494 1.802 394.609 o
2 5 4 19.986 20.915 5.212 46.377 o
2 5 5 5.673 7.237 3.633 96.809 o
2 5 6 2.228 3.426 3.549 101.760 o
2 5 7 1.274 -0.659 2.652 182.269 o
2 5 8 14.009 24.555 7.130 25.046 o
2 6 0 12.335 13.782 5.242 46.340 o
2 6 1 105.600 99.250 9.444 12.591 o
2 6 2 12.886 13.932 5.924 36.323 o
2 6 3 3.896 5.605 3.686 94.240 o
2 6 4 4.423 4.342 5.487 42.567 o
2 6 5 1.434 -0.454 4.070 77.417 o
2 6 6 4.117 -0.378 2.630 185.233 o
2 6 7 1.181 -0.920 6.909 26.864 o
2 7 0 18.459 28.301 6.813 27.297 o
2 7 1 49.311 33.850 7.155 23.968 o
2 7 2 136.444 152.320 15.128 5.077 o
2 7 3 12.780 8.107 4.250 70.420 o
2 7 4 0.053 3.979 3.203 124.934 o
2 7 5 0.899 11.239 8.560 17.497 o
2 8 0 7.497 3.125 3.411 109.783 o
2 8 1 0.161 -6.665 3.835 87.187 o
2 8 2 0.352 -1.408 5.170 47.981 o
2 8 3 2.314 -4.533 5.262 46.316 o
3 -10 0 1.755 1.097 3.072 135.840 o
3 -10 1 45.009 68.307 15.150 5.508 o
3 -10 2 1.017 -5.968 4.945 52.451 o
3 -10 3 11.567 13.767 7.376 23.493 o
3 -10 4 5.636 6.363 3.584 99.494 o
3 -10 5 0.130 0.261 6.988 26.260 o
3 -10 6 11.420 14.786 7.753 21.268 o
3 -10 7 0.705 3.679 4.589 60.893 o
3 -9 0 38.382 54.097 8.950 15.572 o
3 -9 1 14.085 12.792 6.339 31.741 o
3 -9 2 1.033 4.074 2.277 247.110 o
3 -9 3 7.218 4.541 4.936 52.538 o
3 -9 4 22.704 20.557 5.209 46.282 o
3 -9 5 3.324 5.355 6.641 29.068 o
3 -9 6 2.239 12.855 7.020 26.001 o
3 -9 7 4.470 5.757 4.365 67.204 o
3 -9 8 1.940 3.574 6.991 26.236 o
3 -9 9 0.208 -3.000 5.127 48.780 o
3 -8 0 2.642 4.709 4.377 66.891 o
3 -8 1 24.003 34.665 9.186 15.039 o
3 -8 2 2.698 1.540 3.164 127.997 o
3 -8 3 82.848 84.790 11.719 8.809 o
3 -8 4 22.828 13.537 3.953 79.712 o
3 -8 5 0.158 -0.089 2.294 243.583 o
3 -8 6 5.995 13.924 6.466 30.609 o
3 -8 7 1.408 1.201 8.635 17.200 o
3 -8 8 19.160 26.694 10.637 11.279 o
3 -8 9 7.807 9.987 6.295 32.289 o
3 -8 10 0.235 1.582 4.781 56.101 o
3 -7 0 0.151 1.408 1.261 806.426 o
3 -7 1 0.890 0.272 1.565 523.794 o
3 -7 2 43.557 42.090 6.571 28.266 o
3 -7 3 25.225 26.589 8.108 19.278 o
3 -7 4 0.027 -1.988 2.360 230.192 o
3 -7 5 5.886 1.889 3.421 109.335 o
3 -7 6 15.395 18.071 7.418 23.173 o
3 -7 7 28.323 26.599 9.677 13.563 o
3 -7 8 7.363 7.382 5.494 42.393 o
3 -7 9 7.389 16.505 8.055 19.726 o
3 -7 10 2.246 -5.065 5.269 46.179 o
3 -7 11 0.383 4.611 5.134 48.643 o
3 -6 0 68.271 72.151 7.138 22.625 o
3 -6 1 99.206 91.079 6.092 26.650 o
3 -6 2 57.952 69.897 5.490 36.985 o
3 -6 3 52.406 66.775 5.417 38.616 o
3 -6 4 85.349 86.218 6.197 27.242 o
3 -6 5 2.245 1.588 1.224 852.553 o
3 -6 6 7.644 7.939 5.286 45.779 o
3 -6 7 3.234 -0.458 3.859 86.061 o
3 -6 8 14.424 12.346 6.942 26.485 o
3 -6 9 0.078 6.280 4.898 53.445 o
3 -6 10 9.248 11.080 4.445 64.529 o
3 -6 11 0.132 3.059 4.855 54.395 o
3 -6 12 19.278 17.058 8.447 17.870 o
3 -5 0 7.293 5.338 1.130 965.221 o
3 -5 1 18.565 15.550 1.745 375.928 o
3 -5 2 19.403 18.263 2.426 203.176 o
3 -5 3 2.981 2.975 0.921 1494.570 o
3 -5 4 13.226 14.043 1.974 311.950 o
3 -5 5 70.874 68.741 4.650 46.728 o
3 -5 6 11.193 14.746 3.441 106.697 o
3 -5 7 0.085 1.646 1.624 486.288 o
3 -5 8 67.317 74.515 9.729 12.772 o
3 -5 9 0.011 2.283 3.617 98.019 o
3 -5 10 6.531 5.886 5.406 43.803 o
3 -5 11 1.203 7.821 3.727 92.226 o
3 -5 12 2.832 -1.644 3.847 86.615 o
3 -4 0 337.932 335.147 7.410 6.778 o
3 -4 1 538.126 562.720 9.487 2.895 o
3 -4 2 4.735 6.170 1.218 846.405 o
3 -4 3 41.135 44.327 3.145 106.891 o
3 -4 4 126.135 125.160 6.163 22.619 o
3 -4 5 3.096 3.311 1.540 538.292 o
3 -4 6 256.161 272.778 12.098 5.640 o
3 -4 7 197.875 202.397 11.267 7.372 o
3 -4 8 1.927 0.365 2.804 163.024 o
3 -4 9 3.489 0.567 1.643 473.675 o
3 -4 10 0.338 -0.004 1.532 546.099 o
3 -4 11 1.069 2.850 3.302 117.581 o
3 -4 12 1.851 1.605 2.840 158.885 o
3 -3 0 34.339 42.870 3.528 91.064 o
3 -3 1 783.796 792.270 10.929 1.507 o
3 -3 2 77.447 78.588 3.839 58.546 o
3 -3 3 105.151 115.990 5.474 29.179 o
3 -3 4 17.274 17.518 2.254 235.914 o
3 -3 5 34.971 34.783 4.483 59.538 o
3 -3 6 25.745 26.560 3.263 111.999 o
3 -3 7 12.368 19.886 4.521 61.942 o
3 -3 8 72.750 64.842 9.740 12.736 o
3 -3 9 19.102 19.099 9.143 15.263 o
3 -3 10 0.072 1.548 3.114 132.227 o
3 -3 11 11.994 10.138 4.260 70.076 o
3 -3 12 0.014 8.712 5.756 38.693 o
3 -2 0 1.211 1.873 1.184 912.656 o
3 -2 1 321.834 325.706 9.921 5.779 o
3 -2 2 14.974 14.441 2.267 237.532 o
3 -2 3 141.350 146.792 6.974 17.596 o
3 -2 4 52.225 53.517 4.778 49.125 o
3 -2 5 354.857 356.218 12.595 4.165 o
3 -2 6 104.258 99.394 9.545 12.383 o
3 -2 7 1.468 -0.340 3.485 105.571 o
3 -2 8 0.263 4.804 4.716 57.644 o
3 -2 9 24.747 32.209 9.481 14.128 o
3 -2 10 12.472 24.018 9.430 14.370 o
3 -2 11 0.332 6.914 5.293 45.768 o
3 -2 12 0.401 14.857 8.077 19.646 o
3 -1 0 979.113 943.764 15.379 0.955 o
3 -1 1 297.938 297.100 7.612 7.881 o
3 -1 2 21.719 20.643 2.697 164.156 o
3 -1 3 243.784 255.218 8.941 8.413 o
3 -1 4 1.494 1.854 1.369 683.131 o
3 -1 5 402.441 334.256 45.760 0.566 o
3 -1 6 18.432 13.884 6.317 31.869 o
3 -1 7 37.313 40.681 6.594 28.354 o
3 -1 8 38.235 36.007 6.468 29.485 o
3 -1 9 6.150 4.561 7.780 21.172 o
3 -1 10 25.236 32.662 7.410 22.976 o
3 -1 11 0.270 3.537 3.111 132.480 o
3 -1 12 12.292 6.353 3.736 91.050 o
3 0 0 331.663 354.682 9.685 5.577 o
3 0 1 142.165 151.111 6.874 17.771 o
3 0 2 6.881 6.534 1.866 362.734 o
3 0 3 47.625 46.539 7.028 24.648 o
3 0 4 0.452 5.327 4.724 57.447 o
3 0 5 48.259 47.493 3.612 81.314 o
3 0 6 35.670 42.086 6.786 26.862 o
3 0 7 12.045 15.771 4.603 59.943 o
3 0 8 12.009 20.939 5.457 42.689 o
3 0 9 0.007 -0.519 2.644 183.375 o
3 0 10 9.119 1.526 4.210 72.158 o
3 0 11 1.536 -1.197 3.421 109.557 o
3 1 0 75.644 81.156 3.978 55.943 o
3 1 1 218.560 221.314 18.840 3.113 o
3 1 2 0.184 1.910 3.274 119.620 o
3 1 3 43.900 35.745 8.076 19.076 o
3 1 4 38.078 44.250 9.910 12.810 o
3 1 5 82.865 77.411 9.490 13.108 o
3 1 6 124.832 119.264 15.707 4.847 o
3 1 7 82.681 79.325 11.086 9.807 o
3 1 8 0.023 -6.503 3.762 90.592 o
3 1 9 16.741 22.113 15.872 5.082 o
3 1 10 1.774 5.554 6.307 32.234 o
3 2 0 27.729 24.015 3.926 78.965 o
3 2 1 0.209 2.521 2.228 258.339 o
3 2 2 32.461 58.983 11.277 9.927 o
3 2 3 146.037 177.376 19.317 3.189 o
3 2 4 1.554 0.401 2.904 152.042 o
3 2 5 1.462 0.794 2.596 190.291 o
3 2 6 9.076 11.399 4.165 73.444 o
3 2 7 65.065 67.250 9.539 13.344 o
3 2 8 1.527 0.479 6.130 34.123 o
3 2 9 23.124 17.465 5.549 40.944 o
3 3 0 4.044 4.158 2.605 188.370 o
3 3 1 0.452 5.061 3.606 98.592 o
3 3 2 155.447 157.933 18.962 3.301 o
3 3 3 219.394 217.712 22.986 2.192 o
3 3 4 90.164 72.586 13.795 6.454 o
3 3 5 137.151 138.526 19.564 3.165 o
3 3 6 25.627 32.861 6.899 26.425 o
3 3 7 11.460 23.581 6.108 34.111 o
3 3 8 16.448 11.812 4.522 61.907 o
3 3 9 29.977 31.494 13.236 7.274 o
3 4 0 4.989 7.370 2.625 184.978 o
3 4 1 22.122 19.660 5.327 44.352 o
3 4 2 31.336 34.642 6.423 30.176 o
3 4 3 28.180 32.221 9.648 13.626 o
3 4 4 11.269 -1.098 4.589 60.703 o
3 4 5 1.090 11.113 6.339 31.893 o
3 4 6 0.953 -2.591 4.070 77.430 o
3 4 7 0.001 2.403 5.132 48.690 o
3 5 0 34.105 28.311 4.755 53.809 o
3 5 1 3.900 3.426 5.748 38.800 o
3 5 2 8.608 14.236 4.528 62.146 o
3 5 3 13.509 9.458 3.132 128.430 o
3 5 4 57.642 66.274 14.841 5.710 o
3 5 5 1.761 4.136 5.495 42.454 o
3 5 6 4.961 5.009 5.127 48.727 o
3 6 0 3.997 18.284 5.356 44.568 o
3 6 1 22.051 20.575 6.202 32.865 o
3 6 2 56.382 56.326 9.316 14.164 o
3 6 3 6.508 3.910 2.460 210.594 o
3 6 4 21.647 25.215 10.390 11.812 o
3 6 5 10.771 26.956 10.098 12.539 o
3 7 0 37.545 44.149 8.911 15.780 o
3 7 1 2.025 0.433 3.020 140.533 o
3 7 2 9.374 -0.433 5.170 47.892 o
3 7 3 1.147 1.266 4.114 75.753 o
3 7 4 5.748 10.160 7.335 23.806 o
4 -10 0 0.091 -2.741 3.912 83.777 o
4 -10 1 2.394 9.643 6.393 31.360 o
4 -10 2 1.001 -2.235 2.859 156.877 o
4 -10 3 11.313 13.572 7.213 24.567 o
4 -9 0 11.685 11.921 4.380 66.290 o
4 -9 1 0.353 6.119 4.726 57.399 o
4 -9 2 3.680 9.279 4.533 62.303 o
4 -9 3 1.394 3.810 6.260 32.724 o
4 -9 4 0.007 3.578 3.991 80.522 o
4 -9 5 2.946 -0.622 4.114 75.733 o
4 -9 6 0.160 1.232 2.854 157.387 o
4 -8 0 17.981 26.740 6.899 26.653 o
4 -8 1 0.733 7.979 4.857 54.323 o
4 -8 2 21.914 19.773 4.532 60.867 o
4 -8 3 10.671 9.973 3.641 95.799 o
4 -8 4 2.184 1.291 2.196 265.575 o
4 -8 5 0.722 3.995 2.314 239.303 o
4 -8 6 37.941 42.202 8.698 16.549 o
4 -8 7 3.427 -0.014 2.739 170.844 o
4 -8 8 48.274 37.904 11.203 10.029 o
4 -7 0 36.605 36.266 4.398 61.316 o
4 -7 1 3.425 3.402 1.564 521.111 o
4 -7 2 5.250 2.913 2.235 255.623 o
4 -7 3 25.418 26.735 3.883 80.797 o
4 -7 4 16.042 12.929 3.723 90.754 o
4 -7 5 2.303 -2.408 2.363 229.551 o
4 -7 6 25.177 19.963 5.200 46.307 o
4 -7 7 53.094 51.663 11.450 9.543 o
4 -7 8 20.063 18.966 7.658 21.697 o
4 -7 9 6.159 7.310 3.928 82.847 o
4 -6 0 31.312 39.802 4.525 58.683 o
4 -6 1 23.296 26.793 3.649 91.436 o
4 -6 2 0.587 2.759 1.397 656.298 o
4 -6 3 47.772 48.862 6.552 28.082 o
4 -6 4 22.389 23.289 3.653 91.885 o
4 -6 5 1.351 2.541 1.816 388.394 o
4 -6 6 5.366 1.764 2.585 191.319 o
4 -6 7 0.427 -2.413 3.298 117.905 o
4 -6 8 14.687 12.586 4.630 59.177 o
4 -6 9 3.474 2.597 2.685 177.640 o
4 -6 10 0.011 1.114 2.991 143.351 o
4 -5 0 28.116 32.438 2.606 163.864 o
4 -5 1 173.242 181.471 6.039 17.545 o
4 -5 2 16.245 15.347 2.388 213.558 o
4 -5 3 2.439 2.539 1.148 967.768 o
4 -5 4 3.019 5.124 1.477 583.839 o
4 -5 5 126.352 136.733 6.892 19.020 o
4 -5 6 108.000 105.143 8.119 16.138 o
4 -5 7 118.636 121.756 12.038 7.923 o
4 -5 8 6.827 6.816 3.706 93.002 o
4 -5 9 44.409 45.848 8.335 17.848 o
4 -5 10 6.658 4.300 2.494 204.791 o
4 -5 11 5.289 7.087 4.678 58.498 o
4 -4 0 323.554 327.148 11.563 4.963 o
4 -4 1 6.703 6.775 1.535 532.320 o
4 -4 2 1.471 0.495 0.840 1814.600 o
4 -4 3 31.043 31.855 2.683 153.420 o
4 -4 4 72.874 69.138 4.540 48.076 o
4 -4 5 1.420 1.579 1.459 601.816 o
4 -4 6 0.333 3.235 1.827 383.889 o
4 -4 7 42.442 39.389 5.445 40.480 o
4 -4 8 41.546 46.018 6.093 32.622 o
4 -4 9 1.756 -1.356 1.808 391.918 o
4 -4 10 3.867 -0.347 6.253 32.790 o
4 -4 11 0.218 0.612 7.812 21.012 o
4 -4 12 0.005 -5.564 5.426 43.556 o
4 -3 0 585.604 581.959 19.518 1.634 o
4 -3 1 142.313 143.301 5.416 24.017 o
4 -3 2 1.229 3.130 1.233 841.849 o
4 -3 3 67.276 66.132 5.497 36.112 o
4 -3 4 0.221 -1.375 1.153 964.789 o
4 -3 5 23.880 24.784 3.511 98.516 o
4 -3 6 35.847 42.170 6.914 25.906 o
4 -3 7 55.332 54.556 8.026 18.859 o
4 -3 8 3.234 4.935 2.681 177.986 o
4 -3 9 17.197 21.762 7.978 20.015 o
4 -3 10 10.048 12.348 6.405 31.153 o
4 -3 11 0.382 6.243 5.863 37.297 o
4 -2 0 3.412 4.562 1.045 1156.480 o
4 -2 1 219.294 197.667 10.413 7.935 o
4 -2 2 32.818 36.902 4.025 72.931 o
4 -2 3 2.041 0.085 1.773 407.711 o
4 -2 4 111.455 113.460 6.973 20.198 o
4 -2 5 22.551 21.588 3.350 108.618 o
4 -2 6 11.688 10.124 4.888 53.336 o
4 -2 7 66.588 76.470 13.701 6.628 o
4 -2 8 38.702 32.763 9.684 13.445 o
4 -2 9 0.243 0.847 2.996 142.851 o
4 -2 10 11.191 19.083 8.779 16.589 o
4 -2 11 3.606 -0.474 3.071 135.880 o
4 -1 0 2.179 3.599 1.095 1062.330 o
4 -1 1 98.465 95.058 5.710 29.273 o
4 -1 2 75.566 77.853 4.254 51.333 o
4 -1 3 17.344 18.557 2.510 192.245 o
4 -1 4 110.174 113.623 7.968 16.411 o
4 -1 5 2.875 -0.621 2.690 177.079 o
4 -1 6 68.787 91.893 14.913 5.592 o
4 -1 7 103.327 113.728 17.054 4.214 o
4 -1 8 6.729 21.285 9.353 14.634 o
4 -1 9 7.404 9.250 5.894 36.829 o
4 -1 10 7.255 22.183 10.564 11.473 o
4 -1 11 0.055 17.666 9.097 15.489 o
4 0 0 60.712 53.734 4.489 53.033 o
4 0 1 853.186 862.666 24.285 0.880 o
4 0 2 9.011 11.024 4.651 58.983 o
4 0 3 7.341 3.016 3.181 126.251 o
4 0 4 70.596 76.656 13.267 7.037 o
4 0 5 9.753 13.409 7.112 25.282 o
4 0 6 17.764 16.814 7.339 23.650 o
4 0 7 5.323 14.923 7.854 20.763 o
4 0 8 0.047 2.505 3.488 105.376 o
4 0 9 4.986 3.232 3.948 82.138 o
4 0 10 8.701 3.330 6.411 31.161 o
4 1 0 16.778 18.602 2.472 198.297 o
4 1 1 10.826 6.078 5.117 48.796 o
4 1 2 29.138 31.377 9.038 15.499 o
4 1 3 147.046 166.574 19.769 3.063 o
4 1 4 84.185 112.763 17.154 4.210 o
4 1 5 137.152 128.396 18.419 3.557 o
4 1 6 93.570 83.328 15.600 5.069 o
4 1 7 1.556 5.958 5.229 46.875 o
4 1 8 1.420 0.712 4.103 76.173 o
4 1 9 0.468 -0.117 3.081 135.064 o
4 2 0 40.892 40.859 4.458 58.690 o
4 2 1 0.249 0.173 4.068 77.502 o
4 2 2 107.584 101.055 15.613 4.992 o
4 2 3 45.154 39.852 10.824 10.741 o
4 2 4 13.110 27.889 8.007 19.885 o
4 2 5 4.332 0.889 3.972 81.208 o
4 2 6 4.613 5.297 4.695 58.095 o
4 2 7 17.982 18.644 8.037 19.734 o
4 2 8 110.539 107.641 19.956 3.109 o
4 3 0 0.663 -1.933 2.212 262.074 o
4 3 1 39.170 31.299 9.682 13.453 o
4 3 2 6.196 6.744 5.441 43.253 o
4 3 3 2.410 -7.101 5.909 36.724 o
4 3 4 42.009 42.551 11.727 9.185 o
4 3 5 0.264 -5.845 4.349 67.797 o
4 3 6 0.815 0.809 3.283 118.951 o
4 3 7 2.816 16.323 8.503 17.722 o
4 4 0 52.099 52.490 6.685 26.760 o
4 4 1 27.177 27.464 5.911 35.802 o
4 4 2 12.168 4.367 3.719 92.023 o
4 4 3 12.982 35.958 11.927 8.984 o
4 4 4 0.497 23.992 9.865 13.166 o
4 4 5 3.726 15.757 8.797 16.556 o
4 4 6 0.474 -0.021 3.455 107.436 o
4 5 0 2.904 0.761 2.930 149.233 o
4 5 1 13.135 8.012 4.206 71.860 o
4 5 2 4.635 5.330 5.139 48.505 o
4 5 3 5.146 11.559 8.094 19.557 o
4 5 4 1.713 13.225 7.900 20.537 o
4 6 0 4.238 8.500 5.705 39.356 o
4 6 1 6.540 -9.378 6.653 28.954 o
4 6 2 1.594 -3.337 4.743 57.010 o
4 6 3 0.238 4.643 5.610 40.746 o
5 -10 0 16.029 32.141 11.193 10.192 o
5 -10 1 0.046 0.929 3.840 86.952 o
5 -10 2 9.821 10.718 6.361 31.601 o
5 -10 3 0.138 5.410 4.076 77.159 o
5 -10 4 0.587 1.316 2.940 148.397 o
5 -10 5 0.375 15.117 7.114 25.322 o
5 -10 6 5.949 11.400 6.901 26.891 o
5 -9 0 0.123 1.718 5.067 49.947 o
5 -9 2 9.212 5.668 3.245 120.894 o
5 -9 3 2.601 1.632 3.787 89.370 o
5 -9 4 5.573 8.843 5.845 37.484 o
5 -9 5 0.012 5.192 5.401 43.949 o
5 -9 6 0.035 -1.511 2.532 200.045 o
5 -8 0 14.525 12.972 2.976 141.133 o
5 -8 1 39.339 25.655 8.760 16.406 o
5 -8 2 2.314 1.266 4.474 64.052 o
5 -8 3 56.856 52.111 12.041 8.630 o
5 -8 4 0.121 6.355 4.505 63.180 o
5 -8 5 1.262 0.479 2.404 221.879 o
5 -8 6 4.653 4.950 4.153 74.239 o
5 -8 7 0.339 -10.416 7.750 21.352 o
5 -7 0 14.644 9.651 4.879 53.435 o
5 -7 1 0.131 0.590 1.421 635.499 o
5 -7 2 0.532 -0.038 1.542 539.362 o
5 -7 3 12.778 10.918 2.537 194.000 o
5 -7 4 1.564 -0.295 2.136 280.901 o
5 -7 5 5.945 10.310 6.552 29.826 o
5 -7 6 0.041 4.858 4.473 64.092 o
5 -7 7 10.652 13.445 7.272 24.178 o
5 -7 8 4.879 17.298 8.974 15.904 o
5 -6 0 4.393 6.352 2.044 304.756 o
5 -6 1 8.040 8.282 2.842 157.282 o
5 -6 2 8.122 6.373 2.023 308.150 o
5 -6 3 1.622 1.390 1.419 636.291 o
5 -6 4 53.472 57.543 4.830 47.707 o
5 -6 5 1.944 4.769 2.412 219.978 o
5 -6 6 0.301 5.199 3.394 111.261 o
5 -6 7 2.653 4.970 5.028 50.708 o
5 -6 8 0.050 -0.690 4.554 61.825 o
5 -6 9 0.493 -1.894 5.213 47.193 o
5 -5 0 65.099 66.735 4.649 48.018 o
5 -5 1 0.229 -0.974 1.044 1177.350 o
5 -5 2 24.846 29.656 3.003 130.268 o
5 -5 3 24.974 21.404 2.565 176.902 o
5 -5 4 0.302 0.347 1.231 845.809 o
5 -5 5 70.546 70.248 4.791 44.498 o
5 -5 6 9.543 11.477 3.142 128.319 o
5 -5 7 51.301 47.076 12.326 8.280 o
5 -5 8 0.018 -4.619 6.523 30.143 o
5 -5 9 13.943 26.996 9.386 14.492 o
5 -4 0 14.023 14.478 2.312 229.763 o
5 -4 1 129.367 132.416 8.827 13.083 o
5 -4 2 27.623 27.065 2.537 175.059 o
5 -4 3 13.546 15.601 2.664 174.808 o
5 -4 4 165.137 168.298 7.566 14.265 o
5 -4 5 0.017 1.464 1.251 819.612 o
5 -4 6 113.458 110.966 9.045 13.247 o
5 -4 7 82.944 76.542 7.909 18.248 o
5 -4 8 0.149 -2.481 3.535 102.651 o
5 -4 9 0.174 5.018 4.333 68.278 o
5 -3 0 26.270 23.477 2.477 185.986 o
5 -3 1 134.742 130.419 5.836 23.285 o
5 -3 2 73.302 74.793 4.859 42.670 o
5 -3 3 0.264 0.207 1.838 379.412 o
5 -3 4 15.585 16.537 2.821 155.304 o
5 -3 5 2.986 11.485 3.707 93.045 o
5 -3 6 4.809 3.092 3.330 115.442 o
5 -3 7 5.091 2.492 3.505 104.228 o
5 -3 8 25.277 25.254 7.307 23.683 o
5 -3 9 4.764 0.670 4.027 79.026 o
5 -3 10 0.008 10.297 7.265 24.290 o
5 -3 11 6.139 16.530 9.270 14.904 o
5 -2 0 6.277 5.670 1.389 649.673 o
5 -2 1 2.124 2.222 0.967 1362.440 o
5 -2 2 0.035 0.763 1.062 1137.220 o
5 -2 3 4.705 4.443 1.921 345.178 o
5 -2 4 31.964 28.258 5.063 47.948 o
5 -2 5 25.178 15.993 6.502 29.924 o
5 -2 6 3.532 7.924 5.334 45.023 o
5 -2 7 5.788 5.370 5.417 43.654 o
5 -2 8 6.704 -0.855 5.492 42.486 o
5 -2 9 0.524 -2.099 3.446 107.969 o
5 -2 10 2.973 4.382 4.516 62.827 o
5 -1 0 48.978 50.551 4.386 57.933 o
5 -1 1 0.302 3.273 2.024 312.887 o
5 -1 2 0.453 2.064 1.655 468.242 o
5 -1 3 58.105 66.933 7.459 21.356 o
5 -1 4 2.357 5.531 2.383 225.372 o
5 -1 5 173.825 160.360 21.321 2.625 o
5 -1 6 8.855 8.840 6.280 32.438 o
5 -1 7 8.448 9.994 6.501 30.271 o
5 -1 8 1.906 12.932 7.660 21.841 o
5 -1 9 0.038 -10.707 7.109 25.378 o
5 0 0 10.563 14.101 3.575 99.078 o
5 0 1 94.182 85.679 8.699 14.992 o
5 0 2 5.094 0.797 3.630 97.223 o
5 0 3 6.934 2.844 3.662 95.393 o
5 0 4 0.001 3.458 5.737 38.958 o
5 0 5 64.328 68.335 14.484 5.968 o
5 0 6 32.646 38.381 12.072 8.716 o
5 0 7 5.560 5.593 6.456 30.736 o
5 0 8 2.584 -0.418 5.661 40.005 o
5 1 0 193.937 181.950 21.563 2.526 o
5 1 1 0.966 2.910 4.492 63.545 o
5 1 2 25.739 39.134 10.833 10.829 o
5 1 3 90.594 81.208 15.402 5.208 o
5 1 4 103.761 113.460 18.873 3.468 o
5 1 5 59.014 76.228 15.939 4.951 o
5 1 6 1.756 -3.172 3.272 119.752 o
5 1 7 0.324 0.629 3.335 115.292 o
5 2 0 2.393 12.708 7.004 26.119 o
5 2 1 55.039 55.823 13.411 6.990 o
5 2 2 12.281 3.515 4.883 53.546 o
5 2 3 9.759 3.425 3.998 79.865 o
5 2 4 0.227 6.693 6.359 31.704 o
5 2 5 1.241 5.083 4.517 62.836 o
5 2 6 1.887 10.791 5.992 35.685 o
5 3 0 2.093 8.297 6.376 31.524 o
5 3 1 2.678 16.707 8.300 18.598 o
5 3 2 9.562 5.526 8.358 18.336 o
5 3 3 79.597 89.238 17.813 3.941 o
5 3 4 17.662 23.283 11.024 10.514 o
5 3 5 2.691 -0.209 3.282 119.000 o
5 4 0 0.005 1.997 5.084 49.611 o
5 4 1 4.145 6.914 7.373 23.580 o
5 4 2 10.285 19.251 8.753 16.694 o
5 4 3 22.696 28.174 11.276 10.030 o
5 4 4 4.693 10.234 8.233 18.904 o
5 5 0 1.941 9.954 7.884 20.624 o
5 5 1 1.239 -1.529 5.604 40.837 o
5 5 2 0.591 -5.846 7.108 25.380 o
5 6 0 17.918 17.793 8.975 15.846 o
6 -11 0 0.030 1.567 5.256 46.416 o
6 -11 1 0.354 7.233 5.309 45.490 o
6 -10 0 0.473 0.585 4.266 70.475 o
6 -10 1 0.248 -2.979 3.506 104.354 o
6 -10 2 0.841 -2.138 3.430 109.003 o
6 -10 3 0.819 -13.386 6.932 26.684 o
6 -10 4 1.975 1.593 3.260 120.646 o
6 -9 0 0.316 3.391 2.871 155.538 o
6 -9 1 0.198 2.498 2.050 305.131 o
6 -9 2 0.010 -5.993 4.864 54.197 o
6 -9 3 0.416 11.174 6.640 29.073 o
6 -9 4 2.594 3.593 4.936 52.613 o
6 -9 5 12.005 9.551 5.798 37.981 o
6 -8 0 7.072 2.488 2.310 238.614 o
6 -8 1 1.500 0.471 2.600 189.610 o
6 -8 2 31.377 28.684 6.639 28.388 o
6 -8 3 1.934 -1.072 1.989 324.123 o
6 -8 4 0.568 2.345 4.049 78.200 o
6 -8 5 1.195 6.856 3.799 88.781 o
6 -8 6 17.690 24.690 8.565 17.370 o
6 -7 0 25.941 21.282 4.143 71.759 o
6 -7 1 4.877 3.694 3.478 105.819 o
6 -7 2 4.851 8.433 2.888 153.008 o
6 -7 3 32.421 28.569 5.507 40.750 o
6 -7 4 0.100 0.165 1.881 362.590 o
6 -7 5 0.586 1.711 2.714 174.109 o
6 -7 6 3.148 2.915 6.173 33.643 o
6 -6 0 7.785 98.276 11.425 9.698 o
6 -6 1 1.957 0.758 1.752 417.381 o
6 -6 2 6.636 7.379 2.566 193.078 o
6 -6 3 5.616 10.719 2.927 148.567 o
6 -6 4 6.650 4.624 1.660 458.287 o
6 -6 5 0.876 -2.121 2.700 175.915 o
6 -6 6 3.573 8.436 4.860 54.214 o
6 -6 7 11.283 14.471 8.535 17.559 o
6 -5 0 8.687 9.166 2.127 277.715 o
6 -5 1 0.247 -0.552 1.648 472.228 o
6 -5 2 3.918 5.335 2.455 211.924 o
6 -5 3 17.445 18.337 2.965 139.926 o
6 -5 4 0.492 0.915 1.700 443.434 o
6 -5 5 11.619 15.280 3.618 96.525 o
6 -5 6 93.278 119.653 13.667 6.441 o
6 -5 7 8.879 9.035 7.015 26.013 o
6 -5 8 0.724 6.016 5.976 35.896 o
6 -4 0 21.046 25.588 3.110 124.831 o
6 -4 1 78.659 79.452 5.825 31.058 o
6 -4 2 19.363 19.757 2.895 145.193 o
6 -4 3 2.261 1.377 1.532 545.094 o
6 -4 4 18.302 21.148 3.905 81.757 o
6 -4 5 0.248 -0.966 2.009 317.840 o
6 -4 6 12.544 16.242 7.416 23.224 o
6 -4 7 43.108 31.682 9.647 13.515 o
6 -4 8 6.374 2.987 4.148 74.376 o
6 -3 0 10.705 23.259 4.379 65.975 o
6 -3 1 60.966 61.108 5.686 34.912 o
6 -3 2 0.709 0.568 1.550 533.378 o
6 -3 3 4.281 6.120 2.305 240.157 o
6 -3 4 17.841 14.183 4.444 63.888 o
6 -3 5 18.217 22.346 8.231 18.801 o
6 -3 6 24.180 21.800 8.253 18.652 o
6 -3 7 49.181 77.313 16.180 4.824 o
6 -3 8 1.307 -0.706 4.187 73.152 o
6 -3 9 0.690 10.679 7.307 24.008 o
6 -2 0 113.516 119.295 7.870 16.505 o
6 -2 1 55.043 53.078 5.236 41.477 o
6 -2 2 0.000 2.355 2.369 228.424 o
6 -2 3 4.468 3.797 1.636 475.070 o
6 -2 4 2.651 3.563 4.972 51.851 o
6 -2 5 0.136 5.253 7.707 21.589 o
6 -2 6 1.795 1.286 3.546 101.969 o
6 -2 7 0.026 -5.070 5.123 48.860 o
6 -2 8 0.461 -3.433 5.462 42.983 o
6 -1 0 0.688 -1.328 1.806 393.268 o
6 -1 1 15.473 14.687 3.463 104.557 o
6 -1 2 52.191 50.722 5.983 32.918 o
6 -1 3 7.121 2.227 4.462 64.297 o
6 -1 4 136.701 99.377 17.581 3.917 o
6 -1 5 19.052 16.823 8.108 19.392 o
6 -1 6 2.316 3.561 3.249 121.353 o
6 -1 7 0.925 -1.229 5.293 45.773 o
6 0 0 80.561 122.514 11.216 9.404 o
6 0 1 0.239 -0.973 3.367 113.111 o
6 0 2 28.117 13.392 7.200 24.438 o
6 0 3 0.169 12.763 7.811 21.013 o
6 0 4 1.459 5.547 6.404 31.267 o
6 0 5 31.433 20.325 8.310 18.331 o
6 0 6 4.928 15.772 8.578 17.409 o
6 1 0 21.578 18.032 8.243 18.739 o
6 1 1 4.598 2.289 3.766 90.301 o
6 1 2 0.508 2.535 4.463 64.368 o
6 1 3 2.906 4.769 6.542 29.956 o
6 1 4 0.754 -3.642 4.706 57.913 o
6 1 5 0.150 -0.579 5.756 38.710 o
6 2 0 56.514 43.179 12.334 8.256 o
6 2 1 11.360 25.063 10.772 11.023 o
6 2 2 3.483 2.039 4.403 66.112 o
6 2 3 2.853 -1.279 5.398 44.002 o
6 2 4 1.196 -12.096 7.717 21.533 o
6 3 0 3.485 9.423 6.060 34.889 o
6 3 1 8.067 1.606 4.966 51.917 o
6 3 2 0.001 -0.221 8.079 19.646 o
6 3 3 19.612 23.737 10.206 12.249 o
6 4 0 4.695 24.058 10.935 10.711 o
6 4 1 0.053 0.612 4.303 69.274 o
7 -10 0 19.709 23.349 9.169 15.162 o
7 -9 0 1.491 -0.442 4.374 67.030 o
7 -9 1 1.683 4.933 2.256 251.501 o
7 -9 2 2.025 8.067 3.889 84.700 o
7 -9 3 8.407 3.319 5.351 44.699 o
7 -8 0 2.815 3.387 3.007 141.688 o
7 -8 1 0.433 2.716 2.324 237.302 o
7 -8 2 4.075 3.028 2.947 147.400 o
7 -8 3 11.787 10.330 2.908 148.939 o
7 -8 4 0.319 -1.957 3.062 136.779 o
7 -7 0 13.984 44.804 7.845 20.605 o
7 -7 1 3.676 3.394 2.263 249.615 o
7 -7 2 0.160 3.436 2.087 294.356 o
7 -7 3 20.561 19.349 4.467 62.748 o
7 -7 4 3.469 7.552 7.517 22.686 o
7 -7 5 0.023 -2.367 4.881 53.834 o
7 -6 0 2.872 5.878 2.751 169.010 o
7 -6 1 0.026 1.754 1.805 393.771 o
7 -6 2 13.715 10.040 2.796 160.231 o
7 -6 3 3.838 7.455 2.129 281.160 o
7 -6 4 36.343 48.324 7.286 23.310 o
7 -6 5 2.197 -2.565 1.858 371.084 o
7 -5 0 6.885 9.380 4.138 74.585 o
7 -5 1 1.933 -0.101 2.049 305.441 o
7 -5 2 0.004 -1.927 1.936 342.089 o
7 -5 3 2.368 2.782 2.297 242.811 o
7 -5 4 12.377 7.280 3.760 89.830 o
7 -5 5 3.153 5.635 6.103 34.414 o
7 -5 6 3.227 -0.754 3.495 104.968 o
7 -5 7 21.187 14.148 7.684 21.569 o
7 -4 0 29.910 27.604 4.730 54.861 o
7 -4 1 7.132 6.326 2.411 218.528 o
7 -4 2 1.684 2.722 3.787 89.368 o
7 -4 3 10.405 10.234 3.419 108.539 o
7 -4 4 0.000 -1.313 2.761 168.265 o
7 -4 5 51.649 65.715 10.467 11.317 o
7 -4 6 14.605 12.591 8.195 19.031 o
7 -4 7 14.534 16.571 8.493 17.712 o
7 -3 0 1.585 -1.756 2.021 313.863 o
7 -3 1 9.275 8.134 2.533 196.989 o
7 -3 2 34.562 37.267 4.811 52.069 o
7 -3 3 3.364 4.008 2.491 206.214 o
7 -3 4 36.405 35.285 11.070 10.335 o
7 -3 5 15.770 15.354 8.065 19.627 o
7 -3 6 5.188 -5.551 5.478 42.717 o
7 -3 7 0.899 0.919 3.765 90.451 o
7 -2 0 7.498 7.295 2.309 237.697 o
7 -2 1 16.216 14.974 3.194 122.172 o
7 -2 2 0.229 0.242 2.254 252.327 o
7 -2 3 0.238 -1.606 3.803 88.684 o
7 -2 4 22.792 37.920 12.322 8.396 o
7 -2 5 36.116 54.188 14.583 5.971 o
7 -2 6 4.597 9.095 6.853 27.285 o
7 -1 0 0.077 0.496 1.870 366.557 o
7 -1 1 3.868 6.464 2.697 175.646 o
7 -1 2 42.963 35.481 10.886 10.647 o
7 -1 3 34.471 22.654 10.225 12.138 o
7 -1 4 45.878 53.751 14.643 5.905 o
7 -1 5 0.172 -3.383 5.530 41.936 o
7 0 0 39.890 89.997 14.818 5.741 o
7 0 1 0.434 13.556 8.270 18.745 o
7 0 2 0.211 -0.418 3.890 84.760 o
7 0 3 0.382 -3.355 5.059 50.110 o
7 0 4 6.004 0.870 3.895 84.408 o
7 1 0 48.872 30.931 11.172 10.099 o
7 1 1 0.914 -4.790 5.436 43.399 o
7 1 2 13.767 10.202 8.509 17.666 o
7 1 3 18.570 26.121 11.473 9.703 o
7 2 0 0.095 5.477 6.467 30.658 o
7 2 1 10.796 14.585 8.250 18.794 o
8 -9 0 0.666 8.942 4.602 60.503 o
8 -9 1 0.135 -1.456 2.481 208.277 o
8 -9 2 2.474 1.538 3.752 91.072 o
8 -8 0 0.105 13.181 3.502 104.387 o
8 -8 1 7.396 6.263 2.585 190.253 o
8 -8 2 2.803 3.813 3.878 85.188 o
8 -7 0 0.013 1.392 2.411 220.546 o
8 -7 1 2.179 4.259 2.482 207.809 o
8 -7 2 0.024 0.250 2.143 279.253 o
8 -7 3 12.019 14.811 4.578 60.617 o
8 -6 0 2.600 1.731 2.386 224.989 o
8 -6 1 0.101 1.468 1.782 403.864 o
8 -6 2 0.667 -1.263 1.951 337.049 o
8 -6 3 4.184 7.005 3.157 128.300 o
8 -6 4 0.466 11.592 6.857 27.265 o
8 -6 5 4.393 4.917 5.176 47.827 o
8 -5 0 5.825 2.394 2.802 162.857 o
8 -5 1 0.137 2.084 2.386 225.306 o
8 -5 2 0.296 -1.898 3.669 95.273 o
8 -5 3 0.092 -2.961 3.137 130.329 o
8 -5 4 11.272 20.015 8.916 16.085 o
8 -5 5 0.285 -2.719 4.393 66.441 o
8 -4 0 14.603 25.320 4.819 54.307 o
8 -4 1 19.312 20.735 4.662 57.780 o
8 -4 2 7.428 12.863 4.091 76.174 o
8 -4 3 0.030 -1.130 2.672 179.578 o
8 -4 4 0.660 4.706 8.256 18.814 o
8 -4 5 0.014 -1.669 14.762 5.884 o
8 -4 6 0.017 -16.064 8.561 17.499 o
8 -3 0 0.541 0.533 2.340 234.282 o
8 -3 1 20.084 12.942 3.313 112.998 o
8 -3 2 12.844 15.178 4.119 74.603 o
8 -3 3 10.460 19.638 5.156 47.843 o
8 -3 4 16.535 17.929 6.455 30.527 o
8 -3 5 6.900 -2.681 4.833 54.852 o
8 -2 0 1.287 -2.501 2.181 269.613 o
8 -2 1 2.169 4.620 2.874 155.010 o
8 -2 2 0.025 0.189 4.773 56.293 o
8 -2 3 1.541 4.666 9.943 12.971 o
8 -2 4 8.477 0.774 4.686 58.303 o
8 -1 0 1.178 2.013 2.696 176.319 o
8 -1 1 0.520 -1.717 2.522 201.565 o
8 -1 2 2.327 1.611 3.271 119.789 o
8 0 0 1.000 30.385 8.126 19.379 o
8 0 1 3.492 5.897 17.835 4.031 o
8 1 0 13.981 6.934 6.440 30.798 o
9 -8 0 0.002 2.069 2.824 160.848 o
9 -8 1 2.036 -3.831 6.339 31.908 o
9 -7 0 0.067 2.307 2.904 152.098 o
9 -7 1 1.305 -10.215 4.613 60.267 o
9 -7 2 1.133 -2.925 5.489 42.555 o
9 -7 3 0.961 2.779 4.511 63.020 o
9 -6 0 0.154 8.034 3.439 108.318 o
9 -6 1 0.198 5.509 6.054 34.990 o
9 -6 2 0.382 0.984 4.046 78.338 o
9 -5 0 0.022 -2.533 3.257 120.913 o
9 -5 1 2.745 3.372 2.772 166.675 o
9 -5 2 5.975 5.811 6.793 27.767 o
9 -4 0 15.369 13.909 4.051 76.916 o
9 -4 1 0.233 -2.138 3.800 88.800 o
9 -4 2 0.003 4.500 6.447 30.852 o
9 -4 3 11.510 6.077 6.127 34.060 o
9 -3 0 0.012 0.991 4.093 76.531 o
9 -3 1 25.600 25.594 8.666 16.903 o
9 -3 2 3.412 2.638 3.145 129.519 o
;
_olex2_submission_special_instructions 'No special instructions were received'
loop_
_space_group_symop_id
_space_group_symop_operation_xyz
1 x,y,z
2 -x,-y,-z
loop_
_atom_site_label
_atom_site_type_symbol
_atom_site_fract_x
_atom_site_fract_y
_atom_site_fract_z
_atom_site_U_iso_or_equiv
_atom_site_adp_type
_atom_site_occupancy
O1 O 0.3558(3) 0.0615(3) 0.1410(2) 0.0650(7) Uani 1.000000
O2 O 0.3098(3) 0.0455(3) -0.05037(19) 0.0614(6) Uani 1.000000
O3 O 0.7393(3) -0.1307(3) 0.4200(2) 0.0681(7) Uani 1.000000
N1 N 0.8513(3) 0.5365(3) 0.1870(2) 0.0426(6) Uani 1.000000
N2 N 0.7081(3) 0.3774(3) 0.19185(19) 0.0377(6) Uani 1.000000
N3 N 0.4061(3) 0.1197(3) 0.0567(2) 0.0461(6) Uani 1.000000
C1 C 0.5823(4) 0.2836(3) 0.0784(2) 0.0373(7) Uani 1.000000
C2 C 0.6427(4) 0.3823(3) -0.0053(2) 0.0358(6) Uani 1.000000
C3 C 0.5797(4) 0.3627(4) -0.1320(3) 0.0474(8) Uani 1.000000
C4 C 0.6886(5) 0.4990(5) -0.1796(3) 0.0551(8) Uani 1.000000
C5 C 0.8564(5) 0.6553(4) -0.1064(3) 0.0569(9) Uani 1.000000
C6 C 0.9197(4) 0.6779(4) 0.0155(3) 0.0505(8) Uani 1.000000
C7 C 0.8101(4) 0.5397(3) 0.0670(3) 0.0392(7) Uani 1.000000
C8 C 0.7191(4) 0.3377(3) 0.3112(2) 0.0382(7) Uani 1.000000
C9 C 0.7306(4) 0.1823(3) 0.3439(2) 0.0393(7) Uani 1.000000
C10 C 0.7503(4) 0.1528(3) 0.4616(2) 0.0386(7) Uani 1.000000
C11 C 0.7572(4) 0.2800(4) 0.5427(2) 0.0474(8) Uani 1.000000
C12 C 0.7461(4) 0.4350(4) 0.5081(3) 0.0504(8) Uani 1.000000
C13 C 0.7286(4) 0.4655(3) 0.3918(3) 0.0442(7) Uani 1.000000
C14 C 0.7662(4) -0.0144(4) 0.4964(3) 0.0478(8) Uani 1.000000
C15 C 0.8166(5) -0.0378(4) 0.6269(3) 0.0656(10) Uani 1.000000
H3 H 0.468600 0.260100 -0.181900 0.057000 Uiso 1.000000
H4 H 0.650000 0.488500 -0.263800 0.067000 Uiso 1.000000
H5 H 0.924800 0.745100 -0.143400 0.067000 Uiso 1.000000
H6 H 1.031400 0.780700 0.063200 0.062000 Uiso 1.000000
H9 H 0.724500 0.098200 0.288000 0.048000 Uiso 1.000000
H11 H 0.770900 0.261000 0.621400 0.058000 Uiso 1.000000
H12 H 0.750100 0.519600 0.562800 0.061000 Uiso 1.000000
H13 H 0.723300 0.570700 0.368400 0.054000 Uiso 1.000000
H15a H 0.946100 0.057900 0.675000 0.100000 Uiso 1.000000
H15b H 0.821100 -0.150900 0.635000 0.100000 Uiso 1.000000
H15c H 0.716700 -0.031900 0.655600 0.100000 Uiso 1.000000
loop_
_atom_site_aniso_label
_atom_site_aniso_U_11
_atom_site_aniso_U_22
_atom_site_aniso_U_33
_atom_site_aniso_U_12
_atom_site_aniso_U_13
_atom_site_aniso_U_23
O1 0.0577(15) 0.0525(14) 0.0569(15) -0.0024(11) 0.0209(13) 0.0103(12)
O2 0.0538(14) 0.0498(13) 0.0475(14) 0.0027(11) 0.0048(12) -0.0123(11)
O3 0.0965(18) 0.0453(13) 0.0616(16) 0.0351(13) 0.0222(14) 0.0076(12)
N1 0.0376(14) 0.0325(13) 0.0443(16) 0.0050(11) 0.0117(12) 0.0062(11)
N2 0.0404(14) 0.0303(12) 0.0341(14) 0.0107(11) 0.0098(12) 0.0031(11)
N3 0.0388(15) 0.0343(14) 0.0548(18) 0.0103(12) 0.0115(14) 0.0024(13)
C1 0.0336(15) 0.0286(14) 0.0398(17) 0.0080(12) 0.0087(14) 0.0003(13)
C2 0.0339(15) 0.0323(15) 0.0401(17) 0.0146(12) 0.0118(14) 0.0046(13)
C3 0.0449(18) 0.0515(18) 0.0411(19) 0.0200(15) 0.0112(15) 0.0036(15)
C4 0.058(2) 0.072(2) 0.0404(19) 0.0333(19) 0.0187(17) 0.0168(18)
C5 0.057(2) 0.058(2) 0.063(2) 0.0250(18) 0.0305(19) 0.0241(19)
C6 0.0403(18) 0.0438(18) 0.057(2) 0.0106(14) 0.0146(17) 0.0094(16)
C7 0.0369(16) 0.0337(15) 0.0430(18) 0.0135(13) 0.0119(14) 0.0070(14)
C8 0.0373(16) 0.0334(15) 0.0361(17) 0.0099(13) 0.0109(14) 0.0027(13)
C9 0.0372(16) 0.0330(15) 0.0385(17) 0.0111(13) 0.0085(14) -0.0022(13)
C10 0.0348(16) 0.0334(15) 0.0396(17) 0.0106(13) 0.0091(14) 0.0038(13)
C11 0.0503(19) 0.0508(18) 0.0370(18) 0.0186(15) 0.0152(15) 0.0054(15)
C12 0.062(2) 0.0478(18) 0.0415(19) 0.0240(16) 0.0186(16) -0.0025(15)
C13 0.0472(18) 0.0350(16) 0.0463(19) 0.0174(14) 0.0130(15) 0.0014(14)
C14 0.0456(19) 0.0422(18) 0.047(2) 0.0146(15) 0.0123(16) 0.0076(16)
C15 0.082(3) 0.067(2) 0.052(2) 0.036(2) 0.024(2) 0.0248(19)
loop_
_atom_type_symbol
_atom_type_scat_dispersion_real
_atom_type_scat_dispersion_imag
_atom_type_scat_Cromer_Mann_a1
_atom_type_scat_Cromer_Mann_a2
_atom_type_scat_Cromer_Mann_a3
_atom_type_scat_Cromer_Mann_a4
_atom_type_scat_Cromer_Mann_b1
_atom_type_scat_Cromer_Mann_b2
_atom_type_scat_Cromer_Mann_b3
_atom_type_scat_Cromer_Mann_b4
_atom_type_scat_Cromer_Mann_c
_atom_type_scat_source
_atom_type_scat_dispersion_source
H 0.00000 0.00000 0.49300 0.32291 0.14019 0.04081 10.51090 26.12570 3.14236
57.79970 0.0030380000826
'International Tables Volume C Table 6.1.1.4 (pp. 500-502)' custom
C 0.00330 0.00160 2.31000 1.02000 1.58860 0.86500 20.84390 10.20750 0.56870
51.65120 0.215599998832
'International Tables Volume C Table 6.1.1.4 (pp. 500-502)' custom
O 0.01060 0.00600 3.04850 2.28680 1.54630 0.86700 13.27710 5.70110 0.32390
32.90890 0.250800013542
'International Tables Volume C Table 6.1.1.4 (pp. 500-502)' custom
N 0.00610 0.00330 12.21260 3.13220 2.01250 1.16630 0.00570 9.89330 28.99750
0.58260 -11.5290002823
'International Tables Volume C Table 6.1.1.4 (pp. 500-502)' custom
loop_
_geom_angle_atom_site_label_1
_geom_angle_atom_site_label_2
_geom_angle_atom_site_label_3
_geom_angle
C7 N1 N2 104.5(2)
C1 N2 N1 111.0(2)
C8 N2 N1 116.1(2)
C8 N2 C1 132.9(2)
O2 N3 O1 123.7(2)
C1 N3 O1 120.4(2)
C1 N3 O2 115.9(3)
N3 C1 N2 122.8(2)
C2 C1 N2 109.0(2)
C2 C1 N3 127.9(3)
C3 C2 C1 137.0(3)
C7 C2 C1 103.2(2)
C7 C2 C3 119.8(3)
C4 C3 C2 117.4(3)
C5 C4 C3 122.2(3)
C6 C5 C4 121.6(3)
C7 C6 C5 117.3(3)
C2 C7 N1 112.3(2)
C6 C7 N1 126.1(3)
C6 C7 C2 121.6(3)
C9 C8 N2 120.8(2)
C13 C8 N2 117.2(2)
C13 C8 C9 121.9(3)
C10 C9 C8 119.1(3)
C11 C10 C9 119.3(2)
C14 C10 C9 118.6(2)
C14 C10 C11 122.1(3)
C12 C11 C10 120.6(3)
C13 C12 C11 120.2(3)
C12 C13 C8 118.9(2)
C10 C14 O3 120.0(3)
C15 C14 O3 120.2(3)
C15 C14 C10 119.7(3)
loop_
_geom_bond_atom_site_label_1
_geom_bond_atom_site_label_2
_geom_bond_distance
O1 N3 1.227(3)
O2 N3 1.239(3)
O3 C14 1.213(3)
N1 N2 1.354(3)
N1 C7 1.357(3)
N2 C1 1.366(3)
N2 C8 1.443(3)
N3 C1 1.427(3)
C1 C2 1.377(3)
C2 C3 1.407(4)
C2 C7 1.410(3)
C3 C4 1.367(4)
C4 C5 1.410(4)
C5 C6 1.350(4)
C6 C7 1.408(4)
C8 C9 1.377(3)
C8 C13 1.375(3)
C9 C10 1.392(3)
C10 C11 1.384(3)
C10 C14 1.490(4)
C11 C12 1.380(4)
C12 C13 1.381(4)
C14 C15 1.506(4)
