#------------------------------------------------------------------------------
#$Date: 2019-11-17 15:19:48 +0200 (Sun, 17 Nov 2019) $
#$Revision: 230821 $
#$URL: file:///home/coder/svn-repositories/cod/cif/7/15/62/7156214.cif $
#------------------------------------------------------------------------------
#
# This file is available in the Crystallography Open Database (COD),
# http://www.crystallography.net/
#
# All data on this site have been placed in the public domain by the
# contributors.
#
data_7156214
loop_
_publ_author_name
'Shen, Jinhui'
'Yang, Yang'
'Hou, Xiaoli'
'Zeng, Wenlei'
'Yu, Aimin'
'Zhao, Xiaowei'
'Meng, Xiangtai'
_publ_section_title
;
 Darzens reaction of thioisatins and sulfonium salts: approach to the
 synthesis of thiochromenone derivatives with anticancer potency.
;
_journal_issue                   18
_journal_name_full               'Organic &amp; biomolecular chemistry'
_journal_page_first              3487
_journal_page_last               3494
_journal_paper_doi               10.1039/c8ob00402a
_journal_volume                  16
_journal_year                    2018
_chemical_formula_moiety         'C17 H12 O3 S'
_chemical_formula_sum            'C17 H12 O3 S'
_chemical_formula_weight         296.33
_space_group_crystal_system      triclinic
_space_group_IT_number           2
_space_group_name_Hall           '-P 1'
_space_group_name_H-M_alt        'P -1'
_symmetry_space_group_name_Hall  '-P 1'
_symmetry_space_group_name_H-M   'P -1'
_atom_sites_solution_hydrogens   geom
_atom_sites_solution_primary     dual
_audit_creation_date             2017-12-12
_audit_creation_method
;
Olex2 1.2
(compiled 2017.08.10 svn.r3458 for OlexSys, GUI svn.r5381)
;
_audit_update_record
;
2017-12-12 deposited with the CCDC.
2018-04-16 downloaded from the CCDC.
;
_cell_angle_alpha                87.057(10)
_cell_angle_beta                 70.068(11)
_cell_angle_gamma                71.080(11)
_cell_formula_units_Z            2
_cell_length_a                   8.2863(10)
_cell_length_b                   8.9590(11)
_cell_length_c                   10.6474(12)
_cell_measurement_reflns_used    1218
_cell_measurement_temperature    293(2)
_cell_measurement_theta_max      28.2880
_cell_measurement_theta_min      2.7460
_cell_volume                     701.38(16)
_computing_cell_refinement       'CrysAlisPro 1.171.39.7e (Rigaku OD, 2015)'
_computing_data_collection       'CrysAlisPro 1.171.39.7e (Rigaku OD, 2015)'
_computing_data_reduction        'CrysAlisPro 1.171.39.7e (Rigaku OD, 2015)'
_computing_molecular_graphics    'Olex2 (Dolomanov et al., 2009)'
_computing_publication_material  'Olex2 (Dolomanov et al., 2009)'
_computing_structure_refinement  'ShelXL (Sheldrick, 2015)'
_computing_structure_solution    'ShelXT (Sheldrick, 2015)'
_diffrn_ambient_temperature      293(2)
_diffrn_detector                 'CCD plate'
_diffrn_measured_fraction_theta_full 0.999
_diffrn_measured_fraction_theta_max 0.999
_diffrn_measurement_details
;
List of Runs (angles in degrees, time in seconds):

  # Type    Start    End  Width  t~exp~   \w     \q     \k     \f   Frames
#--------------------------------------------------------------------------
  1  \w    -75.00 120.00   1.00    8.00    --   30.00  54.00 120.00  195
  2  \w    -75.00  26.00   1.00    8.00    --   30.00  54.00 240.00  101
;
_diffrn_measurement_device       'abstract diffractometer'
_diffrn_measurement_device_type
'dtrek-CrysAlisPro-abstract goniometer imported rigaku-d*trek images'
_diffrn_measurement_method       '\w scans'
_diffrn_orient_matrix_type
'CrysAlisPro convention (1999,Acta A55,543-557)'
_diffrn_orient_matrix_UB_11      0.0189173000
_diffrn_orient_matrix_UB_12      -0.0576452000
_diffrn_orient_matrix_UB_13      0.0458235000
_diffrn_orient_matrix_UB_21      0.0295186000
_diffrn_orient_matrix_UB_22      0.0506177000
_diffrn_orient_matrix_UB_23      0.0295032000
_diffrn_orient_matrix_UB_31      -0.0897348000
_diffrn_orient_matrix_UB_32      0.0339207000
_diffrn_orient_matrix_UB_33      0.0455357000
_diffrn_radiation_monochromator  graphite
_diffrn_radiation_probe          x-ray
_diffrn_radiation_type           MoK\a
_diffrn_radiation_wavelength     0.71073
_diffrn_reflns_av_R_equivalents  0.0227
_diffrn_reflns_av_unetI/netI     0.0522
_diffrn_reflns_Laue_measured_fraction_full 0.999
_diffrn_reflns_Laue_measured_fraction_max 0.999
_diffrn_reflns_limit_h_max       9
_diffrn_reflns_limit_h_min       -9
_diffrn_reflns_limit_k_max       6
_diffrn_reflns_limit_k_min       -10
_diffrn_reflns_limit_l_max       12
_diffrn_reflns_limit_l_min       -12
_diffrn_reflns_number            3371
_diffrn_reflns_point_group_measured_fraction_full 0.999
_diffrn_reflns_point_group_measured_fraction_max 0.999
_diffrn_reflns_theta_full        25.010
_diffrn_reflns_theta_max         25.010
_diffrn_reflns_theta_min         2.039
_diffrn_source                   'fine-focus sealed X-ray tube'
_diffrn_source_type              'Enhance (Mo) X-ray Source'
_exptl_absorpt_coefficient_mu    0.237
_exptl_absorpt_correction_T_max  1.00000
_exptl_absorpt_correction_T_min  0.84063
_exptl_absorpt_correction_type   multi-scan
_exptl_absorpt_process_details
;
CrysAlisPro 1.171.39.7e (Rigaku Oxford Diffraction, 2015)
Empirical absorption correction using spherical harmonics,
 implemented in SCALE3 ABSPACK scaling algorithm.
;
_exptl_crystal_density_diffrn    1.403
_exptl_crystal_description       block
_exptl_crystal_F_000             308
_refine_diff_density_max         0.247
_refine_diff_density_min         -0.253
_refine_diff_density_rms         0.062
_refine_ls_extinction_method     none
_refine_ls_goodness_of_fit_ref   0.966
_refine_ls_hydrogen_treatment    constr
_refine_ls_matrix_type           full
_refine_ls_number_parameters     192
_refine_ls_number_reflns         2472
_refine_ls_number_restraints     0
_refine_ls_restrained_S_all      0.966
_refine_ls_R_factor_all          0.0685
_refine_ls_R_factor_gt           0.0452
_refine_ls_shift/su_max          0.006
_refine_ls_shift/su_mean         0.000
_refine_ls_structure_factor_coef Fsqd
_refine_ls_weighting_details
'w=1/[\s^2^(Fo^2^)+(0.1000P)^2^] where P=(Fo^2^+2Fc^2^)/3'
_refine_ls_weighting_scheme      calc
_refine_ls_wR_factor_gt          0.1231
_refine_ls_wR_factor_ref         0.1570
_reflns_Friedel_coverage         0.000
_reflns_number_gt                1871
_reflns_number_total             2472
_reflns_threshold_expression     'I > 2\s(I)'
_cod_data_source_file            c8ob00402a2.cif
_cod_data_source_block           4
_cod_depositor_comments
'Adding full bibliography for 7156214--7156215.cif.'
_cod_database_code               7156214
_shelx_shelxl_version_number     2017/1
_shelx_space_group_comment
;
The symmetry employed for this shelxl refinement is uniquely defined
by the following loop, which should always be used as a source of
symmetry information in preference to the above space-group names.
They are only intended as comments.
;
_reflns_odcompleteness_completeness 82.11
_reflns_odcompleteness_iscentric 1
_reflns_odcompleteness_theta     32.94
_olex2_refinement_description
;
1. Fixed Uiso
 At 1.2 times of:
  All C(H) groups
 At 1.5 times of:
  All C(H,H,H) groups, All O(H) groups
2.a Aromatic/amide H refined with riding coordinates:
 C16(H16), C6(H6), C2(H2A), C14(H14), C13(H13), C5(H5), C3(H3), C4(H4)
2.b Idealised Me refined as rotating group:
 C17(H17A,H17B,H17C)
2.c Idealised tetrahedral OH refined as rotating group:
 O2(H2)
;
_shelx_res_file
;
TITL 4_a.res in P-1
    4.res
    created by SHELXL-2017/1 at 19:41:22 on 12-Dec-2017
REM Old TITL 4_a.res in P-1
REM SHELXT solution in P-1
REM R1 0.158, Rweak 0.007, Alpha 0.041, Orientation as input
REM Formula found by SHELXT: C17 O3 S
CELL 0.71073 8.2863 8.959 10.6474 87.057 70.068 71.08
ZERR 2 0.001 0.0011 0.0012 0.01 0.011 0.011
LATT 1
SFAC C H O S
UNIT 34 24 6 2

L.S. 10
PLAN  20
BOND $H
list 4
fmap 2
acta 52
OMIT -3 50.02
REM <olex2.extras>
REM <HklSrc "%.\\4.hkl">
REM </olex2.extras>

WGHT    0.100000
FVAR       0.71642
S1    4    0.493130    0.216519    0.535913    11.00000    0.03917    0.03750 =
         0.02707   -0.00258   -0.00068   -0.00621
O2    3    0.213600    0.281051    0.924817    11.00000    0.04412    0.04133 =
         0.02458    0.00143   -0.00497    0.00230
AFIX 147
H2    2    0.130446    0.358301    0.967968    11.00000   -1.50000
AFIX   0
O3    3    0.017405    0.541333    0.846902    11.00000    0.04523    0.04191 =
         0.02465   -0.00276   -0.00219    0.00204
O1    3    0.680133    0.018364    0.715612    11.00000    0.03290    0.06815 =
         0.07985    0.02469   -0.01045   -0.01029
C9    1    0.261126    0.307474    0.792841    11.00000    0.03443    0.03541 =
         0.02286   -0.00107   -0.00620   -0.01307
C11   1    0.193475    0.492103    0.615903    11.00000    0.03273    0.03372 =
         0.02740   -0.00090   -0.00713   -0.01309
C1    1    0.425072   -0.060002    0.829959    11.00000    0.03538    0.03064 =
         0.02906   -0.00400   -0.00839   -0.00649
C10   1    0.149766    0.454309    0.756009    11.00000    0.03400    0.03025 =
         0.02521   -0.00276   -0.00631   -0.01059
C8    1    0.407029    0.197759    0.705328    11.00000    0.03221    0.03496 =
         0.02800    0.00138   -0.00731   -0.01289
C15   1    0.110779    0.673757    0.451879    11.00000    0.04231    0.03973 =
         0.03556    0.00732   -0.01569   -0.02144
C7    1    0.516888    0.048272    0.750951    11.00000    0.03323    0.03974 =
         0.03193   -0.00029   -0.00773   -0.00610
C12   1    0.343415    0.393852    0.512409    11.00000    0.03553    0.03399 =
         0.02617   -0.00172   -0.00426   -0.01400
C16   1    0.080550    0.631536    0.581810    11.00000    0.03849    0.03401 =
         0.03053    0.00017   -0.00784   -0.01348
AFIX  43
H16   2   -0.017885    0.697220    0.649738    11.00000   -1.20000
AFIX   0
C6    1    0.512719   -0.169409    0.903389    11.00000    0.04343    0.04442 =
         0.03629    0.00450   -0.01618   -0.01180
AFIX  43
H6    2    0.625453   -0.171409    0.903801    11.00000   -1.20000
AFIX   0
C2    1    0.257194   -0.060482    0.829486    11.00000    0.03977    0.03728 =
         0.04554    0.00332   -0.01469   -0.00618
AFIX  43
H2A   2    0.196615    0.012866    0.781966    11.00000   -1.20000
AFIX   0
C14   1    0.263108    0.572996    0.351596    11.00000    0.05696    0.04730 =
         0.02585    0.00566   -0.01148   -0.02216
AFIX  43
H14   2    0.287144    0.599591    0.263053    11.00000   -1.20000
AFIX   0
C13   1    0.376793    0.437232    0.380396    11.00000    0.04996    0.04445 =
         0.02357   -0.00085   -0.00240   -0.01601
AFIX  43
H13   2    0.476469    0.373763    0.311881    11.00000   -1.20000
AFIX   0
C17   1   -0.010755    0.820962    0.414804    11.00000    0.05226    0.04674 =
         0.05212    0.01526   -0.02527   -0.02309
AFIX 137
H17A  2   -0.116961    0.867035    0.491572    11.00000   -1.50000
H17B  2   -0.046256    0.794352    0.344285    11.00000   -1.50000
H17C  2    0.053439    0.895385    0.384910    11.00000   -1.50000
AFIX   0
C5    1    0.432925   -0.274070    0.975003    11.00000    0.06983    0.04711 =
         0.04237    0.01145   -0.02371   -0.01920
AFIX  43
H5    2    0.490510   -0.344423    1.025904    11.00000   -1.20000
AFIX   0
C3    1    0.180307   -0.168751    0.898855    11.00000    0.04290    0.05182 =
         0.06236    0.00372   -0.01368   -0.01897
AFIX  43
H3    2    0.069580   -0.169947    0.896468    11.00000   -1.20000
AFIX   0
C4    1    0.268718   -0.276262    0.972465    11.00000    0.06387    0.04839 =
         0.04447    0.00937   -0.00702   -0.02568
AFIX  43
H4    2    0.217128   -0.349280    1.019743    11.00000   -1.20000
AFIX   0
HKLF 4




REM  4_a.res in P-1
REM R1 =  0.0452 for    1871 Fo > 4sig(Fo)  and  0.0685 for all    2472 data
REM    192 parameters refined using      0 restraints

END

WGHT      0.0677      0.0000

REM Highest difference peak  0.247,  deepest hole -0.253,  1-sigma level  0.062
Q1    1  -0.0417  0.9435  0.4977  11.00000  0.05    0.25
Q2    1   0.4374  0.0168  0.8395  11.00000  0.05    0.22
Q3    1   0.3713 -0.0550  0.8378  11.00000  0.05    0.21
Q4    1   0.4376 -0.0855  0.8852  11.00000  0.05    0.20
Q5    1   0.0846  0.8463  0.3139  11.00000  0.05    0.20
Q6    1   0.5038 -0.1322  0.8269  11.00000  0.05    0.20
Q7    1   0.1330  0.1168  0.8435  11.00000  0.05    0.18
Q8    1   0.5899 -0.0382  0.5874  11.00000  0.05    0.18
Q9    1   0.6436  0.0905  0.7690  11.00000  0.05    0.18
Q10   1   0.2528  0.4389  0.5718  11.00000  0.05    0.17
Q11   1   0.4370 -0.1745  0.9757  11.00000  0.05    0.17
Q12   1   0.4111 -0.1578  1.0820  11.00000  0.05    0.17
Q13   1  -0.1113  0.8000  0.4113  11.00000  0.05    0.17
Q14   1   0.5736 -0.1802  0.8799  11.00000  0.05    0.16
Q15   1   0.3446 -0.0646  1.0238  11.00000  0.05    0.16
Q16   1   0.4731  0.0846  0.4507  11.00000  0.05    0.16
Q17   1   0.8643 -0.0533  0.7768  11.00000  0.05    0.16
Q18   1   0.6448 -0.1415  1.0389  11.00000  0.05    0.15
Q19   1   0.2609  0.0255  1.0277  11.00000  0.05    0.15
Q20   1   0.1705  0.9253  0.2640  11.00000  0.05    0.15
;
_shelx_res_checksum              14900
_shelx_hkl_file
;
   0   0   1    0.27    0.23
   0   0  -1  195.69    2.87
   0   0   2  228.03    5.33
   0   0   3  202.91    6.23
   0   0   4   18.70    2.26
   0   0   5    3.12    1.14
   0   0   6    7.66    1.90
   0   0  -7    1.16    1.52
   0   0   7    0.20    1.20
   0   0  -8   -0.59    1.63
   0   0   8    0.03    1.39
   0   0   9    8.36    2.89
   0   0  -9    7.19    1.85
   0   0  10   11.98    3.35
   0   0 -10   14.88    3.39
   0   0  11   37.06    5.43
   0   0 -11   36.44    5.02
   0   0  12    3.42    2.62
   0   0 -12   -2.31    2.45
   0   0 -13   41.72    6.27
   0   0 -14   14.18    4.34
   0   1 -14    2.16    2.80
   0  -1  14    2.22    3.02
   0   1 -13    1.30    1.87
   0  -1  13    1.45    2.25
   0  -1  12   21.73    4.55
   0   1 -12   29.35    4.88
   0   1 -11    3.75    2.30
   0  -1  11    0.67    1.72
   0   1 -10   92.64    7.11
   0  -1  10   93.41    8.42
   0  -1   9    5.63    2.47
   0  -1   8   53.00    5.48
   0  -1   7    8.69    1.98
   0  -1   6  100.20    6.12
   0  -1   5 1253.37   19.68
   0  -1   4  614.23   12.15
   0  -1   4  617.95    9.33
   0  -1   3   35.43    2.54
   0  -1   3   35.18    1.96
   0  -1   2  147.79    4.24
   0  -1   2  145.23    3.10
   0   1  -1    9.23    0.66
   0  -1   1    7.95    0.60
   0  -1   0   -1.02    0.44
   0  -1  -1 1097.66    8.85
   0  -1  -2 2056.34   15.03
   0   1   3  118.31    5.18
   0  -1  -3  114.06    4.24
   0   1   4    4.40    1.32
   0  -1  -4    6.04    1.36
   0   1   5   94.56    5.91
   0  -1  -5   95.38    4.99
   0   1   6  221.70    9.78
   0  -1  -6  224.85    8.29
   0   1   7  230.74   10.96
   0  -1  -7  237.04    9.32
   0  -1  -8  443.63   13.46
   0   1   8  437.29   16.19
   0   1   9   18.69    3.88
   0  -1  -9   22.37    3.49
   0  -1 -10   40.45    4.94
   0  -1 -11   31.14    4.69
   0  -1 -12    8.21    2.93
   0  -1 -13    7.69    2.73
   0  -1 -14   12.80    4.49
   0  -2  14   -2.32    2.76
   0   2 -14    5.08    3.06
   0   2 -13    0.83    2.15
   0  -2  13   -1.65    2.49
   0   2 -12   71.15    6.94
   0  -2  12   58.63    7.44
   0  -2  11   25.65    4.65
   0   2 -11   28.95    4.50
   0  -2  10   16.31    3.40
   0  -2   9  133.13    8.96
   0  -2   8    4.55    2.03
   0  -2   7    5.75    1.76
   0  -2   6   79.84    4.11
   0  -2   6   78.28    5.38
   0  -2   5   45.79    3.75
   0  -2   5   51.49    2.99
   0  -2   4   89.71    4.79
   0  -2   4   89.19    3.52
   0  -2   3    0.67    0.53
   0  -2   3    0.46    0.55
   0  -2   2  469.91    6.16
   0  -2   2  471.43    7.90
   0  -2   1    2.60    0.85
   0  -2   1    2.69    0.63
   0  -2   0  130.86    3.76
   0  -2  -1  118.37    3.73
   0  -2  -2 5882.43   29.24
   0  -2  -3    1.39    0.72
   0  -2  -4  346.64    8.78
   0  -2  -5  214.58    7.73
   0  -2  -6   -1.76    1.75
   0  -2  -7    8.68    2.14
   0  -2  -8  386.16   13.09
   0  -2  -9   56.89    5.34
   0  -2 -10    1.02    1.95
   0  -2 -11    2.94    2.65
   0  -2 -12   13.62    3.69
   0  -2 -13   -2.76    2.72
   0  -2 -14    0.26    3.09
   0  -3  14   13.19    4.74
   0   3 -14   19.85    4.82
   0  -3  13   31.18    6.12
   0   3 -13   35.79    5.48
   0  -3  12   -0.77    2.03
   0  -3  11    0.18    1.86
   0  -3  10   69.12    7.14
   0  -3   9   32.67    4.49
   0  -3   8   52.32    5.31
   0  -3   7   56.12    3.64
   0  -3   7   52.12    4.94
   0  -3   6   51.14    4.49
   0  -3   6   55.93    3.46
   0  -3   5    6.62    1.23
   0  -3   5    8.58    1.87
   0  -3   4    4.49    0.95
   0  -3   4    3.97    1.08
   0  -3   3  503.71   10.30
   0  -3   3  489.15    7.97
   0  -3   2    1.35    0.72
   0  -3   2    0.81    0.54
   0  -3   1  402.93    7.92
   0  -3   0   24.10    2.01
   0  -3  -1    2.21    0.84
   0  -3  -2  131.53    5.06
   0  -3  -3  196.96    6.57
   0  -3  -4 1117.26   17.23
   0  -3  -5   85.22    5.20
   0  -3  -6  106.88    6.26
   0  -3  -7   91.58    6.33
   0  -3  -8   13.42    2.60
   0  -3  -9   11.78    2.80
   0  -3 -10   64.23    6.31
   0  -3 -11   22.31    4.06
   0  -3 -12   32.17    5.37
   0  -3 -13    7.25    3.27
   0  -3 -14   -6.24    3.88
   0  -4  13   56.71    7.84
   0  -4  12   13.25    3.65
   0  -4  11   15.80    3.73
   0  -4  10   15.80    3.54
   0  -4   9   10.61    2.76
   0  -4   8    2.20    0.99
   0  -4   8    2.69    1.42
   0  -4   7  181.19    6.71
   0  -4   7  175.12    8.98
   0  -4   6    1.98    1.00
   0  -4   6    1.50    0.92
   0  -4   5    5.12    1.26
   0  -4   5    2.60    1.17
   0  -4   4    0.68    0.69
   0  -4   4    0.27    0.74
   0  -4   3    2.96    0.99
   0  -4   3    1.93    0.69
   0  -4   2  394.10    8.26
   0  -4   2  400.54    9.23
   0  -4   1   26.04    2.34
   0  -4   0  344.84    8.65
   0  -4  -1   27.81    2.63
   0  -4  -2  198.13    6.87
   0  -4  -3   18.45    2.55
   0  -4  -4  171.40    7.26
   0  -4  -5    7.06    2.33
   0  -4  -6   20.77    3.04
   0  -4  -7  107.38    7.18
   0  -4  -8    1.34    1.93
   0  -4  -9   35.56    4.85
   0  -4 -10    7.56    2.19
   0  -4 -11    0.46    2.00
   0  -4 -12    8.23    3.33
   0  -4 -13    5.24    2.79
   0  -4 -14   -1.73    2.70
   0  -5  13   -0.16    2.64
   0  -5  12   -1.70    2.82
   0  -5  11    5.52    2.33
   0  -5  10    3.19    2.11
   0  -5   9   -0.82    1.63
   0  -5   8  121.38    8.22
   0  -5   7  135.38    6.04
   0  -5   7  139.02    8.37
   0  -5   6   30.61    3.72
   0  -5   6   25.91    2.57
   0  -5   5  533.25   13.95
   0  -5   5  516.05   10.84
   0  -5   4   13.18    1.88
   0  -5   4   15.18    2.31
   0  -5   3    4.06    1.33
   0  -5   3    2.05    0.75
   0  -5   2   83.33    4.78
   0  -5   2   87.05    4.45
   0  -5   1  556.20   12.07
   0  -5   0  101.30    5.27
   0  -5  -1  292.55    9.20
   0  -5  -2    4.39    1.55
   0  -5  -3   17.80    2.53
   0  -5  -4  132.06    6.94
   0  -5  -5    1.08    1.63
   0  -5  -6   17.31    3.45
   0  -5  -7   14.63    3.19
   0  -5  -8   73.47    6.74
   0  -5  -9    3.53    2.38
   0  -5 -10    4.17    2.31
   0  -5 -11   -1.69    2.32
   0  -5 -12    3.72    2.62
   0  -5 -13    3.64    2.70
   0  -6  12   -1.55    1.97
   0  -6  11   34.36    5.55
   0  -6  10   42.06    5.89
   0  -6   9   41.66    5.44
   0  -6   8    5.58    1.94
   0  -6   7   10.82    2.70
   0  -6   6    1.00    1.08
   0  -6   6   -0.89    0.95
   0  -6   5   56.13    3.85
   0  -6   5   58.68    4.86
   0  -6   4    8.05    1.60
   0  -6   4    8.60    1.87
   0  -6   3   -1.28    1.01
   0  -6   3   -0.39    0.77
   0  -6   2   18.14    2.48
   0  -6   2   14.96    2.25
   0  -6   1    2.34    1.17
   0  -6   0    1.68    1.15
   0  -6  -1    0.35    1.48
   0  -6  -2   80.77    5.54
   0  -6  -3   15.48    2.92
   0  -6  -4   35.15    4.16
   0  -6  -5   18.40    3.30
   0  -6  -6  232.61   10.91
   0  -6  -7   66.55    6.44
   0  -6  -8    2.87    2.69
   0  -6  -9   90.80    7.90
   0  -6 -10   -1.43    3.03
   0  -6 -11   11.26    4.78
   0  -6 -12    4.26    2.86
   0  -6 -13    2.65    3.58
   0  -7  11    3.73    2.82
   0  -7  10    4.20    2.34
   0  -7   9    0.91    1.63
   0  -7   8   -0.97    1.57
   0  -7   7   10.15    2.78
   0  -7   6   10.04    2.46
   0  -7   5   65.48    4.53
   0  -7   5   72.51    5.86
   0  -7   4    2.74    1.20
   0  -7   4    5.49    1.58
   0  -7   3  209.22    9.06
   0  -7   3  215.95    8.44
   0  -7   2   35.42    3.80
   0  -7   2   30.47    3.47
   0  -7   1   86.75    5.89
   0  -7   0   11.97    2.78
   0  -7  -1  230.76    9.86
   0  -7  -2  122.17    7.44
   0  -7  -3   14.17    2.75
   0  -7  -4    8.38    2.41
   0  -7  -5   42.53    5.14
   0  -7  -6   -2.15    1.88
   0  -7  -7   44.42    5.26
   0  -7  -8   13.24    4.04
   0  -7  -9   -3.07    3.44
   0  -7 -10   20.58    5.05
   0  -7 -11    9.71    4.21
   0  -7 -12    4.04    3.17
   0  -8  10    2.89    2.35
   0  -8   9   10.96    3.51
   0  -8   8   -0.35    1.67
   0  -8   7   22.53    4.11
   0  -8   6   11.85    2.46
   0  -8   5   18.21    2.69
   0  -8   5   23.94    3.56
   0  -8   4   -0.51    1.29
   0  -8   4    1.81    1.61
   0  -8   3   71.86    5.82
   0  -8   3   65.96    5.25
   0  -8   2    6.37    1.97
   0  -8   2    3.61    1.61
   0  -8   1    1.86    1.23
   0  -8   1    3.44    1.88
   0  -8   0   83.73    6.28
   0  -8  -1    2.45    1.35
   0  -8  -2   66.64    5.84
   0  -8  -3    0.87    2.10
   0  -8  -4    8.09    3.08
   0  -8  -5   31.80    4.61
   0  -8  -6    4.67    2.38
   0  -8  -7   13.48    3.81
   0  -8  -8   22.38    5.06
   0  -8  -9   12.71    3.80
   0  -8 -10    6.53    2.74
   0  -8 -11   20.69    5.35
   0  -9   8    1.97    2.36
   0  -9   7   15.94    3.22
   0  -9   6   -1.57    1.69
   0  -9   5    0.36    1.21
   0  -9   4    1.17    1.49
   0  -9   4   -0.68    1.32
   0  -9   3   -0.53    1.29
   0  -9   3    0.57    1.54
   0  -9   2    2.69    1.48
   0  -9   2    3.61    2.06
   0  -9   1   37.99    4.62
   0  -9   1   35.82    4.20
   0  -9   0    0.96    1.89
   0  -9  -1   89.97    7.22
   0  -9  -2    2.12    1.59
   0  -9  -3   14.76    3.26
   0  -9  -4   25.55    4.35
   0  -9  -5    4.71    2.80
   0  -9  -6    9.40    2.98
   0  -9  -7   -4.28    3.37
   0  -9  -8    4.83    3.54
   0  -9  -9   19.66    5.27
   0  -9 -10   10.81    4.59
   0 -10   6   16.37    3.80
   0 -10   5   13.11    3.01
   0 -10   4   19.05    3.68
   0 -10   3    4.77    2.42
   0 -10   3    1.37    2.20
   0 -10   2    6.82    1.93
   0 -10   2    7.63    2.64
   0 -10   1   43.94    5.26
   0 -10   1   48.41    5.39
   0 -10   0    0.93    2.02
   0 -10   0    2.63    2.15
   0 -10  -1    1.94    1.72
   0 -10  -2   22.45    4.36
   0 -10  -3   12.76    3.14
   0 -10  -4   -3.26    2.97
   0 -10  -5   -3.59    2.98
   0 -10  -6    9.67    4.01
   0 -10  -7    6.52    3.23
   0 -10  -8    2.37    3.01
   0 -11   3    2.90    2.22
   0 -11   2    0.04    1.88
   0 -11   1   -0.77    2.10
   0 -11   1    2.09    2.42
   0 -11   0   -0.39    1.88
   0 -11   0   -0.13    1.89
   0 -11  -1   44.52    5.81
   0 -11  -1   39.49    5.96
   0 -11  -2   -0.93    2.37
   0 -11  -3    8.17    2.98
   0 -11  -4   11.45    3.99
   0 -11  -5   -0.78    3.02
   0 -11  -6    6.96    3.04
   1 -11  -2   -1.84    2.81
   1 -11  -1   17.93    4.42
   1 -11   0   33.11    5.55
   1 -11   1    2.41    2.61
   1 -10  -6   -3.80    3.63
   1 -10  -5   -0.41    2.75
   1 -10  -4    0.41    2.18
   1 -10  -3    6.78    3.11
   1 -10  -2   -1.08    2.37
   1 -10  -1    7.23    3.00
   1 -10  -1    5.35    2.80
   1 -10   0    1.42    1.83
   1 -10   0    3.83    2.42
   1 -10   1   27.19    4.14
   1 -10   1   24.99    4.53
   1 -10   2   11.31    2.92
   1 -10   2    7.48    2.82
   1 -10   3    6.00    2.56
   1 -10   3    7.82    2.28
   1 -10   4    5.23    2.15
   1  -9  -8   -0.07    2.72
   1  -9  -7    4.62    2.87
   1  -9  -6   -3.45    3.35
   1  -9  -5   -3.98    2.90
   1  -9  -4    0.20    2.63
   1  -9  -3   10.58    3.13
   1  -9  -2   19.15    3.49
   1  -9  -1   60.05    6.08
   1  -9   0    0.64    1.68
   1  -9   0    4.59    1.89
   1  -9   1   15.03    3.02
   1  -9   1   14.77    2.82
   1  -9   2    8.81    2.44
   1  -9   2   12.67    2.93
   1  -9   3    7.33    2.15
   1  -9   3    7.23    2.36
   1  -9   4    4.70    2.25
   1  -9   4    5.90    1.71
   1  -9   5   -0.51    1.53
   1  -9   5   -0.37    1.65
   1  -9   6    2.91    1.97
   1  -8 -10   -6.38    4.44
   1  -8  -9   -1.22    2.59
   1  -8  -8   10.45    3.52
   1  -8  -7   31.05    5.57
   1  -8  -6   33.55    5.31
   1  -8  -5    7.19    3.25
   1  -8  -4   31.80    4.71
   1  -8  -3   -0.57    2.04
   1  -8  -2   32.02    4.30
   1  -8  -1    9.68    2.87
   1  -8   0    0.32    1.30
   1  -8   1   25.76    3.46
   1  -8   1   26.90    4.03
   1  -8   2   21.33    3.14
   1  -8   2   19.00    3.26
   1  -8   3   15.54    2.70
   1  -8   3   18.49    3.17
   1  -8   4    0.90    1.05
   1  -8   4    3.84    1.74
   1  -8   5    5.13    1.42
   1  -8   5   10.81    2.40
   1  -8   6   10.35    2.59
   1  -8   6   13.02    2.44
   1  -8   7   67.52    6.30
   1  -8   8    3.65    2.30
   1  -7 -11   21.61    5.72
   1  -7 -10   25.68    5.68
   1  -7  -9   -0.23    2.61
   1  -7  -8    4.78    2.90
   1  -7  -7    0.18    1.87
   1  -7  -6   -2.14    2.04
   1  -7  -5   13.34    2.72
   1  -7  -4   -3.74    2.70
   1  -7  -3    1.38    1.92
   1  -7  -2   99.81    6.84
   1  -7  -1   -1.36    1.69
   1  -7   0   27.23    3.52
   1  -7   1   30.43    3.89
   1  -7   1   36.03    3.72
   1  -7   2   60.81    4.72
   1  -7   2   68.90    5.33
   1  -7   3   71.55    5.41
   1  -7   3   67.30    5.01
   1  -7   4  114.95    6.66
   1  -7   4  117.13    6.65
   1  -7   5    9.58    2.18
   1  -7   5    7.03    1.95
   1  -7   6    4.20    1.90
   1  -7   6    1.27    1.75
   1  -7   7   -3.13    2.01
   1  -7   7   -0.28    1.35
   1  -7   8    0.82    1.47
   1  -7   9    8.68    2.79
   1  -7  10    1.39    2.06
   1  -6 -12   -2.85    3.53
   1  -6 -11    9.09    3.27
   1  -6 -10    3.98    2.29
   1  -6  -9   10.73    3.93
   1  -6  -8   50.52    6.09
   1  -6  -7   12.16    3.25
   1  -6  -6   48.90    5.27
   1  -6  -5   75.53    6.28
   1  -6  -4   16.71    3.11
   1  -6  -3   21.61    3.40
   1  -6  -2  518.33   13.94
   1  -6  -1  213.31    8.69
   1  -6   0    4.32    1.70
   1  -6   1   10.42    2.45
   1  -6   1    9.85    1.89
   1  -6   2    2.22    1.37
   1  -6   2    2.90    2.12
   1  -6   3   13.10    2.60
   1  -6   3   13.42    2.11
   1  -6   4    2.39    1.06
   1  -6   4    1.79    1.29
   1  -6   5  111.58    6.23
   1  -6   5  118.87    6.58
   1  -6   6   21.16    2.77
   1  -6   6   32.29    3.83
   1  -6   7    2.85    1.42
   1  -6   7    0.29    1.18
   1  -6   8   20.32    3.11
   1  -6   8   24.09    3.64
   1  -6   9   26.99    4.28
   1  -6  10   11.13    3.33
   1  -6  11   12.73    3.31
   1  -5 -13    3.62    3.23
   1  -5 -12   16.63    4.76
   1  -5 -11    9.17    3.90
   1  -5 -10    2.27    2.36
   1  -5  -9   12.50    3.68
   1  -5  -8   24.28    4.30
   1  -5  -7   17.24    3.05
   1  -5  -6   23.18    3.84
   1  -5  -5    8.49    2.47
   1  -5  -4    5.72    2.29
   1  -5  -3   44.75    4.10
   1  -5  -2    4.66    2.15
   1  -5  -1  146.19    6.53
   1  -5   0  198.11    7.33
   1  -5   1    2.34    0.98
   1  -5   1    5.93    1.47
   1  -5   2    5.65    1.41
   1  -5   2    2.62    1.52
   1  -5   3   52.24    3.94
   1  -5   3   46.25    3.47
   1  -5   4  206.18    7.59
   1  -5   4  204.79    7.44
   1  -5   5  147.63    6.98
   1  -5   5  137.92    6.33
   1  -5   6  742.79   15.12
   1  -5   6  749.96   17.06
   1  -5   7    2.53    0.94
   1  -5   7    4.97    1.65
   1  -5   8    7.60    1.89
   1  -5   8   15.30    3.03
   1  -5   9   12.63    2.67
   1  -5  10    2.38    1.53
   1  -5  11   33.04    5.01
   1  -5  12    4.09    2.61
   1  -4 -13    1.44    3.65
   1  -4 -12   -4.10    3.23
   1  -4 -11    0.10    2.29
   1  -4 -10   -0.80    1.87
   1  -4  -9    8.16    2.73
   1  -4  -8   -1.77    1.82
   1  -4  -7   30.35    4.12
   1  -4  -6  237.17   10.41
   1  -4  -5    6.09    2.55
   1  -4  -4  446.44   12.38
   1  -4  -3   13.63    2.34
   1  -4  -2   13.86    2.17
   1  -4  -1  212.58    6.98
   1  -4   0  352.00    8.63
   1  -4   1  316.06    7.96
   1  -4   1  312.22    8.80
   1  -4   2  119.03    5.31
   1  -4   2  115.58    4.72
   1  -4   3    0.47    0.63
   1  -4   3    0.49    0.87
   1  -4   4   23.41    2.46
   1  -4   4   22.58    2.39
   1  -4   5    9.65    1.79
   1  -4   5   11.23    1.88
   1  -4   6  273.36    9.94
   1  -4   6  268.93    8.76
   1  -4   7  776.78   15.58
   1  -4   7  769.67   17.86
   1  -4   8    3.96    1.11
   1  -4   8    2.42    1.44
   1  -4   9    3.08    1.72
   1  -4   9    2.39    1.29
   1  -4  10   44.41    5.41
   1  -4  11   13.12    3.67
   1  -4  12   12.18    3.39
   1  -4  13   -1.58    2.50
  -1   4 -13    0.71    2.06
   1  -3 -14   -2.98    3.91
   1  -3 -13    5.45    2.43
   1  -3 -12   36.48    5.61
   1  -3 -11   28.64    4.48
   1  -3 -10   20.60    4.22
   1  -3  -9   66.08    6.36
   1  -3  -8   10.10    2.92
   1  -3  -7    0.61    1.86
   1  -3  -6  193.48    8.86
   1  -3  -5    2.37    1.25
   1  -3  -4   45.66    3.79
   1  -3  -3    0.57    0.91
   1  -3  -2   28.36    2.57
   1  -3  -1  110.48    4.39
   1  -3   0  113.80    4.24
   1  -3   1  522.86    8.71
   1  -3   1  533.07   10.07
   1  -3   2 2063.08   19.56
   1  -3   2 2046.56   17.10
   1  -3   3    9.65    1.34
   1  -3   3    7.91    1.24
   1  -3   4  194.99    6.28
   1  -3   4  190.69    6.50
   1  -3   5   81.71    4.81
   1  -3   5   72.99    4.14
   1  -3   6  169.00    6.67
   1  -3   6  162.27    7.35
   1  -3   7    5.10    1.47
   1  -3   7    5.38    1.75
   1  -3   8   63.35    4.72
   1  -3   8   56.93    5.06
   1  -3   9    1.27    1.39
   1  -3   9    2.78    1.58
   1  -3  10   60.25    6.31
   1  -3  11    4.59    2.20
   1  -3  12   24.71    4.98
  -1   3 -12   16.87    3.49
  -1   3 -13    7.33    2.56
   1  -3  13    6.82    3.17
   1  -3  14   32.20    6.40
   1  -2 -14   10.44    3.89
   1  -2 -13    8.47    3.81
   1  -2 -12    9.78    2.95
   1  -2 -11    2.47    2.49
   1  -2 -10    8.59    2.61
   1  -2  -9    4.73    2.45
   1  -2  -8   -1.19    1.87
   1  -2  -7   52.75    4.98
   1  -2  -6  119.19    6.71
   1  -2  -5   49.67    4.10
   1  -2  -4  280.12    8.52
   1  -2  -3  160.78    5.87
   1  -2  -2  781.59   11.41
   1  -2  -1    6.70    1.05
   1  -2   0    4.33    0.89
   1  -2   1  380.96    7.38
   1  -2   1  376.20    5.83
   1  -2   2  120.04    3.39
   1  -2   2  120.66    4.10
   1  -2   3   89.58    3.74
   1  -2   3   93.77    3.64
   1  -2   4   53.63    3.28
   1  -2   4   59.74    3.35
   1  -2   5    0.68    0.64
   1  -2   5    2.05    0.79
   1  -2   6   13.71    2.10
   1  -2   6   10.58    1.76
   1  -2   7   82.79    5.65
   1  -2   7   88.33    5.16
   1  -2   8   28.37    3.17
   1  -2   8   26.90    3.66
   1  -2   9  205.12    8.98
   1  -2   9  198.21   10.41
   1  -2  10   73.45    6.79
  -1   2 -11    8.57    2.36
   1  -2  11   10.66    3.17
   1  -2  12   59.49    7.26
  -1   2 -12   61.99    6.28
  -1   2 -13    9.33    2.71
   1  -2  13    7.76    3.74
   1  -2  14    2.71    2.91
  -1   2 -14    4.41    2.48
   1  -1 -14    7.39    4.09
   1  -1 -13   -3.73    3.80
   1  -1 -12    0.71    2.43
   1  -1 -11   10.89    3.64
  -1   1  10  165.94   11.92
   1  -1 -10  181.33   10.50
  -1   1   9   42.58    5.84
   1  -1  -9   41.22    4.73
  -1   1   8   36.04    5.18
   1  -1  -8   33.33    4.25
  -1   1   7  674.04   19.71
   1  -1  -7  669.13   16.58
  -1   1   6   83.90    6.40
   1  -1  -6   72.66    5.09
  -1   1   5    0.15    1.19
   1  -1  -5    1.42    1.34
  -1   1   4  172.44    7.67
   1  -1  -4  173.46    6.54
   1  -1  -3   26.96    2.28
  -1   1   3   31.59    2.98
   1  -1  -2  138.81    4.50
  -1   1   2  141.46    5.44
   1  -1  -1  122.32    3.45
   1  -1   0 1081.80    7.86
   1  -1   1  151.41    2.38
   1  -1   1  144.08    3.78
  -1   1  -1  147.55    2.43
   1  -1   2   12.64    1.02
   1  -1   2   15.45    1.58
   1  -1   3  100.55    3.80
   1  -1   3   99.44    3.59
   1  -1   4  189.91    6.09
   1  -1   4  195.16    5.88
   1  -1   5  168.63    6.13
   1  -1   5  175.69    6.75
   1  -1   6  306.77   10.04
   1  -1   6  318.36    9.08
   1  -1   7    6.84    1.69
   1  -1   7    8.23    1.57
   1  -1   8   82.65    6.33
  -1   1  -9   19.96    3.23
   1  -1   9   23.94    3.74
  -1   1 -10    3.51    1.99
   1  -1  10    4.15    2.45
  -1   1 -11   -2.24    1.99
   1  -1  11    1.82    2.09
  -1   1 -12   12.10    2.81
   1  -1  12   18.64    4.48
  -1   1 -13    4.16    2.81
   1  -1  13    4.90    2.80
  -1   1 -14   10.96    4.00
   1   0 -14   16.68    3.97
   1   0 -13   27.39    5.08
   1   0 -12   73.09    7.48
  -1   0  12   57.12    7.96
   1   0 -11   68.47    6.98
  -1   0  11   60.76    7.79
  -1   0  10   -0.81    1.68
   1   0 -10    1.90    1.72
  -1   0   9    1.62    1.55
   1   0  -9    2.27    1.57
  -1   0   8    2.08    1.35
   1   0  -8    3.68    2.24
  -1   0   7    3.91    1.63
   1   0  -7    5.58    2.04
  -1   0   6  175.21    8.99
  -1   0   5   24.97    3.02
  -1   0   4  294.02    9.45
  -1   0   3  146.54    5.92
  -1   0   2 1227.04   14.63
  -1   0   1  376.67    6.48
   1   0   0  662.20    5.80
  -1   0   0  671.36    5.69
   1   0   1  458.86    5.86
   1   0   2  908.32    9.81
  -1   0  -2  905.58    6.99
   1   0   2  890.76    8.53
  -1   0  -3  148.94    3.92
   1   0   3  153.41    4.78
   1   0   3  148.02    4.56
  -1   0  -4 1062.50   12.61
   1   0   4 1065.39   14.88
   1   0   4 1057.49   14.08
   1   0   5  591.89   11.66
   1   0   5  624.95   13.00
  -1   0  -5  605.97   10.99
   1   0   6   -0.69    0.82
   1   0   6   -0.32    0.75
  -1   0  -6    0.31    1.02
   1   0   7   47.48    4.54
  -1   0  -7   55.30    4.20
  -1   0  -8    2.10    1.24
   1   0   8   -0.45    1.10
  -1   0  -9   16.20    2.41
   1   0   9   16.68    3.52
   1   0  10    0.87    1.48
  -1   0 -10    1.11    1.37
  -1   0 -11   41.17    4.99
   1   0  11   33.48    5.44
  -1   0 -12   10.78    3.12
  -1   0 -13    4.61    2.36
  -1   0 -14   23.45    4.78
  -1  -1  14    8.09    3.93
   1   1 -14    7.44    2.96
   1   1 -13   10.03    3.55
  -1  -1  13    8.41    4.46
   1   1 -12   63.56    7.14
  -1  -1  12   49.61    7.36
   1   1 -11   16.59    3.61
  -1  -1  11   13.26    4.48
   1   1 -10    9.66    2.71
  -1  -1  10    2.32    2.01
  -1  -1   9   60.79    6.49
  -1  -1   8    1.74    1.55
  -1  -1   7   18.26    3.16
  -1  -1   6   79.06    5.82
  -1  -1   5  585.76   14.66
  -1  -1   4   91.91    5.19
  -1  -1   3   46.71    3.27
  -1  -1   2   95.33    4.06
  -1  -1   1   23.46    1.63
  -1  -1   0 1123.94    8.92
   1   1   1   44.27    1.85
  -1  -1  -1   61.55    2.00
   1   1   2 1944.60   15.42
  -1  -1  -2 1943.20   12.91
   1   1   3 1245.57   14.42
  -1  -1  -3 1241.64   12.36
  -1  -1  -4    1.48    0.69
  -1  -1  -5  135.74    5.44
   1   1   6  521.19   14.16
  -1  -1  -6  524.24   11.77
  -1  -1  -7    3.37    1.41
   1   1   7    2.94    1.70
  -1  -1  -8   66.54    5.01
   1   1   8   62.06    5.88
  -1  -1  -9    2.72    1.73
  -1  -1 -10   31.96    4.22
  -1  -1 -11   31.20    4.09
  -1  -1 -12   22.79    3.94
  -1  -1 -13   27.09    4.86
  -1  -1 -14    2.67    2.64
  -1  -1 -15    0.96    2.72
  -1  -2  14   -0.03    3.19
   1   2 -14    9.38    3.85
   1   2 -13    0.99    2.16
  -1  -2  13    3.41    2.69
   1   2 -12   -1.60    2.83
  -1  -2  12    4.85    3.52
   1   2 -11   36.37    5.02
  -1  -2  11   34.49    5.70
  -1  -2  10    0.94    1.68
  -1  -2   9    7.71    2.52
  -1  -2   8   24.93    3.80
  -1  -2   7    1.44    1.06
  -1  -2   6   22.81    3.21
  -1  -2   5  123.41    6.67
  -1  -2   4 1143.23   18.41
  -1  -2   3  770.85   13.63
  -1  -2   2    5.34    1.12
  -1  -2   1  462.78    7.88
  -1  -2   0  821.86    9.86
  -1  -2  -1    0.77    0.91
  -1  -2  -2  230.85    5.48
  -1  -2  -3  353.07    7.51
  -1  -2  -4  372.37    8.56
  -1  -2  -5  730.87   13.27
  -1  -2  -6   63.51    4.31
  -1  -2  -7   56.59    4.54
  -1  -2  -8   72.98    5.65
  -1  -2  -9    9.47    2.17
  -1  -2 -10    4.32    2.56
  -1  -2 -11    6.62    3.15
  -1  -2 -12   19.66    3.94
  -1  -2 -13   90.18    8.17
  -1  -2 -14   13.77    4.22
  -1  -2 -15    0.87    2.45
  -1  -3  14    2.31    3.41
   1   3 -14    7.79    3.41
   1   3 -13    3.88    2.76
  -1  -3  13    2.21    2.89
  -1  -3  12    1.69    2.24
  -1  -3  11   12.09    3.82
  -1  -3  10   23.13    4.65
  -1  -3   9    8.44    2.84
  -1  -3   8    6.65    1.90
  -1  -3   7  170.59    9.25
  -1  -3   6   26.65    3.45
  -1  -3   5  112.71    6.53
  -1  -3   4   13.82    1.09
  -1  -3   4   12.98    2.01
  -1  -3   3  105.20    5.20
  -1  -3   3  104.44    2.69
  -1  -3   2    1.04    0.87
  -1  -3   2    0.08    0.31
  -1  -3   1   12.22    1.51
  -1  -3   0   69.40    3.46
  -1  -3  -1  182.10    5.71
  -1  -3  -2   20.90    1.89
  -1  -3  -3    0.92    0.85
  -1  -3  -4  343.62    9.02
  -1  -3  -5   86.98    4.94
  -1  -3  -6   -0.91    1.15
  -1  -3  -7   62.88    5.14
  -1  -3  -8  428.81   13.79
  -1  -3  -9   26.34    3.79
  -1  -3 -10   29.81    4.24
  -1  -3 -11  111.29    8.60
  -1  -3 -12   12.52    3.06
  -1  -3 -13    1.82    2.31
  -1  -3 -14    7.60    3.60
  -1  -4  13    4.27    2.76
  -1  -4  12    6.77    3.10
  -1  -4  11    9.04    2.81
  -1  -4  10   25.41    4.52
  -1  -4   9  144.24    9.88
  -1  -4   8   35.98    4.70
  -1  -4   7  159.24    9.09
  -1  -4   6   57.71    5.14
  -1  -4   5   -0.35    0.99
  -1  -4   5    0.14    0.46
  -1  -4   4   12.95    1.25
  -1  -4   4   14.80    2.27
  -1  -4   3  190.65    4.36
  -1  -4   3  189.13    7.28
  -1  -4   2  340.69    6.22
  -1  -4   2  350.55    9.16
  -1  -4   1    5.63    1.35
  -1  -4   0    3.76    1.19
  -1  -4  -1   93.60    4.74
  -1  -4  -2   -1.23    1.29
  -1  -4  -3  137.72    5.97
  -1  -4  -4   39.20    3.56
  -1  -4  -5   11.59    1.92
  -1  -4  -6    1.13    1.55
  -1  -4  -7  363.57   12.30
  -1  -4  -8   14.72    3.08
  -1  -4  -9    8.07    2.76
  -1  -4 -10   23.03    3.82
  -1  -4 -11    1.62    2.01
  -1  -4 -12    4.94    3.28
  -1  -4 -13    0.79    2.93
  -1  -4 -14    4.65    2.65
  -1  -5  13   56.45    8.56
  -1  -5  12    7.58    3.19
  -1  -5  11   15.72    4.22
  -1  -5  10    0.31    1.82
  -1  -5   9    1.50    2.13
  -1  -5   8   10.78    2.66
  -1  -5   7   21.61    3.54
  -1  -5   6   32.76    4.17
  -1  -5   5  211.03    9.42
  -1  -5   5  204.73    5.53
  -1  -5   4   10.41    2.19
  -1  -5   4    7.57    1.21
  -1  -5   3   73.94    3.38
  -1  -5   3   81.46    5.00
  -1  -5   2   41.90    3.53
  -1  -5   2   37.66    2.54
  -1  -5   1  813.71   15.14
  -1  -5   0  218.98    7.88
  -1  -5  -1    4.77    1.46
  -1  -5  -2  123.21    6.21
  -1  -5  -3   14.39    2.68
  -1  -5  -4    9.60    2.30
  -1  -5  -5   96.96    6.25
  -1  -5  -6   53.24    4.99
  -1  -5  -7   -0.64    1.97
  -1  -5  -8    2.92    2.20
  -1  -5  -9   21.02    3.87
  -1  -5 -10   20.34    4.14
  -1  -5 -11    9.28    3.02
  -1  -5 -12   21.66    4.56
  -1  -5 -13   23.49    5.36
  -1  -5 -14    6.10    3.44
  -1  -6  12    1.76    2.63
  -1  -6  11    9.03    3.39
  -1  -6  10   17.32    4.11
  -1  -6   9   12.18    3.21
  -1  -6   8   16.65    3.73
  -1  -6   7   45.10    5.31
  -1  -6   6  182.99    9.78
  -1  -6   5  668.64   17.48
  -1  -6   4   13.52    2.45
  -1  -6   4   11.64    1.67
  -1  -6   3   26.79    3.10
  -1  -6   3   25.62    2.32
  -1  -6   2   25.48    2.56
  -1  -6   2   28.99    3.11
  -1  -6   1    3.49    1.48
  -1  -6   0  283.03    9.90
  -1  -6  -1   66.66    5.00
  -1  -6  -2   24.64    3.35
  -1  -6  -3   69.55    5.25
  -1  -6  -4   -2.36    1.89
  -1  -6  -5  132.34    7.92
  -1  -6  -6   25.73    3.81
  -1  -6  -7   70.51    6.47
  -1  -6  -8   12.78    3.01
  -1  -6  -9   31.60    4.49
  -1  -6 -10   -0.09    2.52
  -1  -6 -11   -4.53    3.08
  -1  -6 -12    4.39    2.82
  -1  -6 -13    3.11    2.44
  -1  -7  11   14.98    4.33
  -1  -7  10   30.48    5.29
  -1  -7   9    1.52    1.77
  -1  -7   8    4.19    2.35
  -1  -7   7   -0.10    1.38
  -1  -7   6    8.63    2.66
  -1  -7   5  366.03   13.58
  -1  -7   4   34.57    2.95
  -1  -7   4   42.78    4.44
  -1  -7   3  324.84   11.70
  -1  -7   3  310.95    8.92
  -1  -7   2   -1.27    1.23
  -1  -7   2   -0.69    1.30
  -1  -7   1    3.04    1.33
  -1  -7   0   48.02    4.42
  -1  -7  -1   88.88    6.35
  -1  -7  -2   62.49    5.34
  -1  -7  -3   50.87    4.85
  -1  -7  -4   15.60    3.03
  -1  -7  -5   -1.66    1.99
  -1  -7  -6   24.18    4.05
  -1  -7  -7    8.24    3.25
  -1  -7  -8   50.64    5.69
  -1  -7  -9    0.92    2.00
  -1  -7 -10    7.20    3.01
  -1  -7 -11    5.81    3.36
  -1  -7 -12   -3.45    3.19
  -1  -8  10    6.41    3.24
  -1  -8   9   20.34    4.19
  -1  -8   8   16.55    4.11
  -1  -8   7    2.99    1.42
  -1  -8   6    3.05    1.56
  -1  -8   5    1.74    1.60
  -1  -8   4    6.13    2.11
  -1  -8   4    2.23    1.06
  -1  -8   3   54.09    4.27
  -1  -8   3   45.84    4.75
  -1  -8   2    4.77    1.88
  -1  -8   2    3.99    1.66
  -1  -8   1    3.46    1.44
  -1  -8   0   26.97    3.76
  -1  -8  -1    0.85    1.24
  -1  -8  -2  111.65    7.58
  -1  -8  -3  249.77   11.52
  -1  -8  -4    8.63    2.28
  -1  -8  -5   23.43    4.30
  -1  -8  -6   16.92    4.13
  -1  -8  -7   19.02    3.86
  -1  -8  -8    0.39    2.53
  -1  -8  -9    7.43    2.45
  -1  -8 -10    4.88    2.34
  -1  -8 -11    5.02    3.02
  -1  -8 -12    5.86    3.51
  -1  -9   9    2.57    2.85
  -1  -9   8    6.21    2.75
  -1  -9   7    2.22    2.33
  -1  -9   6    8.25    2.56
  -1  -9   5    0.84    1.39
  -1  -9   4    1.88    1.79
  -1  -9   3   33.74    3.78
  -1  -9   3   41.86    4.72
  -1  -9   2   15.56    2.81
  -1  -9   2   13.33    2.84
  -1  -9   1  124.13    7.58
  -1  -9   1  132.27    8.54
  -1  -9   0    2.42    1.59
  -1  -9  -1    5.07    2.29
  -1  -9  -2   32.73    4.74
  -1  -9  -3   62.65    6.26
  -1  -9  -4    4.39    2.68
  -1  -9  -5    8.77    2.93
  -1  -9  -6    4.35    2.88
  -1  -9  -7    5.93    2.87
  -1  -9  -8    6.62    3.89
  -1  -9  -9   -1.54    3.29
  -1  -9 -10    9.40    4.23
  -1  -9 -11    5.94    2.98
  -1 -10   8    1.42    2.79
  -1 -10   7    2.38    2.34
  -1 -10   6   15.35    3.72
  -1 -10   5    8.23    2.84
  -1 -10   4    9.54    2.93
  -1 -10   3    7.41    2.27
  -1 -10   2    2.32    1.68
  -1 -10   2    0.30    1.55
  -1 -10   1    2.30    2.02
  -1 -10   1    1.47    1.34
  -1 -10   0    6.39    2.10
  -1 -10  -1    0.49    1.69
  -1 -10  -2   10.70    3.03
  -1 -10  -3    5.38    2.98
  -1 -10  -4   -0.63    2.02
  -1 -10  -5    2.27    2.62
  -1 -10  -6    5.43    3.55
  -1 -10  -7   18.27    5.00
  -1 -10  -8   12.42    4.23
  -1 -10  -9    4.28    3.72
  -1 -11   5    3.30    2.79
  -1 -11   4    4.23    2.42
  -1 -11   3    0.72    1.81
  -1 -11   2   -0.36    1.64
  -1 -11   1   -2.54    2.14
  -1 -11   0    0.50    2.05
  -1 -11   0   -0.33    1.67
  -1 -11  -1   14.61    3.66
  -1 -11  -2    7.87    2.95
  -1 -11  -3    9.30    3.30
  -1 -11  -4   21.94    4.60
  -1 -11  -5   -1.73    3.12
  -1 -11  -6    0.60    2.72
  -1 -11  -7   -0.48    3.32
  -1 -12   2    6.83    2.68
  -1 -12   1    5.51    2.29
  -1 -12   0    6.92    2.91
  -1 -12  -1   16.29    3.96
  -1 -12  -2    3.76    2.65
  -1 -12  -3    2.24    3.05
  -1 -12  -4    3.86    3.27
   2 -11  -4   11.69    4.37
   2 -11  -3   -1.98    2.85
   2 -11  -2    2.91    2.36
   2 -11  -1    0.54    2.78
   2 -11   0    6.01    3.99
   2 -11   1    4.06    2.57
   2 -10  -3    0.86    2.27
   2 -10  -2    0.34    2.27
   2 -10  -1   -0.46    2.48
   2 -10   0    6.99    2.74
   2 -10   1   12.01    3.43
   2 -10   2   -4.22    3.18
   2 -10   3    2.13    2.52
   2 -10   4   -0.17    2.09
   2  -9  -6    5.53    4.15
   2  -9  -5    2.89    2.67
   2  -9  -4   15.62    4.20
   2  -9  -3   10.21    3.41
   2  -9  -2   18.25    4.10
   2  -9  -2   15.95    3.52
   2  -9  -1   13.98    3.53
   2  -9  -1   21.79    3.96
   2  -9   0   36.93    4.44
   2  -9   0   36.21    5.20
   2  -9   1    4.51    2.25
   2  -9   1    1.64    1.60
   2  -9   2    7.06    2.85
   2  -9   2    4.05    1.83
   2  -9   3    5.44    2.39
   2  -9   3    9.03    2.58
   2  -9   4    0.08    1.87
   2  -9   5    9.85    2.91
   2  -8  -8    2.70    2.41
   2  -8  -7   23.61    5.07
   2  -8  -6   24.47    4.87
   2  -8  -5   -2.89    3.23
   2  -8  -4    5.57    2.70
   2  -8  -3   10.17    3.07
   2  -8  -2   -0.52    2.08
   2  -8  -1    4.63    2.78
   2  -8  -1   -5.03    2.63
   2  -8   0    1.60    2.12
   2  -8   0    2.42    1.74
   2  -8   1   12.41    3.22
   2  -8   1   14.11    2.59
   2  -8   2   12.28    2.80
   2  -8   2    6.92    1.57
   2  -8   3   26.34    3.38
   2  -8   3   25.51    3.90
   2  -8   4    1.33    1.79
   2  -8   4    1.46    1.35
   2  -8   5   35.53    4.05
   2  -8   5   28.19    3.98
   2  -8   6   11.70    2.72
   2  -8   7   35.58    4.65
   2  -7 -10    0.71    2.86
   2  -7  -9   17.67    5.02
   2  -7  -8   23.33    4.99
   2  -7  -7    5.90    3.40
   2  -7  -6    4.87    2.86
   2  -7  -5   34.84    4.65
   2  -7  -4    2.91    1.87
   2  -7  -3   10.31    2.61
   2  -7  -2   86.26    6.62
   2  -7  -1    1.10    1.49
   2  -7   0   94.90    7.07
   2  -7   0   85.03    5.87
   2  -7   1   60.04    5.67
   2  -7   1   66.72    5.15
   2  -7   2    0.20    1.50
   2  -7   2    1.26    1.17
   2  -7   3   -0.37    1.45
   2  -7   3    2.16    1.20
   2  -7   4    4.60    1.51
   2  -7   4    2.43    1.74
   2  -7   5    2.08    1.65
   2  -7   5    1.83    1.10
   2  -7   6   -0.32    1.12
   2  -7   6    4.06    2.16
   2  -7   7    1.68    1.27
   2  -7   7    3.02    2.25
   2  -7   8    9.89    2.73
   2  -6 -11   -2.31    3.49
   2  -6 -10    8.44    3.21
   2  -6  -9   11.20    3.06
   2  -6  -8   30.19    4.97
   2  -6  -7   14.96    3.36
   2  -6  -6   10.55    2.59
   2  -6  -5   38.83    4.81
   2  -6  -4  110.08    7.40
   2  -6  -3    9.20    2.37
   2  -6  -2    5.57    2.53
   2  -6  -1  103.47    6.25
   2  -6   0   22.03    3.62
   2  -6   0   18.16    2.87
   2  -6   1   15.30    2.90
   2  -6   1   13.86    2.27
   2  -6   2   -0.25    1.52
   2  -6   2    0.35    1.01
   2  -6   3   11.70    1.93
   2  -6   3   10.51    2.32
   2  -6   4    0.40    1.11
   2  -6   4    3.58    1.71
   2  -6   5   11.75    2.07
   2  -6   5   10.21    2.38
   2  -6   6   21.93    3.32
   2  -6   6   18.13    2.79
   2  -6   7   17.92    3.13
   2  -6   7   18.13    3.06
   2  -6   8   26.35    3.68
   2  -6   8   21.21    3.38
   2  -6   9   16.18    3.26
   2  -6   9   15.32    2.92
   2  -6  10    2.04    1.66
   2  -5 -12    6.57    3.28
   2  -5 -11   41.29    6.68
   2  -5 -10    3.05    3.19
   2  -5  -9    9.19    2.91
   2  -5  -8   48.81    6.05
   2  -5  -7    0.28    1.96
   2  -5  -6   71.45    6.32
   2  -5  -5   27.57    3.68
   2  -5  -4   16.10    2.96
   2  -5  -3   67.68    5.20
   2  -5  -2   16.89    2.62
   2  -5  -1   29.28    3.13
   2  -5   0  562.07   12.47
   2  -5   1    1.28    1.84
   2  -5   1    0.53    1.20
   2  -5   2   85.80    5.73
   2  -5   2   85.98    4.46
   2  -5   3   20.99    2.27
   2  -5   3   22.71    3.07
   2  -5   4   47.48    3.46
   2  -5   4   45.40    4.07
   2  -5   5   28.44    2.89
   2  -5   5   31.28    3.61
   2  -5   6   18.42    2.66
   2  -5   6   18.69    2.68
   2  -5   7    1.72    1.47
   2  -5   7    0.90    0.99
   2  -5   8    0.02    1.74
   2  -5   8   -1.53    1.31
   2  -5   9    0.01    1.68
   2  -5   9    0.64    1.39
   2  -5  10   10.87    2.90
   2  -5  10   10.84    2.80
   2  -5  11    1.03    1.65
   2  -4 -12    0.20    2.91
   2  -4 -11   -2.51    2.98
   2  -4 -10    8.04    3.31
   2  -4  -9    6.06    3.16
   2  -4  -8   45.93    5.66
   2  -4  -7    8.76    3.03
   2  -4  -6  133.64    8.31
   2  -4  -5  203.20    9.36
   2  -4  -4   27.40    3.56
   2  -4  -3  129.35    6.46
   2  -4  -2   93.83    5.13
   2  -4  -1   10.38    1.78
   2  -4   0  127.23    5.26
   2  -4   1    0.88    1.26
   2  -4   1    3.15    1.10
   2  -4   2   15.86    2.18
   2  -4   2   13.57    1.60
   2  -4   3   38.30    2.67
   2  -4   3   40.12    3.54
   2  -4   4    1.34    0.77
   2  -4   4    0.77    1.09
   2  -4   5   21.83    2.39
   2  -4   5   16.28    2.42
   2  -4   6   27.40    2.95
   2  -4   6   30.66    3.48
   2  -4   7   26.12    3.45
   2  -4   7   22.98    2.93
   2  -4   8   18.32    2.73
   2  -4   8   19.35    2.94
   2  -4   9   23.76    3.44
   2  -4   9   26.96    3.70
   2  -4  10   38.19    4.32
   2  -4  10   36.33    4.72
   2  -4  11   46.14    5.40
   2  -4  12   37.81    5.41
   2  -3 -13    4.02    2.74
   2  -3 -12    4.40    3.02
   2  -3 -11    1.97    2.37
   2  -3 -10   -1.23    2.22
   2  -3  -9   10.66    3.55
   2  -3  -8    5.00    2.44
   2  -3  -7   46.22    5.04
   2  -3  -6   66.13    5.41
   2  -3  -5   -0.61    1.49
   2  -3  -4    9.34    1.86
   2  -3  -3   45.80    3.70
   2  -3  -2    5.78    1.52
   2  -3  -1   10.09    1.61
   2  -3   0  442.87    8.52
   2  -3   1   12.69    1.95
   2  -3   1   12.56    1.46
   2  -3   2 1223.81   12.23
   2  -3   2 1207.12   17.38
   2  -3   3   30.84    2.86
   2  -3   3   32.03    2.07
   2  -3   4    0.80    1.03
   2  -3   4   -0.06    0.46
   2  -3   5   33.44    2.80
   2  -3   5   32.90    3.15
   2  -3   6  198.54    7.41
   2  -3   6  199.76    8.11
   2  -3   7  101.72    5.93
   2  -3   7   94.19    5.76
   2  -3   8   25.71    3.30
   2  -3   8   28.29    3.52
   2  -3   9   14.30    2.88
   2  -3   9   17.56    3.04
   2  -3  10   18.55    3.43
   2  -3  10   22.84    3.59
   2  -3  11    0.02    1.80
   2  -3  11   -0.07    1.41
  -2   3 -12   -2.36    2.24
   2  -3  12    0.39    2.05
   2  -3  13    3.41    2.36
  -2   3 -13    1.62    1.96
   2  -2 -13   -0.15    2.98
   2  -2 -12   14.63    4.07
   2  -2 -11   41.42    5.93
   2  -2 -10   -3.05    2.19
   2  -2  -9   35.36    4.93
   2  -2  -8   19.20    3.58
   2  -2  -7   13.45    2.97
   2  -2  -6    1.34    1.42
   2  -2  -5   57.05    4.70
   2  -2  -4  163.33    7.00
   2  -2  -3   -0.69    0.98
   2  -2  -2   26.96    2.41
   2  -2  -1  320.84    7.10
   2  -2   0   31.68    1.92
   2  -2   0   28.32    2.57
   2  -2   1   87.12    2.74
   2  -2   1   83.23    4.14
   2  -2   2  124.59    2.98
   2  -2   2  125.74    5.06
   2  -2   3  669.85    8.07
   2  -2   3  665.95   11.79
   2  -2   4   56.86    3.76
   2  -2   4   55.13    2.87
   2  -2   5  167.88    5.89
   2  -2   5  157.78    6.56
   2  -2   6    3.74    1.35
   2  -2   6    4.61    1.14
   2  -2   7   26.50    3.07
   2  -2   7   27.38    3.13
   2  -2   8   16.04    2.68
   2  -2   8   17.56    2.82
   2  -2   9    5.62    2.00
   2  -2   9    6.41    1.61
   2  -2  10    3.98    1.88
   2  -2  10    2.38    1.49
  -2   2 -10    1.72    1.33
  -2   2 -11    0.20    1.44
   2  -2  11    0.69    1.93
  -2   2 -12   46.22    5.11
   2  -2  12   44.24    6.06
   2  -2  13    9.83    3.38
  -2   2 -13    5.04    2.30
   2  -2  14   58.46    7.92
   2  -1 -13    7.96    3.74
   2  -1 -12    2.46    2.35
   2  -1 -11    8.05    3.30
   2  -1 -10   38.01    5.18
  -2   1  10   27.98    5.40
   2  -1  -9   80.59    7.18
  -2   1   9   82.76    8.56
  -2   1   8   16.81    3.94
   2  -1  -8   17.19    3.20
   2  -1  -7   19.56    3.28
  -2   1   7   16.10    3.52
  -2   1   6   73.13    6.39
   2  -1  -6   75.65    5.53
   2  -1  -5   79.96    5.38
  -2   1   5   78.43    6.16
  -2   1   4  117.33    6.86
   2  -1  -4  115.66    5.78
  -2   1   3  374.06   10.98
   2  -1  -3  355.73    9.03
   2  -1  -2  305.63    7.54
  -2   1   2  320.77    9.04
   2  -1  -1   68.01    3.07
  -2   1   1   73.18    3.69
   2  -1   0    0.26    0.73
   2  -1   0    0.29    0.56
   2  -1   1    1.24    0.77
   2  -1   1    0.86    0.27
   2  -1   2  639.17   10.32
   2  -1   3   43.90    3.08
   2  -1   3   46.16    1.90
   2  -1   4  893.25   11.07
   2  -1   4  879.43   13.98
   2  -1   5   36.48    2.80
   2  -1   5   34.58    2.93
   2  -1   6    0.96    1.00
   2  -1   6    2.13    1.29
   2  -1   7  329.08   10.74
   2  -1   7  312.01   10.37
   2  -1   8    3.63    1.65
   2  -1   8    5.11    1.61
  -2   1  -8    4.69    1.68
  -2   1  -9   44.22    4.11
   2  -1   9   54.16    5.34
   2  -1   9   52.62    4.87
  -2   1 -10    2.65    1.15
   2  -1  10    1.40    1.81
   2  -1  11    1.85    1.54
  -2   1 -11   -0.40    1.58
  -2   1 -12   18.92    3.48
   2  -1  12   22.41    4.49
  -2   1 -13    4.44    2.57
  -2   1 -14   12.88    3.44
   2   0 -14   11.82    4.40
   2   0 -13    7.26    2.37
  -2   0  12   -0.50    2.88
   2   0 -12   -2.62    2.42
  -2   0  11   26.78    5.65
   2   0 -11   19.25    4.33
   2   0 -10   34.29    4.95
  -2   0  10   30.16    5.26
  -2   0   9   14.55    3.79
   2   0  -9   19.21    3.87
   2   0  -8    3.49    1.68
  -2   0   8    2.38    1.91
   2   0  -7  603.62   16.41
  -2   0   7  597.74   19.07
  -2   0   6   17.31    3.35
  -2   0   5    9.51    2.16
  -2   0   4    4.13    1.32
  -2   0   3  533.65   12.45
  -2   0   2  358.56    9.02
   2   0  -1 1447.60   13.53
  -2   0   1 1446.75   15.44
   2   0   0  114.20    3.74
  -2   0   0  111.95    3.34
  -2   0  -1   14.12    0.80
   2   0   1   11.72    0.66
   2   0   2  168.64    5.04
   2   0   3  199.81    6.08
  -2   0  -3  198.08    3.57
   2   0   4  105.77    4.15
   2   0   4  110.13    4.95
  -2   0  -4  107.02    3.46
   2   0   5   23.42    2.43
  -2   0  -5   22.64    1.92
   2   0   5   24.75    2.58
  -2   0  -6   57.48    3.52
   2   0   6   58.72    4.29
   2   0   6   63.04    4.32
  -2   0  -7   17.52    2.41
   2   0   7   14.45    2.57
   2   0   7   14.00    2.28
   2   0   8    1.96    1.35
  -2   0  -8    4.11    1.66
   2   0   8    0.35    1.05
   2   0   9    0.67    1.21
  -2   0  -9    4.14    1.53
   2   0  10   29.16    4.48
  -2   0 -10   26.85    3.49
  -2   0 -11   -0.21    1.75
  -2   0 -12    9.04    2.38
  -2   0 -13   17.58    3.74
  -2   0 -14   13.46    3.79
  -2  -1  14    3.14    3.76
   2   1 -14    4.67    4.27
   2   1 -13   -1.72    2.41
  -2  -1  13   -0.10    3.00
   2   1 -12    7.73    2.65
  -2  -1  12    6.61    3.23
  -2  -1  11    5.44    3.23
   2   1 -11    3.96    2.93
  -2  -1  10   12.31    3.24
   2   1 -10    6.67    2.39
  -2  -1   9   17.85    3.92
  -2  -1   8   56.09    6.11
  -2  -1   7  281.62   12.70
  -2  -1   6  162.24    8.97
  -2  -1   5  336.21   12.04
  -2  -1   4   62.82    4.68
  -2  -1   3   -0.85    0.92
  -2  -1   2  378.89    9.24
  -2  -1   1  240.56    6.36
   2   1  -1  245.00    4.26
   2   1   0  656.79    7.49
  -2  -1   0  645.71    8.42
  -2  -1  -1 2783.63   15.18
   2   1   1 2786.91   17.65
  -2  -1  -2   30.78    1.72
   2   1   2   31.60    2.18
  -2  -1  -3   -0.14    0.66
   2   1   3   -0.15    0.68
  -2  -1  -4   38.50    2.27
   2   1   4   38.19    2.95
  -2  -1  -5  187.51    5.77
   2   1   5  179.84    7.04
  -2  -1  -6 1084.73   15.56
   2   1   6 1072.20   18.79
  -2  -1  -7   29.49    2.88
  -2  -1  -8    5.22    1.70
  -2  -1  -9  130.48    7.14
  -2  -1 -10    0.45    1.39
  -2  -1 -11   65.24    5.91
  -2  -1 -12    6.88    2.19
  -2  -1 -13    3.60    1.98
  -2  -1 -14   11.35    3.68
   2   2 -14    4.35    3.38
  -2  -2  14    7.46    4.48
   2   2 -13    1.47    2.24
  -2  -2  13    0.78    3.21
   2   2 -12   40.65    5.95
  -2  -2  12   36.20    6.77
   2   2 -11   24.14    4.56
  -2  -2  11   32.69    6.13
  -2  -2  10    7.18    2.97
  -2  -2   9   38.37    5.51
  -2  -2   8    1.03    1.79
  -2  -2   7   21.84    3.68
  -2  -2   6   11.19    2.60
  -2  -2   5   89.40    6.16
  -2  -2   4   10.23    2.04
  -2  -2   3   74.37    4.81
  -2  -2   2   46.11    3.31
  -2  -2   1  230.45    6.41
   2   2  -1  231.48    3.13
  -2  -2   0  730.28   10.21
   2   2   0  727.75    7.59
  -2  -2  -1 9470.60   35.87
   2   2   1 9999.00   34.56
  -2  -2  -2 2365.14   18.04
   2   2   2 2383.12   19.63
   2   2   3   40.95    2.97
  -2  -2  -3   43.74    2.64
   2   2   4  156.04    6.31
  -2  -2  -4  156.63    5.26
  -2  -2  -5   45.02    3.16
  -2  -2  -6   45.55    3.32
  -2  -2  -7    2.66    1.24
  -2  -2  -8    2.90    1.60
  -2  -2  -9   52.34    4.81
  -2  -2 -10    0.71    1.73
  -2  -2 -11    4.68    2.58
  -2  -2 -12    6.19    2.78
  -2  -2 -13    2.58    2.33
  -2  -2 -14   24.27    4.80
  -2  -2 -15    3.27    2.76
  -2  -3  13    3.04    3.07
   2   3 -13   -0.97    2.61
  -2  -3  12    2.64    2.46
  -2  -3  11   -1.91    2.31
  -2  -3  10    0.61    1.90
  -2  -3   9   64.02    6.99
  -2  -3   8    1.31    1.93
  -2  -3   7   13.36    2.97
  -2  -3   6   46.32    4.89
  -2  -3   5   48.22    4.56
  -2  -3   4  527.15   14.04
  -2  -3   3 1099.36   18.44
  -2  -3   2   15.81    2.14
  -2  -3   1   37.26    2.83
  -2  -3   0  536.72   10.14
  -2  -3  -1  218.92    6.45
  -2  -3  -2  587.18   10.69
  -2  -3  -3   20.83    2.29
  -2  -3  -4   93.50    4.63
  -2  -3  -5   86.42    4.62
  -2  -3  -6   28.27    3.13
  -2  -3  -7  136.78    6.97
  -2  -3  -8  177.74    8.46
  -2  -3  -9  230.73   10.33
  -2  -3 -10   36.69    4.49
  -2  -3 -11   38.49    4.92
  -2  -3 -12   14.50    3.56
  -2  -3 -13   15.88    3.87
  -2  -3 -14    2.18    3.34
  -2  -4  13   -0.76    2.89
  -2  -4  12    0.82    2.73
  -2  -4  11   18.53    4.52
  -2  -4  10   34.35    5.61
  -2  -4   9    5.99    2.72
  -2  -4   8    4.22    2.41
  -2  -4   7   37.89    4.80
  -2  -4   6    1.51    1.32
  -2  -4   5  126.34    7.67
  -2  -4   4   16.15    2.54
  -2  -4   3    7.47    1.67
  -2  -4   2    1.00    0.36
  -2  -4   2   -0.22    0.71
  -2  -4   1  432.36   10.51
  -2  -4   0  270.22    8.05
  -2  -4  -1   93.10    4.83
  -2  -4  -2   84.94    4.63
  -2  -4  -3  600.83   12.38
  -2  -4  -4  263.08    8.44
  -2  -4  -5  120.31    5.98
  -2  -4  -6   51.04    4.33
  -2  -4  -7   41.91    4.18
  -2  -4  -8   16.62    3.41
  -2  -4  -9  160.28    8.88
  -2  -4 -10   77.85    6.72
  -2  -4 -11   15.57    3.34
  -2  -4 -12    2.59    2.12
  -2  -4 -13    1.83    2.52
  -2  -4 -14    5.64    3.64
  -2  -5  13   14.26    5.27
  -2  -5  12   61.74    8.60
  -2  -5  11    2.37    2.64
  -2  -5  10    1.75    1.90
  -2  -5   9   -0.78    1.60
  -2  -5   8    1.97    2.04
  -2  -5   7   24.08    3.93
  -2  -5   6    0.58    1.26
  -2  -5   5   25.40    3.64
  -2  -5   4   14.71    2.56
  -2  -5   3   20.88    2.83
  -2  -5   2  129.78    6.47
  -2  -5   2  124.44    3.68
  -2  -5   1   72.14    4.70
  -2  -5   0   -0.66    0.94
  -2  -5  -1   84.70    5.03
  -2  -5  -2   92.72    5.40
  -2  -5  -3   10.27    2.35
  -2  -5  -4   70.77    5.01
  -2  -5  -5  117.94    6.53
  -2  -5  -6    8.85    2.05
  -2  -5  -7    3.59    2.40
  -2  -5  -8   35.45    4.25
  -2  -5  -9   -3.99    2.51
  -2  -5 -10   12.61    3.35
  -2  -5 -11   17.98    4.25
  -2  -5 -12    4.22    2.36
  -2  -5 -13   20.65    4.80
  -2  -5 -14   -3.24    3.26
  -2  -6  12   21.32    5.15
  -2  -6  11    9.31    3.82
  -2  -6  10   21.63    4.66
  -2  -6   9    7.67    3.44
  -2  -6   8    7.34    2.54
  -2  -6   7   13.81    3.35
  -2  -6   6    0.27    1.47
  -2  -6   5   40.81    4.66
  -2  -6   4   36.92    4.09
  -2  -6   3    0.51    1.02
  -2  -6   3    1.73    0.76
  -2  -6   2    1.80    0.85
  -2  -6   2    2.46    1.28
  -2  -6   1  162.07    7.73
  -2  -6   0   51.22    4.24
  -2  -6  -1  208.15    8.76
  -2  -6  -2  128.86    6.97
  -2  -6  -3   98.77    6.31
  -2  -6  -4   19.47    3.18
  -2  -6  -5    1.46    2.13
  -2  -6  -6   55.71    5.28
  -2  -6  -7   18.30    3.53
  -2  -6  -8   20.26    3.91
  -2  -6  -9   23.86    3.91
  -2  -6 -10   12.52    3.62
  -2  -6 -11   -1.51    2.29
  -2  -6 -12    2.15    2.64
  -2  -6 -13   -2.18    2.95
  -2  -6 -14    5.77    3.97
  -2  -7  12    1.74    3.44
  -2  -7  11    5.15    3.47
  -2  -7  10   22.79    5.03
  -2  -7   9   -2.25    1.96
  -2  -7   8    2.89    2.48
  -2  -7   7   13.45    3.19
  -2  -7   6   12.90    3.14
  -2  -7   5    0.68    1.53
  -2  -7   4   96.54    7.04
  -2  -7   3   17.17    3.04
  -2  -7   3   13.95    1.79
  -2  -7   2    2.10    1.45
  -2  -7   2   -0.12    0.90
  -2  -7   1   41.01    4.10
  -2  -7   0  185.93    8.79
  -2  -7  -1  140.41    7.62
  -2  -7  -2   32.50    4.22
  -2  -7  -3   15.59    2.59
  -2  -7  -4   50.10    5.17
  -2  -7  -5   15.44    3.14
  -2  -7  -6    6.09    2.64
  -2  -7  -7    8.09    3.12
  -2  -7  -8   -3.57    2.57
  -2  -7  -9    4.95    2.70
  -2  -7 -10    2.29    2.61
  -2  -7 -11   10.19    3.99
  -2  -7 -12   -0.39    2.83
  -2  -7 -13    1.72    2.45
  -2  -8  11   -1.42    2.34
  -2  -8  10    5.70    2.96
  -2  -8   9   24.03    4.98
  -2  -8   8   43.94    6.35
  -2  -8   7    6.74    2.76
  -2  -8   6    0.32    1.62
  -2  -8   5   33.78    4.72
  -2  -8   4    0.20    1.17
  -2  -8   3    4.67    2.01
  -2  -8   2    8.68    2.07
  -2  -8   2    9.16    1.79
  -2  -8   1    2.64    1.76
  -2  -8   0   22.12    3.58
  -2  -8  -1    4.10    1.30
  -2  -8  -2    3.57    1.77
  -2  -8  -3   37.00    4.56
  -2  -8  -4   -3.37    2.50
  -2  -8  -5   15.20    3.31
  -2  -8  -6   14.04    4.04
  -2  -8  -7   42.38    5.58
  -2  -8  -8   89.32    8.09
  -2  -8  -9    2.14    3.29
  -2  -8 -10   10.31    3.56
  -2  -8 -11    5.36    3.37
  -2  -8 -12    3.01    4.33
  -2  -9  10    1.70    2.26
  -2  -9   9    4.74    2.66
  -2  -9   8   -0.42    2.18
  -2  -9   7    1.63    2.33
  -2  -9   6    7.77    2.77
  -2  -9   5    5.18    2.25
  -2  -9   4    9.28    2.51
  -2  -9   3   -1.47    1.64
  -2  -9   2   21.54    2.85
  -2  -9   2   17.63    3.28
  -2  -9   1    4.92    2.35
  -2  -9   0    2.78    1.34
  -2  -9  -1    2.70    1.99
  -2  -9  -2  103.66    7.86
  -2  -9  -3  115.79    8.51
  -2  -9  -4   -1.25    2.18
  -2  -9  -5   12.02    3.86
  -2  -9  -6   50.66    6.13
  -2  -9  -7   -1.89    2.82
  -2  -9  -8    8.36    3.29
  -2  -9  -9    4.46    3.37
  -2  -9 -10    2.86    2.89
  -2  -9 -11    1.19    3.38
  -2 -10   8    4.67    3.49
  -2 -10   7   -1.19    2.13
  -2 -10   6    9.45    2.85
  -2 -10   5   -1.04    1.58
  -2 -10   4   17.96    3.70
  -2 -10   3   15.61    3.48
  -2 -10   2    5.19    2.56
  -2 -10   1    0.81    1.52
  -2 -10   1    0.57    1.32
  -2 -10   0    1.15    1.25
  -2 -10  -1    9.64    2.66
  -2 -10  -2   16.19    3.50
  -2 -10  -3   25.20    4.45
  -2 -10  -4    0.80    1.96
  -2 -10  -5   -4.89    3.33
  -2 -10  -6    4.12    3.34
  -2 -10  -7    4.18    2.23
  -2 -10  -8    5.83    3.56
  -2 -10  -9   -0.30    3.12
  -2 -10 -10   15.66    5.16
  -2 -11   7   -1.89    2.38
  -2 -11   6   20.11    4.66
  -2 -11   5   -1.39    2.33
  -2 -11   4    0.77    2.08
  -2 -11   3    4.86    2.24
  -2 -11   2    2.27    2.08
  -2 -11   1    0.92    1.61
  -2 -11   0   -0.56    1.71
  -2 -11  -1    3.34    2.25
  -2 -11  -2   12.95    3.23
  -2 -11  -3    0.63    2.10
  -2 -11  -4   16.45    4.25
  -2 -11  -5   14.84    4.29
  -2 -11  -6    6.64    3.48
  -2 -11  -7    6.13    3.82
  -2 -11  -8    5.49    3.66
  -2 -12   4   10.70    3.99
  -2 -12   3    3.98    2.46
  -2 -12   2    5.58    2.69
  -2 -12   1    6.04    2.88
  -2 -12   0    6.71    3.10
  -2 -12  -1    7.31    3.20
  -2 -12  -2    7.10    3.41
  -2 -12  -3   -2.23    2.54
  -2 -12  -4    7.22    3.22
  -2 -12  -5    1.42    2.41
  -2 -12  -6    2.06    3.26
   3 -10  -4   -0.65    3.17
   3 -10  -3    4.53    4.02
   3 -10  -2   -1.81    3.23
   3 -10  -1    1.36    2.56
   3 -10   0    0.58    2.86
   3 -10   1   -1.60    2.78
   3 -10   2   10.76    4.33
   3 -10   3   11.61    3.57
   3 -10   4    0.28    2.24
   3  -9  -4   20.44    4.49
   3  -9  -3    2.99    2.77
   3  -9  -2   35.42    5.88
   3  -9  -1   12.08    3.96
   3  -9   0   -2.08    2.53
   3  -9   1   96.44    8.93
   3  -9   2    0.96    2.34
   3  -9   3    0.02    1.92
   3  -9   4    2.07    2.49
   3  -9   5    3.73    2.41
   3  -9   6   -3.40    2.91
   3  -8  -6   23.60    5.01
   3  -8  -5   -2.67    2.59
   3  -8  -4    3.06    3.05
   3  -8  -3   -0.99    2.14
   3  -8  -3    2.48    2.44
   3  -8  -2    2.55    2.12
   3  -8  -2   -3.51    2.10
   3  -8  -1    2.42    2.21
   3  -8  -1    2.60    1.87
   3  -8   0   -1.86    2.36
   3  -8   0   -0.29    1.43
   3  -8   1   14.33    3.44
   3  -8   1   13.64    2.94
   3  -8   2    4.71    2.38
   3  -8   3   16.05    3.83
   3  -8   4   10.46    3.07
   3  -8   5    8.60    2.45
   3  -8   6   31.89    4.76
   3  -8   7    4.40    2.20
   3  -7  -8   -0.55    2.88
   3  -7  -7    3.46    2.66
   3  -7  -6   -3.76    2.63
   3  -7  -5    0.12    2.28
   3  -7  -4    6.76    2.34
   3  -7  -3   15.24    3.39
   3  -7  -2   14.50    3.47
   3  -7  -2   17.31    3.72
   3  -7  -1   49.09    5.74
   3  -7  -1   50.85    4.87
   3  -7   0   31.37    4.77
   3  -7   0   40.57    4.23
   3  -7   1   57.27    4.67
   3  -7   1   65.82    6.58
   3  -7   2    5.63    1.71
   3  -7   2    7.75    2.66
   3  -7   3   12.20    2.59
   3  -7   3   20.16    2.68
   3  -7   4   -1.27    1.50
   3  -7   5   16.16    3.24
   3  -7   6    1.20    1.74
   3  -7   7    9.82    3.01
   3  -7   8    2.91    2.47
   3  -6  -9    1.52    2.89
   3  -6  -8    3.65    2.94
   3  -6  -7    2.12    2.48
   3  -6  -6   20.54    3.89
   3  -6  -5   62.39    6.35
   3  -6  -4   44.25    5.06
   3  -6  -3    7.17    2.13
   3  -6  -2    4.64    1.90
   3  -6  -1   22.29    3.21
   3  -6  -1   20.12    3.43
   3  -6   0    7.30    2.02
   3  -6   0    3.72    1.80
   3  -6   1   10.18    2.62
   3  -6   1   13.38    2.12
   3  -6   2   24.20    3.81
   3  -6   2   21.17    2.49
   3  -6   3    0.96    0.90
   3  -6   3   -2.10    1.95
   3  -6   4    4.59    2.03
   3  -6   4    3.38    1.26
   3  -6   5    8.32    2.42
   3  -6   5    6.38    1.55
   3  -6   6    7.88    2.71
   3  -6   7   22.94    3.70
   3  -6   8   50.93    5.26
   3  -6   9    1.91    1.55
   3  -5 -10   23.19    4.31
   3  -5  -9   15.62    4.11
   3  -5  -8   18.51    4.09
   3  -5  -7    5.09    2.24
   3  -5  -6    0.94    2.02
   3  -5  -5    9.40    2.57
   3  -5  -4    0.62    1.68
   3  -5  -3    5.62    2.12
   3  -5  -2   15.59    2.75
   3  -5  -1  337.08   10.37
   3  -5  -1  321.88   12.69
   3  -5   0    0.57    1.11
   3  -5   0    4.92    2.03
   3  -5   1   76.61    4.54
   3  -5   1   79.04    6.02
   3  -5   2   10.92    2.53
   3  -5   2   11.47    1.75
   3  -5   3  205.78    6.48
   3  -5   3  205.88    9.39
   3  -5   4   30.82    3.95
   3  -5   4   26.94    2.52
   3  -5   5   88.40    4.61
   3  -5   5   98.53    6.48
   3  -5   6   23.84    2.74
   3  -5   6   25.89    3.42
   3  -5   7   -1.10    1.51
   3  -5   7   -0.14    0.93
   3  -5   8    9.84    2.24
   3  -5   8    9.94    2.80
   3  -5   9    6.02    2.43
   3  -5  10    3.78    2.01
   3  -4 -11    4.73    3.76
   3  -4 -10    3.43    2.58
   3  -4  -9   13.49    3.75
   3  -4  -8    5.74    2.27
   3  -4  -7   64.99    6.63
   3  -4  -6    3.88    2.11
   3  -4  -5    7.56    2.46
   3  -4  -4  154.06    8.00
   3  -4  -3   32.33    3.50
   3  -4  -2  115.55    6.02
   3  -4  -1  212.14    7.56
   3  -4   0  379.16    9.26
   3  -4   0  379.09   12.42
   3  -4   1   97.19    4.48
   3  -4   1   95.81    6.06
   3  -4   2    9.40    2.27
   3  -4   2   10.50    1.35
   3  -4   3    5.84    2.01
   3  -4   3    3.83    0.76
   3  -4   4    8.29    1.28
   3  -4   4   10.16    1.99
   3  -4   5   -0.69    1.49
   3  -4   5   -1.03    0.73
   3  -4   6   10.02    1.65
   3  -4   6    9.32    2.26
   3  -4   7   18.85    2.54
   3  -4   7   20.05    3.05
   3  -4   8   -0.47    1.30
   3  -4   8   -0.08    0.92
   3  -4   9   30.89    3.80
   3  -4   9   41.44    4.95
   3  -4  10   12.37    2.80
   3  -4  10   14.50    3.01
   3  -4  11   11.93    3.05
   3  -3 -12    3.87    2.49
   3  -3 -11   22.04    4.66
   3  -3 -10    6.59    3.52
   3  -3  -9   15.04    3.85
   3  -3  -8   44.60    5.43
   3  -3  -7   12.47    2.80
   3  -3  -6   76.29    6.33
   3  -3  -5   20.49    3.07
   3  -3  -4   -0.09    1.66
   3  -3  -3   26.11    3.22
   3  -3  -2    5.79    1.66
   3  -3  -1    4.34    1.19
   3  -3   0  145.57    5.11
   3  -3   0  133.63    6.69
   3  -3   1   20.70    2.70
   3  -3   1   21.27    1.81
   3  -3   2   10.17    2.36
   3  -3   2   13.77    1.27
   3  -3   3    9.40    0.96
   3  -3   3    7.28    1.81
   3  -3   4   18.74    2.67
   3  -3   4   19.67    1.62
   3  -3   5  354.58   10.98
   3  -3   5  357.76    7.72
   3  -3   6   79.67    5.54
   3  -3   6   72.41    4.08
   3  -3   7  573.07   12.73
   3  -3   7  569.86   15.25
   3  -3   8  230.00    8.95
   3  -3   8  213.87    9.77
   3  -3   9    2.10    1.33
   3  -3   9    2.20    1.82
  -3   3 -10   46.69    4.25
   3  -3  10   45.60    5.14
   3  -3  10   47.69    4.89
  -3   3 -11    7.05    1.68
   3  -3  11    3.27    2.00
   3  -3  11    4.67    2.35
   3  -3  12    6.35    2.75
   3  -3  12    6.48    2.91
   3  -2 -12    8.22    3.58
   3  -2 -11   22.24    5.09
   3  -2 -10   -1.32    2.56
   3  -2  -9    3.27    2.25
   3  -2  -8    2.88    1.81
   3  -2  -7    9.74    2.68
   3  -2  -6    5.32    2.07
   3  -2  -5  183.60    8.62
   3  -2  -4   12.83    2.42
   3  -2  -3  106.08    5.66
   3  -2  -2  134.82    5.70
   3  -2  -1    0.60    1.05
   3  -2  -1    0.00    0.89
   3  -2   0  706.57   10.14
   3  -2   0  717.38   14.20
   3  -2   1   57.50    2.38
   3  -2   1   52.35    3.91
   3  -2   2  422.18   10.57
   3  -2   2  421.79    5.14
   3  -2   3  509.80    5.20
   3  -2   3  546.91   12.06
   3  -2   4    4.57    0.68
   3  -2   4    4.66    1.68
   3  -2   5  107.75    3.95
   3  -2   5  111.87    6.04
   3  -2   6   -0.35    0.59
   3  -2   6    1.12    1.52
   3  -2   7  206.92    7.52
   3  -2   7  199.60    8.76
  -3   2  -8  374.82    9.79
   3  -2   8  377.57   11.53
   3  -2   8  376.06   12.98
  -3   2  -9   26.47    2.91
   3  -2   9   28.83    3.55
   3  -2   9   23.52    3.41
   3  -2  10    4.60    1.76
  -3   2 -10    0.94    1.39
   3  -2  10    1.63    1.34
   3  -2  11    8.80    2.42
   3  -2  11   14.79    3.04
  -3   2 -11   12.43    2.67
   3  -2  12   15.40    3.49
   3  -2  12   18.58    4.02
  -3   2 -12   23.73    3.64
   3  -2  13   14.02    3.84
  -3   2 -13    7.30    2.18
   3  -1 -13    0.98    2.87
   3  -1 -12   -0.12    3.33
   3  -1 -11    5.23    2.95
   3  -1 -10   63.42    6.89
  -3   1   9   28.88    5.30
   3  -1  -9   30.56    4.72
   3  -1  -8   31.14    4.48
  -3   1   8   33.33    5.45
  -3   1   7   24.43    4.23
   3  -1  -7   31.68    4.11
   3  -1  -6    9.96    2.12
  -3   1   6   11.73    2.91
   3  -1  -5  117.92    6.67
  -3   1   5  133.13    8.50
   3  -1  -4   94.39    5.66
  -3   1   4   96.26    6.90
  -3   1   3  120.24    6.82
   3  -1  -3  117.52    5.67
  -3   1   2    3.15    1.22
   3  -1  -2    4.76    1.19
   3  -1  -1   63.74    3.32
  -3   1   1   64.86    3.95
   3  -1  -1   62.66    3.89
   3  -1   0   61.99    2.73
  -3   1   0   63.16    3.25
   3  -1   0   56.74    3.59
   3  -1   1   54.00    1.91
   3  -1   1   52.52    3.49
   3  -1   2  335.03    8.61
   3  -1   3  819.57   14.16
   3  -1   4   16.56    2.25
  -3   1  -4   15.28    0.91
   3  -1   5   83.89    3.50
  -3   1  -5   80.19    2.86
   3  -1   5   83.99    5.08
  -3   1  -6   37.19    2.38
   3  -1   6   37.87    2.88
   3  -1   6   44.11    3.98
  -3   1  -7  247.85    7.07
   3  -1   7  249.20    8.46
   3  -1   7  246.77    9.94
   3  -1   8   10.01    1.93
   3  -1   8   12.05    2.53
  -3   1  -8   10.30    1.94
  -3   1  -9   17.73    2.51
   3  -1   9   17.99    2.96
   3  -1   9   15.77    2.63
   3  -1  10   37.47    4.51
   3  -1  10   38.20    4.67
  -3   1 -10   33.63    3.59
   3  -1  11    8.87    2.47
  -3   1 -11   11.12    2.50
   3  -1  11    9.72    2.57
  -3   1 -12   37.02    4.54
  -3   1 -13    8.35    3.02
   3   0 -13   19.53    4.53
  -3   0  12    5.87    3.58
   3   0 -12   -7.39    4.07
   3   0 -11   18.96    4.08
  -3   0  11   11.67    4.21
   3   0 -10    7.28    2.91
  -3   0  10    5.55    3.42
  -3   0   9   54.42    7.01
   3   0  -9   52.82    6.05
   3   0  -8   13.63    3.23
  -3   0   8    9.83    3.29
  -3   0   7    5.87    2.45
   3   0  -7    2.34    1.94
  -3   0   6  217.42   11.30
  -3   0   5   59.36    5.52
  -3   0   4   53.69    4.75
  -3   0   3  116.45    6.39
   3   0  -2   20.07    2.09
  -3   0   2   21.05    2.52
   3   0  -1    9.51    1.54
  -3   0   1    9.91    1.52
  -3   0   0  190.88    5.37
   3   0   0  185.70    5.89
   3   0   1    2.66    0.92
  -3   0  -1    1.81    0.45
   3   0   2  755.71   12.41
  -3   0  -3    1.57    0.31
   3   0   3    0.78    0.92
  -3   0  -4   58.68    2.09
   3   0   4   52.79    3.74
  -3   0  -5   10.98    1.26
   3   0   5   10.55    1.89
   3   0   6   28.91    3.22
  -3   0  -6   26.52    2.16
  -3   0  -7  135.04    5.39
   3   0   7  147.56    7.70
   3   0   8   47.24    4.64
  -3   0  -8   47.76    3.72
   3   0   9   34.05    4.08
  -3   0  -9   32.76    3.31
   3   0  10   47.72    5.26
  -3   0 -10   44.34    4.23
  -3   0 -11   77.63    5.97
  -3   0 -12   11.73    2.92
  -3   0 -13   10.89    2.97
  -3   0 -14   25.33    4.49
  -3  -1  13    1.56    3.57
   3   1 -13   -0.45    2.60
  -3  -1  12    2.84    3.18
   3   1 -12    0.75    2.08
  -3  -1  11   12.33    4.01
   3   1 -11   13.33    3.55
   3   1 -10    1.70    2.03
  -3  -1  10    1.94    2.12
  -3  -1   9   79.62    8.25
   3   1  -9   81.39    7.26
  -3  -1   8  100.93    8.65
  -3  -1   7   45.26    5.45
  -3  -1   6  199.09   10.55
  -3  -1   5  233.87   10.60
  -3  -1   4   25.69    3.39
  -3  -1   3  118.83    6.44
  -3  -1   2   16.36    2.19
   3   1  -2   20.51    1.80
   3   1  -1    8.87    1.17
  -3  -1   1    8.87    1.52
   3   1   0    9.22    1.31
  -3  -1   0    8.17    1.19
  -3  -1  -1    0.62    0.38
   3   1   1    1.03    0.81
  -3  -1  -2    0.63    0.33
   3   1   2    0.35    0.81
  -3  -1  -3   23.67    1.52
   3   1   3   19.94    2.24
  -3  -1  -4  197.24    4.80
   3   1   4  198.42    7.32
  -3  -1  -5    0.86    0.77
   3   1   5   -0.03    1.03
   3   1   6   50.36    4.31
  -3  -1  -6   51.54    3.20
   3   1   7   87.98    6.03
  -3  -1  -7   84.74    4.52
  -3  -1  -8    2.53    1.52
   3   1   8    0.49    1.33
  -3  -1  -9   77.05    5.19
   3   1   9   82.20    6.64
  -3  -1 -10   21.54    3.16
  -3  -1 -11   11.94    2.72
  -3  -1 -12    9.87    2.69
  -3  -1 -13    5.06    2.61
  -3  -1 -14    2.30    2.34
   3   2 -13    6.54    3.82
  -3  -2  13   17.42    5.93
   3   2 -12   11.23    3.98
  -3  -2  12   14.07    4.70
   3   2 -11   92.07    8.78
  -3  -2  11   89.71    9.95
  -3  -2  10   49.24    6.98
  -3  -2   9   12.63    3.06
  -3  -2   8    0.06    1.55
  -3  -2   7    4.16    1.68
  -3  -2   6   22.04    3.64
  -3  -2   5   77.59    6.10
  -3  -2   4   30.91    3.51
   3   2  -4   26.54    1.83
  -3  -2   3  184.51    8.01
   3   2  -3  181.63    4.19
   3   2  -2   26.66    1.53
  -3  -2   2   28.75    3.01
  -3  -2   1  222.42    7.19
   3   2  -1  221.27    4.67
  -3  -2   0  117.80    4.66
   3   2   0  120.21    3.86
  -3  -2  -1  241.89    6.13
   3   2   1  235.01    6.04
  -3  -2  -2 1107.44   12.95
   3   2   2 1096.02   14.57
  -3  -2  -3   74.89    3.42
   3   2   3   68.61    4.07
  -3  -2  -4   18.22    1.79
   3   2   4   17.95    2.20
   3   2   5  310.02    9.96
  -3  -2  -5  320.68    7.84
   3   2   6  273.12   10.10
  -3  -2  -6  279.65    7.92
  -3  -2  -7   84.68    4.89
   3   2   7   96.30    6.47
  -3  -2  -8    0.16    1.14
  -3  -2  -9   49.55    4.54
  -3  -2 -10   10.82    2.13
  -3  -2 -11    1.25    1.46
  -3  -2 -12    0.59    1.60
  -3  -2 -13    5.11    2.23
  -3  -2 -14   -0.17    2.42
   3   3 -13   -1.59    2.40
  -3  -3  13    6.27    4.07
   3   3 -12    3.84    2.39
  -3  -3  12    4.29    3.14
  -3  -3  11    0.48    2.05
  -3  -3  10   37.77    6.07
  -3  -3   9    0.75    2.47
  -3  -3   8   25.80    4.43
  -3  -3   7    0.90    1.27
  -3  -3   6   22.38    3.79
  -3  -3   5  127.09    7.94
  -3  -3   4   40.76    4.31
  -3  -3   3  320.97   11.02
  -3  -3   2   98.96    5.57
  -3  -3   1   12.15    1.81
   3   3  -1   10.76    0.92
  -3  -3   0   33.68    2.75
   3   3   0   26.78    1.82
  -3  -3  -1  477.87    9.90
   3   3   1  471.55    8.73
  -3  -3  -2   49.21    3.23
   3   3   2   48.27    3.24
  -3  -3  -3   93.26    4.46
   3   3   3   92.27    4.86
  -3  -3  -4   56.11    3.48
   3   3   4   52.32    4.02
  -3  -3  -5   35.52    3.07
  -3  -3  -6   66.44    4.41
  -3  -3  -7   91.77    5.42
  -3  -3  -8   16.11    2.52
  -3  -3  -9    9.86    2.35
  -3  -3 -10    2.28    1.77
  -3  -3 -11   38.37    4.96
  -3  -3 -12    0.57    2.20
  -3  -3 -13   21.98    4.07
  -3  -3 -14   38.74    5.59
   3   4 -13    5.31    3.36
  -3  -4  13   -0.36    2.87
  -3  -4  12    0.66    2.70
  -3  -4  11    0.43    2.42
  -3  -4  10    8.40    3.45
  -3  -4   9   33.99    5.51
  -3  -4   8   -1.13    1.90
  -3  -4   7   25.84    4.19
  -3  -4   6   18.55    3.14
  -3  -4   5    0.27    1.53
  -3  -4   4   10.06    2.30
  -3  -4   3  260.26   10.00
  -3  -4   2   99.35    5.85
  -3  -4   1   60.80    4.24
  -3  -4   0  189.62    7.11
  -3  -4  -1   59.04    3.92
  -3  -4  -2  215.66    7.50
  -3  -4  -3   16.12    2.32
  -3  -4  -4  233.48    7.94
  -3  -4  -5    5.96    1.68
  -3  -4  -6   92.38    5.44
  -3  -4  -7  124.11    6.77
  -3  -4  -8   21.81    3.28
  -3  -4  -9  137.31    8.00
  -3  -4 -10   -0.45    1.57
  -3  -4 -11   19.82    3.80
  -3  -4 -12    7.16    2.62
  -3  -4 -13    4.69    2.60
  -3  -4 -14   26.28    5.33
  -3  -5  12    6.17    3.82
  -3  -5  11    7.27    3.11
  -3  -5  10    8.54    2.74
  -3  -5   9    1.28    1.81
  -3  -5   8   -0.10    1.60
  -3  -5   7   16.00    3.62
  -3  -5   6   14.14    2.77
  -3  -5   5    0.80    1.48
  -3  -5   4   29.81    3.85
  -3  -5   3   91.80    6.13
  -3  -5   2   12.24    2.27
  -3  -5   1   71.26    4.89
  -3  -5   0    3.44    1.34
  -3  -5  -1   25.91    2.91
  -3  -5  -2  210.21    8.23
  -3  -5  -3   16.56    2.52
  -3  -5  -4    3.15    2.06
  -3  -5  -5    3.23    1.65
  -3  -5  -6   -0.35    1.81
  -3  -5  -7   25.23    3.36
  -3  -5  -8    8.91    2.07
  -3  -5  -9  188.93    9.77
  -3  -5 -10   37.05    4.67
  -3  -5 -11    0.99    1.90
  -3  -5 -12   36.43    5.13
  -3  -5 -13   26.41    5.09
  -3  -5 -14    1.29    2.83
  -3  -6  12   11.10    4.26
  -3  -6  11   -0.61    3.01
  -3  -6  10   10.69    4.06
  -3  -6   9   19.69    4.55
  -3  -6   8   79.01    7.88
  -3  -6   7   94.82    8.30
  -3  -6   6   29.09    4.44
  -3  -6   5   62.26    6.05
  -3  -6   4   18.79    3.24
  -3  -6   3   16.56    2.85
  -3  -6   2   37.73    4.00
  -3  -6   1   62.56    4.97
  -3  -6   0   51.82    4.56
  -3  -6  -1    5.45    1.67
  -3  -6  -2    2.38    1.44
  -3  -6  -3    1.08    1.71
  -3  -6  -4  110.08    6.66
  -3  -6  -5   -0.18    1.75
  -3  -6  -6    8.47    2.54
  -3  -6  -7    9.21    2.43
  -3  -6  -8   69.87    6.20
  -3  -6  -9   13.17    3.14
  -3  -6 -10    8.57    2.80
  -3  -6 -11   15.20    3.70
  -3  -6 -12    0.28    2.85
  -3  -6 -13   -2.13    3.46
  -3  -6 -14   -1.19    3.48
  -3  -7  11    4.15    2.63
  -3  -7  10   17.43    4.65
  -3  -7   9    2.64    2.32
  -3  -7   8    5.32    3.03
  -3  -7   7    0.25    1.80
  -3  -7   6   23.39    4.17
  -3  -7   5   20.08    3.81
  -3  -7   4    1.89    1.82
  -3  -7   3   44.32    4.84
  -3  -7   2   26.81    3.64
  -3  -7   1   47.48    4.69
  -3  -7   0   91.43    6.28
  -3  -7  -1  238.33   10.06
  -3  -7  -2   16.24    3.12
  -3  -7  -3   24.75    3.68
  -3  -7  -4   71.99    5.85
  -3  -7  -5   -3.38    2.34
  -3  -7  -6   21.21    3.42
  -3  -7  -7    6.98    2.90
  -3  -7  -8   -1.06    2.75
  -3  -7  -9    0.59    2.05
  -3  -7 -10    4.85    3.21
  -3  -7 -11   13.74    3.78
  -3  -7 -12    5.14    3.27
  -3  -7 -13    5.21    2.88
  -3  -8  11    4.08    3.23
  -3  -8  10   -0.57    2.56
  -3  -8   9    1.37    1.84
  -3  -8   8   18.68    4.48
  -3  -8   7    8.46    2.82
  -3  -8   6    6.24    2.59
  -3  -8   5  136.54    9.54
  -3  -8   4  244.37   12.28
  -3  -8   3   67.43    6.31
  -3  -8   2    0.69    1.02
  -3  -8   1    3.81    1.74
  -3  -8   0    0.25    1.40
  -3  -8  -1   78.09    6.14
  -3  -8  -2    8.95    2.58
  -3  -8  -3   18.02    3.32
  -3  -8  -4    1.60    1.86
  -3  -8  -5    1.24    1.97
  -3  -8  -6   54.23    5.64
  -3  -8  -7    8.84    2.82
  -3  -8  -8   25.04    4.68
  -3  -8  -9   20.92    4.17
  -3  -8 -10    2.95    2.84
  -3  -8 -11   10.64    3.96
  -3  -8 -12   -6.00    2.91
  -3  -8 -13   -0.56    2.87
  -3  -9  10    6.50    3.15
  -3  -9   9    7.74    3.95
  -3  -9   8   16.25    4.59
  -3  -9   7    1.39    1.73
  -3  -9   6    0.63    1.81
  -3  -9   5   -0.97    2.00
  -3  -9   4  115.99    9.00
  -3  -9   3   52.00    5.86
  -3  -9   2   29.40    4.31
  -3  -9   1   27.59    3.94
  -3  -9   0    0.51    1.40
  -3  -9  -1   16.52    3.19
  -3  -9  -2   18.07    3.44
  -3  -9  -3   60.96    6.26
  -3  -9  -4   31.03    4.85
  -3  -9  -5    6.49    2.70
  -3  -9  -6    9.21    3.03
  -3  -9  -7   -1.11    2.64
  -3  -9  -8   -3.35    3.00
  -3  -9  -9    1.54    2.38
  -3  -9 -10   -3.41    2.81
  -3  -9 -11   -4.98    4.00
  -3  -9 -12    0.08    2.97
  -3 -10   9    1.16    2.22
  -3 -10   8    7.60    3.48
  -3 -10   7    5.13    3.31
  -3 -10   6    5.42    2.39
  -3 -10   5    3.30    2.63
  -3 -10   4   -1.17    1.49
  -3 -10   3    9.28    3.20
  -3 -10   2    9.86    2.85
  -3 -10   1    8.08    2.51
  -3 -10   0    2.01    1.73
  -3 -10  -1    0.32    1.31
  -3 -10  -2   10.68    2.98
  -3 -10  -3   27.99    4.67
  -3 -10  -4   80.98    7.64
  -3 -10  -5   20.57    4.39
  -3 -10  -6   -5.18    3.14
  -3 -10  -7   -2.06    2.68
  -3 -10  -8    7.24    2.97
  -3 -10  -9    2.33    3.60
  -3 -10 -10    5.31    4.24
  -3 -10 -11    3.34    3.08
  -3 -11   7    3.76    2.99
  -3 -11   6    4.19    3.01
  -3 -11   5    5.99    2.98
  -3 -11   4    1.69    2.27
  -3 -11   3    4.87    2.08
  -3 -11   2    7.74    3.01
  -3 -11   1   16.95    3.56
  -3 -11   0    7.87    2.87
  -3 -11  -1    3.33    2.16
  -3 -11  -2   -1.85    1.79
  -3 -11  -3    9.22    2.92
  -3 -11  -4    6.89    3.34
  -3 -11  -5    8.34    2.90
  -3 -11  -6   -1.77    2.53
  -3 -11  -7    5.01    3.83
  -3 -11  -8    5.21    2.37
  -3 -11  -9   -2.53    3.27
  -3 -12   5   -3.31    2.69
  -3 -12   4    9.39    3.63
  -3 -12   3    3.23    2.12
  -3 -12   2    0.50    2.44
  -3 -12   1    5.15    3.14
  -3 -12   0    3.11    2.89
  -3 -12  -1   -0.78    2.13
  -3 -12  -2   -0.80    2.58
  -3 -12  -3    0.13    2.01
  -3 -12  -4   16.07    4.18
  -3 -12  -5    1.88    2.30
  -3 -12  -6    3.23    2.64
  -3 -12  -7   -0.66    2.41
  -3 -13   2   -5.54    3.37
  -3 -13   1   -1.67    2.05
  -3 -13   0   -1.12    2.06
  -3 -13  -1   -2.76    2.32
  -3 -13  -2    1.17    2.85
  -3 -13  -3    2.17    3.55
  -3 -13  -4   -0.43    2.15
   4 -10  -2    2.25    3.06
   4 -10  -1   -3.12    3.24
   4 -10   0    1.46    2.42
   4 -10   1   10.91    4.01
   4 -10   2   -2.00    3.38
   4 -10   3    4.14    3.16
   4  -9  -5    0.64    2.59
   4  -9  -4    8.91    3.92
   4  -9  -3   16.94    5.03
   4  -9  -2   -4.82    4.13
   4  -9  -1   29.07    5.82
   4  -9   0    2.34    2.43
   4  -9   1    2.70    3.46
   4  -9   2   19.41    4.50
   4  -9   3   -0.42    2.85
   4  -9   4   -5.24    2.75
   4  -9   5   21.54    4.63
   4  -9   6   30.22    4.87
   4  -8  -6    6.19    3.37
   4  -8  -5   10.74    4.03
   4  -8  -4    7.98    3.44
   4  -8  -3   -4.10    3.96
   4  -8  -2   -0.22    3.07
   4  -8  -1   -3.29    3.12
   4  -8   0   -5.70    3.70
   4  -8   1   12.24    3.73
   4  -8   2   -1.98    2.45
   4  -8   3   14.02    3.67
   4  -8   4    0.34    2.44
   4  -8   5    6.16    2.79
   4  -8   6    5.49    2.61
   4  -8   7   22.90    4.19
   4  -7  -5    9.82    3.29
   4  -7  -5    3.89    3.25
   4  -7  -4    7.10    2.29
   4  -7  -4    9.75    3.29
   4  -7  -3    6.00    2.82
   4  -7  -3    1.63    2.17
   4  -7  -2    6.46    2.14
   4  -7  -2    3.25    2.33
   4  -7  -1   22.59    4.23
   4  -7   0   17.56    3.98
   4  -7   1   53.05    6.36
   4  -7   2   -2.06    2.61
   4  -7   3   12.88    3.42
   4  -7   4   37.78    5.14
   4  -7   5    1.59    2.69
   4  -7   6   30.70    4.54
   4  -7   7    6.02    2.66
   4  -7   8   11.38    3.95
   4  -7   9    3.88    2.21
   4  -6  -7    0.51    2.35
   4  -6  -6   22.56    3.78
   4  -6  -5   31.49    4.55
   4  -6  -4   44.55    5.33
   4  -6  -3   -0.05    2.40
   4  -6  -3   -4.10    2.17
   4  -6  -2   22.80    4.38
   4  -6  -2   21.65    3.55
   4  -6  -1   37.33    4.00
   4  -6  -1   33.07    4.80
   4  -6   0   -1.93    1.72
   4  -6   0    0.46    2.02
   4  -6   1   -0.66    1.92
   4  -6   1   -0.10    1.17
   4  -6   2    1.40    1.72
   4  -6   3   10.95    2.82
   4  -6   4    2.28    2.77
   4  -6   5   19.57    3.72
   4  -6   6   15.13    3.28
   4  -6   7   19.81    3.80
   4  -6   8   12.13    2.96
   4  -6   9   67.26    6.80
   4  -6  10    5.75    3.02
   4  -5  -9    0.88    2.67
   4  -5  -8   27.85    5.26
   4  -5  -7   26.88    4.85
   4  -5  -6   11.48    3.52
   4  -5  -5   16.65    3.31
   4  -5  -4   10.94    2.86
   4  -5  -3   12.56    3.16
   4  -5  -3   15.69    2.92
   4  -5  -2   -2.13    2.02
   4  -5  -2   -2.10    1.93
   4  -5  -1   46.48    5.69
   4  -5  -1   42.59    3.96
   4  -5   0    2.54    1.68
   4  -5   0   -0.88    1.12
   4  -5   1   64.30    4.24
   4  -5   1   67.35    6.08
   4  -5   2  103.73    4.89
   4  -5   2  109.57    7.60
   4  -5   3    2.01    1.72
   4  -5   4   -3.49    2.35
   4  -5   5    2.49    1.54
   4  -5   6   35.91    4.26
   4  -5   7    0.81    1.69
   4  -5   8   26.15    4.16
   4  -5   9    3.98    2.36
   4  -5  10   -0.72    1.63
   4  -5  11    1.15    2.39
   4  -4 -10    6.23    3.41
   4  -4  -9    4.50    3.16
   4  -4  -8    2.99    2.13
   4  -4  -7   13.37    3.42
   4  -4  -6   37.70    4.93
   4  -4  -5   -0.44    1.65
   4  -4  -4   72.53    5.74
   4  -4  -3  136.13    7.39
   4  -4  -2   66.60    4.93
   4  -4  -2   67.61    5.98
   4  -4  -1    4.93    2.19
   4  -4  -1    8.15    1.73
   4  -4   0  154.72    6.22
   4  -4   0  147.79    8.58
   4  -4   1  146.52    5.51
   4  -4   1  139.58    8.01
   4  -4   2   11.53    2.78
   4  -4   2    7.73    1.29
   4  -4   3    0.01    1.69
   4  -4   4   13.12    2.69
   4  -4   5    2.88    2.47
   4  -4   6    9.54    3.01
   4  -4   7   47.86    5.14
   4  -4   8    8.12    2.41
   4  -4   9   14.98    3.40
   4  -4  10   13.70    3.11
   4  -4  11    0.61    1.87
   4  -4  12    2.05    2.61
   4  -3 -11    9.20    4.11
   4  -3 -10   17.20    4.39
   4  -3  -9   32.31    5.72
   4  -3  -8   22.81    4.46
   4  -3  -7   62.01    6.31
   4  -3  -6   17.75    3.39
   4  -3  -5   37.66    4.45
   4  -3  -4  121.91    7.27
   4  -3  -3    2.05    1.82
   4  -3  -2   51.17    4.82
   4  -3  -2   51.09    4.12
   4  -3  -1   31.89    3.01
   4  -3  -1   31.13    3.98
   4  -3   0   13.60    2.54
   4  -3   0   16.34    1.99
   4  -3   1  150.34    4.75
   4  -3   1  128.13    7.30
   4  -3   2   40.68    2.19
   4  -3   2   39.17    3.97
   4  -3   3   64.70    5.22
   4  -3   4   40.19    4.08
   4  -3   5    6.90    2.11
   4  -3   6   26.64    3.42
   4  -3   7   11.62    2.61
   4  -3   8   30.13    3.70
   4  -3   9    3.50    1.85
   4  -3  10   -3.46    2.42
   4  -3  11    4.50    2.02
   4  -3  12   14.12    3.49
   4  -2 -11    2.02    2.76
   4  -2 -10    8.56    2.91
   4  -2  -9    3.90    2.76
   4  -2  -8   -0.29    2.34
   4  -2  -7   26.93    4.28
   4  -2  -6   10.58    2.64
   4  -2  -5   42.55    4.52
   4  -2  -4  244.18    9.92
   4  -2  -3    5.48    1.77
   4  -2  -2  302.12   10.73
   4  -2  -2  290.58    9.12
   4  -2  -1   97.05    6.05
   4  -2  -1  100.75    4.80
   4  -2   0   30.48    3.46
   4  -2   0   29.13    2.33
   4  -2   1   31.01    3.52
   4  -2   1   33.64    2.05
   4  -2   2   15.45    2.48
   4  -2   2   12.17    0.97
   4  -2   3   33.66    3.43
   4  -2   4    4.58    1.93
   4  -2   5   -0.55    1.41
   4  -2   6   24.37    3.40
   4  -2   7   37.97    2.76
   4  -2   7   42.92    4.50
  -4   2  -7   42.00    2.51
   4  -2   8    1.36    0.97
  -4   2  -8    3.78    0.97
   4  -2   8    3.73    1.83
  -4   2  -9   52.40    3.73
   4  -2   9   47.67    4.18
   4  -2   9   50.84    5.38
  -4   2 -10   13.40    2.18
   4  -2  10    9.37    2.34
   4  -2  10   14.79    3.22
   4  -2  11    0.55    1.79
   4  -2  12   55.37    6.39
   4  -2  13   12.12    3.70
   4  -1 -12    2.72    3.45
   4  -1 -11    1.71    3.50
   4  -1 -10   10.68    3.58
  -4   1   9    1.73    1.98
   4  -1  -9   -1.24    2.24
   4  -1  -8   -1.28    1.92
  -4   1   8   -0.33    1.68
   4  -1  -7   25.24    4.13
  -4   1   7   25.60    4.85
   4  -1  -6   60.41    5.61
  -4   1   6   51.96    5.94
   4  -1  -5   60.66    5.20
  -4   1   5   59.91    6.07
  -4   1   4   15.98    3.10
   4  -1  -4   11.95    2.51
  -4   1   3    0.23    0.96
   4  -1  -3    1.72    1.54
   4  -1  -3    1.04    1.57
   4  -1  -2   -0.78    1.33
  -4   1   2    0.44    1.01
   4  -1  -2    1.61    1.01
   4  -1  -1   12.14    2.15
   4  -1  -1   10.98    1.72
  -4   1   1    9.17    1.78
   4  -1   0    0.86    1.13
  -4   1   0   -0.21    0.58
   4  -1   0    1.71    0.91
   4  -1   1  179.27    7.15
   4  -1   1  186.26    4.34
   4  -1   2   41.25    3.63
   4  -1   2   33.73    1.19
   4  -1   3  136.49    6.48
   4  -1   4  341.09   10.75
   4  -1   5   -0.44    1.59
  -4   1  -6   16.74    1.30
   4  -1   6   15.60    2.60
   4  -1   7   84.69    6.00
  -4   1  -7   79.36    3.41
   4  -1   8   90.41    6.75
  -4   1  -8   94.64    4.37
  -4   1  -9    3.18    0.97
   4  -1   9    7.57    2.42
   4  -1  10   26.52    4.23
  -4   1 -10   18.73    2.69
   4  -1  11    1.42    1.54
  -4   1 -11    5.06    1.93
   4  -1  12   11.91    3.36
  -4   1 -12    7.31    1.78
   4  -1  13    2.80    2.18
   4   0 -12    5.83    3.24
  -4   0  11   12.67    4.87
   4   0 -11    4.45    2.70
  -4   0  10   46.81    7.28
   4   0 -10   46.39    6.36
   4   0  -9    6.63    2.11
  -4   0   9    6.36    3.53
   4   0  -8   17.78    3.81
  -4   0   8   10.23    2.98
  -4   0   7   -0.98    1.50
   4   0  -7    4.01    2.25
   4   0  -6   -0.91    2.08
  -4   0   6    2.93    1.75
  -4   0   5    3.05    1.84
  -4   0   4   45.82    4.83
  -4   0   3   70.90    5.34
   4   0  -3   78.17    4.74
   4   0  -2   24.67    2.64
  -4   0   2   22.11    2.77
  -4   0   1  283.30    8.81
   4   0  -1  288.75    8.56
  -4   0   0  494.13   10.12
   4   0   0  500.45   11.06
   4   0   1   63.69    4.04
  -4   0  -1   63.92    2.99
  -4   0  -2   30.97    1.56
   4   0   2   30.69    3.06
   4   0   3  103.30    5.60
  -4   0  -4  173.00    2.83
   4   0   4  191.27    7.72
  -4   0  -5    6.43    0.81
   4   0   5    2.32    1.20
   4   0   6   15.34    2.88
  -4   0  -6   17.75    1.57
  -4   0  -7   12.58    1.54
   4   0   7   11.71    2.61
  -4   0  -8   10.90    1.71
   4   0   8    9.48    2.28
  -4   0  -9    6.74    1.53
   4   0   9    6.39    2.12
  -4   0 -10    2.13    1.61
   4   0  10    1.95    1.84
  -4   0 -11    7.50    2.10
   4   0  11    4.17    2.17
  -4   0 -12   -0.07    1.55
   4   0  12    3.15    2.31
  -4   0 -13    4.48    2.23
  -4  -1  12    1.29    3.98
   4   1 -12    5.43    3.72
   4   1 -11    2.20    3.25
  -4  -1  11   -1.19    2.84
  -4  -1  10   -1.61    2.39
   4   1 -10    2.99    2.39
   4   1  -9   10.05    3.13
  -4  -1   9   11.49    3.68
  -4  -1   8   68.85    7.65
  -4  -1   7   -1.85    1.75
  -4  -1   6  112.07    8.44
  -4  -1   5   76.30    6.54
  -4  -1   4  136.13    8.05
   4   1  -4  149.02    5.92
  -4  -1   3   96.24    6.29
   4   1  -3   99.84    4.67
  -4  -1   2  186.07    7.91
   4   1  -2  191.54    6.30
  -4  -1   1  111.50    5.53
   4   1  -1  111.85    4.75
  -4  -1   0  190.43    6.46
   4   1   0  192.93    6.23
  -4  -1  -1  256.13    6.50
   4   1   1  246.93    7.37
  -4  -1  -2   66.26    2.81
   4   1   2   70.94    4.32
  -4  -1  -3   64.89    2.57
   4   1   3   63.46    4.26
   4   1   4    7.74    2.02
  -4  -1  -4    7.99    1.05
  -4  -1  -5   41.95    2.37
   4   1   5   39.61    3.83
  -4  -1  -6   34.19    2.48
   4   1   6   29.95    3.59
  -4  -1  -7   16.52    2.15
   4   1   7   10.39    2.27
   4   1   8  129.54    8.06
  -4  -1  -8  147.86    6.12
  -4  -1  -9   16.45    2.36
   4   1   9   19.01    3.29
  -4  -1 -10   11.80    2.25
   4   1  10    8.47    2.36
  -4  -1 -11    5.40    1.79
  -4  -1 -12    3.87    1.83
  -4  -1 -13    8.58    2.52
  -4  -2  12    2.94    3.23
   4   2 -12   13.98    4.30
  -4  -2  11    3.83    3.34
   4   2 -11   -2.29    2.94
  -4  -2  10    5.89    2.55
  -4  -2   9   44.99    6.51
  -4  -2   8   17.75    3.78
  -4  -2   7    9.25    2.90
  -4  -2   6  214.76   11.68
  -4  -2   5  145.34    8.92
   4   2  -5  136.55    5.09
   4   2  -4   12.19    1.58
  -4  -2   4    8.77    2.20
   4   2  -3    7.84    1.40
  -4  -2   3    6.80    1.72
   4   2  -2  290.63    6.53
  -4  -2   2  289.75   10.20
  -4  -2   1  127.32    6.19
   4   2  -1  123.84    4.50
  -4  -2   0  387.94    9.50
   4   2   0  382.82    8.26
  -4  -2  -1   13.27    1.64
   4   2   1   13.12    1.68
  -4  -2  -2   80.17    3.67
   4   2   2   70.03    4.10
  -4  -2  -3  202.96    5.74
   4   2   3  189.96    7.25
  -4  -2  -4   28.17    2.29
   4   2   4   23.89    2.79
  -4  -2  -5  106.67    4.47
   4   2   5  105.39    6.22
  -4  -2  -6    5.15    1.23
   4   2   6    6.30    1.80
   4   2   7  176.48    8.99
  -4  -2  -7  171.90    6.43
   4   2   8    0.41    1.61
  -4  -2  -8   -1.27    1.24
   4   2   9    8.88    2.55
  -4  -2  -9    6.56    1.93
  -4  -2 -10    2.79    1.40
  -4  -2 -11   15.41    3.07
  -4  -2 -12    9.46    2.82
  -4  -2 -13   -4.16    2.74
  -4  -2 -14    3.19    2.43
   4   3 -12    3.17    2.90
  -4  -3  12    1.02    2.80
  -4  -3  11    5.42    3.00
  -4  -3  10    1.54    2.11
  -4  -3   9    3.28    2.04
  -4  -3   8    0.63    2.10
  -4  -3   7   51.50    6.42
  -4  -3   6  118.40    8.77
  -4  -3   5  145.63    9.14
  -4  -3   4   34.00    4.20
  -4  -3   3  164.24    8.50
  -4  -3   2   31.26    3.42
   4   3  -2   25.16    1.63
  -4  -3   1  156.68    6.98
   4   3  -1  158.49    4.49
  -4  -3   0   54.09    3.75
   4   3   0   59.55    3.17
  -4  -3  -1  136.26    5.62
   4   3   1  135.40    5.25
  -4  -3  -2 1352.59   17.23
   4   3   2 1334.82   17.99
  -4  -3  -3  275.99    7.82
   4   3   3  262.57    8.72
  -4  -3  -4  140.52    5.76
   4   3   4  140.86    6.74
  -4  -3  -5   15.97    2.08
   4   3   5   14.86    2.43
  -4  -3  -6   76.96    4.59
   4   3   6   76.00    5.79
  -4  -3  -7  206.41    7.71
   4   3   7  211.91   10.05
  -4  -3  -8   78.00    5.11
  -4  -3  -9    2.41    1.25
  -4  -3 -10   44.38    4.45
  -4  -3 -11    6.03    2.37
  -4  -3 -12    8.84    2.94
  -4  -3 -13   10.11    2.97
  -4  -3 -14    1.94    2.26
  -4  -4  12    3.29    3.48
  -4  -4  11   14.85    4.73
  -4  -4  10    7.46    3.61
  -4  -4   9   12.26    4.01
  -4  -4   8    6.55    2.83
  -4  -4   7   14.04    3.40
  -4  -4   6   11.53    3.13
  -4  -4   5    0.90    1.21
  -4  -4   4    7.26    1.91
  -4  -4   3   77.68    6.10
  -4  -4   2    7.29    1.97
  -4  -4   1    1.82    1.19
  -4  -4   0   67.50    4.53
   4   4   0   68.89    3.43
  -4  -4  -1  118.68    5.87
   4   4   1  116.96    4.98
  -4  -4  -2 1840.02   22.44
   4   4   2 1836.22   21.78
  -4  -4  -3  801.75   14.91
   4   4   3  780.12   15.42
  -4  -4  -4  102.28    5.44
  -4  -4  -5  121.86    6.16
  -4  -4  -6    3.83    2.02
  -4  -4  -7   79.81    5.31
  -4  -4  -8    7.00    2.48
  -4  -4  -9   12.19    2.61
  -4  -4 -10   16.26    3.35
  -4  -4 -11    5.39    2.07
  -4  -4 -12    5.15    2.07
  -4  -4 -13   -1.08    2.25
  -4  -4 -14   -1.86    2.65
  -4  -5  12    4.84    4.18
  -4  -5  11    1.24    2.82
  -4  -5  10    0.43    2.25
  -4  -5   9    2.08    2.29
  -4  -5   8   36.66    5.60
  -4  -5   7    2.52    1.84
  -4  -5   6    5.08    2.46
  -4  -5   5   70.71    6.74
  -4  -5   4    6.03    2.32
  -4  -5   3  228.64   10.50
  -4  -5   2  194.08    9.19
  -4  -5   1   55.26    4.64
  -4  -5   0   22.35    2.89
  -4  -5  -1  115.86    6.36
  -4  -5  -2    5.39    1.84
  -4  -5  -3  119.58    6.39
  -4  -5  -4   -0.13    1.44
  -4  -5  -5    4.24    2.07
  -4  -5  -6    2.60    1.77
  -4  -5  -7    3.80    2.04
  -4  -5  -8   31.67    3.99
  -4  -5  -9   64.03    5.79
  -4  -5 -10  129.09    8.40
  -4  -5 -11   33.27    4.56
  -4  -5 -12    2.81    1.85
  -4  -5 -13   11.56    3.45
  -4  -5 -14    3.49    2.79
  -4  -6  12    5.94    4.33
  -4  -6  11    0.73    2.54
  -4  -6  10    6.80    2.64
  -4  -6   9   26.64    5.14
  -4  -6   8    1.36    1.66
  -4  -6   7    5.62    2.75
  -4  -6   6    2.24    1.56
  -4  -6   5   18.34    3.61
  -4  -6   4   47.93    5.49
  -4  -6   3    1.52    1.03
  -4  -6   2    6.74    2.08
  -4  -6   1    1.92    1.09
  -4  -6   0   19.17    2.88
  -4  -6  -1    4.47    1.34
  -4  -6  -2    1.80    1.38
  -4  -6  -3   52.87    4.80
  -4  -6  -4  105.17    6.54
  -4  -6  -5  119.31    7.28
  -4  -6  -6   69.66    5.78
  -4  -6  -7   46.50    4.78
  -4  -6  -8   -2.45    1.89
  -4  -6  -9   41.02    4.71
  -4  -6 -10   55.19    5.87
  -4  -6 -11   32.01    4.78
  -4  -6 -12    3.53    2.78
  -4  -6 -13    5.32    3.10
  -4  -6 -14    2.16    2.80
  -4  -7  11   17.77    5.43
  -4  -7  10    9.03    4.37
  -4  -7   9   -2.10    2.85
  -4  -7   8    2.25    2.73
  -4  -7   7    1.22    2.32
  -4  -7   6    3.96    1.80
  -4  -7   5    0.20    1.51
  -4  -7   4    5.37    2.23
  -4  -7   3   45.85    5.13
  -4  -7   2    2.51    1.57
  -4  -7   1   56.37    5.21
  -4  -7   0   -0.48    1.16
  -4  -7  -1   14.66    2.79
  -4  -7  -2   49.65    4.71
  -4  -7  -3   21.18    3.67
  -4  -7  -4   18.72    3.47
  -4  -7  -5   12.75    3.26
  -4  -7  -6   31.76    4.34
  -4  -7  -7    0.55    1.81
  -4  -7  -8    1.58    1.89
  -4  -7  -9    5.82    2.84
  -4  -7 -10    0.72    2.19
  -4  -7 -11    8.42    3.26
  -4  -7 -12    4.60    3.28
  -4  -7 -13    6.23    2.80
  -4  -8  10    3.90    3.30
  -4  -8   9   -0.03    2.00
  -4  -8   8   13.44    4.18
  -4  -8   7    4.62    2.19
  -4  -8   6    6.52    2.51
  -4  -8   5    1.26    1.48
  -4  -8   4    1.18    1.58
  -4  -8   3   66.11    6.58
  -4  -8   2   11.08    2.68
  -4  -8   1    1.48    1.58
  -4  -8   0   51.50    5.08
  -4  -8  -1   36.93    4.61
  -4  -8  -2    0.32    1.28
  -4  -8  -3   -0.44    1.72
  -4  -8  -4    0.10    1.73
  -4  -8  -5   13.48    3.08
  -4  -8  -6    1.80    2.80
  -4  -8  -7    3.85    2.19
  -4  -8  -8    8.60    2.41
  -4  -8  -9   17.67    3.80
  -4  -8 -10    2.48    2.80
  -4  -8 -11    6.26    3.15
  -4  -8 -12    5.95    3.66
  -4  -8 -13   -3.55    3.47
  -4  -9   9    7.02    3.25
  -4  -9   8    6.97    3.23
  -4  -9   7   -1.47    2.29
  -4  -9   6    4.27    2.27
  -4  -9   5    1.99    1.86
  -4  -9   4    3.26    1.94
  -4  -9   3   35.91    5.02
  -4  -9   2   -2.73    1.84
  -4  -9   1    7.73    2.41
  -4  -9   0    2.71    1.78
  -4  -9  -1   51.41    5.59
  -4  -9  -2   33.56    4.73
  -4  -9  -3   17.26    3.61
  -4  -9  -4   18.34    3.66
  -4  -9  -5   10.85    3.46
  -4  -9  -6   11.87    3.33
  -4  -9  -7    3.46    2.05
  -4  -9  -8   11.35    3.82
  -4  -9  -9   10.89    4.00
  -4  -9 -10    1.20    2.61
  -4  -9 -11   -4.69    3.37
  -4  -9 -12   -0.91    3.24
  -4 -10   8   11.30    4.29
  -4 -10   7   11.46    4.72
  -4 -10   6    4.68    3.07
  -4 -10   5    1.15    2.79
  -4 -10   4    6.53    2.74
  -4 -10   3    1.84    1.97
  -4 -10   2   -0.78    1.63
  -4 -10   1    5.84    2.17
  -4 -10   0    6.35    2.13
  -4 -10  -1    1.72    1.62
  -4 -10  -2   17.87    3.71
  -4 -10  -3    2.88    1.99
  -4 -10  -4    1.32    1.91
  -4 -10  -5    4.28    2.55
  -4 -10  -6   -5.02    3.05
  -4 -10  -7    1.99    2.78
  -4 -10  -8    6.80    3.16
  -4 -10  -9   20.29    4.94
  -4 -10 -10    6.72    3.94
  -4 -10 -11    9.23    4.37
  -4 -11   7   -0.49    3.40
  -4 -11   6    3.31    3.53
  -4 -11   5    2.49    2.26
  -4 -11   4    2.27    1.77
  -4 -11   3    5.84    2.99
  -4 -11   2    3.14    1.51
  -4 -11   1    8.16    2.66
  -4 -11   0   -0.37    1.49
  -4 -11  -1    0.79    1.66
  -4 -11  -2    1.26    2.07
  -4 -11  -3   17.74    3.97
  -4 -11  -4   65.91    7.62
  -4 -11  -5    3.38    2.65
  -4 -11  -6    7.22    3.91
  -4 -11  -7    9.20    2.89
  -4 -11  -8    6.50    3.78
  -4 -11  -9   -0.49    3.15
  -4 -11 -10   -1.58    3.28
  -4 -12   5    1.26    2.35
  -4 -12   4    2.95    2.74
  -4 -12   3   -0.60    2.03
  -4 -12   2    8.91    3.24
  -4 -12   1    0.78    2.20
  -4 -12   0    2.02    2.34
  -4 -12  -1    0.42    1.88
  -4 -12  -2    9.07    3.26
  -4 -12  -3    2.51    1.88
  -4 -12  -4    2.41    2.72
  -4 -12  -5    0.02    1.89
  -4 -12  -6    0.76    2.21
  -4 -12  -7    1.48    3.26
  -4 -12  -8    1.24    3.65
  -4 -13   2    3.71    3.13
  -4 -13   1    2.89    2.85
  -4 -13   0   -1.58    2.49
  -4 -13  -1   -0.29    2.59
  -4 -13  -2   -3.72    2.39
  -4 -13  -3    0.62    2.63
  -4 -13  -4    0.03    2.50
  -4 -13  -5    0.49    2.85
   5  -9  -3    3.29    3.38
   5  -9  -2    8.14    3.68
   5  -9  -1    5.55    3.93
   5  -9   0   19.17    4.82
   5  -9   1    9.07    4.02
   5  -9   2    0.44    3.09
   5  -9   3   -3.15    2.62
   5  -9   4    1.01    3.35
   5  -9   5    4.50    3.41
   5  -8  -4    8.12    3.92
   5  -8  -3   12.65    4.81
   5  -8  -2    5.62    3.34
   5  -8  -1    5.51    2.66
   5  -8   0    3.77    3.12
   5  -8   1   -2.39    3.48
   5  -8   2    6.96    2.47
   5  -8   3   21.63    5.07
   5  -8   4    9.08    3.33
   5  -8   5   -3.98    3.20
   5  -8   6    2.78    2.52
   5  -8   7   48.45    6.83
   5  -7  -6    1.82    3.15
   5  -7  -5   -2.72    2.97
   5  -7  -4    4.42    2.77
   5  -7  -3    2.72    2.80
   5  -7  -2   19.77    5.03
   5  -7  -1   16.01    3.52
   5  -7   0   13.78    3.51
   5  -7   1    0.65    2.78
   5  -7   2   88.49    8.57
   5  -7   3   23.81    4.83
   5  -7   4    8.46    2.38
   5  -7   5    4.96    3.28
   5  -7   6    1.63    1.91
   5  -7   7   -3.70    2.92
   5  -7   8   -0.18    2.27
   5  -7   9   18.36    4.34
   5  -6  -6    5.42    2.73
   5  -6  -5   32.05    5.61
   5  -6  -4    7.83    3.63
   5  -6  -3    5.73    2.11
   5  -6  -2   10.54    3.87
   5  -6  -1   11.32    3.83
   5  -6   0    3.29    2.19
   5  -6   1    4.85    2.52
   5  -6   2    3.13    2.18
   5  -6   3    2.94    2.06
   5  -6   4    0.88    1.75
   5  -6   5   39.31    5.39
   5  -6   6   11.62    3.77
   5  -6   7    6.17    2.74
   5  -6   8    0.73    1.93
   5  -6   9   11.30    3.34
   5  -6  10   14.87    3.71
   5  -5  -7    0.24    2.93
   5  -5  -6    8.29    3.68
   5  -5  -6   12.05    3.86
   5  -5  -5    4.79    3.06
   5  -5  -5   -4.66    3.18
   5  -5  -4   12.46    3.61
   5  -5  -4    9.79    2.36
   5  -5  -3   13.76    3.16
   5  -5  -3   13.12    3.24
   5  -5  -2    8.00    3.04
   5  -5  -2   11.77    2.74
   5  -5  -1    9.26    3.12
   5  -5  -1    3.52    1.51
   5  -5   0  134.69    9.37
   5  -5   1   13.72    3.41
   5  -5   2   33.16    4.51
   5  -5   3   22.69    4.07
   5  -5   4   13.62    3.41
   5  -5   5    0.15    1.89
   5  -5   6   28.70    4.53
   5  -5   7   -0.29    1.90
   5  -5   8   -1.29    2.38
   5  -5   9    5.32    2.73
   5  -5  10    7.61    2.79
   5  -5  11   18.36    4.29
   5  -4  -8   -2.22    2.70
   5  -4  -7    7.56    3.15
   5  -4  -7    5.87    3.39
   5  -4  -6    2.33    1.97
   5  -4  -6    4.29    2.34
   5  -4  -5    5.28    1.96
   5  -4  -5   10.24    3.54
   5  -4  -4   50.76    6.13
   5  -4  -4   58.65    5.66
   5  -4  -3   49.75    5.72
   5  -4  -3   60.40    5.32
   5  -4  -2   17.66    3.83
   5  -4  -2   16.62    2.76
   5  -4  -1    2.30    1.95
   5  -4  -1    5.33    1.84
   5  -4   0    2.34    1.98
   5  -4   0    0.54    0.99
   5  -4   1   22.37    3.64
   5  -4   2    5.26    1.98
   5  -4   3   -2.76    2.48
   5  -4   4   -2.24    2.58
   5  -4   5    9.86    2.24
   5  -4   6   10.22    2.93
   5  -4   7   18.95    3.52
   5  -4   8   21.84    3.71
   5  -4   9   17.31    3.65
   5  -4  10    2.14    1.66
   5  -4  11    2.62    2.17
   5  -4  12   12.50    3.66
   5  -3  -9   27.33    5.27
   5  -3  -8   30.04    5.13
   5  -3  -7    3.13    2.00
   5  -3  -7   10.87    3.35
   5  -3  -6   27.33    4.62
   5  -3  -6   27.14    4.56
   5  -3  -5    1.64    1.60
   5  -3  -5   -1.64    1.81
   5  -3  -4   10.48    2.88
   5  -3  -4    8.00    2.36
   5  -3  -3   22.39    3.64
   5  -3  -3   20.52    2.84
   5  -3  -2    3.27    2.40
   5  -3  -2    2.44    1.21
   5  -3  -1   14.50    2.78
   5  -3  -1   15.10    2.20
   5  -3   0  266.87   11.59
   5  -3   0  259.00    7.73
   5  -3   1  204.85    6.03
   5  -3   1  219.79   10.34
   5  -3   2  248.11   10.69
   5  -3   3    1.45    1.72
   5  -3   4  101.20    7.09
   5  -3   5   52.57    5.29
   5  -3   6   42.11    4.84
   5  -3   7   57.73    5.85
   5  -3   8    7.46    2.14
   5  -3   9    0.30    2.22
   5  -3  10    1.02    1.94
   5  -3  11    0.57    1.87
   5  -3  12   -0.49    1.88
   5  -3  13    0.91    2.22
   5  -2 -10    7.36    4.21
   5  -2  -9    4.52    2.52
   5  -2  -8    6.52    3.20
   5  -2  -7    2.06    2.22
   5  -2  -7    3.08    2.62
   5  -2  -6   33.01    4.71
   5  -2  -6   32.86    4.43
   5  -2  -5    7.69    2.54
   5  -2  -5   12.83    3.36
   5  -2  -4   -0.37    1.44
   5  -2  -4    3.11    1.53
   5  -2  -3   52.62    5.16
   5  -2  -3   56.65    4.70
   5  -2  -2   74.32    5.87
   5  -2  -2   80.92    5.20
   5  -2  -1  100.19    6.56
   5  -2  -1  103.26    5.31
   5  -2   0  112.24    7.09
   5  -2   0  105.74    4.75
   5  -2   1  175.38    8.57
   5  -2   1  168.98    4.98
   5  -2   2  262.69   10.38
   5  -2   3   65.12    5.38
   5  -2   4   11.59    2.63
   5  -2   5    5.76    2.43
   5  -2   6   -0.15    1.76
   5  -2   7    0.31    1.92
   5  -2   8   54.27    5.84
   5  -2   9    0.19    1.75
   5  -2  10   33.84    4.81
   5  -2  11    0.56    1.70
   5  -2  12   17.23    3.86
   5  -2  13    8.67    2.76
   5  -1 -10   25.69    5.05
   5  -1  -9   12.04    3.52
  -5   1   8   -0.54    2.39
   5  -1  -8    3.11    2.16
   5  -1  -7   68.31    6.82
  -5   1   7   69.95    8.09
   5  -1  -7   64.26    5.78
   5  -1  -6   13.63    3.04
  -5   1   6    8.36    3.00
   5  -1  -6   14.31    3.18
   5  -1  -5   27.31    3.84
  -5   1   5   20.07    3.73
   5  -1  -5   27.95    3.81
   5  -1  -4   73.31    5.62
  -5   1   4   71.62    6.51
   5  -1  -4   70.37    5.56
   5  -1  -3    1.15    1.55
   5  -1  -3    2.13    1.44
  -5   1   3   -0.44    1.05
   5  -1  -2   30.58    3.92
   5  -1  -2   26.65    2.92
  -5   1   2   32.49    3.86
   5  -1  -1   27.24    2.87
   5  -1  -1   25.56    3.31
  -5   1   1   24.83    3.04
   5  -1   0   53.84    3.26
  -5   1   0   49.95    3.69
   5  -1   0   60.54    4.88
   5  -1   1   13.83    1.53
   5  -1   1   14.63    2.74
   5  -1   2    6.05    1.78
   5  -1   3   68.17    5.26
   5  -1   4  128.05    7.25
   5  -1   5    1.12    1.71
   5  -1   6  116.51    7.38
   5  -1   7   90.58    6.77
   5  -1   8  241.83   11.36
   5  -1   9  356.05   14.47
   5  -1  10    5.04    2.53
   5  -1  11    3.34    1.66
   5  -1  12   -1.05    2.01
   5  -1  13    0.52    1.78
   5  -1  14    4.37    2.96
   5   0 -11   -0.30    2.36
  -5   0  10    5.78    3.84
   5   0 -10   11.69    3.62
  -5   0   9    7.08    3.02
   5   0  -9   18.79    4.63
   5   0  -8    5.69    2.05
  -5   0   8    8.03    3.28
  -5   0   7   26.89    5.03
   5   0  -7   33.23    4.73
   5   0  -6   -3.40    1.86
  -5   0   6   -0.50    1.68
   5   0  -6    2.11    2.33
   5   0  -5   16.64    2.64
  -5   0   5   10.06    3.07
   5   0  -5   14.85    3.04
  -5   0   4   50.67    5.34
   5   0  -4   50.89    4.41
   5   0  -3    9.26    2.42
  -5   0   3    4.96    2.03
  -5   0   2   76.49    5.65
   5   0  -2   79.26    5.20
   5   0  -1   39.27    3.64
  -5   0   1   41.80    3.76
   5   0   0   20.92    2.54
  -5   0   0   19.69    2.26
  -5   0  -1  407.49    8.79
   5   0   1  400.92   11.30
  -5   0  -2    3.61    0.77
   5   0   2    1.67    1.35
   5   0   3  140.80    7.16
   5   0   4  552.27   14.47
   5   0   5   37.88    4.18
   5   0   6    1.36    1.94
   5   0   7   72.02    5.80
   5   0   8   73.42    6.41
  -5   0  -8   63.54    3.42
  -5   0  -9  147.79    5.79
   5   0   9  155.82    9.76
  -5   0 -10   15.16    2.14
   5   0  10   18.70    3.86
   5   0  11    2.08    1.94
   5   0  12   13.18    3.75
   5   0  13    1.85    2.14
   5   1 -11   -0.25    2.60
  -5  -1  11    0.30    3.48
   5   1 -10    0.87    2.36
  -5  -1  10    2.53    2.53
   5   1  -9   24.61    4.79
  -5  -1   9   30.21    5.83
   5   1  -8   33.06    4.94
  -5  -1   8   33.56    5.96
  -5  -1   7   31.98    5.42
  -5  -1   6    1.14    1.98
  -5  -1   5   51.69    5.88
   5   1  -5   48.06    3.93
  -5  -1   4   60.15    5.81
   5   1  -4   60.20    4.19
  -5  -1   3   53.01    5.06
   5   1  -3   64.17    4.29
   5   1  -2    7.24    1.73
  -5  -1   2    6.30    1.83
   5   1  -1    7.32    1.89
  -5  -1   1    5.79    1.52
  -5  -1   0   37.24    3.23
   5   1   0   41.43    3.56
   5   1   1   36.53    3.38
  -5  -1  -1   41.09    2.98
  -5  -1  -2   63.02    3.28
   5   1   2   62.64    4.52
  -5  -1  -3   11.37    1.18
   5   1   3   14.52    2.44
  -5  -1  -4  222.18    4.82
   5   1   4  231.54    9.05
  -5  -1  -5    1.96    0.68
   5   1   5    2.05    1.17
  -5  -1  -6  136.48    4.53
   5   1   6  145.16    7.92
  -5  -1  -7    9.61    1.43
   5   1   7    6.51    2.12
  -5  -1  -8   36.20    2.83
   5   1   8   40.98    4.55
   5   1   9   74.07    6.70
  -5  -1  -9   81.69    4.64
   5   1  10    0.17    1.45
  -5  -1 -10   -0.09    0.96
  -5  -1 -11   48.75    4.32
   5   1  11   48.64    6.12
   5   1  12   16.82    3.89
  -5  -1 -12   14.03    2.50
  -5  -2  11   10.42    3.86
   5   2 -11    5.90    3.16
   5   2 -10    8.94    4.07
  -5  -2  10    5.81    4.01
  -5  -2   9   11.90    4.06
  -5  -2   8   36.33    5.78
  -5  -2   7    6.20    3.04
  -5  -2   6   29.67    4.73
  -5  -2   5  250.53   12.51
   5   2  -4    3.50    1.15
  -5  -2   4    1.94    1.23
  -5  -2   3  123.93    7.73
   5   2  -3  126.42    5.27
   5   2  -2    9.17    1.50
  -5  -2   2    6.67    1.82
  -5  -2   1   13.45    2.28
   5   2  -1   12.35    1.90
   5   2   0    5.94    1.70
  -5  -2   0    2.24    1.07
  -5  -2  -1   17.66    2.20
   5   2   1   16.29    2.19
  -5  -2  -2   43.25    2.97
   5   2   2   50.00    3.91
  -5  -2  -3  339.38    7.77
   5   2   3  341.03   10.46
  -5  -2  -4   15.90    1.67
   5   2   4   20.07    2.76
  -5  -2  -5   33.83    2.60
   5   2   5   34.55    3.93
  -5  -2  -6   27.34    2.49
   5   2   6   23.82    3.42
  -5  -2  -7    2.84    1.22
   5   2   7    1.13    1.63
  -5  -2  -8    4.35    1.83
   5   2   8    6.31    2.29
  -5  -2  -9    9.80    1.96
   5   2   9    9.89    2.79
  -5  -2 -10   30.09    3.48
   5   2  10   31.75    4.98
   5   2  11   19.73    4.19
  -5  -2 -11   20.37    3.02
  -5  -2 -12   18.52    3.20
  -5  -2 -13    8.82    2.39
   5   3 -11    4.09    2.58
  -5  -3  11    4.70    3.90
  -5  -3  10   11.85    4.43
  -5  -3   9    5.06    3.49
  -5  -3   8   18.44    4.35
  -5  -3   7  101.70    9.00
  -5  -3   6   27.51    4.66
  -5  -3   5   82.98    7.26
  -5  -3   4   54.83    5.72
  -5  -3   3  188.16    9.68
  -5  -3   2   31.87    3.88
   5   3  -2   27.15    2.25
  -5  -3   1    3.25    1.41
   5   3  -1    3.50    1.03
  -5  -3   0   16.60    2.40
   5   3   0   16.49    2.01
  -5  -3  -1    1.65    0.87
   5   3   1    3.44    1.07
  -5  -3  -2    0.86    0.56
   5   3   2    1.77    0.99
  -5  -3  -3  114.12    5.24
   5   3   3  122.73    6.29
  -5  -3  -4   58.83    3.77
   5   3   4   61.11    4.75
   5   3   5   15.79    2.55
  -5  -3  -5   15.21    2.10
  -5  -3  -6   14.42    2.16
   5   3   6   10.78    2.22
  -5  -3  -7   44.00    3.80
   5   3   7   44.79    4.86
  -5  -3  -8   41.49    3.77
   5   3   8   36.37    4.87
  -5  -3  -9   -0.61    1.26
   5   3   9    0.03    1.38
  -5  -3 -10    6.70    1.89
  -5  -3 -11   57.77    5.13
  -5  -3 -12   19.48    3.50
  -5  -3 -13    4.61    2.58
  -5  -4  11    9.07    3.75
  -5  -4  10   21.35    5.35
  -5  -4   9   53.55    7.61
  -5  -4   8    6.34    3.03
  -5  -4   7    9.16    3.53
  -5  -4   6   -1.10    1.80
  -5  -4   5    1.58    1.24
  -5  -4   4   50.71    5.60
  -5  -4   3   55.43    5.52
  -5  -4   2    2.12    1.45
  -5  -4   1   55.31    4.79
   5   4  -1   55.76    3.03
  -5  -4   0    0.87    1.03
   5   4   0    0.66    0.73
  -5  -4  -1   61.98    4.52
   5   4   1   64.49    4.03
  -5  -4  -2   94.36    5.39
   5   4   2   90.64    5.17
  -5  -4  -3  139.06    6.43
   5   4   3  142.72    6.91
  -5  -4  -4   41.95    3.65
   5   4   4   45.45    4.23
   5   4   5   14.68    2.61
  -5  -4  -5   12.30    2.00
  -5  -4  -6    7.46    2.10
   5   4   6    3.16    1.34
  -5  -4  -7  179.03    7.77
   5   4   7  191.23   10.17
  -5  -4  -8   70.90    5.20
  -5  -4  -9    6.47    1.78
  -5  -4 -10    0.16    2.02
  -5  -4 -11    3.13    1.95
  -5  -4 -12   -0.71    1.63
  -5  -4 -13    2.12    2.01
  -5  -5  11    0.78    2.97
  -5  -5  10   -2.64    2.96
  -5  -5   9   10.84    3.92
  -5  -5   8    1.37    2.14
  -5  -5   7   14.32    3.53
  -5  -5   6    1.84    1.99
  -5  -5   5   28.43    4.59
  -5  -5   4   33.53    4.63
  -5  -5   3   15.73    3.20
  -5  -5   2   50.91    4.99
  -5  -5   1  282.05   11.21
  -5  -5   0    4.15    1.46
  -5  -5  -1   -0.04    0.94
  -5  -5  -2  185.68    8.26
  -5  -5  -3   -1.33    1.14
  -5  -5  -4   10.56    2.15
  -5  -5  -5   40.29    4.05
  -5  -5  -6   -0.37    1.47
  -5  -5  -7   -0.55    1.65
  -5  -5  -8    1.55    1.64
  -5  -5  -9   14.02    2.85
  -5  -5 -10   -2.92    2.27
  -5  -5 -11   -1.52    2.12
  -5  -5 -12   -0.54    1.98
  -5  -5 -13   21.36    4.39
  -5  -6  11   -1.82    3.15
  -5  -6  10    0.37    2.78
  -5  -6   9    2.72    2.65
  -5  -6   8   11.43    3.69
  -5  -6   7   -1.04    2.12
  -5  -6   6    6.49    2.81
  -5  -6   5   40.36    5.62
  -5  -6   4    1.97    1.88
  -5  -6   3   -0.35    1.24
  -5  -6   2   26.22    3.92
  -5  -6   1   17.86    3.09
  -5  -6   0    1.24    1.09
  -5  -6  -1    7.08    1.79
  -5  -6  -2   27.20    3.52
  -5  -6  -3   80.89    5.82
  -5  -6  -4    0.64    1.80
  -5  -6  -5   19.00    3.11
  -5  -6  -6    7.34    2.12
  -5  -6  -7   28.96    3.89
  -5  -6  -8    8.65    2.40
  -5  -6  -9   35.23    4.56
  -5  -6 -10   61.17    6.13
  -5  -6 -11    1.87    2.00
  -5  -6 -12    8.99    3.33
  -5  -6 -13   13.21    3.72
  -5  -7  10   28.35    6.56
  -5  -7   9    4.16    2.17
  -5  -7   8   -0.21    2.58
  -5  -7   7    1.33    2.38
  -5  -7   6   22.06    4.58
  -5  -7   5   -0.37    1.79
  -5  -7   4    6.78    2.48
  -5  -7   3   27.64    4.43
  -5  -7   2   17.78    3.36
  -5  -7   1    1.48    1.25
  -5  -7   0    3.66    2.01
  -5  -7  -1   45.22    4.90
  -5  -7  -2    1.04    1.42
  -5  -7  -3   27.59    3.56
  -5  -7  -4   51.82    5.10
  -5  -7  -5    6.13    1.92
  -5  -7  -6    2.74    1.46
  -5  -7  -7    4.36    2.83
  -5  -7  -8    1.43    1.73
  -5  -7  -9    3.24    2.29
  -5  -7 -10   30.37    4.50
  -5  -7 -11   41.04    5.83
  -5  -7 -12    3.34    2.08
  -5  -7 -13   -0.59    3.08
  -5  -8  10    6.50    3.59
  -5  -8   9    1.78    3.32
  -5  -8   8   23.36    5.41
  -5  -8   7   14.77    4.80
  -5  -8   6   45.51    6.61
  -5  -8   5   26.07    5.11
  -5  -8   4   12.45    3.33
  -5  -8   3   25.66    4.45
  -5  -8   2   31.31    4.73
  -5  -8   1   -0.76    1.25
  -5  -8   0   -0.23    1.25
  -5  -8  -1   13.68    2.86
  -5  -8  -2   17.40    3.26
  -5  -8  -3   24.68    3.84
  -5  -8  -4   18.73    3.30
  -5  -8  -5   34.66    4.40
  -5  -8  -6   -0.14    1.66
  -5  -8  -7    8.52    2.80
  -5  -8  -8   11.60    3.42
  -5  -8  -9   28.22    4.85
  -5  -8 -10    5.97    2.82
  -5  -8 -11    2.79    2.38
  -5  -8 -12    5.23    3.53
  -5  -9   9   -3.52    3.58
  -5  -9   8   22.51    5.39
  -5  -9   7    2.09    3.37
  -5  -9   6   -0.89    2.06
  -5  -9   5    4.28    2.79
  -5  -9   4   11.46    3.71
  -5  -9   3    3.78    2.17
  -5  -9   2    5.92    2.11
  -5  -9   1   34.53    5.02
  -5  -9   0   14.27    3.24
  -5  -9  -1    7.34    2.55
  -5  -9  -2   66.94    6.71
  -5  -9  -3   29.61    4.49
  -5  -9  -4    8.03    2.42
  -5  -9  -5    6.66    2.48
  -5  -9  -6   12.46    3.66
  -5  -9  -7    0.67    2.16
  -5  -9  -8    4.12    2.65
  -5  -9  -9   -2.51    2.48
  -5  -9 -10    1.16    2.94
  -5  -9 -11    1.65    2.53
  -5  -9 -12    4.22    4.00
  -5 -10   8   -0.34    3.33
  -5 -10   7    5.94    3.55
  -5 -10   6   24.03    5.41
  -5 -10   5    1.66    2.45
  -5 -10   4   46.66    6.66
  -5 -10   3  111.69    9.79
  -5 -10   2   36.26    5.37
  -5 -10   1    1.24    1.58
  -5 -10   0    5.83    2.75
  -5 -10  -1    3.49    1.78
  -5 -10  -2    3.53    1.65
  -5 -10  -3    4.56    2.59
  -5 -10  -4    1.16    1.51
  -5 -10  -5    2.19    1.57
  -5 -10  -6    1.36    2.02
  -5 -10  -7   10.20    3.89
  -5 -10  -8    2.35    2.23
  -5 -10  -9    3.65    3.20
  -5 -10 -10    6.86    3.24
  -5 -10 -11    7.48    4.12
  -5 -11   7    4.32    3.08
  -5 -11   6    1.92    3.03
  -5 -11   5    5.13    3.23
  -5 -11   4   -1.87    2.24
  -5 -11   3   12.92    3.89
  -5 -11   2   28.35    5.17
  -5 -11   1    9.22    3.45
  -5 -11   0   -0.20    1.94
  -5 -11  -1    0.58    1.71
  -5 -11  -2   -1.01    2.13
  -5 -11  -3   -0.44    2.16
  -5 -11  -4   32.25    5.50
  -5 -11  -5   16.21    3.82
  -5 -11  -6    3.51    2.84
  -5 -11  -7    1.83    2.41
  -5 -11  -8   14.86    4.11
  -5 -11  -9    6.56    4.49
  -5 -11 -10    1.37    3.19
  -5 -12   5    1.97    2.56
  -5 -12   4    9.98    4.09
  -5 -12   3    4.93    3.54
  -5 -12   2    3.12    2.57
  -5 -12   1    1.34    2.00
  -5 -12   0    3.46    2.37
  -5 -12  -1    0.99    2.48
  -5 -12  -2   -0.99    2.07
  -5 -12  -3    4.01    2.68
  -5 -12  -4    0.71    2.07
  -5 -12  -5   17.69    4.61
  -5 -12  -6    9.70    4.19
  -5 -12  -7   -1.29    2.77
  -5 -12  -8    1.99    3.00
  -5 -13   2    2.09    2.38
  -5 -13   1    1.74    2.67
  -5 -13   0   14.05    4.03
  -5 -13  -1    2.74    2.82
  -5 -13  -2   -1.36    1.92
  -5 -13  -3    5.20    4.19
  -5 -13  -4    0.61    2.51
  -5 -13  -5   -2.09    3.05
  -5 -13  -6    0.61    2.57
   6  -9   1    8.71    3.70
   6  -9   2   -0.30    2.51
   6  -9   3    6.53    3.42
   6  -8  -2   -1.47    3.70
   6  -8  -1   11.59    4.50
   6  -8   0    5.99    3.35
   6  -8   1    2.57    3.22
   6  -8   2    3.42    2.71
   6  -8   3    2.52    3.25
   6  -8   4    3.44    3.03
   6  -8   5    1.01    2.93
   6  -8   6   10.48    3.82
   6  -8   7    0.89    3.66
   6  -7  -4   -0.72    3.54
   6  -7  -3   -3.96    3.63
   6  -7  -2   25.14    5.92
   6  -7  -1    7.04    3.89
   6  -7   0    5.35    2.80
   6  -7   1   -4.19    3.37
   6  -7   2    5.99    3.29
   6  -7   3   18.24    4.66
   6  -7   4    1.13    2.31
   6  -7   5   -0.20    2.26
   6  -7   6   16.25    3.98
   6  -7   7   36.64    5.93
   6  -7   8   15.19    4.34
   6  -7   9    8.66    3.31
   6  -6  -5    6.20    3.82
   6  -6  -4   33.09    6.14
   6  -6  -3    0.26    2.52
   6  -6  -2    6.53    3.35
   6  -6  -1   13.53    4.23
   6  -6   0    3.94    1.95
   6  -6   1    8.71    4.26
   6  -6   2   42.94    5.97
   6  -6   3    0.08    2.35
   6  -6   4    8.18    3.07
   6  -6   5   -1.60    2.72
   6  -6   6    6.17    3.37
   6  -6   7    7.83    3.35
   6  -6   8    6.97    2.78
   6  -6   9    1.83    2.40
   6  -6  10   -2.66    2.94
   6  -5  -6   -1.17    2.93
   6  -5  -5   11.87    4.29
   6  -5  -4   -5.94    3.56
   6  -5  -3   -2.07    2.41
   6  -5  -2   12.01    3.74
   6  -5  -1    4.01    2.36
   6  -5   0   44.06    5.93
   6  -5   1   12.90    3.65
   6  -5   2    9.34    3.22
   6  -5   3   25.68    4.60
   6  -5   4   22.85    4.34
   6  -5   5   32.78    5.10
   6  -5   6    2.76    2.61
   6  -5   7   12.03    3.20
   6  -5   8   10.98    3.58
   6  -5   9    5.14    1.98
   6  -5  10   25.46    4.75
   6  -5  11    6.66    3.46
   6  -4  -6   -0.69    3.27
   6  -4  -5   22.71    4.25
   6  -4  -4   20.75    4.77
   6  -4  -3   32.03    5.31
   6  -4  -2   25.83    4.57
   6  -4  -1   -4.76    2.74
   6  -4   0   62.13    6.62
   6  -4   1   15.94    3.70
   6  -4   2   11.67    2.86
   6  -4   3    8.46    2.45
   6  -4   4    2.28    1.90
   6  -4   5    2.09    2.44
   6  -4   6    4.78    2.20
   6  -4   7   -0.07    1.73
   6  -4   8   23.81    4.42
   6  -4   9   -1.74    2.21
   6  -4  10   40.43    5.85
   6  -4  11   11.07    3.50
   6  -4  12   14.63    4.47
   6  -3  -7   13.01    3.19
   6  -3  -6   34.26    5.94
   6  -3  -6   27.35    4.60
   6  -3  -5   34.27    4.84
   6  -3  -5   36.81    4.70
   6  -3  -4    8.03    3.04
   6  -3  -4    3.95    2.15
   6  -3  -3    1.74    2.50
   6  -3  -3   -0.56    1.46
   6  -3  -2    3.55    2.01
   6  -3  -2    4.95    1.97
   6  -3  -1   -1.38    1.46
   6  -3  -1    1.86    2.12
   6  -3   0   50.44    5.41
   6  -3   1   57.66    5.81
   6  -3   2  117.15    8.04
   6  -3   3   90.37    7.18
   6  -3   4    8.70    2.36
   6  -3   5   10.38    2.91
   6  -3   6   -2.55    2.44
   6  -3   7   10.22    3.18
   6  -3   8    4.97    3.04
   6  -3   9    7.13    2.60
   6  -3  10   -1.56    2.02
   6  -3  11   -3.43    3.02
   6  -3  12    5.52    2.68
   6  -3  13    8.56    3.86
   6  -2  -8    3.36    3.38
   6  -2  -7   21.42    4.69
   6  -2  -6    6.17    2.96
   6  -2  -6   -3.78    2.36
   6  -2  -5    7.07    3.02
   6  -2  -5    5.88    2.60
   6  -2  -4   -4.26    2.23
   6  -2  -4   -0.77    1.32
   6  -2  -3   23.34    3.56
   6  -2  -3   30.79    3.86
   6  -2  -2   84.00    6.69
   6  -2  -2   85.64    5.72
   6  -2  -1   53.37    5.19
   6  -2  -1   58.99    4.40
   6  -2   0    0.85    1.78
   6  -2   0   -0.09    0.87
   6  -2   1   21.03    3.63
   6  -2   2  231.64   10.60
   6  -2   3   24.95    3.26
   6  -2   4   80.11    6.59
   6  -2   5   11.74    3.19
   6  -2   6    3.42    2.62
   6  -2   7    0.62    1.91
   6  -2   8   14.43    3.22
   6  -2   9    4.44    2.09
   6  -2  10   16.26    3.78
   6  -2  11    2.19    2.00
   6  -2  12    3.39    2.81
   6  -2  13   -0.72    1.89
   6  -1  -9   24.60    4.83
   6  -1  -8    2.94    2.04
   6  -1  -7   22.76    4.48
   6  -1  -6   61.45    6.49
   6  -1  -6   45.39    5.38
  -6   1   6   47.22    6.17
   6  -1  -5    3.61    2.25
  -6   1   5    3.26    2.00
   6  -1  -5    2.64    1.82
  -6   1   4   44.00    5.44
   6  -1  -4   55.17    5.40
   6  -1  -4   43.53    4.68
   6  -1  -3  200.33    9.28
  -6   1   3  194.14   10.73
   6  -1  -3  191.29    9.65
   6  -1  -2    2.21    1.52
  -6   1   2    4.13    1.95
   6  -1  -2    3.18    1.69
   6  -1  -1    9.05    2.23
  -6   1   1    5.97    1.87
   6  -1  -1    7.67    1.76
   6  -1   0   18.02    3.26
   6  -1   0   18.50    2.25
   6  -1   1   -1.26    1.55
   6  -1   1    0.23    0.82
   6  -1   2   60.26    5.60
   6  -1   3    2.75    1.89
   6  -1   4  188.11    9.47
   6  -1   5   24.49    3.86
   6  -1   6   27.37    3.88
   6  -1   7   95.71    7.43
   6  -1   8   14.22    3.38
   6  -1   9    5.25    2.73
   6  -1  10    8.88    2.85
   6  -1  11    6.24    2.52
   6  -1  12    2.10    2.39
   6  -1  13   24.12    5.27
   6  -1  14    5.91    3.42
  -6   0   9    8.24    4.57
   6   0  -9    5.12    2.64
  -6   0   8   11.68    4.25
   6   0  -8    7.54    2.51
   6   0  -7    4.17    2.64
  -6   0   7   -0.70    2.40
  -6   0   6   -0.95    2.14
   6   0  -6   -1.36    1.96
   6   0  -5   34.73    4.57
  -6   0   5   37.70    5.42
   6   0  -5   47.84    4.92
   6   0  -4    2.43    1.50
   6   0  -4    0.87    1.38
  -6   0   4    0.02    1.31
  -6   0   3   52.49    5.48
   6   0  -3   69.81    5.49
   6   0  -3   59.84    5.15
   6   0  -2   12.02    2.79
  -6   0   2   13.72    2.53
  -6   0   1  123.42    6.94
   6   0  -1  123.58    7.05
  -6   0   0   56.71    4.21
   6   0   0   61.59    5.16
   6   0   1   14.33    2.76
  -6   0  -1   11.15    1.68
   6   0   2   26.93    3.49
   6   0   3    5.69    2.07
   6   0   4   72.31    6.09
   6   0   5   89.03    6.82
   6   0   6   97.03    7.29
   6   0   7   15.82    3.41
   6   0   8   33.60    4.69
   6   0   9    2.28    1.67
   6   0  10   23.57    4.41
   6   0  11    3.11    2.49
   6   0  12    1.13    2.51
   6   0  13   11.53    3.71
   6   0  14   10.70    3.98
   6   1 -10    2.32    2.65
  -6  -1  10    3.52    4.14
   6   1  -9   -3.18    3.20
  -6  -1   9    1.58    2.57
   6   1  -8   -3.86    2.31
  -6  -1   8   -0.53    2.27
  -6  -1   7    3.03    2.52
   6   1  -7   -2.59    3.11
  -6  -1   6    0.65    1.56
  -6  -1   5  101.03    8.57
   6   1  -4   35.20    3.62
  -6  -1   4   33.84    4.71
   6   1  -3    1.74    1.29
  -6  -1   3    2.23    1.47
   6   1  -2   32.20    3.57
  -6  -1   2   27.32    3.50
   6   1  -1   22.27    3.03
  -6  -1   1   22.00    3.03
   6   1   0    4.55    1.59
  -6  -1   0    2.25    1.05
  -6  -1  -1   12.68    1.82
   6   1   1   11.98    2.56
  -6  -1  -2   50.50    3.19
   6   1   2   53.24    4.62
  -6  -1  -3    6.67    1.10
   6   1   3    6.41    2.04
   6   1   4   12.57    3.08
   6   1   5   83.97    6.48
   6   1   6   76.77    6.18
   6   1   7    4.44    1.90
   6   1   8    3.28    1.74
   6   1   9  201.14   11.44
   6   1  10    2.04    1.74
   6   1  11    6.03    3.09
   6   1  12    9.76    3.32
   6   1  13    3.36    2.75
   6   2 -10    9.56    3.38
  -6  -2  10    6.97    4.16
  -6  -2   9   21.31    5.46
   6   2  -9   26.66    5.04
  -6  -2   8    3.07    2.22
  -6  -2   7   34.03    5.64
  -6  -2   6    2.73    1.61
  -6  -2   5   -0.83    1.67
  -6  -2   4   53.59    5.96
  -6  -2   3  104.08    7.56
   6   2  -3   87.90    5.10
  -6  -2   2   -0.65    0.98
   6   2  -2    3.24    1.62
  -6  -2   1   -0.91    1.14
   6   2  -1   -1.00    1.17
  -6  -2   0   25.52    3.07
   6   2   0   24.84    2.98
  -6  -2  -1   77.37    4.90
   6   2   1   75.72    5.13
  -6  -2  -2   37.61    3.14
   6   2   2   38.31    4.06
  -6  -2  -3   20.13    2.02
   6   2   3   25.46    3.18
  -6  -2  -4   28.35    2.35
   6   2   4   31.89    3.77
  -6  -2  -5   12.32    1.57
   6   2   5   12.91    2.49
  -6  -2  -6    3.07    0.90
   6   2   6    3.61    1.72
  -6  -2  -7   45.89    3.25
   6   2   7   54.40    5.68
  -6  -2  -8   21.15    2.28
   6   2   8   28.90    4.23
  -6  -2  -9   28.88    3.04
   6   2   9   35.18    5.08
  -6  -2 -10    1.16    1.48
   6   2  10   -0.37    1.49
   6   2  11    3.74    1.93
   6   2  12   -0.52    1.88
  -6  -3  10    0.93    3.02
  -6  -3   9    3.78    3.59
  -6  -3   8    4.03    2.85
  -6  -3   7   23.23    4.96
  -6  -3   6    2.02    2.30
  -6  -3   5   39.48    5.67
  -6  -3   4    8.98    2.90
  -6  -3   3  257.59   12.00
  -6  -3   2   38.82    4.47
   6   3  -2   45.04    3.48
   6   3  -1    6.79    1.58
  -6  -3   1    7.40    2.05
  -6  -3   0  176.11    8.31
   6   3   0  182.83    7.19
  -6  -3  -1  149.74    7.08
   6   3   1  162.88    7.15
  -6  -3  -2   31.59    3.12
   6   3   2   27.84    3.23
  -6  -3  -3    3.15    1.05
   6   3   3   -0.29    1.41
  -6  -3  -4   15.48    2.02
   6   3   4   16.48    3.12
  -6  -3  -5    4.82    1.23
   6   3   5    2.34    1.23
   6   3   6   -1.73    1.62
  -6  -3  -6   -0.07    1.05
   6   3   7    6.08    2.07
  -6  -3  -7    8.17    1.64
  -6  -3  -8   -1.27    1.48
   6   3   8    1.56    1.20
  -6  -3  -9   36.90    3.71
   6   3   9   37.32    4.96
  -6  -3 -10    0.39    1.49
   6   3  10    4.04    2.43
  -6  -3 -11   48.62    4.73
   6   3  11   58.35    7.05
  -6  -3 -12    0.72    1.51
  -6  -4  10    2.74    2.76
  -6  -4   9   -1.89    3.29
  -6  -4   8   35.70    6.22
  -6  -4   7   18.47    4.63
  -6  -4   6    5.70    2.60
  -6  -4   5  111.94    9.23
  -6  -4   4   98.29    8.11
  -6  -4   3   18.76    3.58
  -6  -4   2   66.89    6.17
  -6  -4   1  331.81   12.61
   6   4  -1  308.22    8.27
  -6  -4   0   -1.81    1.18
   6   4   0    0.80    0.96
  -6  -4  -1   28.66    3.29
   6   4   1   26.87    2.95
  -6  -4  -2   13.76    2.30
   6   4   2   16.79    2.63
  -6  -4  -3    0.70    0.72
   6   4   3    0.19    0.99
  -6  -4  -4   54.40    4.23
   6   4   4   53.26    4.79
  -6  -4  -5   52.83    4.10
   6   4   5   45.07    4.79
   6   4   6    2.86    1.11
  -6  -4  -6    3.90    1.45
   6   4   7   15.29    3.29
  -6  -4  -7   13.57    2.42
  -6  -4  -8   82.97    5.51
   6   4   8   74.71    7.02
  -6  -4  -9   20.78    3.32
   6   4   9   16.83    3.82
  -6  -4 -10    5.11    1.74
  -6  -4 -11   13.74    2.74
  -6  -4 -12   -0.05    1.77
  -6  -5  10    2.47    4.00
  -6  -5   9    4.24    3.08
  -6  -5   8    2.50    2.75
  -6  -5   7    1.45    2.30
  -6  -5   6   16.48    4.22
  -6  -5   5   36.02    5.44
  -6  -5   4   45.75    6.07
  -6  -5   3   26.48    4.45
  -6  -5   2    3.55    1.83
  -6  -5   1  150.91    8.73
  -6  -5   0   43.50    4.58
   6   5   0   40.33    3.18
  -6  -5  -1    2.87    1.55
   6   5   1    3.73    1.33
  -6  -5  -2  192.74    8.77
   6   5   2  197.48    8.23
  -6  -5  -3  397.41   12.33
   6   5   3  403.89   12.59
  -6  -5  -4   98.89    6.10
   6   5   4  112.32    6.99
  -6  -5  -5    3.64    1.40
   6   5   5    7.77    2.32
   6   5   6    1.49    1.61
  -6  -5  -6   -0.44    1.27
  -6  -5  -7   11.97    2.42
  -6  -5  -8   14.42    2.81
  -6  -5  -9   42.56    4.79
  -6  -5 -10    4.80    2.16
  -6  -5 -11    6.72    2.48
  -6  -5 -12    1.82    2.22
  -6  -6  10    8.09    3.98
  -6  -6   9    5.49    3.80
  -6  -6   8    2.15    2.92
  -6  -6   7   19.40    4.81
  -6  -6   6   10.84    3.44
  -6  -6   5    4.78    2.99
  -6  -6   4    7.40    2.79
  -6  -6   3    1.29    1.50
  -6  -6   2   61.64    6.23
  -6  -6   1   19.90    3.50
  -6  -6   0   17.72    3.24
  -6  -6  -1  175.29    9.20
  -6  -6  -2    6.64    1.94
  -6  -6  -3  237.47   10.27
  -6  -6  -4  459.36   14.02
  -6  -6  -5   25.74    3.62
  -6  -6  -6   29.28    3.76
  -6  -6  -7   13.53    2.96
  -6  -6  -8    3.06    1.55
  -6  -6  -9    1.27    1.98
  -6  -6 -10   10.68    3.20
  -6  -6 -11   11.35    3.09
  -6  -6 -12   -0.35    2.10
  -6  -6 -13   -1.87    3.13
  -6  -7   9   -2.21    3.78
  -6  -7   8    2.02    2.56
  -6  -7   7    2.91    2.43
  -6  -7   6   -1.48    2.11
  -6  -7   5    0.75    2.05
  -6  -7   4   13.29    3.87
  -6  -7   3    4.27    2.47
  -6  -7   2   48.17    5.77
  -6  -7   1   66.78    6.43
  -6  -7   0   10.43    2.57
  -6  -7  -1   49.58    5.19
  -6  -7  -2   25.67    3.68
  -6  -7  -3   19.66    3.15
  -6  -7  -4   11.33    2.60
  -6  -7  -5    4.19    2.02
  -6  -7  -6    1.02    1.70
  -6  -7  -7    2.68    1.98
  -6  -7  -8    3.70    2.46
  -6  -7  -9    4.98    2.35
  -6  -7 -10    2.73    2.05
  -6  -7 -11   43.86    5.59
  -6  -7 -12   22.96    4.75
  -6  -8   9   -1.83    2.61
  -6  -8   8   37.35    6.99
  -6  -8   7    4.44    2.73
  -6  -8   6   -1.68    2.66
  -6  -8   5    2.62    2.01
  -6  -8   4   12.49    3.83
  -6  -8   3    3.53    2.13
  -6  -8   2   10.17    3.11
  -6  -8   1    3.07    1.90
  -6  -8   0    2.83    1.57
  -6  -8  -1    1.74    1.40
  -6  -8  -2   10.46    2.73
  -6  -8  -3   26.32    3.95
  -6  -8  -4    2.00    1.44
  -6  -8  -5   10.93    2.80
  -6  -8  -6  102.74    8.01
  -6  -8  -7    2.99    1.92
  -6  -8  -8   13.46    3.34
  -6  -8  -9    1.46    2.00
  -6  -8 -10   11.88    3.93
  -6  -8 -11    7.34    3.32
  -6  -8 -12   15.33    4.83
  -6  -9   8    9.80    4.42
  -6  -9   7    2.10    3.06
  -6  -9   6    7.23    3.49
  -6  -9   5    3.66    2.43
  -6  -9   4    2.41    2.05
  -6  -9   3    1.36    2.49
  -6  -9   2    4.35    2.70
  -6  -9   1    0.70    1.90
  -6  -9   0   10.24    3.00
  -6  -9  -1   -1.74    1.85
  -6  -9  -2    1.09    1.40
  -6  -9  -3   31.63    4.52
  -6  -9  -4   11.28    2.96
  -6  -9  -5    2.23    2.32
  -6  -9  -6   10.94    3.61
  -6  -9  -7   24.61    4.28
  -6  -9  -8   -2.34    2.69
  -6  -9  -9    7.32    3.68
  -6  -9 -10   -1.46    2.18
  -6  -9 -11    5.23    2.68
  -6 -10   7    0.45    2.81
  -6 -10   6   19.26    5.82
  -6 -10   5    1.86    2.55
  -6 -10   4    2.70    2.82
  -6 -10   3    2.62    2.31
  -6 -10   2   18.26    3.91
  -6 -10   1    6.57    2.82
  -6 -10   0    5.15    2.45
  -6 -10  -1    6.82    2.77
  -6 -10  -2   20.25    3.82
  -6 -10  -3    0.02    1.91
  -6 -10  -4    2.94    1.43
  -6 -10  -5    5.99    3.11
  -6 -10  -6   -1.79    2.15
  -6 -10  -7   -5.12    2.41
  -6 -10  -8    5.61    3.02
  -6 -10  -9    5.79    3.08
  -6 -10 -10    0.91    2.56
  -6 -10 -11    7.54    3.83
  -6 -11   6    8.54    3.62
  -6 -11   5   -3.58    4.00
  -6 -11   4    3.81    3.03
  -6 -11   3   22.12    5.25
  -6 -11   2    5.53    3.03
  -6 -11   1    6.04    3.24
  -6 -11   0   -2.13    2.26
  -6 -11  -1    1.75    1.51
  -6 -11  -2    8.01    3.22
  -6 -11  -3    3.42    2.47
  -6 -11  -4   -0.47    1.72
  -6 -11  -5    7.04    2.30
  -6 -11  -6   -2.12    2.61
  -6 -11  -7   -0.61    2.31
  -6 -11  -8   12.83    3.87
  -6 -11  -9    3.14    2.34
  -6 -12   4    1.76    2.51
  -6 -12   3   -0.44    2.34
  -6 -12   2    0.63    2.57
  -6 -12   1   -3.02    3.43
  -6 -12   0    2.98    2.36
  -6 -12  -1    1.49    2.57
  -6 -12  -2    2.35    2.16
  -6 -12  -3    2.13    2.62
  -6 -12  -4    8.41    3.66
  -6 -12  -5   -2.71    2.49
  -6 -12  -6   -0.24    2.51
  -6 -12  -7   -0.66    2.41
  -6 -12  -8    6.08    4.36
  -6 -13   2   -2.55    3.50
  -6 -13   1    6.18    3.68
  -6 -13   0    1.06    2.75
  -6 -13  -1   -0.77    2.17
  -6 -13  -2    2.57    2.98
  -6 -13  -3   -2.03    2.29
  -6 -13  -4    5.50    3.98
  -6 -13  -5    4.81    3.00
   7  -8   1    1.73    3.06
   7  -8   2   -4.41    3.93
   7  -8   3    0.76    3.12
   7  -8   4   -0.05    2.64
   7  -8   5    0.55    3.10
   7  -7  -2    2.83    3.18
   7  -7  -1    7.92    4.22
   7  -7   0   -2.03    2.88
   7  -7   1    9.84    3.48
   7  -7   2   20.94    5.53
   7  -7   3    1.19    3.22
   7  -7   4   -1.90    3.23
   7  -7   5    2.89    3.30
   7  -7   6   -2.26    2.88
   7  -7   7   -5.34    3.67
   7  -7   8    4.48    3.66
   7  -6  -3    8.68    3.83
   7  -6  -2   13.05    4.86
   7  -6  -1   10.18    3.66
   7  -6   0    9.27    4.20
   7  -6   1    2.95    4.15
   7  -6   2   11.71    4.73
   7  -6   3   17.24    4.37
   7  -6   4   12.17    4.01
   7  -6   5    4.35    3.23
   7  -6   6   -3.32    3.50
   7  -6   7    0.80    3.31
   7  -6   8   17.84    4.77
   7  -6   9   10.63    3.57
   7  -5  -4    0.56    2.52
   7  -5  -3   -2.36    2.98
   7  -5  -2   19.20    4.52
   7  -5  -1   -1.44    2.17
   7  -5   0   12.21    3.83
   7  -5   1   29.56    5.20
   7  -5   2   -4.82    3.09
   7  -5   3   40.99    5.85
   7  -5   4   52.35    6.79
   7  -5   5    0.75    2.63
   7  -5   6   -2.20    2.98
   7  -5   7    3.49    2.44
   7  -5   8    0.92    2.49
   7  -5   9    4.20    2.43
   7  -5  10   -3.55    2.15
   7  -5  11   -0.34    2.49
   7  -4  -4   22.11    5.13
   7  -4  -3   -0.57    2.54
   7  -4  -2    8.09    3.90
   7  -4  -1    3.11    2.45
   7  -4   0   -1.19    2.33
   7  -4   1   27.08    4.91
   7  -4   2    0.26    2.84
   7  -4   3    7.34    2.69
   7  -4   4   -1.44    2.18
   7  -4   5    6.07    3.20
   7  -4   6   41.49    6.00
   7  -4   7    1.66    2.19
   7  -4   8    5.13    2.23
   7  -4   9   11.06    4.09
   7  -4  10   -1.98    3.04
   7  -4  11   17.26    4.55
   7  -4  12   -0.84    2.53
   7  -3  -5   20.24    4.71
   7  -3  -4    2.50    2.40
   7  -3  -3   -3.97    3.10
   7  -3  -2    2.45    2.94
   7  -3  -1    3.95    2.13
   7  -3   0   -4.67    2.87
   7  -3   1   23.16    3.93
   7  -3   2   15.78    2.93
   7  -3   3   37.15    5.34
   7  -3   4   -2.26    2.39
   7  -3   5   13.81    3.66
   7  -3   6   12.58    3.76
   7  -3   7   14.18    3.96
   7  -3   8   -0.72    2.45
   7  -3   9    1.18    2.26
   7  -3  10    5.04    2.96
   7  -3  11    4.68    3.06
   7  -3  12    3.24    2.80
   7  -3  13    2.59    2.78
   7  -2  -5    3.06    2.64
   7  -2  -4    1.97    2.43
   7  -2  -4    4.19    2.12
   7  -2  -3   36.58    5.21
   7  -2  -2   20.31    4.07
   7  -2  -1   -1.76    2.02
   7  -2   0   17.64    3.56
   7  -2   1    4.91    2.24
   7  -2   2   -4.42    2.83
   7  -2   3   76.80    7.10
   7  -2   4   21.60    4.17
   7  -2   5   10.14    3.12
   7  -2   6   42.17    5.67
   7  -2   7    4.12    2.67
   7  -2   8    9.52    3.32
   7  -2   9    4.19    2.87
   7  -2  10    9.59    3.44
   7  -2  11   12.49    3.59
   7  -2  12    0.43    2.37
   7  -2  13    3.93    2.95
   7  -1  -6   13.20    3.52
   7  -1  -5   11.41    2.82
   7  -1  -4   -1.26    2.28
   7  -1  -4   -3.14    2.07
   7  -1  -3   21.19    3.85
   7  -1  -3   23.22    3.73
   7  -1  -2   18.60    3.34
   7  -1  -2   17.67    3.03
   7  -1  -1    0.39    1.86
   7  -1  -1    0.23    1.05
   7  -1   0    4.73    2.47
   7  -1   1  124.81    8.18
   7  -1   2  112.45    7.87
   7  -1   3   12.93    3.18
   7  -1   4   14.90    3.10
   7  -1   5   58.55    6.02
   7  -1   6    2.47    2.58
   7  -1   7   58.62    6.50
   7  -1   8   52.66    6.16
   7  -1   9   -0.87    1.83
   7  -1  10   -4.80    3.37
   7  -1  11    3.61    1.85
   7  -1  12    1.92    2.94
   7  -1  13   -2.30    2.35
   7  -1  14    3.41    3.24
   7   0  -7    9.45    3.67
  -7   0   7    3.01    2.96
   7   0  -6    4.78    2.63
  -7   0   6    9.94    4.15
   7   0  -5   14.95    3.25
  -7   0   5   13.69    3.55
   7   0  -4   -0.16    1.68
  -7   0   4    0.34    2.15
   7   0  -4   -0.79    1.49
   7   0  -3   10.65    2.65
  -7   0   3    9.89    2.72
   7   0  -3   13.02    2.58
   7   0  -2   30.13    4.03
   7   0  -2   33.58    3.74
  -7   0   2   31.03    4.27
   7   0  -1   86.84    5.49
  -7   0   1   75.32    5.93
   7   0  -1   77.15    6.03
   7   0   0   15.53    3.07
   7   0   0   12.07    1.84
  -7   0   0   11.61    2.26
   7   0   1   26.44    3.87
   7   0   2  154.02    8.78
   7   0   3  130.78    8.35
   7   0   4   17.08    3.41
   7   0   5   23.72    3.92
   7   0   6   18.91    3.80
   7   0   7   17.94    3.62
   7   0   8   17.20    3.77
   7   0   9    7.83    2.65
   7   0  10    4.02    2.44
   7   0  11    6.22    3.08
   7   0  12   -1.05    2.33
   7   0  13    3.18    2.50
   7   0  14    8.02    4.06
   7   1  -8   11.00    3.76
  -7  -1   8   -2.23    3.14
  -7  -1   7   10.69    3.83
   7   1  -7   22.03    4.55
  -7  -1   6    3.92    2.41
   7   1  -6    6.03    3.08
  -7  -1   5   12.74    3.55
  -7  -1   4   30.18    4.88
   7   1  -3   16.67    2.90
  -7  -1   3   15.05    3.18
   7   1  -2   14.09    2.63
  -7  -1   2   12.56    2.61
  -7  -1   1   53.38    5.02
   7   1  -1   60.51    5.22
  -7  -1   0    2.76    1.37
   7   1   0    3.54    2.03
  -7  -1  -1   25.51    2.92
   7   1   1   28.45    3.76
   7   1   2    7.97    2.17
   7   1   3    5.26    2.77
   7   1   4    9.98    2.93
   7   1   5   -0.75    2.06
   7   1   6   11.99    2.65
   7   1   7   51.57    5.67
   7   1   8    0.19    1.63
   7   1   9  207.34   12.42
   7   1  10  189.02   12.16
   7   1  11   -0.04    1.72
   7   1  12    0.57    2.25
   7   1  13    5.92    3.24
   7   1  14    0.66    2.59
   7   2  -9   16.84    4.49
   7   2  -8    7.92    3.25
  -7  -2   8    4.78    3.14
  -7  -2   7   -1.09    3.15
  -7  -2   6    9.52    3.60
  -7  -2   5    4.45    2.44
  -7  -2   4    3.57    2.15
  -7  -2   3   25.10    4.02
  -7  -2   2    2.90    1.95
   7   2  -2    0.89    1.39
  -7  -2   1    2.35    1.53
   7   2  -1    3.68    1.80
  -7  -2   0   46.01    4.42
   7   2   0   57.19    4.90
  -7  -2  -1   28.80    3.29
   7   2   1   24.02    3.25
  -7  -2  -2   36.25    3.35
   7   2   2   38.76    4.36
   7   2   3   11.88    2.77
  -7  -2  -3   11.45    1.89
   7   2   4   76.89    6.35
   7   2   5  206.75   10.45
   7   2   6   15.99    3.15
   7   2   7   16.58    3.29
   7   2   8    2.80    2.28
   7   2   9   -0.11    1.59
   7   2  10   19.37    4.06
   7   2  11   37.90    5.85
   7   2  12   -0.21    1.88
   7   2  13   -1.55    2.58
  -7  -3   9    0.38    3.11
  -7  -3   8   12.30    4.13
  -7  -3   7    6.87    3.49
  -7  -3   6    8.84    3.47
  -7  -3   5   19.49    4.31
  -7  -3   4    0.06    1.93
  -7  -3   3   31.39    4.68
  -7  -3   2   64.84    6.13
  -7  -3   1   15.39    2.99
   7   3  -1   17.65    2.66
   7   3   0    3.17    1.74
  -7  -3   0    0.28    1.17
  -7  -3  -1   44.68    4.28
   7   3   1   48.77    4.45
  -7  -3  -2    0.88    0.78
   7   3   2    5.89    2.15
  -7  -3  -3   14.40    2.08
   7   3   3   18.38    3.08
  -7  -3  -4    7.78    1.61
   7   3   4    9.75    2.54
  -7  -3  -5   37.84    3.13
   7   3   5   44.01    4.89
  -7  -3  -6    6.27    1.49
   7   3   6    6.15    2.40
  -7  -3  -7    9.62    1.92
   7   3   7   10.52    2.70
   7   3   8   15.81    3.41
  -7  -3  -8   13.54    2.13
   7   3   9   18.48    3.98
   7   3  10    1.31    1.69
   7   3  11   22.34    4.72
   7   3  12   12.09    3.65
  -7  -4   9    5.43    4.33
  -7  -4   8   12.54    4.66
  -7  -4   7   12.82    4.26
  -7  -4   6    0.86    2.03
  -7  -4   5   -1.29    1.77
  -7  -4   4   79.41    7.79
  -7  -4   3    3.29    1.69
  -7  -4   2   -0.65    1.70
  -7  -4   1   45.02    5.04
  -7  -4   0    0.93    1.46
   7   4   0   -0.20    1.07
  -7  -4  -1   22.25    3.11
   7   4   1   26.85    3.31
  -7  -4  -2   30.07    3.39
   7   4   2   34.31    3.82
  -7  -4  -3   37.80    3.68
   7   4   3   35.16    4.15
  -7  -4  -4   16.48    2.38
   7   4   4   12.18    2.69
  -7  -4  -5    3.95    1.05
   7   4   5    3.04    1.54
  -7  -4  -6   13.90    2.29
   7   4   6   14.65    3.07
  -7  -4  -7    4.61    1.72
   7   4   7    5.16    1.78
   7   4   8   -0.52    1.80
  -7  -4  -8   -0.83    1.62
   7   4   9   17.27    3.88
  -7  -4  -9   13.69    2.59
  -7  -4 -10   -1.06    1.47
   7   4  10   -0.72    2.24
  -7  -5   9    4.68    3.38
  -7  -5   8   11.72    4.51
  -7  -5   7    3.41    2.60
  -7  -5   6   37.63    6.18
  -7  -5   5    3.44    1.89
  -7  -5   4   12.89    3.59
  -7  -5   3   77.68    7.57
  -7  -5   2   28.38    4.49
  -7  -5   1   20.30    3.79
  -7  -5   0   23.03    3.45
  -7  -5  -1   11.97    2.61
   7   5   1   12.60    2.25
  -7  -5  -2   25.45    3.38
   7   5   2   22.68    3.12
  -7  -5  -3    6.68    1.74
   7   5   3    6.90    1.84
  -7  -5  -4   11.41    2.26
   7   5   4    9.41    2.31
  -7  -5  -5    3.31    1.46
   7   5   5    4.92    2.10
  -7  -5  -6    1.39    1.34
   7   5   6    0.40    1.59
   7   5   7    2.90    1.71
  -7  -5  -7    1.21    1.47
   7   5   8   20.26    4.02
  -7  -5  -8   17.42    2.90
  -7  -5  -9    0.65    1.98
  -7  -5 -10    4.50    1.97
  -7  -5 -11   -0.04    1.68
  -7  -6   9    9.26    4.29
  -7  -6   8   15.55    5.22
  -7  -6   7    5.44    2.69
  -7  -6   6   16.84    4.64
  -7  -6   5    0.89    2.23
  -7  -6   4   -0.51    1.99
  -7  -6   3    1.63    2.02
  -7  -6   2    9.90    3.32
  -7  -6   1    0.55    1.28
  -7  -6   0    0.28    1.30
  -7  -6  -1   24.37    3.54
  -7  -6  -2    1.69    1.12
  -7  -6  -3   81.79    6.27
  -7  -6  -4   62.02    5.46
  -7  -6  -5   35.40    4.22
  -7  -6  -6    0.08    1.65
  -7  -6  -7    5.37    2.24
  -7  -6  -8   54.33    5.47
  -7  -6  -9   17.58    3.20
  -7  -6 -10    7.37    2.22
  -7  -6 -11    4.88    2.36
  -7  -7   8    7.45    3.98
  -7  -7   7    5.23    3.67
  -7  -7   6    0.19    2.43
  -7  -7   5   -1.14    1.94
  -7  -7   4    9.50    3.13
  -7  -7   3   -0.90    1.93
  -7  -7   2    3.48    2.03
  -7  -7   1   37.90    5.26
  -7  -7   0   60.65    6.49
  -7  -7  -1    3.49    1.80
  -7  -7  -2    2.80    1.80
  -7  -7  -3   -0.95    1.53
  -7  -7  -4   53.24    5.48
  -7  -7  -5    2.51    1.59
  -7  -7  -6    0.90    1.43
  -7  -7  -7    1.78    2.07
  -7  -7  -8    4.93    2.52
  -7  -7  -9    5.54    2.74
  -7  -7 -10   -1.95    1.80
  -7  -7 -11    4.39    2.99
  -7  -8   8    5.34    3.75
  -7  -8   7    0.40    2.53
  -7  -8   6    2.75    2.59
  -7  -8   5    0.38    2.46
  -7  -8   4   23.34    4.67
  -7  -8   3   -2.11    2.35
  -7  -8   2    3.47    2.71
  -7  -8   1   -0.56    1.38
  -7  -8   0    8.95    3.06
  -7  -8  -1    4.33    1.90
  -7  -8  -2    3.00    1.68
  -7  -8  -3    0.42    1.31
  -7  -8  -4    3.14    1.82
  -7  -8  -5   10.68    2.66
  -7  -8  -6   17.80    3.60
  -7  -8  -7    4.73    2.33
  -7  -8  -8    0.30    1.71
  -7  -8  -9    2.10    2.18
  -7  -8 -10    9.99    3.07
  -7  -8 -11   13.28    3.77
  -7  -9   7    8.07    4.30
  -7  -9   6    1.84    3.26
  -7  -9   5   11.60    3.96
  -7  -9   4    3.65    2.40
  -7  -9   3    0.02    1.95
  -7  -9   2    2.03    1.72
  -7  -9   1    1.69    1.66
  -7  -9   0    2.50    1.59
  -7  -9  -1    2.63    2.22
  -7  -9  -2    0.07    1.63
  -7  -9  -3   -0.21    1.59
  -7  -9  -4   18.55    4.06
  -7  -9  -5   -1.83    1.84
  -7  -9  -6   15.57    3.90
  -7  -9  -7    3.12    2.30
  -7  -9  -8   -0.11    1.96
  -7  -9  -9    1.88    2.15
  -7  -9 -10    4.96    2.81
  -7  -9 -11    3.77    2.70
  -7 -10   6   16.06    5.44
  -7 -10   5   12.65    4.18
  -7 -10   4    2.85    2.15
  -7 -10   3    5.72    3.47
  -7 -10   2   20.75    5.06
  -7 -10   1    0.84    1.62
  -7 -10   0   -0.39    1.83
  -7 -10  -1    2.52    2.32
  -7 -10  -2    2.40    1.84
  -7 -10  -3    5.22    2.40
  -7 -10  -4    1.41    1.52
  -7 -10  -5   -1.17    1.61
  -7 -10  -6   -0.37    1.73
  -7 -10  -7    1.94    2.36
  -7 -10  -8   -2.89    2.18
  -7 -10  -9   -4.66    3.00
  -7 -10 -10    3.47    2.76
  -7 -11   5   -1.36    3.26
  -7 -11   4    8.01    3.72
  -7 -11   3    6.72    2.96
  -7 -11   2    9.59    3.94
  -7 -11   1    3.90    2.78
  -7 -11   0    3.10    1.82
  -7 -11  -1   -1.59    1.93
  -7 -11  -2   -1.02    2.15
  -7 -11  -3   11.03    3.25
  -7 -11  -4    3.89    2.96
  -7 -11  -5    6.95    2.93
  -7 -11  -6    5.57    2.75
  -7 -11  -7    2.62    2.53
  -7 -11  -8    5.57    2.73
  -7 -11  -9    6.79    4.05
  -7 -12   3    2.17    2.67
  -7 -12   2   14.81    5.08
  -7 -12   1   23.94    5.33
  -7 -12   0    0.85    2.47
  -7 -12  -1    0.20    2.28
  -7 -12  -2    1.43    2.48
  -7 -12  -3    2.18    2.37
  -7 -12  -4    2.24    1.99
  -7 -12  -5    1.31    2.05
  -7 -12  -6   -0.93    2.56
  -7 -12  -7    3.71    2.89
  -7 -13   0   -4.17    3.58
  -7 -13  -1    6.24    3.46
  -7 -13  -2    0.60    2.57
  -7 -13  -3    0.96    2.52
  -7 -13  -4    0.03    2.04
   8  -7   2   -3.80    4.07
   8  -7   3    2.94    3.27
   8  -7   4    4.21    4.09
   8  -7   5    3.76    3.39
   8  -6  -1   -1.28    3.96
   8  -6   0   -2.95    3.81
   8  -6   1    0.42    3.12
   8  -6   2   -0.80    2.41
   8  -6   3   -8.77    4.96
   8  -6   4   -7.75    4.65
   8  -6   5   -6.21    3.79
   8  -6   6   -2.20    2.49
   8  -6   7    0.11    2.94
   8  -6   8    8.25    2.95
   8  -5  -2    0.15    2.77
   8  -5  -1   14.97    4.78
   8  -5   0   -2.93    3.22
   8  -5   1    8.73    3.82
   8  -5   2    5.03    3.59
   8  -5   3    3.59    3.51
   8  -5   4   22.02    4.80
   8  -5   5   20.88    5.40
   8  -5   6    6.63    4.08
   8  -5   7   22.65    5.07
   8  -5   8   36.18    6.40
   8  -5   9   13.37    4.43
   8  -5  10    2.87    3.35
   8  -4  -2   17.85    5.01
   8  -4  -1   -2.39    2.27
   8  -4   0    0.35    2.46
   8  -4   1    1.02    3.05
   8  -4   2   -0.89    2.13
   8  -4   3   24.57    5.12
   8  -4   4    2.80    2.24
   8  -4   5    5.12    3.50
   8  -4   6    0.79    2.40
   8  -4   7    9.40    3.23
   8  -4   8    0.38    2.30
   8  -4   9   11.89    3.76
   8  -4  10    0.05    2.60
   8  -4  11   -2.00    2.84
   8  -3  -3   -2.35    3.39
   8  -3  -2   -5.06    3.10
   8  -3  -1   -2.38    3.32
   8  -3   0    0.08    1.99
   8  -3   1    5.07    2.96
   8  -3   2    9.15    3.61
   8  -3   3    8.70    3.19
   8  -3   4   16.29    4.21
   8  -3   5   11.90    3.93
   8  -3   6   24.09    4.94
   8  -3   7    7.55    3.27
   8  -3   8   -1.22    2.72
   8  -3   9   21.07    4.67
   8  -3  10    0.33    2.47
   8  -3  11   12.61    3.82
   8  -3  12   10.27    4.56
   8  -2  -3    9.55    3.24
   8  -2  -2    9.02    2.97
   8  -2  -1    3.22    2.31
   8  -2   0   14.18    3.56
   8  -2   1   40.60    5.63
   8  -2   2    0.75    2.00
   8  -2   3    2.14    2.89
   8  -2   4    6.83    2.99
   8  -2   5   -1.02    2.27
   8  -2   6   -1.53    3.13
   8  -2   7   -0.99    2.12
   8  -2   8    2.43    2.69
   8  -2   9    7.50    3.46
   8  -2  10   -0.68    2.46
   8  -2  11   37.75    6.01
   8  -2  12    5.50    2.36
   8  -2  13    0.14    2.78
   8  -1  -3    5.24    2.58
   8  -1  -2    2.89    1.88
   8  -1  -1    3.75    1.92
   8  -1   0    3.03    2.30
   8  -1   1    9.45    3.13
   8  -1   2   -3.65    2.61
   8  -1   3   -5.76    2.57
   8  -1   4   42.22    5.47
   8  -1   5    3.11    1.94
   8  -1   6    1.05    1.99
   8  -1   7    1.93    1.93
   8  -1   8    8.44    2.96
   8  -1   9    6.39    3.10
   8  -1  10    4.67    3.12
   8  -1  11   15.18    4.22
   8  -1  12    2.71    2.56
   8  -1  13    4.42    3.64
   8  -1  14    4.48    3.65
   8   0  -3   -1.71    1.99
   8   0  -2   -5.86    2.72
   8   0  -1   64.66    6.46
   8   0   0   29.63    4.35
   8   0   1   -1.49    1.83
   8   0   2   38.08    5.15
   8   0   3  113.69    8.85
   8   0   4    3.92    2.68
   8   0   5    0.22    1.88
   8   0   6    0.38    2.04
   8   0   7    3.85    1.88
   8   0   8   -0.23    2.34
   8   0   9    1.68    2.16
   8   0  10    3.29    2.44
   8   0  11    6.98    3.19
   8   0  12    8.27    3.01
   8   0  13   -0.05    3.07
   8   0  14   -3.50    2.59
   8   1  -5   10.77    3.06
  -8  -1   5   18.95    4.83
  -8  -1   4    6.05    2.77
   8   1  -4   11.71    3.32
  -8  -1   3   22.53    4.21
   8   1  -3   26.47    4.05
  -8  -1   2   78.46    6.90
   8   1  -2   87.09    6.88
  -8  -1   1   11.08    2.54
   8   1  -1   13.59    3.11
   8   1   0   -0.03    1.54
   8   1   1   28.44    4.19
   8   1   2    9.91    2.95
   8   1   3    5.07    3.34
   8   1   4   28.78    4.20
   8   1   5   11.00    3.31
   8   1   6   16.93    3.86
   8   1   7   -0.14    1.62
   8   1   8    1.73    2.14
   8   1   9    9.56    5.46
   8   1  10    0.52    2.41
   8   1  11    3.76    2.87
   8   1  12    2.73    2.69
   8   1  13   -0.11    2.17
   8   1  14    7.89    3.12
  -8  -2   6    2.08    2.81
  -8  -2   5    0.32    2.54
  -8  -2   4    3.41    2.89
  -8  -2   3   -0.70    1.67
  -8  -2   2   16.75    3.74
  -8  -2   1   13.27    2.87
   8   2  -1   13.74    3.09
  -8  -2   0   15.60    2.89
   8   2   0   27.12    4.13
  -8  -2  -1   45.85    4.38
   8   2   1   62.90    5.74
   8   2   2   -1.47    1.86
   8   2   3   -0.03    1.62
   8   2   4   30.48    4.15
   8   2   5   23.26    4.00
   8   2   6   13.55    3.41
   8   2   7    1.64    1.77
   8   2   8    0.17    1.70
   8   2   9   27.00    5.02
   8   2  10   23.13    4.75
   8   2  11   10.98    3.79
   8   2  12    1.69    2.82
   8   2  13    0.14    2.51
   8   2  14    2.47    3.37
  -8  -3   7   -4.88    3.27
  -8  -3   6   -0.34    2.39
  -8  -3   5    7.59    3.35
  -8  -3   4   11.28    3.63
  -8  -3   3    5.74    2.07
  -8  -3   2    6.11    2.50
  -8  -3   1   10.31    2.71
  -8  -3   0    8.53    2.08
   8   3   0   13.98    2.93
  -8  -3  -1   -0.39    1.17
   8   3   1    2.70    1.58
   8   3   2    9.43    2.46
  -8  -3  -2    4.47    1.78
   8   3   3   22.15    3.78
  -8  -3  -3   17.41    2.52
   8   3   4   -0.33    1.74
   8   3   5    1.71    1.75
   8   3   6   81.23    7.31
   8   3   7   10.38    2.81
   8   3   8   -0.91    1.62
   8   3   9    1.31    2.05
   8   3  10   12.80    3.92
   8   3  11    4.74    2.62
   8   3  12    0.57    2.22
   8   3  13    8.54    3.92
  -8  -4   7    6.01    2.94
  -8  -4   6    8.12    3.88
  -8  -4   5    0.31    1.83
  -8  -4   4    2.60    2.49
  -8  -4   3    3.05    2.16
  -8  -4   2    0.07    1.39
  -8  -4   1    2.06    1.78
  -8  -4   0    0.38    1.16
   8   4   1    8.00    2.32
  -8  -4  -1    5.26    2.08
  -8  -4  -2   -0.01    1.16
   8   4   2    0.23    1.48
  -8  -4  -3   26.96    3.39
   8   4   3   22.46    3.67
  -8  -4  -4    0.64    0.97
   8   4   4    4.60    2.22
  -8  -4  -5    1.67    1.04
   8   4   5    2.14    1.69
  -8  -4  -6    8.11    1.64
   8   4   6   11.81    3.24
   8   4   7    2.83    1.71
   8   4   8    2.58    2.37
   8   4   9    0.96    1.51
   8   4  10    2.13    2.63
   8   4  11   -2.73    2.73
  -8  -5   7    2.68    3.34
  -8  -5   6   13.39    4.30
  -8  -5   5    1.45    2.50
  -8  -5   4   33.67    5.33
  -8  -5   3    4.95    2.68
  -8  -5   2   37.24    5.49
  -8  -5   1   16.53    3.31
  -8  -5   0   17.74    3.63
  -8  -5  -1   37.21    4.55
   8   5   1   26.41    3.40
  -8  -5  -2   69.36    5.84
   8   5   2   73.11    5.93
  -8  -5  -3   20.17    3.18
   8   5   3   19.43    3.54
  -8  -5  -4    5.43    1.81
   8   5   4    2.20    1.47
  -8  -5  -5    4.54    1.82
   8   5   5    4.35    2.10
  -8  -5  -6    1.08    1.23
   8   5   6   -0.44    1.49
  -8  -5  -7    0.77    1.39
   8   5   7   -1.35    1.61
  -8  -5  -8    7.48    2.16
   8   5   8   11.02    3.59
   8   5   9    3.32    1.87
   8   5  10    7.20    3.47
  -8  -6   7    0.34    2.41
  -8  -6   6    9.79    4.01
  -8  -6   5    6.30    3.31
  -8  -6   4   18.64    4.55
  -8  -6   3   86.35    8.67
  -8  -6   2   22.20    4.75
  -8  -6   1    6.00    2.57
  -8  -6   0    5.34    2.58
  -8  -6  -1    5.30    2.34
  -8  -6  -2    2.19    1.40
   8   6   2    1.66    1.12
  -8  -6  -3    1.56    1.64
   8   6   3    0.63    1.22
  -8  -6  -4    0.37    1.39
   8   6   4   -0.53    1.22
  -8  -6  -5   14.69    2.70
   8   6   5   14.19    3.32
  -8  -6  -6    6.05    1.95
   8   6   6   13.42    3.36
  -8  -6  -7    0.83    1.41
  -8  -6  -8   13.04    2.54
  -8  -6  -9   12.38    2.78
  -8  -7   7   -1.00    2.95
  -8  -7   6    0.83    2.94
  -8  -7   5    1.16    2.60
  -8  -7   4   17.63    4.44
  -8  -7   3    2.17    2.26
  -8  -7   2    5.26    2.10
  -8  -7   1   13.56    3.48
  -8  -7   0   19.66    3.61
  -8  -7  -1   17.29    3.48
  -8  -7  -2    5.85    2.11
  -8  -7  -3   14.09    2.70
  -8  -7  -4  139.45    8.82
  -8  -7  -5   67.11    6.07
  -8  -7  -6    1.02    1.44
  -8  -7  -7    1.45    1.42
  -8  -7  -8   -1.14    1.73
  -8  -7  -9    2.99    1.82
  -8  -7 -10   17.28    3.66
  -8  -8   6   -0.68    2.58
  -8  -8   5    1.52    2.39
  -8  -8   4    8.42    3.65
  -8  -8   3    1.82    1.99
  -8  -8   2    2.16    2.82
  -8  -8   1   52.49    6.77
  -8  -8   0   12.75    3.79
  -8  -8  -1   -2.49    1.95
  -8  -8  -2    4.28    2.28
  -8  -8  -3   -0.96    1.67
  -8  -8  -4   28.10    4.26
  -8  -8  -5   77.51    7.02
  -8  -8  -6   21.90    4.02
  -8  -8  -7    2.62    1.37
  -8  -8  -8    3.03    2.31
  -8  -8  -9    2.31    2.17
  -8  -8 -10   -0.20    2.54
  -8  -9   6    3.60    4.02
  -8  -9   5    1.00    2.50
  -8  -9   4    3.59    3.08
  -8  -9   3    1.82    2.72
  -8  -9   2    6.39    3.24
  -8  -9   1   -0.32    2.36
  -8  -9   0   15.15    4.13
  -8  -9  -1    9.82    2.56
  -8  -9  -2    2.69    1.60
  -8  -9  -3    0.28    1.73
  -8  -9  -4   -2.30    2.04
  -8  -9  -5   -2.36    2.28
  -8  -9  -6   -0.13    1.66
  -8  -9  -7    2.49    2.53
  -8  -9  -8    1.65    1.68
  -8  -9  -9    0.90    1.83
  -8 -10   5    2.28    3.20
  -8 -10   4   -0.62    2.70
  -8 -10   3   -0.87    2.73
  -8 -10   2    0.19    2.17
  -8 -10   1    5.58    3.50
  -8 -10   0   -1.52    2.80
  -8 -10  -1    8.49    3.33
  -8 -10  -2   -0.95    2.36
  -8 -10  -3   -1.77    2.05
  -8 -10  -4   -1.02    2.04
  -8 -10  -5    0.24    1.65
  -8 -10  -6    3.25    2.44
  -8 -10  -7   11.92    3.65
  -8 -10  -8    8.64    3.29
  -8 -10  -9   -2.86    2.99
  -8 -11   3   -4.15    4.01
  -8 -11   2    1.42    2.12
  -8 -11   1   -0.03    2.46
  -8 -11   0    2.72    2.35
  -8 -11  -1   -3.11    2.46
  -8 -11  -2    1.48    2.31
  -8 -11  -3    1.16    2.25
  -8 -11  -4   -1.15    2.23
  -8 -11  -5    4.63    2.35
  -8 -11  -6    0.55    1.83
  -8 -11  -7    0.89    2.30
  -8 -11  -8    2.44    3.23
  -8 -12   1    3.90    3.97
  -8 -12   0    2.15    2.91
  -8 -12  -1    0.87    2.47
  -8 -12  -2   -1.19    2.66
  -8 -12  -3   10.85    3.92
  -8 -12  -4    1.75    2.27
  -8 -12  -5    3.54    2.65
  -8 -12  -6    1.28    2.79
   9  -6   4    2.08    3.75
   9  -5   1   -0.16    3.55
   9  -5   2    2.34    2.73
   9  -5   3   10.23    4.42
   9  -5   4    0.27    2.79
   9  -5   5   11.19    3.72
   9  -5   6    3.79    3.44
   9  -5   7    2.46    3.54
   9  -5   8   -4.44    4.09
   9  -4   0    2.23    3.23
   9  -4   1    0.60    2.84
   9  -4   2   -2.23    3.02
   9  -4   3    1.67    2.55
   9  -4   4    1.55    2.70
   9  -4   5   -0.67    2.64
   9  -4   6    3.41    2.71
   9  -4   7    2.45    3.73
   9  -4   8    5.41    2.76
   9  -4   9    3.15    3.79
   9  -4  10    6.31    3.54
   9  -3  -1   -1.97    3.42
   9  -3   0   13.44    4.19
   9  -3   1   -0.18    3.18
   9  -3   2    8.06    2.92
   9  -3   3    3.75    3.18
   9  -3   4   18.80    5.31
   9  -3   5   44.44    6.87
   9  -3   6   -1.91    3.31
   9  -3   7   12.71    4.94
   9  -3   8   -7.18    4.81
   9  -3   9    0.90    3.10
   9  -3  10   -0.98    2.77
   9  -3  11    1.35    2.59
   9  -2  -1    1.57    2.21
   9  -2   0    4.25    3.03
   9  -2   1    4.71    2.84
   9  -2   2   10.08    3.71
   9  -2   3    3.17    2.97
   9  -2   4   -5.31    3.73
   9  -2   5    0.47    2.63
   9  -2   6    1.38    2.15
   9  -2   7    4.10    3.39
   9  -2   8    2.20    2.22
   9  -2   9    1.47    2.35
   9  -2  10    0.91    2.98
   9  -2  11   -1.24    2.57
   9  -2  12   -1.88    3.28
   9  -1  -1    2.68    2.66
   9  -1   0   -0.86    2.82
   9  -1   1    2.36    1.99
   9  -1   2   21.10    4.62
   9  -1   3    2.20    2.11
   9  -1   4    8.12    3.46
   9  -1   5    5.79    2.91
   9  -1   6    2.06    2.77
   9  -1   7    6.91    3.42
   9  -1   8    4.82    2.47
   9  -1   9    6.55    3.96
   9  -1  10   -7.78    3.89
   9  -1  11   -2.47    2.67
   9  -1  12    2.61    3.26
   9  -1  13    5.17    2.73
   9   0  -1    1.77    2.10
   9   0   0   10.05    3.85
   9   0   1    3.96    2.69
   9   0   2    2.13    2.15
   9   0   3    1.06    2.42
   9   0   4   15.57    3.47
   9   0   5    5.04    3.31
   9   0   6   -5.79    2.65
   9   0   7   20.04    4.33
   9   0   8   -0.02    2.36
   9   0   9   -0.80    2.41
   9   0  10   -3.17    2.73
   9   0  11    3.81    2.05
   9   0  12    1.02    2.98
   9   0  13   -5.88    3.60
   9   1  -1    8.76    2.94
   9   1   0    8.93    2.45
   9   1   1   -2.27    2.51
   9   1   2   46.42    5.82
   9   1   3   91.30    7.94
   9   1   4    3.25    2.59
   9   1   5   -4.35    3.06
   9   1   6    4.84    2.68
   9   1   7    7.33    3.35
   9   1   8    3.67    1.86
   9   1   9   38.94    6.21
   9   1  10    0.84    1.94
   9   1  11    1.44    2.18
   9   1  12    3.86    3.27
   9   1  13   -1.54    3.31
   9   1  14    6.73    3.96
   9   2   0    4.23    2.53
   9   2   1    8.98    2.93
   9   2   2   20.43    3.89
   9   2   3   28.97    4.66
   9   2   4   74.95    7.14
   9   2   5   15.32    4.08
   9   2   6    3.94    2.57
   9   2   7   -1.03    2.42
   9   2   8    5.48    2.78
   9   2   9    6.29    3.01
   9   2  10   19.07    4.20
   9   2  11    6.84    2.85
   9   2  12    1.37    2.77
   9   2  13    0.89    2.97
   9   2  14   -0.09    3.34
   9   3   1    3.38    1.90
   9   3   2    4.80    2.13
   9   3   3    0.83    1.65
   9   3   4    5.35    2.62
   9   3   5   12.36    3.24
   9   3   6   -1.12    2.06
   9   3   7    5.26    2.95
   9   3   8    3.58    1.63
   9   3   9    0.94    1.78
   9   3  10   23.42    4.60
   9   3  11  102.80   10.20
   9   3  12   -0.92    2.55
   9   3  13    2.03    2.50
   9   3  14   -0.41    2.65
  -9  -4   4   -0.31    2.54
  -9  -4   3   -0.91    1.87
  -9  -4   2   -2.18    1.96
  -9  -4   1   -0.07    2.10
  -9  -4   0   -0.79    1.45
  -9  -4  -1   19.48    3.65
   9   4   2    4.93    2.44
   9   4   3    1.61    1.69
   9   4   4   15.18    3.38
   9   4   5    8.61    2.75
   9   4   6   96.80    8.34
   9   4   7   13.54    3.97
   9   4   8    1.05    1.81
   9   4   9    2.73    2.29
   9   4  10   -7.15    3.47
   9   4  11    7.54    3.64
   9   4  12    3.70    2.61
  -9  -5   4    3.38    2.67
  -9  -5   3    4.04    3.38
  -9  -5   2    0.23    1.72
  -9  -5   1   17.12    3.73
  -9  -5   0    2.83    2.05
  -9  -5  -1    2.47    2.15
  -9  -5  -2   13.18    3.01
  -9  -5  -3    1.34    1.16
   9   5   3   -1.35    1.48
  -9  -5  -4    1.27    1.56
   9   5   4    1.18    1.94
   9   5   5    2.89    2.05
   9   5   6    3.58    2.09
   9   5   7   -0.23    1.50
   9   5   8    7.88    2.85
   9   5   9    3.21    2.53
   9   5  10    1.71    2.09
   9   5  11    4.01    3.08
  -9  -6   4    2.23    2.46
  -9  -6   3   17.10    4.43
  -9  -6   2   16.17    4.03
  -9  -6   1   -1.40    2.46
  -9  -6   0   -0.61    1.81
  -9  -6  -1    1.72    1.96
  -9  -6  -2    4.02    1.90
  -9  -6  -3    2.88    1.75
   9   6   3    3.87    2.06
  -9  -6  -4    3.41    1.55
   9   6   4    6.91    2.61
  -9  -6  -5    0.38    1.34
   9   6   5   -0.93    1.72
  -9  -6  -6    3.84    1.72
   9   6   6    1.22    2.27
   9   6   7   -0.83    1.60
   9   6   8    6.98    2.89
  -9  -7   4    2.14    2.67
  -9  -7   3    6.35    3.33
  -9  -7   2    9.31    3.69
  -9  -7   1   16.97    4.18
  -9  -7   0    1.12    2.12
  -9  -7  -1    1.59    1.79
  -9  -7  -2    1.24    1.81
  -9  -7  -3    1.54    1.98
  -9  -7  -4    4.45    2.12
  -9  -7  -5   -0.09    1.55
  -9  -7  -6   -0.80    1.63
  -9  -7  -7    1.21    1.57
  -9  -8   4    4.18    3.40
  -9  -8   3    1.72    2.67
  -9  -8   2    1.50    2.97
  -9  -8   1   -1.13    2.34
  -9  -8   0    5.09    2.99
  -9  -8  -1   -1.59    1.59
  -9  -8  -2    4.17    2.63
  -9  -8  -3   -1.83    1.82
  -9  -8  -4   19.46    4.07
  -9  -8  -5   -0.07    1.53
  -9  -8  -6   19.40    3.65
  -9  -8  -7    2.75    1.86
  -9  -9   3   -0.39    3.24
  -9  -9   2    2.76    2.40
  -9  -9   1    0.23    2.70
  -9  -9   0    4.27    2.69
  -9  -9  -1   21.42    4.67
  -9  -9  -2   -0.21    2.14
  -9  -9  -3   -0.42    1.88
  -9  -9  -4    2.11    2.04
  -9  -9  -5    0.67    1.90
  -9  -9  -6    2.00    1.89
  -9  -9  -7    0.07    2.10
  -9 -10   2   -0.83    2.36
  -9 -10   1    0.52    2.34
  -9 -10   0    0.97    2.20
  -9 -10  -1    2.81    3.13
  -9 -10  -2   -0.94    2.19
  -9 -10  -3   -1.79    2.31
  -9 -10  -4    4.94    2.49
  -9 -10  -5   -2.04    2.02
  -9 -10  -6    0.33    1.79
  -9 -11   1   -4.93    3.71
  -9 -11   0    0.11    2.94
  -9 -11  -1   -0.39    2.38
  -9 -11  -2    3.33    3.24
  -9 -11  -3    0.93    2.31
  -9 -11  -4   -4.21    3.20
  -9 -11  -5   -0.64    2.77
  10  -4   3   -4.38    3.67
  10  -4   4   -1.34    3.38
  10  -4   5    5.85    4.08
  10  -4   6    0.56    3.36
  10  -4   7   -1.55    3.79
  10  -4   8    4.34    3.48
  10  -3   2    2.89    2.89
  10  -3   3    0.86    3.43
  10  -3   4    0.35    2.81
  10  -3   5    0.79    3.02
  10  -3   6   10.36    3.97
  10  -3   7   -0.28    2.86
  10  -3   8    1.40    2.41
  10  -3   9   23.21    5.82
  10  -3  10    8.16    3.82
  10  -2   1    6.73    4.11
  10  -2   2    1.58    2.58
  10  -2   3    9.15    4.62
  10  -2   4    8.87    4.09
  10  -2   5    2.91    3.06
  10  -2   6    8.59    4.52
  10  -2   7    2.34    2.73
  10  -2   8    3.90    3.08
  10  -2   9   -2.07    3.24
  10  -2  10   -0.17    2.39
  10  -2  11    0.21    3.17
  10  -1   1   -1.40    3.48
  10  -1   2    5.60    3.30
  10  -1   3   -2.77    2.63
  10  -1   4    6.85    4.18
  10  -1   5   17.33    4.79
  10  -1   6   -0.02    2.46
  10  -1   7    5.38    3.05
  10  -1   8   -2.56    3.24
  10  -1   9   -2.59    2.66
  10  -1  10    2.43    3.24
  10  -1  11    5.30    4.23
  10  -1  12   12.21    4.26
  10   0   1    3.85    3.26
  10   0   2   15.22    3.99
  10   0   3    6.49    3.55
  10   0   4   -0.44    2.64
  10   0   5   13.80    3.66
  10   0   6    3.38    2.54
  10   0   7   -2.56    2.77
  10   0   8   -0.79    2.15
  10   0   9   -3.37    3.25
  10   0  10    0.65    2.99
  10   0  11    1.52    2.49
  10   0  12   -1.82    3.42
  10   0  13    6.52    3.53
  10   1   1   -1.55    2.61
  10   1   2   -1.56    2.29
  10   1   3    5.36    3.52
  10   1   4    1.10    2.18
  10   1   5   -2.46    2.34
  10   1   6   -3.31    3.29
  10   1   7   -2.16    2.22
  10   1   8    9.74    4.18
  10   1   9    8.34    3.71
  10   1  10   -0.64    2.39
  10   1  11   -0.36    2.69
  10   1  12   -1.15    3.21
  10   1  13   -3.85    2.96
  10   2   2    1.07    2.84
  10   2   3    0.47    2.09
  10   2   4   36.21    5.53
  10   2   5   12.37    4.08
  10   2   6   -1.80    2.64
  10   2   7   -1.21    2.31
  10   2   8   -2.00    2.65
  10   2   9    0.50    2.40
  10   2  10    1.50    3.28
  10   2  11   -1.14    2.54
  10   2  12    0.47    2.71
  10   2  13    3.14    3.63
  10   3   2    0.15    1.94
  10   3   3    0.91    2.38
  10   3   4    0.53    1.97
  10   3   5   10.19    3.49
  10   3   6    5.66    3.20
  10   3   7   -0.40    2.37
  10   3   8    2.15    2.42
  10   3   9    5.20    3.75
  10   3  10    5.14    2.76
  10   3  11    5.15    3.20
  10   3  12    5.32    3.82
  10   3  13    2.34    3.11
  10   4   3    0.14    1.85
  10   4   4   -3.00    2.68
  10   4   5    4.48    2.29
  10   4   6    5.91    2.57
  10   4   7    9.04    3.50
  10   4   8   -2.02    2.40
  10   4   9   -1.23    2.45
  10   4  10    4.86    3.32
  10   4  11   10.19    4.28
  10   4  12    3.90    3.25
  10   4  13    5.95    3.44
  10   5   4    0.95    1.96
  10   5   5    0.69    2.05
  10   5   6   -0.80    2.14
  10   5   7    8.13    2.91
  10   5   8   13.78    3.82
  10   5   9    0.89    2.42
  10   5  10   -0.43    2.66
  10   5  11    6.39    4.05
  10   5  12    0.82    2.85
  10   6   5   -1.39    2.34
  10   6   6    2.23    1.72
  10   6   7    0.46    1.97
  10   6   8    4.06    3.00
  10   6   9    3.21    3.22
  11  -2   5   14.23    5.30
  11  -2   6    2.63    3.31
  11  -2   7   -2.75    4.37
  11  -2   8   -0.12    3.91
  11  -1   4   -5.17    2.80
  11  -1   5   15.27    5.39
  11  -1   6    7.86    4.20
  11  -1   7   -1.72    2.72
  11  -1   8   -1.88    3.14
  11  -1   9    2.99    3.81
  11  -1  10    4.09    3.94
  11   0   4    2.81    3.23
  11   0   5    5.79    3.73
  11   0   6   -0.37    2.79
  11   0   7   -0.27    3.17
  11   0   8    0.30    2.90
  11   0   9    6.76    3.94
  11   0  10    2.36    3.67
  11   0  11   -1.62    2.96
  11   1   4   -2.86    2.46
  11   1   5   -0.02    2.44
  11   1   6   -0.70    2.64
  11   1   7   -1.34    3.58
  11   1   8   -1.60    2.48
  11   1   9   -2.61    3.01
  11   1  10    0.45    2.43
  11   1  11    4.72    3.75
  11   2   4    7.93    3.65
  11   2   5    2.64    2.77
  11   2   6    6.37    3.22
  11   2   7    4.37    3.25
  11   2   8    4.32    3.22
  11   2   9    2.37    2.81
  11   2  10    4.43    3.51
  11   2  11    6.46    4.19
  11   2  12    0.22    3.99
  11   3   4   37.94    6.09
  11   3   5   12.01    4.22
  11   3   6   -0.02    2.28
  11   3   7    0.90    2.39
  11   3   8   -2.22    2.40
  11   3   9    4.07    3.24
  11   3  10    7.89    4.14
  11   3  11   -0.39    3.83
  11   3  12   -2.41    2.82
  11   4   5    4.12    2.33
  11   4   6   11.84    3.74
  11   4   7    0.88    3.15
  11   4   8    1.54    2.74
  11   4   9   -0.70    2.41
  11   4  10    2.75    2.98
  11   4  11    1.97    2.33
  11   4  12    4.71    3.80
  11   5   6    6.64    3.41
  11   5   7    2.53    2.95
  11   5   8    5.45    2.70
  11   5   9    5.70    3.45
  11   5  10    3.42    3.08
  11   5  11    8.18    4.59
  11   6   8   13.94    4.38
  11   6   9    2.39    3.43
  11   6  10    4.09    3.78
   0   0   0    0.00    0.00




TITL 4 in P-1
REM P-1 (#2 in standard setting)
CELL 0.71073   8.286264   8.959021  10.647438  87.0567  70.0680  71.0801
ZERR    3.00   0.000988   0.001134   0.001192   0.0097   0.0106   0.0111
LATT  1
SFAC C H N O
UNIT 33.00 30.00 3.00 3.00
TREF
HKLF 4
END
_computing_structure_solution     'SHELXT 2014/5 (Sheldrick, 2014)'
_computing_structure_solution     'SHELXT 2014/5 (Sheldrick, 2014)'
_computing_structure_solution     'SHELXT 2014/5 (Sheldrick, 2014)'
;
_shelx_hkl_checksum              27825
_olex2_submission_special_instructions 'No special instructions were received'
_oxdiff_exptl_absorpt_empirical_details
;
Empirical correction (ABSPACK) includes:
- Absorption correction using spherical harmonics
- Frame scaling
;
_oxdiff_exptl_absorpt_empirical_full_max 1.273
_oxdiff_exptl_absorpt_empirical_full_min 0.829
loop_
_space_group_symop_operation_xyz
'x, y, z'
'-x, -y, -z'
loop_
_atom_site_label
_atom_site_type_symbol
_atom_site_fract_x
_atom_site_fract_y
_atom_site_fract_z
_atom_site_U_iso_or_equiv
_atom_site_adp_type
_atom_site_occupancy
_atom_site_site_symmetry_order
_atom_site_calc_flag
_atom_site_refinement_flags_posn
S1 S 0.49313(9) 0.21652(8) 0.53591(7) 0.0389(3) Uani 1 1 d .
O2 O 0.2136(3) 0.2811(2) 0.92482(18) 0.0427(5) Uani 1 1 d .
H2 H 0.130446 0.358301 0.967968 0.064 Uiso 1 1 calc GR
O3 O 0.0174(3) 0.5413(2) 0.84690(18) 0.0439(5) Uani 1 1 d .
O1 O 0.6801(3) 0.0184(3) 0.7156(3) 0.0651(7) Uani 1 1 d .
C9 C 0.2611(3) 0.3075(3) 0.7928(3) 0.0313(6) Uani 1 1 d .
C11 C 0.1935(3) 0.4921(3) 0.6159(3) 0.0315(6) Uani 1 1 d .
C1 C 0.4251(3) -0.0600(3) 0.8300(3) 0.0333(6) Uani 1 1 d .
C10 C 0.1498(3) 0.4543(3) 0.7560(3) 0.0307(6) Uani 1 1 d .
C8 C 0.4070(3) 0.1978(3) 0.7053(3) 0.0320(6) Uani 1 1 d .
C15 C 0.1108(4) 0.6738(3) 0.4519(3) 0.0367(7) Uani 1 1 d .
C7 C 0.5169(4) 0.0483(3) 0.7510(3) 0.0373(7) Uani 1 1 d .
C12 C 0.3434(4) 0.3939(3) 0.5124(3) 0.0328(6) Uani 1 1 d .
C16 C 0.0805(4) 0.6315(3) 0.5818(3) 0.0349(6) Uani 1 1 d .
H16 H -0.017885 0.697220 0.649738 0.042 Uiso 1 1 calc R
C6 C 0.5127(4) -0.1694(3) 0.9034(3) 0.0414(7) Uani 1 1 d .
H6 H 0.625453 -0.171409 0.903801 0.050 Uiso 1 1 calc R
C2 C 0.2572(4) -0.0605(3) 0.8295(3) 0.0425(7) Uani 1 1 d .
H2A H 0.196615 0.012866 0.781966 0.051 Uiso 1 1 calc R
C14 C 0.2631(4) 0.5730(4) 0.3516(3) 0.0429(7) Uani 1 1 d .
H14 H 0.287144 0.599591 0.263053 0.051 Uiso 1 1 calc R
C13 C 0.3768(4) 0.4372(4) 0.3804(3) 0.0418(7) Uani 1 1 d .
H13 H 0.476469 0.373763 0.311881 0.050 Uiso 1 1 calc R
C17 C -0.0108(4) 0.8210(4) 0.4148(3) 0.0470(8) Uani 1 1 d .
H17A H -0.116961 0.867035 0.491572 0.071 Uiso 1 1 calc GR
H17B H -0.046256 0.794352 0.344285 0.071 Uiso 1 1 calc GR
H17C H 0.053439 0.895385 0.384910 0.071 Uiso 1 1 calc GR
C5 C 0.4329(5) -0.2741(4) 0.9750(3) 0.0522(9) Uani 1 1 d .
H5 H 0.490510 -0.344423 1.025904 0.063 Uiso 1 1 calc R
C3 C 0.1803(4) -0.1688(4) 0.8989(4) 0.0527(8) Uani 1 1 d .
H3 H 0.069580 -0.169947 0.896468 0.063 Uiso 1 1 calc R
C4 C 0.2687(5) -0.2763(4) 0.9725(3) 0.0537(9) Uani 1 1 d .
H4 H 0.217128 -0.349280 1.019743 0.064 Uiso 1 1 calc R
loop_
_atom_site_aniso_label
_atom_site_aniso_U_11
_atom_site_aniso_U_22
_atom_site_aniso_U_33
_atom_site_aniso_U_23
_atom_site_aniso_U_13
_atom_site_aniso_U_12
S1 0.0392(4) 0.0375(4) 0.0271(4) -0.0026(3) -0.0007(3) -0.0062(3)
O2 0.0441(12) 0.0413(12) 0.0246(10) 0.0014(9) -0.0050(9) 0.0023(9)
O3 0.0452(12) 0.0419(12) 0.0246(10) -0.0028(9) -0.0022(9) 0.0020(9)
O1 0.0329(12) 0.0681(16) 0.0798(18) 0.0247(14) -0.0105(12) -0.0103(11)
C9 0.0344(14) 0.0354(14) 0.0229(13) -0.0011(11) -0.0062(11) -0.0131(12)
C11 0.0327(14) 0.0337(15) 0.0274(14) -0.0009(11) -0.0071(11) -0.0131(12)
C1 0.0354(15) 0.0306(14) 0.0291(14) -0.0040(11) -0.0084(12) -0.0065(12)
C10 0.0340(14) 0.0302(14) 0.0252(14) -0.0028(11) -0.0063(12) -0.0106(12)
C8 0.0322(14) 0.0350(15) 0.0280(14) 0.0014(12) -0.0073(11) -0.0129(12)
C15 0.0423(16) 0.0397(16) 0.0356(15) 0.0073(13) -0.0157(13) -0.0214(13)
C7 0.0332(16) 0.0397(16) 0.0319(15) -0.0003(12) -0.0077(12) -0.0061(13)
C12 0.0355(14) 0.0340(15) 0.0262(14) -0.0017(11) -0.0043(11) -0.0140(12)
C16 0.0385(15) 0.0340(15) 0.0305(15) 0.0002(12) -0.0078(12) -0.0135(13)
C6 0.0434(17) 0.0444(17) 0.0363(16) 0.0045(14) -0.0162(13) -0.0118(14)
C2 0.0398(16) 0.0373(16) 0.0455(18) 0.0033(14) -0.0147(14) -0.0062(14)
C14 0.0570(19) 0.0473(18) 0.0258(14) 0.0057(13) -0.0115(13) -0.0222(16)
C13 0.0500(17) 0.0444(17) 0.0236(14) -0.0009(12) -0.0024(13) -0.0160(15)
C17 0.0523(19) 0.0467(18) 0.0521(19) 0.0153(15) -0.0253(16) -0.0231(15)
C5 0.070(2) 0.0471(19) 0.0424(18) 0.0115(15) -0.0237(17) -0.0192(17)
C3 0.0429(18) 0.0518(19) 0.062(2) 0.0037(17) -0.0137(16) -0.0190(16)
C4 0.064(2) 0.0484(19) 0.0445(19) 0.0094(15) -0.0070(16) -0.0257(17)
loop_
_atom_type_symbol
_atom_type_description
_atom_type_scat_dispersion_real
_atom_type_scat_dispersion_imag
_atom_type_scat_source
C C 0.0033 0.0016 'International Tables Vol C Tables 4.2.6.8 and 6.1.1.4'
H H 0.0000 0.0000 'International Tables Vol C Tables 4.2.6.8 and 6.1.1.4'
O O 0.0106 0.0060 'International Tables Vol C Tables 4.2.6.8 and 6.1.1.4'
S S 0.1246 0.1234 'International Tables Vol C Tables 4.2.6.8 and 6.1.1.4'
loop_
_geom_angle_atom_site_label_1
_geom_angle_atom_site_label_2
_geom_angle_atom_site_label_3
_geom_angle
C8 S1 C12 103.27(13)
C9 O2 H2 109.5
O2 C9 C10 116.5(2)
O2 C9 C8 118.4(2)
C8 C9 C10 125.1(2)
C12 C11 C10 122.6(2)
C12 C11 C16 118.4(2)
C16 C11 C10 119.0(2)
C6 C1 C7 118.8(2)
C2 C1 C7 122.2(2)
C2 C1 C6 118.9(3)
O3 C10 C9 117.8(2)
O3 C10 C11 122.4(2)
C11 C10 C9 119.8(2)
C9 C8 S1 124.6(2)
C9 C8 C7 122.2(2)
C7 C8 S1 113.13(19)
C16 C15 C14 117.3(3)
C16 C15 C17 122.6(3)
C14 C15 C17 120.0(3)
O1 C7 C1 122.1(3)
O1 C7 C8 118.1(3)
C1 C7 C8 119.7(2)
C11 C12 S1 124.5(2)
C13 C12 S1 116.0(2)
C13 C12 C11 119.5(2)
C11 C16 H16 118.8
C15 C16 C11 122.4(3)
C15 C16 H16 118.8
C1 C6 H6 119.9
C5 C6 C1 120.1(3)
C5 C6 H6 119.9
C1 C2 H2A 119.7
C3 C2 C1 120.5(3)
C3 C2 H2A 119.7
C15 C14 H14 118.9
C13 C14 C15 122.1(3)
C13 C14 H14 118.9
C12 C13 H13 119.9
C14 C13 C12 120.2(3)
C14 C13 H13 119.9
C15 C17 H17A 109.5
C15 C17 H17B 109.5
C15 C17 H17C 109.5
H17A C17 H17B 109.5
H17A C17 H17C 109.5
H17B C17 H17C 109.5
C6 C5 H5 119.6
C6 C5 C4 120.8(3)
C4 C5 H5 119.6
C2 C3 H3 120.1
C2 C3 C4 119.8(3)
C4 C3 H3 120.1
C5 C4 C3 119.7(3)
C5 C4 H4 120.2
C3 C4 H4 120.2
loop_
_geom_bond_atom_site_label_1
_geom_bond_atom_site_label_2
_geom_bond_distance
S1 C8 1.721(3)
S1 C12 1.737(3)
O2 H2 0.8200
O2 C9 1.355(3)
O3 C10 1.244(3)
O1 C7 1.213(3)
C9 C10 1.464(4)
C9 C8 1.361(4)
C11 C10 1.460(4)
C11 C12 1.411(4)
C11 C16 1.412(4)
C1 C7 1.478(4)
C1 C6 1.395(4)
C1 C2 1.394(4)
C8 C7 1.517(4)
C15 C16 1.375(4)
C15 C14 1.410(4)
C15 C17 1.505(4)
C12 C13 1.397(4)
C16 H16 0.9300
C6 H6 0.9300
C6 C5 1.372(4)
C2 H2A 0.9300
C2 C3 1.378(4)
C14 H14 0.9300
C14 C13 1.370(4)
C13 H13 0.9300
C17 H17A 0.9600
C17 H17B 0.9600
C17 H17C 0.9600
C5 H5 0.9300
C5 C4 1.377(5)
C3 H3 0.9300
C3 C4 1.391(4)
C4 H4 0.9300
