#------------------------------------------------------------------------------
#$Date: 2019-11-08 03:36:37 +0200 (Fri, 08 Nov 2019) $
#$Revision: 225120 $
#$URL: file:///home/coder/svn-repositories/cod/cif/7/15/68/7156894.cif $
#------------------------------------------------------------------------------
#
# This file is available in the Crystallography Open Database (COD),
# http://www.crystallography.net/
#
# All data on this site have been placed in the public domain by the
# contributors.
#
data_7156894
loop_
_publ_author_name
'Palai, Bibhuti Bhusana'
'Soren, Ramachandra'
'Sharma, Nagendra K.'
_publ_section_title
;
 BODIPY analogues: synthesis and photophysical studies of difluoro boron
 complexes from 2-aminotropone scaffolds through N,O-chelation.
;
_journal_issue                   26
_journal_name_full               'Organic &amp; biomolecular chemistry'
_journal_page_first              6497
_journal_page_last               6505
_journal_paper_doi               10.1039/c9ob00915a
_journal_volume                  17
_journal_year                    2019
_chemical_formula_moiety         'C13 H11 B F2 N2 O'
_chemical_formula_sum            'C13 H11 B F2 N2 O'
_chemical_formula_weight         260.07
_chemical_name_systematic        triclinic
_space_group_crystal_system      triclinic
_space_group_IT_number           2
_space_group_name_Hall           '-P 1'
_space_group_name_H-M_alt        'P -1'
_symmetry_Int_Tables_number      2
_symmetry_space_group_name_Hall  '-P 1'
_symmetry_space_group_name_H-M   'P -1'
_atom_sites_solution_primary     direct
_audit_creation_date             2018-10-22
_audit_creation_method
;
Olex2 1.2-ac3
(compiled 2017.02.24 svn.r3390 for Rigaku Oxford Diffraction, GUI svn.r5318)
;
_audit_update_record
;
2019-01-05 deposited with the CCDC.    2019-06-04 downloaded from the CCDC.
;
_cell_angle_alpha                62.940(2)
_cell_angle_beta                 89.372(2)
_cell_angle_gamma                69.175(2)
_cell_formula_units_Z            2
_cell_length_a                   8.8495(2)
_cell_length_b                   9.1023(2)
_cell_length_c                   9.2653(2)
_cell_measurement_reflns_used    6984
_cell_measurement_temperature    293(2)
_cell_measurement_theta_max      74.9900
_cell_measurement_theta_min      5.4140
_cell_volume                     610.93(3)
_computing_cell_refinement       'CrysAlisPro 1.171.39.46b (Rigaku OD, 2018)'
_computing_data_collection       'CrysAlisPro 1.171.39.46b (Rigaku OD, 2018)'
_computing_data_reduction        'CrysAlisPro 1.171.39.46b (Rigaku OD, 2018)'
_computing_molecular_graphics    'Olex2 (Dolomanov et al., 2009)'
_computing_publication_material  'Olex2 (Dolomanov et al., 2009)'
_computing_structure_refinement  'olex2.refine (Bourhis et al., 2015)'
_computing_structure_solution    'SIR2004 (Burla et al., 2007)'
_diffrn_ambient_temperature      296.0
_diffrn_detector_type            'Pilatus 200K'
_diffrn_measured_fraction_theta_full 0.9774
_diffrn_measured_fraction_theta_max 0.9774
_diffrn_measurement_details
;
List of Runs (angles in degrees, time in seconds):

  # Type    Start    End  Width  t~exp~   \w     \q     \k     \f   Frames
#--------------------------------------------------------------------------
  1  \w    -42.00  28.00   0.50    0.20    --  -38.50  37.00   6.00  140
  2  \w   -105.00 -35.00   0.50    0.20    --  -38.50 -37.00-149.00  140
  3  \w    -17.00  53.00   0.50    0.20    --   49.31 -37.00-149.00  140
  4  \w     46.00 116.00   0.50    0.20    --   49.31  37.00   6.00  140
  5  \w     36.00 106.00   0.50    1.00    --  102.63 -37.00-149.00  140
  6  \w    100.00 169.00   0.50    1.00    --  102.63  37.00   6.00  138
  7  \w   -105.00 -35.00   0.50    0.20    --  -38.50 -37.00 150.00  140
  8  \w     24.00 100.00   0.50    0.20    --   49.31-125.00  60.00  152
  9  \w     38.00 112.00   0.50    0.20    --   49.31  57.00-150.00  148
 10  \w    -20.00  55.00   0.50    0.20    --   49.31 -19.00-120.00  150
 11  \w     98.00 167.00   0.50    1.00    --  102.63  45.00-150.00  138
 12  \w     34.00 110.00   0.50    1.00    --  102.63 -94.00 -90.00  152
 13  \w     38.00 118.00   0.50    1.00    --  102.63-125.00-150.00  160
 14  \w     40.00 116.00   0.50    1.00    --  102.63 -61.00 150.00  152
 15  \w     38.00 118.00   0.50    1.00    --  102.63-125.00 -60.00  160
 16  \w     40.00 116.00   0.50    1.00    --  102.63 -61.00   0.00  152
 17  \w     38.00 118.00   0.50    1.00    --  102.63-125.00  30.00  160
 18  \w     34.00 111.00   0.50    1.00    --  102.63 -15.00  30.00  154
 19  \w     98.00 167.00   0.50    1.00    --  102.63  45.00  60.00  138
 20  \w     34.00 110.00   0.50    1.00    --  102.63 -94.00 150.00  152
 21  \w     35.00 106.00   0.50    1.00    --  102.63 -30.00  60.00  142
 22  \w     35.00 106.00   0.50    1.00    --  102.63 -30.00-120.00  142
 23  \w     98.00 167.00   0.50    1.00    --  102.63  45.00-180.00  138
 24  \w     98.00 167.00   0.50    1.00    --  102.63  45.00-120.00  138
 25  \w     38.00 107.00   0.50    1.00    --  102.63 -45.00-120.00  138
 26  \w     38.00 126.00   0.50    1.00    --  102.63 -77.00   0.00  176
 27  \w     26.00 114.00   0.50    0.20    --   49.31  77.00 -90.00  176
 28  \w     26.00 114.00   0.50    0.20    --   49.31  77.00  30.00  176
 29  \w     26.00 114.00   0.50    0.20    --   49.31  77.00 150.00  176
 30  \w     26.00 114.00   0.50    0.20    --   49.31  77.00 -30.00  176
 31  \w     26.00 114.00   0.50    0.20    --   49.31  77.00  90.00  176
;
_diffrn_measurement_device       'four-circle diffractometer'
_diffrn_measurement_device_type
'SuperNova, Dual, Cu at home/near, Pilatus 200K'
_diffrn_measurement_method       '\w scans'
_diffrn_radiation_type           'Cu K\a'
_diffrn_radiation_wavelength     1.54184
_diffrn_reflns_av_R_equivalents  0.0382
_diffrn_reflns_av_unetI/netI     0.0262
_diffrn_reflns_limit_h_max       11
_diffrn_reflns_limit_h_min       -8
_diffrn_reflns_limit_k_max       11
_diffrn_reflns_limit_k_min       -10
_diffrn_reflns_limit_l_max       11
_diffrn_reflns_limit_l_min       -11
_diffrn_reflns_number            9421
_diffrn_reflns_theta_full        75.3367
_diffrn_reflns_theta_max         75.34
_diffrn_reflns_theta_min         5.44
_exptl_absorpt_coefficient_mu    0.937
_exptl_absorpt_correction_T_max  1.00000
_exptl_absorpt_correction_T_min  0.60886
_exptl_absorpt_correction_type   multi-scan
_exptl_absorpt_process_details
;
CrysAlisPro 1.171.39.46b (Rigaku Oxford Diffraction, 2018)
Empirical absorption correction using spherical harmonics,
 implemented in SCALE3 ABSPACK scaling algorithm.
;
_exptl_crystal_colour            'metallic light white'
_exptl_crystal_colour_lustre     metallic
_exptl_crystal_colour_modifier   light
_exptl_crystal_colour_primary    white
_exptl_crystal_density_diffrn    1.4136
_exptl_crystal_description       needle
_exptl_crystal_F_000             269.0055
_exptl_crystal_size_max          0.001
_exptl_crystal_size_mid          0.0001
_exptl_crystal_size_min          0.0001
_refine_diff_density_max         0.1187
_refine_diff_density_min         -0.2152
_refine_diff_density_rms         0.0472
_refine_ls_d_res_high            0.7969
_refine_ls_d_res_low             8.1345
_refine_ls_goodness_of_fit_ref   1.1434
_refine_ls_hydrogen_treatment    mixed
_refine_ls_matrix_type           full
_refine_ls_number_constraints    18
_refine_ls_number_parameters     179
_refine_ls_number_reflns         2469
_refine_ls_number_restraints     0
_refine_ls_restrained_S_all      1.1434
_refine_ls_R_factor_all          0.0423
_refine_ls_R_factor_gt           0.0390
_refine_ls_shift/su_max          0.0000
_refine_ls_shift/su_mean         0.0000
_refine_ls_structure_factor_coef Fsqd
_refine_ls_weighting_details
'w=1/[\s^2^(Fo^2^)+(0.0460P)^2^+0.0662P] where P=(Fo^2^+2Fc^2^)/3'
_refine_ls_weighting_scheme      calc
_refine_ls_wR_factor_gt          0.1006
_refine_ls_wR_factor_ref         0.1034
_reflns_Friedel_coverage         0.0
_reflns_limit_h_max              10
_reflns_limit_h_min              -11
_reflns_limit_k_max              11
_reflns_limit_k_min              -9
_reflns_limit_l_max              11
_reflns_limit_l_min              0
_reflns_number_gt                2200
_reflns_number_total             2469
_reflns_threshold_expression     I>=2u(I)
_iucr_refine_instructions_details
;
TITL nks_rcs_48_a.res in P-1
REM Old TITL nks_rcs_48_a.res in P-1
REM SHELXT solution in P-1
REM R1 0.177, Rweak 0.016, Alpha 0.044, Orientation as input
REM Formula found by SHELXT: C15 F2 N2
CELL 1.54184 8.8495 9.1023 9.2653 62.94 89.372 69.175
ZERR 2 0.0002 0.0002 0.0002 0.002 0.002 0.002
LATT 1
SFAC C H B F N O
UNIT 26 24 2 4 6 1

L.S. 10
PLAN  20
TEMP 22.85
BOND $H
FMAP 2
list 4
ACTA 
WGHT 0.046026 0.066197
FVAR 1.28099
REM <olex2.extras>
REM <HklSrc "%.\\nks_rcs_48.hkl">
REM </olex2.extras>

F2    4     0.67201  0.34826  0.66065  11.00000  0.05064  0.08363  0.09853 =
 -0.04804  0.02996 -0.04190 
F1    4     0.76260  0.04866  0.81832  11.00000  0.03714  0.08119  0.09309 =
 -0.03626  0.00779 -0.00479 
O1    6     0.56709  0.18991  0.57520  11.00000  0.04752  0.07203  0.06366 =
 -0.04141  0.02792 -0.02743 
N2    5     0.47567  0.22422  0.79712  11.00000  0.03263  0.05000  0.04746 =
 -0.02673  0.01028 -0.01642 
C8    1     0.46273  0.23830  0.94737  11.00000  0.04535  0.05486  0.04283 =
 -0.02396  0.00424 -0.01738 
AFIX 23
H8a   2     0.42023  0.15238  1.02173  11.00000 -1.20000 
H8b   2     0.57183  0.20623  1.00077  11.00000 -1.20000 
AFIX 0
C10   1     0.35277  0.57674  0.78726  11.00000  0.06008  0.05772  0.05440 =
 -0.02910  0.01738 -0.02397 
AFIX 43
H10   2     0.42055  0.56991  0.71116  11.00000 -1.20000 
AFIX 0
C6    1     0.32755  0.21140  0.44757  11.00000  0.07252  0.06358  0.04963 =
 -0.03335  0.01504 -0.02849 
AFIX 43
H6    2     0.38686  0.19773  0.36787  11.00000 -1.20000 
AFIX 0
C3    1     0.06607  0.25229  0.66971  11.00000  0.03741  0.07020  0.08460 =
 -0.04281  0.01276 -0.02366 
AFIX 43
H3    2    -0.02674  0.26181  0.71868  11.00000 -1.20000 
AFIX 0
C5    1     0.16440  0.23033  0.42523  11.00000  0.07860  0.07072  0.05900 =
 -0.03237 -0.00648 -0.03127 
AFIX 43
H5    2     0.12918  0.23046  0.33096  11.00000 -1.20000 
AFIX 0
C11   1     0.25055  0.74064  0.76962  11.00000  0.07154  0.05606  0.06641 =
 -0.03002  0.00705 -0.02270 
AFIX 43
H11   2     0.24805  0.84630  0.68122  11.00000 -1.20000 
AFIX 0
C12   1     0.15263  0.74607  0.88386  11.00000  0.05688  0.06889  0.09695 =
 -0.05490  0.01154 -0.01808 
H12   2     0.07490  0.86295  0.87572  11.00000 -1.20000 
C4    1     0.04929  0.24869  0.52216  11.00000  0.05103  0.07493  0.08290 =
 -0.03940 -0.00569 -0.02544 
AFIX 43
H4    2    -0.05356  0.26028  0.48478  11.00000 -1.20000 
AFIX 0
C13   1     0.16157  0.58692  1.01154  11.00000  0.08350  0.08989  0.10296 =
 -0.06744  0.05224 -0.03981 
B1    3     0.62942  0.20196  0.71531  11.00000  0.03267  0.06062  0.06432 =
 -0.03222  0.01679 -0.01807 
C1    1     0.35365  0.22898  0.71122  11.00000  0.03407  0.03813  0.04367 =
 -0.02040  0.00874 -0.01351 
N1    5     0.25972  0.42538  1.03178  11.00000  0.07731  0.07268  0.06858 =
 -0.04398  0.03662 -0.03539 
C9    1     0.35313  0.42325  0.91919  11.00000  0.03928  0.05730  0.04279 =
 -0.02942  0.00662 -0.02204 
C7    1     0.41132  0.21038  0.57163  11.00000  0.04475  0.04519  0.04769 =
 -0.02476  0.01529 -0.01868 
C2    1     0.19734  0.24406  0.75391  11.00000  0.03793  0.05964  0.05914 =
 -0.03525  0.01693 -0.02266 
AFIX 43
H2    2     0.18171  0.24900  0.85128  11.00000 -1.20000 
AFIX 0
H13   2     0.09436  0.58169  1.10036  11.00000  0.11091 
HKLF 4

END
Q1 1 0.185185 0.533333 1.166667 11 0.05 0.12
Q2 1 0.888889 -0.066667 0.666667 11 0.05 0.12
Q3 1 0.259259 0.3 0.7 11 0.05 0.11
Q4 1 0 0.6 1 11 0.05 0.11
Q5 1 -0.296296 0.466667 0.366667 11 0.05 0.11
Q6 1 0.703704 -0.066667 0.933333 11 0.05 0.11
Q7 1 0 0 0.5 11 0.05 0.1
Q8 1 0.222222 0.166667 0.933333 11 0.05 0.1
Q9 1 0.37037 0.966667 0.733333 11 0.05 0.1
Q10 1 0.333333 0.033333 0.966667 11 0.05 0.1
Q11 1 0.296296 0.9 0.733333 11 0.05 0.1
Q12 1 -0.185185 0.466667 0.3 11 0.05 0.1
Q13 1 -0.185185 0.5 0.466667 11 0.05 0.1
Q14 1 0.703704 0.5 0.533333 11 0.05 0.1
Q15 1 0.592593 0.466667 0.7 11 0.05 0.1
Q16 1 0.259259 0.966667 0.8 11 0.05 0.09
Q17 1 0.333333 0.4 1.266667 11 0.05 0.09
Q18 1 0.777778 -0.066667 0.733333 11 0.05 0.09
Q19 1 0.111111 0.433333 0.833333 11 0.05 0.09
Q20 1 0.703704 0.066667 1.033333 11 0.05 0.09

  REM The information below was added by Olex2.
  REM
  REM R1 = 0.0390 for 2200 Fo > 4sig(Fo) and 0.0423 for all 2469 data
  REM 179 parameters refined using 0 restraints
  REM Highest difference peak 0.1187, deepest hole -0.2152
  REM Mean Shift 0.0000, Max Shift 0.0000.

  REM +++ Tabular Listing of Refinement Information +++
  REM R1_all = 0.0423
  REM R1_gt = 0.0390
  REM wR_ref = 0.1034
  REM GOOF = 1.1434
  REM Shift_max = 0.0000
  REM Shift_mean = 0.0000
  REM Reflections_all = 2469
  REM Reflections_gt = 2200
  REM Parameters = 179
  REM Hole = -0.2152
  REM Peak = 0.1187
  REM Flack = n/a

  
;
_cod_data_source_file            c9ob00915a2.cif
_cod_data_source_block           3h
_cod_depositor_comments
'Adding full bibliography for 7156891--7156896.cif.'
_cod_database_code               7156894
_olex2_refinement_description
;
1. Fixed Uiso
 At 1.2 times of:
  All C(H) groups, All C(H,H) groups
2.a Secondary CH2 refined with riding coordinates:
 C8(H8a,H8b)
2.b Aromatic/amide H refined with riding coordinates:
 C10(H10), C6(H6), C3(H3), C5(H5), C11(H11), C4(H4), C2(H2)
;
_iucr_refine_fcf_details
;
data_nks_rcs_48
_computing_structure_refinement   'olex2.refine (Bourhis et al., 2015)'
_shelx_refln_list_code            4
loop_
  _space_group_symop_id
  _space_group_symop_operation_xyz
  1  x,y,z
  2  -x,-y,-z

_space_group_crystal_system       triclinic
_space_group_IT_number            2
_space_group_name_H-M_alt         'P -1'
_space_group_name_Hall            '-P 1'
_symmetry_space_group_name_H-M    'P -1'
_symmetry_space_group_name_Hall   '-P 1'
_symmetry_Int_Tables_number       2
_cell_length_a                    8.8495(2)
_cell_length_b                    9.1023(2)
_cell_length_c                    9.2653(2)
_cell_angle_alpha                 62.940(2)
_cell_angle_beta                  89.372(2)
_cell_angle_gamma                 69.175(2)
_cell_volume                      610.93(3)
loop_
  _refln_index_h
  _refln_index_k
  _refln_index_l
  _refln_F_squared_calc
  _refln_F_squared_meas
  _refln_F_squared_sigma
  _refln_F_squared_weight
  _refln_observed_status
-11 -4 1 6.260 5.686 0.408 16.136 o
-10 -6 1 7.897 7.533 0.360 13.508 o
-10 -5 1 0.963 1.052 0.158 112.606 o
-10 -5 2 0.047 0.130 0.073 1010.710 o
-10 -4 1 1.207 2.287 0.268 57.674 o
-10 -4 2 0.192 0.324 0.109 376.728 o
-10 -4 3 0.090 0.029 0.085 882.622 o
-10 -3 1 4.199 3.887 0.552 17.078 o
-10 -3 2 2.687 3.261 0.284 36.127 o
-10 -3 3 0.014 -0.001 0.103 926.551 o
-10 -3 4 0.989 0.687 0.117 140.625 o
-10 -2 1 3.939 5.112 0.342 23.515 o
-10 -2 2 4.388 4.181 0.433 20.349 o
-10 -2 3 12.204 12.326 0.545 7.320 o
-10 -2 4 1.431 1.162 0.204 77.694 o
-10 -1 1 3.746 4.260 0.271 28.577 o
-10 -1 2 0.077 0.100 0.099 678.699 o
-10 -1 3 10.999 11.018 0.707 7.025 o
-10 -1 4 0.052 0.131 0.086 827.059 o
-10 0 2 0.006 0.019 0.069 1930.110 o
-10 0 3 0.024 0.165 0.104 676.765 o
-10 0 4 2.730 3.589 0.232 38.266 o
-9 -7 1 0.520 0.723 0.158 161.129 o
-9 -7 2 1.679 2.493 0.728 15.626 o
-9 -6 1 9.824 8.114 0.485 10.138 o
-9 -6 2 35.828 26.281 2.392 1.029 o
-9 -6 3 1.147 1.133 0.552 27.266 o
-9 -5 1 9.608 10.665 0.397 10.153 o
-9 -5 2 65.556 67.996 2.886 0.473 o
-9 -5 3 4.346 3.129 0.301 27.127 o
-9 -5 4 0.084 -0.024 0.146 415.337 o
-9 -4 1 19.888 18.175 0.855 3.726 o
-9 -4 2 0.105 0.537 0.130 310.940 o
-9 -4 3 0.167 0.082 0.084 637.998 o
-9 -4 4 2.137 1.573 0.211 57.432 o
-9 -3 1 0.813 1.427 0.227 86.176 o
-9 -3 2 1.358 0.713 0.126 110.681 o
-9 -3 3 0.026 0.059 0.116 652.193 o
-9 -3 4 7.171 7.524 0.348 14.568 o
-9 -3 5 5.774 5.219 0.420 17.017 o
-9 -2 1 12.480 13.461 0.636 6.522 o
-9 -2 2 0.033 0.142 0.142 421.013 o
-9 -2 3 0.005 0.030 0.110 802.661 o
-9 -2 4 0.258 0.076 0.099 456.329 o
-9 -2 5 16.457 17.465 0.551 5.184 o
-9 -1 1 1.262 2.428 0.220 63.812 o
-9 -1 2 0.098 0.085 0.158 333.129 o
-9 -1 3 21.074 22.175 0.702 3.614 o
-9 -1 4 0.536 0.644 0.140 179.541 o
-9 -1 5 1.588 1.268 0.142 84.911 o
-9 -1 6 1.701 2.657 0.201 57.135 o
-9 0 1 1.227 1.210 0.136 101.851 o
-9 0 2 12.081 9.825 0.422 8.694 o
-9 0 3 6.335 6.658 0.417 15.146 o
-9 0 4 3.614 3.201 0.217 34.467 o
-9 0 5 0.053 0.081 0.087 896.902 o
-9 0 6 7.364 5.982 0.256 16.727 o
-9 1 1 27.085 21.275 0.902 2.732 o
-9 1 2 24.666 23.893 0.895 2.835 o
-9 1 3 0.590 0.207 0.146 198.892 o
-9 1 4 0.019 -0.054 0.092 1114.930 o
-9 1 5 3.242 3.442 0.236 35.013 o
-9 1 6 4.901 6.052 0.280 21.399 o
-9 2 1 0.470 0.475 0.183 160.156 o
-9 2 2 1.897 2.541 0.256 48.572 o
-9 2 3 4.938 4.363 0.366 21.046 o
-9 2 4 16.505 14.886 0.579 5.399 o
-9 2 5 0.576 0.946 0.140 155.692 o
-8 -8 1 1.009 1.176 0.131 115.856 o
-8 -8 2 4.284 4.774 0.597 15.052 o
-8 -7 1 15.393 14.964 0.704 5.222 o
-8 -7 2 2.620 4.289 0.725 13.769 o
-8 -7 3 10.623 9.802 1.112 4.854 o
-8 -6 1 38.311 35.847 1.690 1.254 o
-8 -6 2 8.660 7.358 0.328 13.111 o
-8 -6 3 4.508 4.548 0.329 23.132 o
-8 -6 4 0.009 -0.067 0.158 408.743 o
-8 -5 1 74.010 80.012 1.328 0.548 o
-8 -5 2 1.916 3.144 0.354 35.915 o
-8 -5 3 4.756 3.860 0.289 24.810 o
-8 -5 4 7.624 9.374 1.673 2.994 o
-8 -5 5 1.399 0.567 0.201 88.880 o
-8 -4 1 18.992 17.814 0.625 4.430 o
-8 -4 2 32.016 36.231 0.917 1.925 o
-8 -4 3 33.930 30.404 0.963 1.943 o
-8 -4 4 27.344 37.294 7.572 0.170 o
-8 -4 5 0.244 0.481 0.256 119.751 o
-8 -4 6 0.089 -0.037 0.128 513.973 o
-8 -3 1 131.367 130.288 3.021 0.193 o
-8 -3 2 109.471 112.134 2.778 0.256 o
-8 -3 3 9.434 9.438 0.459 10.191 o
-8 -3 4 4.109 3.693 0.303 26.872 o
-8 -3 5 10.713 9.127 0.501 9.114 o
-8 -3 6 18.406 16.838 0.993 3.662 o
-8 -2 1 177.298 173.227 4.716 0.105 o
-8 -2 2 0.664 0.652 0.129 170.385 o
-8 -2 3 69.596 65.725 1.726 0.600 o
-8 -2 4 11.404 13.210 0.532 7.542 o
-8 -2 5 12.444 14.070 0.604 6.594 o
-8 -2 6 4.293 4.753 0.524 17.075 o
-8 -2 7 14.181 15.668 0.871 4.769 o
-8 -1 1 50.212 47.803 1.060 1.090 o
-8 -1 2 200.745 189.319 3.241 0.099 o
-8 -1 3 1.265 0.874 0.166 98.962 o
-8 -1 4 5.733 4.976 0.310 19.951 o
-8 -1 5 8.159 6.773 0.347 13.814 o
-8 -1 6 3.720 4.814 0.420 21.615 o
-8 -1 7 1.803 1.822 0.293 49.138 o
-8 0 1 101.358 103.288 2.374 0.303 o
-8 0 2 2.634 1.744 0.224 48.158 o
-8 0 3 30.156 29.270 1.338 1.845 o
-8 0 4 28.586 29.623 0.887 2.330 o
-8 0 5 21.191 19.001 0.640 3.935 o
-8 0 6 26.897 28.578 0.952 2.414 o
-8 0 7 0.653 0.622 0.123 178.364 o
-8 1 1 71.888 80.032 1.908 0.512 o
-8 1 2 3.647 5.015 0.274 27.282 o
-8 1 3 14.616 15.144 0.608 5.757 o
-8 1 4 1.336 2.295 0.951 10.234 o
-8 1 5 4.994 6.942 0.312 19.371 o
-8 1 6 0.156 0.247 0.103 453.448 o
-8 1 7 0.009 0.219 0.116 558.622 o
-8 2 1 0.053 0.037 0.105 731.876 o
-8 2 2 13.069 10.980 0.704 6.365 o
-8 2 3 0.038 0.057 0.094 889.118 o
-8 2 4 0.184 0.609 0.106 316.311 o
-8 2 5 0.534 1.235 0.136 147.960 o
-8 2 6 4.205 5.212 0.250 25.649 o
-8 2 7 5.886 5.430 0.292 19.507 o
-8 3 1 1.933 1.690 0.161 66.882 o
-8 3 2 7.350 6.983 0.704 9.618 o
-8 3 3 5.749 6.719 0.844 8.747 o
-8 3 4 2.393 2.346 0.180 51.740 o
-8 3 5 20.453 23.489 0.657 3.687 o
-8 3 6 5.483 6.152 0.283 19.795 o
-8 3 7 6.922 7.934 0.433 13.383 o
-8 4 3 1.336 1.548 0.177 81.135 o
-8 4 5 0.933 0.920 0.158 117.957 o
-7 -9 1 0.187 0.214 0.069 587.227 o
-7 -8 1 3.475 3.490 0.203 35.101 o
-7 -8 2 1.027 0.703 0.102 142.828 o
-7 -8 3 0.238 0.122 0.091 481.784 o
-7 -7 1 14.656 14.960 1.280 3.391 o
-7 -7 2 2.081 2.356 0.312 41.500 o
-7 -7 3 3.605 3.165 0.258 32.529 o
-7 -7 4 5.216 3.760 0.353 21.484 o
-7 -6 1 16.124 16.778 0.731 4.781 o
-7 -6 2 0.512 0.254 0.116 248.227 o
-7 -6 3 8.765 8.778 0.660 8.850 o
-7 -6 4 7.125 7.992 0.584 11.002 o
-7 -6 5 0.906 0.926 0.201 101.641 o
-7 -5 1 9.121 11.204 0.371 10.518 o
-7 -5 2 61.938 64.807 1.518 0.703 o
-7 -5 3 16.167 16.138 0.579 5.327 o
-7 -5 4 9.401 11.236 0.467 9.537 o
-7 -5 5 13.858 12.438 0.871 5.151 o
-7 -5 6 7.019 3.809 0.329 18.075 o
-7 -4 1 73.876 69.863 1.213 0.599 o
-7 -4 2 6.815 9.920 0.338 13.649 o
-7 -4 3 13.911 13.207 0.489 6.772 o
-7 -4 4 191.581 205.833 5.075 0.087 o
-7 -4 5 0.219 0.201 0.256 130.880 o
-7 -4 6 2.511 3.084 0.402 29.293 o
-7 -3 1 1.998 2.121 0.135 64.380 o
-7 -3 2 19.180 17.163 0.422 4.901 o
-7 -3 3 85.475 89.895 2.344 0.383 o
-7 -3 4 157.160 160.359 4.216 0.128 o
-7 -3 5 8.411 8.367 0.798 7.770 o
-7 -3 6 9.049 9.105 0.756 7.753 o
-7 -3 7 2.199 1.310 0.256 52.383 o
-7 -2 1 3.190 6.049 0.449 20.377 o
-7 -2 2 1.121 2.142 0.177 78.618 o
-7 -2 3 90.990 81.205 1.899 0.406 o
-7 -2 4 65.358 59.873 1.672 0.671 o
-7 -2 5 31.817 36.062 1.011 1.876 o
-7 -2 6 2.365 2.279 0.408 31.329 o
-7 -2 7 0.276 0.371 0.135 268.223 o
-7 -1 1 2.898 2.535 0.189 44.186 o
-7 -1 2 50.660 48.889 1.384 0.989 o
-7 -1 3 2.629 3.410 0.244 38.818 o
-7 -1 4 0.331 0.555 0.128 239.899 o
-7 -1 5 0.728 0.704 0.130 159.037 o
-7 -1 6 5.151 5.489 0.393 18.572 o
-7 -1 7 0.095 0.329 0.232 160.138 o
-7 -1 8 0.016 0.034 0.082 1273.700 o
-7 0 1 43.074 39.152 0.760 1.482 o
-7 0 2 5.015 3.988 0.285 23.882 o
-7 0 3 19.867 16.457 0.544 4.577 o
-7 0 4 20.119 15.672 0.707 4.223 o
-7 0 5 12.450 12.200 0.713 6.316 o
-7 0 6 33.523 35.933 0.979 1.821 o
-7 0 7 15.060 12.352 0.552 6.259 o
-7 0 8 0.627 0.475 0.189 139.885 o
-7 1 1 163.585 159.193 3.482 0.133 o
-7 1 2 24.633 23.437 0.714 3.105 o
-7 1 3 10.685 9.782 0.363 9.954 o
-7 1 4 12.245 11.863 0.932 5.261 o
-7 1 5 24.444 27.130 0.848 2.776 o
-7 1 6 24.045 21.816 0.737 3.223 o
-7 1 7 26.325 26.207 0.862 2.643 o
-7 1 8 0.848 1.101 0.142 124.697 o
-7 2 1 2.055 3.176 0.277 41.697 o
-7 2 2 51.838 50.375 1.137 1.015 o
-7 2 3 120.936 118.327 4.103 0.189 o
-7 2 4 135.591 123.161 2.816 0.196 o
-7 2 5 0.292 0.843 0.344 69.306 o
-7 2 6 48.862 52.015 1.614 0.932 o
-7 2 7 4.752 4.404 0.356 21.773 o
-7 2 8 1.193 0.645 0.097 132.934 o
-7 3 1 41.862 43.067 1.107 1.336 o
-7 3 2 21.042 20.657 0.856 3.428 o
-7 3 3 90.329 83.649 2.024 0.396 o
-7 3 4 9.685 12.089 0.490 8.940 o
-7 3 5 35.601 36.708 1.045 1.679 o
-7 3 6 0.968 1.045 0.247 81.006 o
-7 3 7 0.044 0.051 0.102 772.024 o
-7 3 8 0.073 0.007 0.066 1343.680 o
-7 4 1 0.793 0.834 0.110 156.092 o
-7 4 2 13.840 14.584 0.542 6.335 o
-7 4 3 14.720 17.588 1.676 2.389 o
-7 4 4 0.330 0.671 0.176 171.415 o
-7 4 5 20.771 20.498 0.999 3.187 o
-7 4 6 11.254 13.990 0.659 6.717 o
-7 4 7 0.979 2.195 0.153 87.684 o
-7 4 8 0.804 0.806 0.133 144.272 o
-7 5 2 1.347 1.487 0.274 60.799 o
-7 5 3 1.431 0.980 0.138 97.103 o
-7 5 4 7.380 6.222 0.640 10.686 o
-7 5 5 11.608 11.782 0.954 5.294 o
-7 5 6 0.064 0.029 0.079 1068.870 o
-6 -9 1 2.227 2.084 0.136 60.340 o
-6 -8 1 0.518 0.679 0.121 196.681 o
-6 -8 2 4.185 4.280 0.211 28.854 o
-6 -8 3 0.010 0.003 0.082 1450.200 o
-6 -7 1 0.104 0.024 0.109 610.692 o
-6 -7 2 5.030 6.216 0.375 18.566 o
-6 -7 3 4.452 4.391 0.475 18.612 o
-6 -7 4 1.568 1.205 0.123 90.425 o
-6 -6 1 7.713 7.959 0.672 9.514 o
-6 -6 2 17.228 18.934 1.073 3.477 o
-6 -6 3 17.454 18.768 0.652 4.559 o
-6 -6 4 8.158 8.119 0.306 13.483 o
-6 -6 5 6.616 7.375 0.329 15.742 o
-6 -5 1 80.577 88.090 1.923 0.438 o
-6 -5 2 39.636 39.636 0.942 1.525 o
-6 -5 3 2.823 2.461 0.196 44.815 o
-6 -5 4 1.514 1.486 0.192 73.802 o
-6 -5 5 6.581 7.563 0.326 15.689 o
-6 -5 6 0.844 0.701 0.201 110.362 o
-6 -4 1 1.012 0.572 0.094 153.849 o
-6 -4 2 440.012 454.843 9.269 0.020 o
-6 -4 3 32.947 38.833 0.917 1.819 o
-6 -4 4 26.731 26.786 0.773 2.686 o
-6 -4 5 4.478 5.988 0.333 21.157 o
-6 -4 6 2.789 3.358 0.451 24.873 o
-6 -4 7 12.790 12.054 0.713 6.238 o
-6 -3 1 95.499 101.388 1.597 0.358 o
-6 -3 2 47.525 46.813 1.162 1.131 o
-6 -3 3 56.786 59.950 1.125 0.856 o
-6 -3 4 64.206 60.900 2.631 0.534 o
-6 -3 5 0.073 0.230 0.167 287.110 o
-6 -3 6 2.000 2.055 0.259 49.784 o
-6 -3 7 0.500 0.508 0.132 203.904 o
-6 -3 8 0.395 0.250 0.110 295.874 o
-6 -2 1 71.876 71.319 1.207 0.610 o
-6 -2 2 119.589 124.046 2.355 0.234 o
-6 -2 3 117.584 123.246 2.663 0.231 o
-6 -2 4 14.182 15.526 0.604 5.837 o
-6 -2 5 0.002 0.047 0.205 242.176 o
-6 -2 6 24.232 28.142 1.597 1.856 o
-6 -2 7 0.023 0.120 0.133 486.599 o
-6 -2 8 0.850 0.841 0.189 111.804 o
-6 -1 1 87.879 89.541 2.027 0.393 o
-6 -1 2 2.347 2.499 0.214 48.135 o
-6 -1 3 135.568 138.515 3.118 0.179 o
-6 -1 4 38.535 36.845 1.097 1.540 o
-6 -1 5 10.109 9.772 0.376 10.275 o
-6 -1 6 1.950 1.574 0.200 62.106 o
-6 -1 7 0.297 0.274 0.219 154.616 o
-6 -1 8 0.845 0.555 0.144 145.811 o
-6 0 1 0.001 0.051 0.057 2380.390 o
-6 0 2 22.240 22.873 0.796 3.273 o
-6 0 3 3.721 2.273 0.160 39.806 o
-6 0 4 0.040 0.161 0.099 686.918 o
-6 0 5 90.778 86.381 1.847 0.398 o
-6 0 6 12.226 13.314 0.665 6.475 o
-6 0 7 2.566 2.411 0.223 45.427 o
-6 0 8 4.155 5.759 0.542 16.018 o
-6 0 9 0.175 0.402 0.152 261.146 o
-6 1 1 0.007 0.283 0.092 692.773 o
-6 1 2 164.623 171.518 2.755 0.134 o
-6 1 3 82.033 79.660 1.635 0.473 o
-6 1 4 153.533 142.607 2.635 0.162 o
-6 1 5 57.057 57.887 1.247 0.847 o
-6 1 6 20.782 15.368 0.550 4.494 o
-6 1 7 27.549 25.395 0.856 2.586 o
-6 1 8 2.862 2.964 0.206 41.413 o
-6 1 9 2.406 3.096 0.335 34.592 o
-6 2 1 82.331 87.033 2.091 0.420 o
-6 2 2 7.649 6.779 0.356 14.313 o
-6 2 3 29.868 31.127 0.766 2.300 o
-6 2 4 11.748 12.529 0.531 7.543 o
-6 2 5 3.550 3.801 0.246 31.700 o
-6 2 6 77.919 79.520 2.657 0.412 o
-6 2 7 6.824 5.751 0.455 14.419 o
-6 2 8 0.274 0.060 0.090 484.676 o
-6 2 9 11.972 12.735 0.613 6.946 o
-6 3 1 6.770 7.072 0.616 11.168 o
-6 3 2 1.174 1.229 0.201 85.278 o
-6 3 3 436.588 436.516 11.344 0.019 o
-6 3 4 9.778 10.121 0.494 9.428 o
-6 3 5 8.177 8.702 0.600 9.838 o
-6 3 6 22.249 18.890 1.319 2.553 o
-6 3 7 0.605 0.324 0.165 169.632 o
-6 3 8 0.320 0.634 0.177 174.640 o
-6 3 9 0.222 0.244 0.076 495.562 o
-6 4 1 0.227 0.223 0.100 415.805 o
-6 4 2 15.070 14.832 0.698 5.332 o
-6 4 3 17.033 16.464 0.706 4.711 o
-6 4 4 1.074 1.399 0.190 88.805 o
-6 4 5 1.066 1.559 0.176 90.097 o
-6 4 6 0.719 0.497 0.121 179.165 o
-6 4 7 0.077 0.337 0.145 328.049 o
-6 4 8 1.265 1.542 0.207 76.452 o
-6 4 9 19.909 20.640 0.510 4.249 o
-6 5 1 1.395 1.152 0.148 92.731 o
-6 5 2 1.725 1.302 0.153 78.087 o
-6 5 3 7.501 5.809 0.519 12.565 o
-6 5 4 26.509 26.905 1.767 1.632 o
-6 5 5 2.625 2.486 0.180 48.010 o
-6 5 6 3.341 3.089 0.241 35.220 o
-6 5 7 2.107 1.745 0.136 65.844 o
-6 5 8 27.922 32.721 1.073 2.106 o
-6 6 2 0.003 0.213 0.177 289.211 o
-6 6 3 6.281 7.137 0.865 8.182 o
-6 6 4 17.381 16.326 1.109 3.510 o
-6 6 5 1.102 1.259 0.158 100.080 o
-6 6 6 1.953 2.114 0.201 57.392 o
-6 6 7 1.725 1.526 0.148 75.821 o
-5 -9 1 0.131 0.164 0.075 690.882 o
-5 -9 2 5.114 5.245 0.220 23.383 o
-5 -8 1 2.604 2.816 0.200 44.900 o
-5 -8 2 9.619 8.475 0.404 10.916 o
-5 -8 3 1.827 1.817 0.142 70.514 o
-5 -7 1 30.262 26.451 0.874 2.337 o
-5 -7 2 10.039 9.297 0.588 8.713 o
-5 -7 3 0.163 0.252 0.103 443.435 o
-5 -7 4 0.014 0.003 0.062 2319.030 o
-5 -6 1 22.933 24.384 0.895 2.969 o
-5 -6 2 11.622 12.678 0.769 6.182 o
-5 -6 3 4.285 3.614 0.579 16.324 o
-5 -6 4 2.584 2.226 0.342 35.577 o
-5 -6 5 0.027 0.067 0.061 1641.150 o
-5 -5 1 90.067 93.342 1.947 0.380 o
-5 -5 2 6.200 6.686 0.475 14.248 o
-5 -5 3 14.299 13.787 0.537 6.334 o
-5 -5 4 1.096 1.240 0.211 84.829 o
-5 -5 5 2.622 2.474 0.658 16.891 o
-5 -5 6 0.740 1.141 0.137 133.141 o
-5 -4 1 86.853 93.303 3.159 0.319 o
-5 -4 2 231.301 240.411 4.960 0.067 o
-5 -4 3 1.369 1.303 0.206 76.973 o
-5 -4 4 79.646 80.718 2.431 0.421 o
-5 -4 5 2.383 2.600 0.241 44.718 o
-5 -4 6 12.034 9.747 1.133 4.535 o
-5 -4 7 0.513 0.433 0.183 157.792 o
-5 -3 1 185.314 187.088 2.696 0.112 o
-5 -3 2 0.208 0.018 0.058 805.061 o
-5 -3 3 234.391 234.207 5.141 0.066 o
-5 -3 4 83.439 87.714 1.860 0.429 o
-5 -3 5 0.486 0.537 0.155 180.184 o
-5 -3 6 4.051 3.366 0.303 27.768 o
-5 -3 7 36.312 35.774 2.636 0.862 o
-5 -3 8 0.104 0.163 0.085 675.457 o
-5 -2 1 131.579 125.883 2.562 0.205 o
-5 -2 2 85.193 91.700 1.386 0.437 o
-5 -2 3 2.922 3.202 0.155 42.951 o
-5 -2 4 4.308 4.098 0.245 27.540 o
-5 -2 5 104.976 102.000 2.473 0.290 o
-5 -2 6 252.845 244.937 5.554 0.058 o
-5 -2 7 1.892 2.138 0.245 52.454 o
-5 -2 8 14.423 12.569 0.625 6.104 o
-5 -1 1 80.322 102.068 3.114 0.329 o
-5 -1 2 18.492 20.819 0.548 4.415 o
-5 -1 3 103.106 100.516 2.565 0.294 o
-5 -1 4 0.181 0.113 0.075 646.434 o
-5 -1 5 146.226 141.306 4.304 0.144 o
-5 -1 6 12.587 14.128 0.622 6.446 o
-5 -1 7 69.913 66.566 2.199 0.537 o
-5 -1 8 6.538 5.369 0.331 17.478 o
-5 -1 9 0.001 0.055 0.128 592.263 o
-5 0 1 9.502 6.393 0.265 13.335 o
-5 0 2 315.105 311.122 5.669 0.040 o
-5 0 3 4.350 2.877 0.261 29.372 o
-5 0 4 0.209 0.401 0.121 316.870 o
-5 0 5 17.022 15.359 0.634 5.048 o
-5 0 6 49.510 45.507 1.238 1.082 o
-5 0 7 9.293 10.096 0.455 10.094 o
-5 0 8 13.517 13.907 0.632 6.145 o
-5 0 9 5.164 4.995 0.364 19.845 o
-5 1 1 96.028 98.865 1.942 0.346 o
-5 1 2 48.856 48.909 1.046 1.111 o
-5 1 3 45.553 43.898 1.158 1.211 o
-5 1 4 153.482 153.474 3.645 0.142 o
-5 1 5 2.091 2.121 0.204 54.846 o
-5 1 6 3.203 2.705 0.254 36.616 o
-5 1 7 46.972 46.867 1.781 0.953 o
-5 1 8 20.230 17.766 0.542 4.390 o
-5 1 9 0.331 0.617 0.139 217.942 o
-5 1 10 0.239 0.213 0.122 344.968 o
-5 2 1 510.029 513.955 8.083 0.016 o
-5 2 2 20.308 19.969 0.718 3.840 o
-5 2 3 10.282 8.125 0.320 11.223 o
-5 2 4 69.942 64.942 2.060 0.560 o
-5 2 5 16.939 17.380 0.649 4.806 o
-5 2 6 47.632 46.419 2.054 0.864 o
-5 2 7 1.483 0.539 0.292 63.066 o
-5 2 8 26.258 25.260 0.859 2.690 o
-5 2 9 10.764 11.368 0.409 9.089 o
-5 2 10 3.344 4.168 0.353 26.594 o
-5 3 1 0.634 0.912 0.155 142.456 o
-5 3 2 106.098 98.698 1.874 0.315 o
-5 3 3 0.075 0.309 0.106 484.767 o
-5 3 4 47.896 50.789 1.870 0.885 o
-5 3 5 16.091 14.606 1.917 1.998 o
-5 3 6 37.796 35.921 1.254 1.498 o
-5 3 7 56.310 51.476 1.734 0.804 o
-5 3 8 6.536 9.773 0.594 10.645 o
-5 3 9 1.502 0.809 0.141 97.081 o
-5 3 10 2.425 2.840 0.305 37.734 o
-5 4 1 80.887 84.672 3.031 0.361 o
-5 4 2 60.893 62.250 1.629 0.710 o
-5 4 3 2.888 2.739 0.201 42.499 o
-5 4 4 16.847 14.442 0.633 5.195 o
-5 4 5 272.484 281.878 6.062 0.048 o
-5 4 6 73.234 77.752 2.456 0.457 o
-5 4 7 1.480 1.189 0.355 46.994 o
-5 4 8 0.182 0.287 0.171 239.057 o
-5 4 9 1.936 2.429 0.202 55.195 o
-5 4 10 19.934 18.193 1.453 2.491 o
-5 5 1 1.263 1.013 0.196 87.200 o
-5 5 2 23.269 24.228 0.936 2.885 o
-5 5 3 1.313 0.559 0.170 102.762 o
-5 5 4 1.737 2.459 0.416 33.433 o
-5 5 5 4.978 4.905 0.330 21.345 o
-5 5 6 1.901 1.914 0.228 56.148 o
-5 5 7 1.616 2.150 0.182 65.716 o
-5 5 8 0.296 0.229 0.225 150.919 o
-5 5 9 4.115 6.413 0.299 22.527 o
-5 6 1 0.543 0.777 0.124 182.115 o
-5 6 2 7.573 5.617 0.487 13.092 o
-5 6 3 10.101 10.373 0.905 6.087 o
-5 6 4 20.914 26.404 1.227 2.539 o
-5 6 5 8.114 8.859 0.884 7.036 o
-5 6 6 1.104 0.681 0.116 131.707 o
-5 6 7 2.908 2.525 0.178 44.944 o
-5 6 8 0.817 1.061 0.212 98.150 o
-5 6 9 1.044 0.983 0.096 131.553 o
-5 7 2 1.387 1.383 0.185 80.156 o
-5 7 3 15.800 16.053 0.522 5.614 o
-5 7 4 0.292 0.352 0.170 209.285 o
-5 7 5 0.004 -0.036 0.161 398.674 o
-5 7 6 4.066 4.858 0.269 26.151 o
-5 7 7 0.024 -0.016 0.065 1972.270 o
-4 -9 1 9.424 10.065 0.320 11.134 o
-4 -9 2 0.370 0.569 0.065 311.446 o
-4 -8 1 0.064 -0.032 0.087 995.211 o
-4 -8 2 5.846 5.967 0.264 19.573 o
-4 -8 3 0.022 -0.016 0.059 2344.230 o
-4 -7 1 67.769 62.887 2.658 0.504 o
-4 -7 2 0.372 0.650 0.138 207.084 o
-4 -7 3 18.688 16.697 0.612 4.625 o
-4 -7 4 0.217 0.067 0.134 358.670 o
-4 -6 1 4.470 4.815 0.444 19.147 o
-4 -6 2 73.411 73.896 1.775 0.535 o
-4 -6 3 0.095 0.098 0.133 434.564 o
-4 -6 4 1.912 2.149 0.292 46.250 o
-4 -6 5 5.675 5.387 0.372 18.189 o
-4 -6 6 10.044 8.757 0.506 9.585 o
-4 -5 1 0.787 0.346 0.123 178.734 o
-4 -5 2 0.158 0.669 0.254 120.639 o
-4 -5 3 29.934 31.910 2.384 1.076 o
-4 -5 4 17.184 15.291 0.937 4.083 o
-4 -5 5 45.172 48.180 2.017 0.896 o
-4 -5 6 4.103 3.835 0.234 29.403 o
-4 -4 1 10.204 8.079 0.630 8.577 o
-4 -4 2 112.276 122.700 2.756 0.239 o
-4 -4 3 1.255 1.541 0.240 69.065 o
-4 -4 4 32.081 31.649 1.077 1.919 o
-4 -4 5 16.236 16.621 0.588 5.224 o
-4 -4 6 14.732 16.170 0.792 4.909 o
-4 -4 7 12.390 13.411 0.594 6.777 o
-4 -3 1 270.331 271.423 6.220 0.049 o
-4 -3 2 50.318 46.640 1.220 1.060 o
-4 -3 3 174.794 162.180 4.733 0.109 o
-4 -3 4 33.525 33.156 1.512 1.520 o
-4 -3 5 22.661 24.774 0.714 3.246 o
-4 -3 6 13.469 13.969 0.589 6.345 o
-4 -3 7 14.450 17.709 1.103 3.784 o
-4 -3 8 0.901 1.048 0.213 94.579 o
-4 -2 1 57.083 63.440 1.893 0.699 o
-4 -2 2 159.859 163.362 5.198 0.113 o
-4 -2 3 0.053 0.404 0.155 295.845 o
-4 -2 4 3.582 2.572 0.234 35.746 o
-4 -2 5 37.088 31.797 1.068 1.704 o
-4 -2 6 40.608 37.441 1.275 1.380 o
-4 -2 7 26.507 26.714 1.197 2.225 o
-4 -2 8 3.249 3.135 0.369 28.166 o
-4 -2 9 6.239 6.900 0.414 15.167 o
-4 -1 1 97.657 109.152 2.845 0.285 o
-4 -1 2 865.761 879.669 18.454 0.005 o
-4 -1 3 106.001 105.479 2.822 0.270 o
-4 -1 4 62.956 55.164 1.512 0.745 o
-4 -1 5 140.540 128.866 3.318 0.175 o
-4 -1 6 12.758 14.543 0.581 6.524 o
-4 -1 7 92.774 96.762 2.214 0.349 o
-4 -1 8 1.225 1.310 0.227 75.694 o
-4 -1 9 0.116 0.096 0.126 449.575 o
-4 0 1 338.055 331.221 7.324 0.033 o
-4 0 2 0.791 0.417 0.175 137.605 o
-4 0 3 305.560 299.193 12.490 0.028 o
-4 0 4 168.105 174.001 3.824 0.120 o
-4 0 5 113.046 111.108 4.498 0.192 o
-4 0 6 53.903 49.650 1.420 0.921 o
-4 0 7 30.152 25.683 0.864 2.379 o
-4 0 8 0.377 0.607 0.222 130.895 o
-4 0 9 2.497 3.095 0.312 35.824 o
-4 0 10 1.009 1.048 0.189 98.821 o
-4 1 1 29.982 31.358 1.542 1.641 o
-4 1 2 447.924 451.564 9.997 0.019 o
-4 1 3 87.084 97.661 8.568 0.108 o
-4 1 4 254.116 260.212 4.612 0.059 o
-4 1 5 0.124 0.170 0.250 145.204 o
-4 1 6 73.974 68.110 2.051 0.522 o
-4 1 7 1.566 1.870 0.251 58.173 o
-4 1 8 45.360 47.110 1.522 1.061 o
-4 1 9 2.143 1.676 0.272 48.718 o
-4 1 10 4.486 5.368 0.335 21.857 o
-4 2 1 311.988 329.270 6.150 0.038 o
-4 2 2 136.027 126.416 2.946 0.190 o
-4 2 3 145.714 152.947 5.404 0.122 o
-4 2 4 46.971 42.763 1.311 1.142 o
-4 2 5 56.994 54.091 1.913 0.744 o
-4 2 6 11.987 12.814 0.716 6.351 o
-4 2 7 191.443 161.624 3.854 0.108 o
-4 2 8 1.726 1.809 0.286 51.013 o
-4 2 9 0.062 0.615 0.221 159.762 o
-4 2 10 0.673 0.929 0.138 147.879 o
-4 3 1 206.499 218.454 5.446 0.076 o
-4 3 2 160.704 160.438 2.615 0.145 o
-4 3 3 175.637 168.297 4.040 0.114 o
-4 3 4 7.059 8.743 0.555 11.146 o
-4 3 5 1.410 1.252 0.263 64.070 o
-4 3 6 115.363 106.828 2.594 0.254 o
-4 3 7 0.462 0.604 0.227 121.398 o
-4 3 8 0.086 0.523 0.259 126.376 o
-4 3 9 30.496 30.891 1.071 2.021 o
-4 3 10 0.007 0.116 0.152 399.996 o
-4 4 1 92.421 97.230 2.955 0.310 o
-4 4 2 8.515 8.621 0.405 11.785 o
-4 4 3 32.049 33.054 1.079 1.886 o
-4 4 4 18.594 17.358 0.668 4.438 o
-4 4 5 291.466 311.231 8.090 0.038 o
-4 4 6 4.327 4.407 0.473 18.893 o
-4 4 7 142.958 136.308 3.841 0.158 o
-4 4 8 40.955 37.351 2.572 0.828 o
-4 4 9 0.000 -0.044 0.182 315.560 o
-4 4 10 0.003 -0.030 0.075 1807.670 o
-4 5 1 17.936 20.288 0.698 4.226 o
-4 5 2 23.808 23.722 0.738 3.145 o
-4 5 3 0.936 0.894 0.187 106.661 o
-4 5 4 130.437 123.568 5.025 0.152 o
-4 5 5 47.832 49.866 6.036 0.234 o
-4 5 6 149.471 157.881 15.503 0.035 o
-4 5 7 0.588 0.804 0.494 36.182 o
-4 5 8 6.167 8.306 1.042 6.354 o
-4 5 9 0.592 0.802 0.222 110.688 o
-4 5 10 0.152 -0.001 0.080 797.153 o
-4 6 1 0.353 0.246 0.168 211.283 o
-4 6 2 4.521 4.413 0.445 19.409 o
-4 6 3 1.218 0.817 0.420 41.546 o
-4 6 4 9.107 9.476 1.012 5.747 o
-4 6 5 49.124 47.904 4.635 0.351 o
-4 6 6 9.389 9.208 1.018 5.676 o
-4 6 7 85.671 87.138 6.210 0.174 o
-4 6 8 15.834 15.084 0.941 4.290 o
-4 6 9 0.802 0.384 0.097 192.171 o
-4 6 10 1.946 2.103 0.250 51.340 o
-4 7 1 8.511 10.305 0.811 7.265 o
-4 7 2 0.017 0.037 0.238 179.660 o
-4 7 3 0.663 1.554 0.414 43.965 o
-4 7 4 4.088 2.669 0.408 24.052 o
-4 7 5 0.321 0.231 0.219 154.384 o
-4 7 6 27.051 26.884 1.235 2.148 o
-4 7 7 18.133 17.024 1.296 2.959 o
-4 7 8 2.542 2.684 0.189 47.109 o
-4 7 9 2.221 2.097 0.154 58.610 o
-4 8 2 0.340 0.207 0.128 288.781 o
-4 8 3 0.304 0.380 0.133 262.907 o
-4 8 4 0.544 0.632 0.180 147.113 o
-4 8 5 4.546 4.697 0.533 16.468 o
-4 8 6 8.886 8.438 0.519 10.336 o
-4 8 7 17.637 16.579 0.514 5.110 o
-3 -9 1 6.724 7.740 0.263 16.235 o
-3 -9 2 1.660 1.364 0.109 86.666 o
-3 -8 1 0.384 0.201 0.109 310.987 o
-3 -8 2 0.216 0.287 0.098 408.865 o
-3 -8 3 0.979 1.120 0.083 135.394 o
-3 -7 1 4.501 5.312 0.574 15.034 o
-3 -7 2 1.405 1.039 0.230 73.710 o
-3 -7 3 0.157 0.211 0.159 282.534 o
-3 -7 4 1.595 1.069 0.166 82.930 o
-3 -6 1 4.553 4.750 0.346 22.171 o
-3 -6 2 8.739 8.223 0.531 10.380 o
-3 -6 3 58.041 50.779 1.816 0.771 o
-3 -6 4 2.118 2.871 0.334 37.236 o
-3 -6 5 2.797 3.561 0.248 36.832 o
-3 -6 6 1.863 1.474 0.171 69.420 o
-3 -5 1 27.177 30.219 1.372 1.920 o
-3 -5 2 5.006 4.604 0.350 21.057 o
-3 -5 3 0.978 0.391 0.166 129.427 o
-3 -5 4 0.037 0.391 0.337 84.265 o
-3 -5 5 17.921 14.913 0.689 4.738 o
-3 -5 6 1.912 1.695 0.142 70.001 o
-3 -4 1 264.863 285.763 7.072 0.046 o
-3 -4 2 97.109 104.931 3.369 0.267 o
-3 -4 3 8.757 9.577 0.449 10.732 o
-3 -4 4 26.035 24.133 0.683 2.967 o
-3 -4 5 19.867 19.785 0.755 3.839 o
-3 -4 6 1.925 1.468 0.278 51.773 o
-3 -4 7 0.807 0.760 0.150 136.814 o
-3 -3 1 61.644 59.344 2.187 0.626 o
-3 -3 2 2.241 1.413 0.457 30.046 o
-3 -3 3 40.771 39.730 1.467 1.258 o
-3 -3 4 8.867 8.343 0.484 10.758 o
-3 -3 5 6.095 5.599 0.655 11.636 o
-3 -3 6 0.247 0.337 0.184 198.867 o
-3 -3 7 7.165 8.383 0.582 10.846 o
-3 -3 8 0.234 0.429 0.113 318.916 o
-3 -2 1 33.988 35.227 1.482 1.494 o
-3 -2 2 174.539 176.802 6.573 0.087 o
-3 -2 3 33.002 31.925 2.034 1.219 o
-3 -2 4 1.595 2.003 0.250 56.888 o
-3 -2 5 3.135 2.807 0.306 33.310 o
-3 -2 6 105.250 108.022 3.200 0.253 o
-3 -2 7 1.914 2.854 0.337 38.413 o
-3 -2 8 5.027 6.177 0.483 15.958 o
-3 -2 9 0.223 0.426 0.093 372.238 o
-3 -1 1 48.776 48.453 1.560 0.977 o
-3 -1 2 685.195 692.832 17.077 0.008 o
-3 -1 3 33.922 31.298 1.356 1.645 o
-3 -1 4 8.553 7.475 0.453 11.727 o
-3 -1 5 208.710 200.603 4.028 0.087 o
-3 -1 6 59.690 58.272 2.142 0.655 o
-3 -1 7 92.203 87.312 3.143 0.314 o
-3 -1 8 6.869 6.110 0.591 11.852 o
-3 -1 9 0.580 0.610 0.146 170.480 o
-3 0 1 1681.830 1528.550 26.367 0.002 o
-3 0 2 598.410 569.972 11.664 0.011 o
-3 0 3 20.418 17.322 0.969 3.455 o
-3 0 4 20.539 18.488 0.988 3.336 o
-3 0 5 169.594 165.308 5.073 0.108 o
-3 0 6 4.184 2.739 0.261 30.497 o
-3 0 7 97.148 100.173 2.899 0.295 o
-3 0 8 4.182 4.584 0.467 19.199 o
-3 0 9 0.757 0.878 0.190 115.621 o
-3 0 10 0.328 0.165 0.091 393.218 o
-3 1 1 1.238 2.439 0.293 52.105 o
-3 1 2 475.614 459.296 10.167 0.017 o
-3 1 3 168.708 189.587 4.914 0.103 o
-3 1 4 1219.420 1177.930 24.920 0.003 o
-3 1 5 27.292 24.271 0.808 2.705 o
-3 1 6 13.742 12.660 0.626 6.295 o
-3 1 7 1.228 1.281 0.243 71.987 o
-3 1 8 5.275 6.288 0.583 13.396 o
-3 1 9 1.056 1.257 0.264 71.216 o
-3 1 10 0.811 1.049 0.150 125.397 o
-3 2 1 77.975 90.349 3.197 0.348 o
-3 2 2 25.605 29.926 1.500 1.866 o
-3 2 3 162.439 146.784 3.117 0.144 o
-3 2 4 28.353 23.718 0.822 2.626 o
-3 2 5 216.262 208.588 3.308 0.086 o
-3 2 6 56.010 55.534 1.455 0.840 o
-3 2 7 41.525 37.727 1.204 1.382 o
-3 2 8 1.302 1.197 0.226 75.434 o
-3 2 9 0.699 0.562 0.231 106.803 o
-3 2 10 0.112 0.174 0.118 456.811 o
-3 3 1 75.988 79.205 1.859 0.493 o
-3 3 2 1.510 2.092 0.171 70.353 o
-3 3 3 6.343 6.378 0.278 17.869 o
-3 3 4 83.901 80.416 2.468 0.400 o
-3 3 5 51.546 56.387 1.722 0.836 o
-3 3 6 51.072 47.403 1.492 0.967 o
-3 3 7 4.827 3.953 0.403 20.608 o
-3 3 8 21.563 21.759 0.889 3.246 o
-3 3 9 1.003 1.469 0.281 65.774 o
-3 3 10 1.178 1.016 0.162 100.902 o
-3 3 11 3.151 3.291 0.305 31.977 o
-3 4 1 7.977 8.497 0.405 12.353 o
-3 4 2 1.689 3.313 0.350 37.204 o
-3 4 3 13.051 12.539 0.509 7.127 o
-3 4 4 11.361 10.284 0.422 8.969 o
-3 4 5 36.102 35.249 1.575 1.378 o
-3 4 6 158.978 154.617 3.194 0.143 o
-3 4 7 72.999 74.491 1.661 0.547 o
-3 4 8 10.283 11.511 0.665 7.489 o
-3 4 9 5.568 5.555 0.435 16.729 o
-3 4 10 23.191 24.432 0.995 2.794 o
-3 4 11 2.084 2.096 0.244 50.423 o
-3 5 1 48.923 52.131 2.733 0.649 o
-3 5 2 70.134 67.715 1.443 0.619 o
-3 5 3 0.004 0.007 0.111 819.528 o
-3 5 4 0.603 1.224 0.306 70.244 o
-3 5 5 62.898 61.782 2.009 0.634 o
-3 5 6 217.151 212.730 9.146 0.053 o
-3 5 7 55.751 64.106 2.453 0.608 o
-3 5 8 9.860 10.272 0.691 7.721 o
-3 5 9 14.698 17.944 0.867 4.489 o
-3 5 10 3.728 4.223 0.401 23.146 o
-3 6 1 32.517 34.356 1.162 1.777 o
-3 6 2 16.855 19.710 0.895 3.935 o
-3 6 3 1.475 1.060 0.203 78.027 o
-3 6 4 25.463 26.271 1.214 2.278 o
-3 6 5 24.406 23.436 1.237 2.397 o
-3 6 6 4.200 4.238 0.467 19.530 o
-3 6 7 14.442 14.440 1.338 3.273 o
-3 6 8 24.745 24.385 1.321 2.238 o
-3 6 9 0.091 -0.017 0.130 495.380 o
-3 6 10 0.701 0.650 0.142 157.002 o
-3 7 1 23.701 22.655 1.606 1.976 o
-3 7 2 0.163 0.096 0.219 181.428 o
-3 7 3 68.840 71.435 3.516 0.382 o
-3 7 4 12.992 13.086 0.844 5.395 o
-3 7 5 31.770 34.204 2.267 1.093 o
-3 7 6 5.468 5.756 0.582 13.503 o
-3 7 7 18.856 19.357 1.069 3.292 o
-3 7 8 0.405 0.870 0.307 79.020 o
-3 7 9 0.093 0.064 0.095 714.906 o
-3 7 10 0.677 0.652 0.110 182.279 o
-3 8 1 2.052 2.473 0.411 32.143 o
-3 8 2 7.290 7.247 0.701 9.614 o
-3 8 3 0.276 0.165 0.175 223.446 o
-3 8 4 11.236 13.917 0.766 6.132 o
-3 8 5 1.258 0.958 0.252 72.986 o
-3 8 6 48.313 54.936 1.918 0.839 o
-3 8 7 0.042 0.104 0.179 289.156 o
-3 8 8 2.768 2.615 0.176 46.022 o
-3 8 9 0.018 -0.030 0.189 285.888 o
-3 9 4 0.142 0.024 0.152 347.041 o
-3 9 5 17.794 13.761 0.908 4.195 o
-3 9 6 0.001 0.110 0.152 406.225 o
-3 9 7 5.882 4.668 0.475 15.996 o
-2 -9 1 8.967 7.542 0.533 10.438 o
-2 -8 1 7.603 7.870 0.537 11.305 o
-2 -8 2 1.692 1.833 0.209 63.206 o
-2 -8 3 3.554 3.867 0.146 35.745 o
-2 -7 1 0.430 0.162 0.148 233.870 o
-2 -7 2 1.389 1.299 0.289 58.715 o
-2 -7 3 1.159 1.187 0.227 79.086 o
-2 -7 4 0.029 0.123 0.082 976.977 o
-2 -6 1 3.060 2.119 0.238 40.978 o
-2 -6 2 4.788 4.115 0.325 23.070 o
-2 -6 3 31.180 32.901 1.257 1.793 o
-2 -6 4 10.970 10.814 0.660 7.393 o
-2 -6 5 1.149 1.511 0.180 87.114 o
-2 -5 1 0.407 0.095 0.114 312.889 o
-2 -5 2 20.084 18.049 0.744 3.958 o
-2 -5 3 2.291 3.110 0.255 41.933 o
-2 -5 4 10.699 10.239 0.520 8.659 o
-2 -5 5 1.967 1.567 0.212 60.143 o
-2 -5 6 2.098 1.550 0.242 53.964 o
-2 -4 1 97.212 94.541 2.655 0.315 o
-2 -4 2 39.720 49.904 1.145 1.287 o
-2 -4 3 26.977 24.455 0.670 2.877 o
-2 -4 4 15.034 17.815 0.809 4.633 o
-2 -4 5 11.319 9.437 0.533 8.456 o
-2 -4 6 14.954 14.071 0.538 6.081 o
-2 -4 7 1.081 1.007 0.192 95.549 o
-2 -3 1 403.742 403.189 7.936 0.024 o
-2 -3 2 236.779 274.910 7.809 0.050 o
-2 -3 3 138.064 155.275 2.829 0.170 o
-2 -3 4 67.977 67.115 1.400 0.646 o
-2 -3 5 0.331 0.234 0.148 248.851 o
-2 -3 6 0.458 0.418 0.169 178.321 o
-2 -3 7 2.608 3.157 0.248 39.701 o
-2 -3 8 1.097 1.217 0.168 98.246 o
-2 -2 1 57.843 56.657 2.981 0.530 o
-2 -2 2 81.013 78.089 8.395 0.117 o
-2 -2 3 1.593 1.870 0.390 38.638 o
-2 -2 4 0.491 0.317 0.246 116.282 o
-2 -2 5 21.110 22.744 1.035 2.983 o
-2 -2 6 0.002 0.128 0.129 535.134 o
-2 -2 7 0.291 0.193 0.125 316.797 o
-2 -2 8 0.453 0.936 0.141 170.336 o
-2 -2 9 13.154 14.692 1.021 4.453 o
-2 -1 1 116.504 116.793 7.033 0.121 o
-2 -1 2 609.091 546.300 10.390 0.012 o
-2 -1 3 85.602 87.559 2.667 0.365 o
-2 -1 4 259.365 257.308 7.345 0.049 o
-2 -1 5 313.580 290.697 6.745 0.040 o
-2 -1 6 45.342 46.312 1.334 1.131 o
-2 -1 7 1.610 2.234 0.263 53.113 o
-2 -1 8 0.140 0.173 0.150 320.521 o
-2 -1 9 5.606 6.022 0.278 19.767 o
-2 0 1 867.831 837.727 13.092 0.006 o
-2 0 2 1740.260 1613.090 21.141 0.002 o
-2 0 3 61.709 64.686 1.356 0.728 o
-2 0 4 61.781 68.371 1.654 0.667 o
-2 0 5 22.062 23.792 0.661 3.452 o
-2 0 6 19.724 16.425 0.696 4.254 o
-2 0 7 1.244 1.961 0.306 53.163 o
-2 0 8 3.933 4.100 0.342 25.169 o
-2 0 9 24.201 20.802 1.012 2.836 o
-2 0 10 0.114 0.123 0.094 630.481 o
-2 1 1 105.615 102.849 1.507 0.322 o
-2 1 2 198.713 183.513 3.009 0.103 o
-2 1 3 1710.260 1592.500 24.959 0.002 o
-2 1 4 59.692 66.665 1.736 0.683 o
-2 1 5 99.249 112.701 2.364 0.296 o
-2 1 6 10.444 10.847 0.474 8.978 o
-2 1 7 15.862 17.252 1.004 3.932 o
-2 1 8 7.348 6.208 0.626 10.915 o
-2 1 9 1.597 1.633 0.239 61.626 o
-2 1 10 5.909 7.019 0.398 15.871 o
-2 2 1 426.371 437.819 8.174 0.021 o
-2 2 2 121.470 113.189 2.413 0.240 o
-2 2 3 347.107 349.100 5.159 0.034 o
-2 2 4 5.925 6.582 0.850 8.621 o
-2 2 5 129.362 160.777 2.869 0.177 o
-2 2 6 372.097 380.700 6.121 0.029 o
-2 2 7 22.681 21.830 0.610 3.575 o
-2 2 8 0.180 0.313 0.164 248.668 o
-2 2 9 0.121 0.195 0.256 138.670 o
-2 2 10 0.043 -0.012 0.121 627.724 o
-2 2 11 0.105 0.067 0.091 719.928 o
-2 3 1 557.238 568.636 15.700 0.011 o
-2 3 2 17.083 19.998 0.696 4.401 o
-2 3 3 85.679 88.161 1.663 0.428 o
-2 3 4 54.267 63.950 1.667 0.768 o
-2 3 5 4.327 5.682 0.365 20.961 o
-2 3 6 40.046 37.606 1.157 1.449 o
-2 3 7 30.776 33.812 1.123 1.895 o
-2 3 8 44.413 46.486 1.036 1.246 o
-2 3 9 19.526 18.840 0.913 3.597 o
-2 3 10 0.972 1.325 0.193 93.347 o
-2 3 11 0.773 0.968 0.158 127.354 o
-2 4 1 73.020 72.737 1.629 0.556 o
-2 4 2 59.199 71.631 1.374 0.715 o
-2 4 3 64.688 68.810 1.460 0.662 o
-2 4 4 103.578 105.652 1.830 0.313 o
-2 4 5 87.673 88.149 1.667 0.418 o
-2 4 6 52.631 54.557 1.430 0.900 o
-2 4 7 103.555 106.990 3.506 0.246 o
-2 4 8 9.210 7.847 0.542 10.068 o
-2 4 9 0.332 0.060 0.285 106.930 o
-2 4 10 7.521 9.345 0.728 8.631 o
-2 4 11 1.441 1.414 0.317 52.267 o
-2 5 1 0.006 0.363 0.360 75.663 o
-2 5 2 9.868 9.812 0.393 10.311 o
-2 5 3 6.036 5.452 0.272 19.571 o
-2 5 4 85.694 84.992 1.549 0.443 o
-2 5 5 107.209 106.547 2.161 0.290 o
-2 5 6 25.349 24.755 1.191 2.357 o
-2 5 7 2.681 3.145 0.376 30.156 o
-2 5 8 17.945 19.488 0.968 3.621 o
-2 5 9 0.014 -0.026 0.154 429.799 o
-2 5 10 9.190 11.785 0.656 7.965 o
-2 5 11 0.358 0.472 0.122 252.256 o
-2 6 1 4.026 3.772 0.461 20.603 o
-2 6 2 3.610 4.668 0.401 22.870 o
-2 6 3 24.343 23.755 0.794 3.011 o
-2 6 4 9.444 9.788 0.577 8.994 o
-2 6 5 12.526 14.062 0.669 6.241 o
-2 6 6 93.569 100.698 2.511 0.324 o
-2 6 7 1.200 1.211 0.263 68.638 o
-2 6 8 8.852 9.353 1.527 3.365 o
-2 6 9 5.373 4.467 0.328 20.948 o
-2 6 10 2.437 3.080 0.296 37.507 o
-2 7 1 5.021 5.324 0.462 17.153 o
-2 7 2 7.873 11.409 0.595 9.254 o
-2 7 3 2.852 2.730 0.348 32.206 o
-2 7 4 3.180 2.364 0.347 31.526 o
-2 7 5 13.323 12.938 1.034 4.512 o
-2 7 6 1.274 1.180 0.315 56.529 o
-2 7 7 1.329 1.436 0.341 49.565 o
-2 7 8 0.470 0.332 0.237 123.206 o
-2 7 9 0.186 0.259 0.133 328.684 o
-2 7 10 0.026 -0.001 0.074 1555.150 o
-2 8 1 1.809 1.741 0.255 54.932 o
-2 8 2 4.387 3.775 0.382 22.695 o
-2 8 3 10.536 11.843 0.575 7.949 o
-2 8 4 20.166 19.565 1.731 2.021 o
-2 8 5 1.195 0.988 0.275 68.269 o
-2 8 6 0.684 0.272 0.212 127.429 o
-2 8 7 2.643 2.591 0.414 28.963 o
-2 8 8 0.104 -0.055 0.317 99.308 o
-2 8 9 0.111 0.305 0.299 103.443 o
-2 9 2 1.346 1.825 0.277 57.510 o
-2 9 3 0.198 0.065 0.124 406.113 o
-2 9 4 1.844 1.771 0.246 55.495 o
-2 9 5 8.123 8.916 0.841 7.390 o
-2 9 6 0.632 1.603 0.396 46.961 o
-2 9 7 8.358 9.233 0.847 7.200 o
-2 9 8 1.765 1.554 0.353 42.889 o
-1 -9 1 0.222 0.159 0.086 503.539 o
-1 -8 1 79.640 79.336 1.724 0.482 o
-1 -8 2 0.010 0.102 0.100 826.664 o
-1 -8 3 0.002 0.046 0.042 3587.040 o
-1 -7 1 35.913 38.111 1.764 1.245 o
-1 -7 2 13.400 11.950 0.729 5.996 o
-1 -7 3 0.304 0.476 0.167 199.687 o
-1 -7 4 0.782 0.508 0.127 165.737 o
-1 -6 1 546.288 515.017 9.790 0.014 o
-1 -6 2 19.577 21.048 0.737 3.828 o
-1 -6 3 3.769 3.396 0.353 26.472 o
-1 -6 4 0.001 0.056 0.120 668.006 o
-1 -6 5 4.831 4.888 0.365 20.697 o
-1 -5 1 85.967 91.932 1.914 0.403 o
-1 -5 2 0.009 0.034 0.120 667.147 o
-1 -5 3 1.364 1.785 0.263 60.066 o
-1 -5 4 0.571 0.674 0.178 143.975 o
-1 -5 5 10.494 10.436 0.811 6.590 o
-1 -5 6 6.437 6.804 0.616 11.536 o
-1 -4 1 578.456 568.919 10.018 0.012 o
-1 -4 2 22.960 24.385 1.027 2.767 o
-1 -4 3 0.076 0.102 0.121 516.018 o
-1 -4 4 29.574 28.508 0.850 2.336 o
-1 -4 5 27.378 26.667 0.968 2.429 o
-1 -4 6 1.111 1.254 0.180 93.213 o
-1 -4 7 0.085 0.146 0.085 732.252 o
-1 -3 1 517.218 554.467 8.525 0.015 o
-1 -3 2 76.168 85.576 1.984 0.463 o
-1 -3 3 101.410 94.640 2.021 0.331 o
-1 -3 4 100.651 98.369 1.997 0.329 o
-1 -3 5 3.781 4.536 0.379 23.425 o
-1 -3 6 5.372 5.959 0.301 19.863 o
-1 -3 7 8.420 9.879 0.603 9.307 o
-1 -3 8 21.242 20.963 0.733 3.616 o
-1 -2 1 2635.230 2415.470 42.583 0.001 o
-1 -2 2 562.547 541.306 11.438 0.013 o
-1 -2 3 200.629 204.355 7.753 0.065 o
-1 -2 4 13.403 13.014 0.466 7.101 o
-1 -2 5 88.372 83.245 1.823 0.418 o
-1 -2 6 1.249 1.276 0.185 86.295 o
-1 -2 7 5.835 7.520 0.399 15.584 o
-1 -2 8 1.118 1.105 0.131 111.573 o
-1 -2 9 2.696 3.285 0.311 34.115 o
-1 -1 1 3972.830 3356.960 55.603 0.000 o
-1 -1 2 168.574 149.357 3.894 0.128 o
-1 -1 3 55.653 47.669 1.317 0.932 o
-1 -1 4 579.982 549.942 12.890 0.012 o
-1 -1 5 22.763 25.730 0.967 2.817 o
-1 -1 6 32.953 32.694 0.959 1.938 o
-1 -1 7 48.629 50.516 1.947 0.856 o
-1 -1 8 10.637 10.564 0.463 9.027 o
-1 -1 9 22.129 23.507 0.939 3.016 o
-1 0 1 105.487 78.487 1.732 0.358 o
-1 0 2 309.221 272.384 6.060 0.043 o
-1 0 3 332.140 334.352 6.034 0.036 o
-1 0 4 53.462 53.733 2.034 0.758 o
-1 0 5 210.715 198.195 2.920 0.093 o
-1 0 6 90.776 89.196 2.140 0.375 o
-1 0 7 66.537 66.327 1.792 0.615 o
-1 0 8 122.049 121.922 3.282 0.207 o
-1 0 9 1.438 1.831 0.161 77.223 o
-1 0 10 0.007 0.103 0.076 1245.240 o
-1 1 1 575.184 519.544 8.229 0.014 o
-1 1 2 671.728 610.964 9.726 0.010 o
-1 1 3 682.713 613.242 10.056 0.010 o
-1 1 4 98.957 91.039 2.190 0.338 o
-1 1 5 177.540 207.946 4.045 0.101 o
-1 1 6 62.928 62.757 1.146 0.753 o
-1 1 7 5.216 4.820 0.403 18.835 o
-1 1 8 91.001 95.647 2.535 0.340 o
-1 1 9 1.137 0.855 0.194 95.825 o
-1 1 10 10.778 10.663 0.646 7.599 o
-1 2 1 5.297 4.763 0.331 20.710 o
-1 2 2 636.288 593.924 8.766 0.011 o
-1 2 3 9.777 11.587 0.446 9.364 o
-1 2 4 357.693 399.380 6.879 0.029 o
-1 2 5 54.638 58.384 2.336 0.661 o
-1 2 6 8.075 7.640 0.314 13.781 o
-1 2 7 21.465 17.176 0.555 4.199 o
-1 2 8 38.350 32.967 1.320 1.491 o
-1 2 9 47.493 50.085 1.485 1.007 o
-1 2 10 2.133 3.455 0.342 34.621 o
-1 2 11 0.000 0.070 0.083 1228.660 o
-1 3 1 1278.600 1322.210 17.678 0.003 o
-1 3 2 763.320 771.816 10.598 0.007 o
-1 3 3 17.885 18.109 0.594 4.687 o
-1 3 4 26.476 30.326 0.899 2.438 o
-1 3 5 18.637 13.616 0.655 4.825 o
-1 3 6 7.315 7.709 0.383 13.782 o
-1 3 7 26.757 25.625 0.799 2.703 o
-1 3 8 3.834 4.522 0.348 24.550 o
-1 3 9 27.689 22.981 1.840 1.590 o
-1 3 10 7.894 8.095 0.426 12.376 o
-1 3 11 1.339 1.219 0.317 54.901 o
-1 4 1 231.061 225.281 4.978 0.069 o
-1 4 2 24.248 28.868 0.876 2.686 o
-1 4 3 273.485 272.764 4.645 0.053 o
-1 4 4 351.388 386.871 5.551 0.031 o
-1 4 5 3.505 3.164 0.195 36.358 o
-1 4 6 1.034 0.678 0.131 131.270 o
-1 4 7 0.110 0.066 0.144 385.286 o
-1 4 8 160.030 147.841 2.289 0.155 o
-1 4 9 43.094 43.897 1.296 1.222 o
-1 4 10 0.034 0.091 0.102 750.690 o
-1 4 11 7.213 8.974 0.481 11.902 o
-1 5 1 12.695 13.208 0.501 7.176 o
-1 5 2 30.127 27.245 0.840 2.350 o
-1 5 3 408.522 409.669 6.362 0.025 o
-1 5 4 8.698 7.891 0.366 12.378 o
-1 5 5 93.440 104.786 1.593 0.360 o
-1 5 6 3.524 3.606 0.243 32.525 o
-1 5 7 19.068 22.721 0.776 3.704 o
-1 5 8 24.773 25.350 0.911 2.743 o
-1 5 9 16.823 14.712 0.610 5.242 o
-1 5 10 0.005 -0.030 0.165 382.382 o
-1 5 11 0.141 0.232 0.128 375.338 o
-1 6 1 27.616 25.956 0.938 2.470 o
-1 6 2 7.550 7.668 0.434 12.829 o
-1 6 3 71.954 74.914 1.643 0.555 o
-1 6 4 85.701 83.073 1.679 0.441 o
-1 6 5 7.420 7.913 0.329 14.241 o
-1 6 6 135.210 137.827 2.379 0.194 o
-1 6 7 86.124 87.590 1.833 0.417 o
-1 6 8 162.185 155.269 3.796 0.132 o
-1 6 9 2.556 2.771 0.443 27.074 o
-1 6 10 7.235 8.552 0.423 12.845 o
-1 6 11 0.860 0.628 0.274 81.297 o
-1 7 1 14.764 16.052 0.719 5.183 o
-1 7 2 46.770 48.547 1.335 1.079 o
-1 7 3 0.159 0.406 0.145 280.811 o
-1 7 4 26.703 23.290 0.616 3.018 o
-1 7 5 13.886 12.346 0.557 6.626 o
-1 7 6 10.527 10.953 0.477 8.878 o
-1 7 7 9.266 9.058 0.514 9.914 o
-1 7 8 34.226 35.334 1.480 1.487 o
-1 7 9 29.759 33.432 1.035 2.023 o
-1 7 10 0.290 0.088 0.097 428.378 o
-1 7 11 7.919 6.996 0.372 13.639 o
-1 8 1 1.549 1.416 0.219 68.460 o
-1 8 2 0.091 0.153 0.217 191.719 o
-1 8 3 4.771 5.263 0.387 19.741 o
-1 8 4 20.573 15.712 0.798 3.932 o
-1 8 5 21.299 21.304 1.088 2.934 o
-1 8 6 3.546 5.914 0.505 17.923 o
-1 8 7 0.210 0.258 0.184 212.930 o
-1 8 8 0.025 0.104 0.155 380.244 o
-1 8 9 15.903 13.029 1.158 3.721 o
-1 8 10 0.001 -0.098 0.183 311.610 o
-1 9 1 2.538 3.271 0.210 42.653 o
-1 9 2 8.556 8.112 0.488 11.041 o
-1 9 3 6.690 6.704 0.725 9.803 o
-1 9 4 0.642 0.530 0.305 78.054 o
-1 9 5 1.381 1.481 0.420 37.977 o
-1 9 6 1.987 2.328 0.500 26.200 o
-1 9 7 2.676 3.425 0.579 19.071 o
-1 9 8 5.028 4.272 0.597 14.463 o
-1 9 9 0.651 0.768 0.256 92.966 o
-1 10 5 0.230 0.439 0.183 195.226 o
0 -8 1 10.951 11.529 0.510 8.273 o
0 -8 2 2.585 2.800 0.198 45.374 o
0 -7 1 26.948 27.854 1.840 1.542 o
0 -7 2 1.304 1.236 0.192 83.450 o
0 -7 3 0.233 0.179 0.152 278.660 o
0 -7 4 2.626 2.721 0.411 28.968 o
0 -6 1 212.685 217.383 3.549 0.084 o
0 -6 2 0.923 1.280 0.259 75.515 o
0 -6 3 7.789 7.279 0.560 11.092 o
0 -6 4 5.179 5.343 0.320 20.577 o
0 -6 5 0.925 1.016 0.174 109.423 o
0 -5 1 42.425 45.852 1.111 1.282 o
0 -5 2 1.426 1.675 0.211 69.959 o
0 -5 3 3.897 4.052 0.350 25.031 o
0 -5 4 0.041 0.182 0.159 334.216 o
0 -5 5 0.190 0.171 0.189 217.702 o
0 -5 6 3.696 3.978 0.219 31.689 o
0 -4 1 42.682 40.656 0.907 1.421 o
0 -4 2 45.043 42.937 0.909 1.316 o
0 -4 3 8.207 8.173 0.345 12.973 o
0 -4 4 34.950 34.105 0.912 1.839 o
0 -4 5 8.626 9.794 0.523 10.010 o
0 -4 6 14.389 14.512 0.585 6.000 o
0 -4 7 0.187 0.156 0.071 621.710 o
0 -3 1 401.279 410.395 8.011 0.024 o
0 -3 2 244.995 250.608 4.549 0.063 o
0 -3 3 37.183 40.273 0.913 1.616 o
0 -3 4 0.072 0.151 0.098 649.972 o
0 -3 5 10.476 10.605 0.441 9.267 o
0 -3 6 30.253 31.607 0.816 2.222 o
0 -3 7 0.320 0.385 0.122 275.844 o
0 -3 8 9.650 8.678 0.561 9.347 o
0 -2 1 896.550 896.508 15.596 0.005 o
0 -2 2 13.245 13.672 0.675 6.060 o
0 -2 3 29.549 33.849 1.226 1.867 o
0 -2 4 27.448 29.537 0.798 2.497 o
0 -2 5 6.308 5.170 0.394 16.767 o
0 -2 6 15.356 19.375 0.852 4.307 o
0 -2 7 15.566 14.465 0.491 6.005 o
0 -2 8 0.342 0.445 0.100 296.790 o
0 -1 1 4919.500 4272.370 87.947 0.000 o
0 -1 2 39.803 46.134 2.001 0.993 o
0 -1 3 231.285 227.913 10.274 0.045 o
0 -1 4 124.725 126.992 4.563 0.167 o
0 -1 5 0.025 0.150 0.109 636.338 o
0 -1 6 0.001 0.010 0.158 412.772 o
0 -1 7 0.832 1.271 0.263 76.626 o
0 -1 8 7.745 7.632 0.549 11.123 o
0 -1 9 2.048 1.827 0.156 63.897 o
0 0 1 20.285 18.564 0.803 3.761 o
0 0 2 17.761 17.268 0.686 4.552 o
0 0 3 7.989 7.867 0.744 8.596 o
0 0 4 183.452 209.084 4.791 0.092 o
0 0 5 83.919 79.088 1.483 0.474 o
0 0 6 31.008 31.571 0.897 2.115 o
0 0 7 1.326 1.021 0.210 81.291 o
0 0 8 56.934 60.873 1.443 0.795 o
0 0 9 5.387 5.573 0.367 18.680 o
0 0 10 0.000 0.041 0.095 1047.750 o
0 1 0 197.355 189.807 5.194 0.087 o
0 1 1 495.660 454.373 6.929 0.018 o
0 1 2 1537.360 1427.450 34.449 0.002 o
0 1 3 1061.750 1014.480 16.074 0.004 o
0 1 4 21.554 24.199 0.831 3.217 o
0 1 5 56.858 64.459 1.931 0.689 o
0 1 6 0.221 1.230 0.248 105.149 o
0 1 7 100.515 96.893 2.035 0.330 o
0 1 8 0.099 0.306 0.156 293.469 o
0 1 9 17.517 17.277 0.708 4.535 o
0 1 10 4.021 3.546 0.218 31.168 o
0 2 0 7521.390 5894.080 144.097 0.000 o
0 2 1 4381.300 3877.190 66.335 0.000 o
0 2 2 333.485 324.282 5.387 0.037 o
0 2 3 180.704 171.083 2.847 0.120 o
0 2 4 837.547 852.665 12.678 0.006 o
0 2 5 274.570 279.358 5.535 0.050 o
0 2 6 267.453 266.563 4.970 0.054 o
0 2 7 26.604 26.199 0.896 2.583 o
0 2 8 85.252 79.796 2.030 0.428 o
0 2 9 15.247 17.832 0.746 4.802 o
0 2 10 11.747 11.363 0.484 8.090 o
0 2 11 6.143 4.827 0.445 16.185 o
0 3 0 336.735 324.886 8.975 0.031 o
0 3 1 16.559 16.688 0.513 5.361 o
0 3 2 5.475 4.671 0.270 21.947 o
0 3 3 514.813 544.289 8.212 0.015 o
0 3 4 256.768 271.305 4.506 0.057 o
0 3 5 382.299 402.279 6.127 0.027 o
0 3 6 91.548 83.799 1.364 0.425 o
0 3 7 236.377 228.527 3.060 0.074 o
0 3 8 0.333 0.189 0.153 244.936 o
0 3 9 1.924 2.454 0.340 39.548 o
0 3 10 2.710 2.609 0.335 34.232 o
0 3 11 5.276 5.510 0.351 19.374 o
0 4 0 1018.160 1010.710 18.325 0.004 o
0 4 1 59.138 65.923 1.559 0.720 o
0 4 2 40.766 52.616 1.215 1.203 o
0 4 3 593.326 619.513 9.378 0.012 o
0 4 4 61.165 65.150 1.488 0.713 o
0 4 5 154.004 175.418 2.535 0.145 o
0 4 6 5.470 5.939 0.267 20.412 o
0 4 7 117.067 132.475 2.476 0.227 o
0 4 8 41.206 41.221 1.042 1.407 o
0 4 9 32.529 31.822 1.032 1.927 o
0 4 10 0.025 0.044 0.229 192.166 o
0 4 11 0.000 -0.049 0.115 788.217 o
0 5 0 699.998 666.094 8.767 0.009 o
0 5 1 10.295 10.483 0.460 9.272 o
0 5 2 263.957 265.018 6.135 0.051 o
0 5 3 23.036 22.321 0.862 3.110 o
0 5 4 87.456 104.106 1.682 0.382 o
0 5 5 174.325 182.870 2.612 0.123 o
0 5 6 58.300 60.553 1.215 0.817 o
0 5 7 129.002 132.570 3.887 0.175 o
0 5 8 51.035 45.824 1.050 1.096 o
0 5 9 0.307 1.135 0.242 106.523 o
0 5 10 15.472 17.103 0.709 4.953 o
0 5 11 0.496 0.743 0.158 162.816 o
0 6 0 333.550 328.921 5.467 0.037 o
0 6 1 17.381 19.426 0.647 4.523 o
0 6 2 2.495 2.813 0.243 42.500 o
0 6 3 1.025 1.514 0.174 93.097 o
0 6 4 211.176 209.913 2.988 0.089 o
0 6 5 1.363 1.593 0.158 83.681 o
0 6 6 44.378 48.431 1.033 1.224 o
0 6 7 44.620 44.793 1.045 1.260 o
0 6 8 11.269 10.013 0.434 9.024 o
0 6 9 20.336 18.982 0.713 3.918 o
0 6 10 0.349 0.313 0.132 261.206 o
0 6 11 4.136 4.324 0.750 11.892 o
0 7 0 38.334 38.517 1.068 1.533 o
0 7 1 91.660 90.416 1.906 0.382 o
0 7 2 12.777 14.211 0.606 6.450 o
0 7 3 19.854 19.737 0.709 3.942 o
0 7 4 26.796 28.680 0.749 2.628 o
0 7 5 10.069 10.262 0.405 9.908 o
0 7 6 0.328 0.446 0.124 260.296 o
0 7 7 81.603 84.915 1.719 0.455 o
0 7 8 55.356 52.867 2.739 0.599 o
0 7 9 7.648 8.172 1.204 4.976 o
0 7 10 16.278 18.087 1.103 3.550 o
0 7 11 1.039 1.566 0.165 94.290 o
0 8 0 1.059 0.691 0.182 107.404 o
0 8 1 26.523 30.925 1.217 2.088 o
0 8 2 3.124 3.327 0.319 31.157 o
0 8 3 17.999 17.916 0.673 4.483 o
0 8 4 0.936 1.235 0.204 92.712 o
0 8 5 39.873 38.045 1.409 1.328 o
0 8 6 1.237 0.921 0.196 89.748 o
0 8 7 13.575 14.707 0.680 5.801 o
0 8 8 9.966 10.378 0.687 7.683 o
0 8 9 1.082 0.658 0.218 93.376 o
0 8 10 8.423 7.343 0.452 11.910 o
0 9 0 14.966 12.629 0.445 6.672 o
0 9 1 0.096 0.041 0.107 631.075 o
0 9 2 0.270 0.434 0.152 233.152 o
0 9 3 2.632 2.315 0.327 36.242 o
0 9 4 9.642 9.686 0.823 6.891 o
0 9 5 0.275 0.248 0.137 285.244 o
0 9 6 0.709 0.592 0.164 144.283 o
0 9 7 29.180 29.903 0.963 2.215 o
0 9 8 25.639 24.773 1.335 2.164 o
0 9 9 12.313 10.501 0.430 8.339 o
0 9 10 0.277 0.195 0.067 493.454 o
0 10 3 1.045 0.506 0.158 124.246 o
0 10 4 2.863 3.577 0.372 28.667 o
0 10 5 5.928 6.661 0.530 13.540 o
0 10 6 2.448 2.584 0.335 35.897 o
0 10 7 7.069 9.397 0.609 10.215 o
1 -8 0 0.071 0.057 0.123 531.554 o
1 -8 1 0.728 0.816 0.139 147.349 o
1 -7 0 1.331 1.629 0.310 53.419 o
1 -7 1 2.430 2.304 0.335 36.920 o
1 -7 2 1.232 1.809 0.259 62.956 o
1 -7 3 0.001 -0.008 0.081 1598.270 o
1 -6 0 1.260 0.796 0.178 96.910 o
1 -6 1 0.333 -0.125 0.142 297.753 o
1 -6 2 5.298 4.899 0.372 19.428 o
1 -6 3 2.304 2.917 0.260 42.200 o
1 -6 4 0.057 0.131 0.115 557.699 o
1 -5 0 50.600 51.002 1.205 1.016 o
1 -5 1 3.505 3.979 0.294 29.175 o
1 -5 2 75.992 73.239 2.282 0.472 o
1 -5 3 27.779 27.406 1.223 2.109 o
1 -5 4 1.355 0.834 0.250 72.546 o
1 -5 5 1.545 1.394 0.171 78.553 o
1 -4 0 205.289 216.029 3.540 0.088 o
1 -4 1 10.509 10.524 0.410 9.497 o
1 -4 2 0.000 0.106 0.106 767.613 o
1 -4 3 31.133 29.833 2.415 1.058 o
1 -4 4 10.319 11.445 0.556 8.283 o
1 -4 5 7.278 6.506 0.412 14.116 o
1 -4 6 3.717 4.533 0.421 21.975 o
1 -3 0 14.470 13.404 0.524 6.394 o
1 -3 1 90.373 92.327 2.319 0.360 o
1 -3 2 14.792 14.113 0.508 6.239 o
1 -3 3 12.085 10.606 0.589 7.453 o
1 -3 4 2.032 1.392 0.191 63.592 o
1 -3 5 1.918 2.199 0.256 50.273 o
1 -3 6 25.670 28.662 0.956 2.492 o
1 -3 7 1.944 1.600 0.213 60.053 o
1 -2 0 358.572 355.503 5.774 0.032 o
1 -2 1 479.190 470.756 8.980 0.018 o
1 -2 2 391.550 395.896 7.936 0.025 o
1 -2 3 236.633 221.213 3.535 0.074 o
1 -2 4 10.802 11.444 0.422 8.957 o
1 -2 5 61.859 61.232 1.392 0.741 o
1 -2 6 9.286 10.149 0.570 9.047 o
1 -2 7 3.895 3.948 0.343 25.511 o
1 -2 8 4.900 5.268 0.771 10.641 o
1 -1 0 31.004 29.058 0.708 2.337 o
1 -1 1 0.477 0.183 0.118 265.269 o
1 -1 2 27.101 28.554 0.898 2.457 o
1 -1 3 190.435 190.881 4.149 0.098 o
1 -1 4 114.466 108.985 2.979 0.241 o
1 -1 5 4.146 4.138 0.323 25.120 o
1 -1 6 7.862 8.687 0.414 12.272 o
1 -1 7 0.378 0.331 0.120 270.612 o
1 -1 8 3.420 3.466 0.286 31.226 o
1 -1 9 2.179 1.826 0.460 29.205 o
1 0 0 1754.360 1443.630 34.917 0.001 o
1 0 1 89.806 79.422 1.859 0.418 o
1 0 2 754.324 687.869 31.970 0.005 o
1 0 3 571.302 483.637 13.409 0.012 o
1 0 4 21.347 23.822 0.932 3.088 o
1 0 5 6.851 7.612 0.352 14.881 o
1 0 6 42.497 46.289 1.282 1.213 o
1 0 7 44.081 47.119 1.419 1.121 o
1 0 8 6.200 5.378 0.383 16.999 o
1 0 9 0.022 0.238 0.121 500.316 o
1 1 0 68.176 56.666 1.150 0.727 o
1 1 1 477.065 465.145 9.400 0.018 o
1 1 2 2520.290 2206.730 37.917 0.001 o
1 1 3 164.983 167.617 4.603 0.115 o
1 1 4 122.812 121.150 4.323 0.178 o
1 1 5 84.392 77.395 1.890 0.448 o
1 1 6 21.250 21.871 0.617 3.757 o
1 1 7 38.181 37.299 1.147 1.520 o
1 1 8 2.525 3.404 0.291 36.205 o
1 1 9 57.676 58.836 1.576 0.774 o
1 1 10 3.016 2.811 0.282 35.591 o
1 2 0 42.953 45.306 1.499 1.134 o
1 2 1 248.998 255.081 5.832 0.057 o
1 2 2 329.463 324.629 5.983 0.037 o
1 2 3 266.008 269.070 3.859 0.057 o
1 2 4 156.075 162.222 3.565 0.137 o
1 2 5 12.789 15.722 0.828 5.219 o
1 2 6 130.306 138.752 2.452 0.199 o
1 2 7 16.530 15.962 0.519 5.441 o
1 2 8 107.834 109.655 3.839 0.223 o
1 2 9 27.276 30.159 1.600 1.705 o
1 2 10 2.292 3.059 0.530 22.503 o
1 3 0 2149.600 2016.760 34.899 0.001 o
1 3 1 607.455 625.335 13.045 0.010 o
1 3 2 1.013 1.600 0.164 94.790 o
1 3 3 2.773 2.880 0.264 38.318 o
1 3 4 23.869 23.078 1.201 2.491 o
1 3 5 1313.950 1358.300 26.630 0.002 o
1 3 6 0.748 0.180 0.115 205.035 o
1 3 7 47.645 50.317 1.567 0.979 o
1 3 8 1.064 1.337 0.174 95.251 o
1 3 9 2.109 1.336 0.478 29.084 o
1 3 10 7.522 8.522 0.557 10.854 o
1 3 11 1.575 1.061 0.144 88.472 o
1 4 0 521.426 507.090 13.871 0.013 o
1 4 1 278.533 281.206 5.269 0.049 o
1 4 2 2.742 1.869 0.207 47.903 o
1 4 3 0.262 0.365 0.154 239.597 o
1 4 4 19.480 18.490 0.789 3.911 o
1 4 5 0.193 0.158 0.110 432.522 o
1 4 6 14.568 13.287 0.386 6.914 o
1 4 7 38.463 41.796 0.960 1.521 o
1 4 8 3.170 2.955 0.265 35.271 o
1 4 9 0.731 0.664 0.188 125.066 o
1 4 10 0.474 0.349 0.182 167.551 o
1 4 11 0.169 0.218 0.107 440.465 o
1 5 0 635.769 623.910 9.570 0.011 o
1 5 1 275.774 278.329 4.680 0.052 o
1 5 2 137.275 145.278 3.261 0.170 o
1 5 3 634.839 653.273 10.011 0.010 o
1 5 4 0.686 0.948 0.185 120.365 o
1 5 5 34.638 38.130 0.853 1.794 o
1 5 6 77.808 81.228 1.602 0.497 o
1 5 7 25.072 26.014 0.770 2.866 o
1 5 8 11.983 10.603 0.497 8.080 o
1 5 9 0.039 0.006 0.128 571.501 o
1 5 10 0.017 0.410 0.205 201.804 o
1 5 11 0.695 0.744 0.241 98.326 o
1 6 0 10.606 10.480 0.458 9.108 o
1 6 1 59.650 59.516 1.380 0.780 o
1 6 2 0.242 0.060 0.123 383.628 o
1 6 3 22.440 23.549 0.755 3.277 o
1 6 4 0.569 0.487 0.122 202.904 o
1 6 5 4.692 4.964 0.339 21.717 o
1 6 6 15.463 16.171 0.770 4.840 o
1 6 7 15.065 14.293 0.503 6.143 o
1 6 8 2.241 3.383 0.277 39.417 o
1 6 9 0.000 0.182 0.172 309.543 o
1 6 10 0.392 0.178 0.112 306.445 o
1 6 11 1.405 1.261 0.201 77.731 o
1 7 0 106.954 101.853 2.004 0.303 o
1 7 1 2.308 1.187 0.251 52.372 o
1 7 2 2.825 2.975 0.319 33.704 o
1 7 3 18.925 17.821 0.963 3.616 o
1 7 4 0.011 0.018 0.114 756.280 o
1 7 5 0.591 0.631 0.141 172.247 o
1 7 6 1.751 1.572 0.210 64.283 o
1 7 7 12.266 12.404 0.541 7.300 o
1 7 8 133.588 141.241 4.450 0.153 o
1 7 9 25.771 26.562 1.111 2.375 o
1 7 10 6.308 7.418 0.543 12.544 o
1 7 11 0.337 0.372 0.092 328.177 o
1 8 0 46.645 43.356 1.146 1.196 o
1 8 1 14.514 14.728 0.560 6.029 o
1 8 2 0.339 0.374 0.197 167.588 o
1 8 3 71.786 69.856 2.011 0.536 o
1 8 4 1.671 1.448 0.215 66.312 o
1 8 5 53.540 51.529 1.338 0.930 o
1 8 6 13.682 13.932 0.608 6.201 o
1 8 7 68.077 68.824 2.773 0.472 o
1 8 8 2.817 2.929 0.282 36.522 o
1 8 9 29.596 32.786 1.213 1.899 o
1 8 10 12.884 14.423 0.517 6.797 o
1 8 11 3.380 2.874 0.201 37.950 o
1 9 0 9.056 7.607 0.807 7.585 o
1 9 1 3.861 4.067 0.382 23.771 o
1 9 2 3.471 3.593 0.390 25.407 o
1 9 3 2.185 1.548 0.226 54.986 o
1 9 4 26.444 26.263 1.173 2.269 o
1 9 5 0.057 0.186 0.143 383.216 o
1 9 6 4.144 3.882 0.307 26.228 o
1 9 7 4.272 4.028 0.224 28.608 o
1 9 8 7.495 7.373 0.303 14.834 o
1 9 9 5.043 5.193 0.310 21.374 o
1 9 10 10.422 9.530 0.381 10.104 o
1 10 1 0.327 0.293 0.116 302.333 o
1 10 2 1.330 1.365 0.256 65.952 o
1 10 3 2.362 1.974 0.219 50.602 o
1 10 4 2.329 1.478 0.213 54.953 o
1 10 5 3.599 4.811 0.358 24.441 o
1 10 6 26.672 25.446 0.961 2.530 o
1 10 7 5.313 4.821 0.343 20.279 o
1 10 8 5.136 4.845 0.457 17.494 o
1 10 9 0.724 0.542 0.140 161.718 o
2 -8 0 2.221 1.580 0.212 55.943 o
2 -8 1 0.837 1.155 0.186 105.533 o
2 -7 0 0.184 0.270 0.157 269.173 o
2 -7 1 1.388 0.948 0.174 90.228 o
2 -7 2 0.061 0.037 0.086 960.809 o
2 -6 0 1.184 2.165 0.288 55.508 o
2 -6 1 26.011 24.841 1.141 2.376 o
2 -6 2 0.168 0.151 0.181 238.888 o
2 -6 3 1.048 0.695 0.280 73.465 o
2 -6 4 1.969 1.553 0.139 70.683 o
2 -5 0 15.849 16.455 0.924 4.237 o
2 -5 1 62.105 60.661 1.567 0.715 o
2 -5 2 4.882 5.700 0.472 16.806 o
2 -5 3 19.981 21.108 0.808 3.625 o
2 -5 4 0.005 -0.042 0.121 698.725 o
2 -5 5 0.095 -0.013 0.094 795.919 o
2 -4 0 54.479 55.809 1.146 0.920 o
2 -4 1 78.423 77.803 1.623 0.502 o
2 -4 2 143.184 144.288 3.330 0.162 o
2 -4 3 32.122 31.541 1.011 1.969 o
2 -4 4 25.232 25.206 0.916 2.704 o
2 -4 5 0.995 1.075 0.179 102.422 o
2 -4 6 2.654 2.218 0.227 45.182 o
2 -3 0 247.362 244.121 4.767 0.062 o
2 -3 1 253.078 251.730 5.230 0.058 o
2 -3 2 2.704 2.291 0.223 44.651 o
2 -3 3 9.819 11.210 0.723 7.307 o
2 -3 4 3.903 4.425 0.332 25.125 o
2 -3 5 0.692 0.516 0.225 111.621 o
2 -3 6 3.140 2.656 0.245 37.759 o
2 -3 7 6.075 5.911 0.542 13.555 o
2 -2 0 687.056 681.929 11.055 0.009 o
2 -2 1 124.139 126.638 3.089 0.205 o
2 -2 2 65.154 62.018 2.082 0.604 o
2 -2 3 1.102 1.282 0.164 97.759 o
2 -2 4 0.050 -0.021 0.090 1014.550 o
2 -2 5 18.693 20.565 1.097 3.188 o
2 -2 6 8.736 9.879 0.801 7.336 o
2 -2 7 7.833 7.535 0.511 11.598 o
2 -2 8 24.212 22.757 2.057 1.491 o
2 -1 0 173.611 175.075 2.537 0.127 o
2 -1 1 839.412 834.160 17.998 0.006 o
2 -1 2 124.330 128.681 3.170 0.201 o
2 -1 3 50.040 46.638 1.597 0.961 o
2 -1 4 89.955 97.863 2.108 0.363 o
2 -1 5 6.287 5.507 0.331 17.825 o
2 -1 6 1.898 1.546 0.165 68.665 o
2 -1 7 19.631 21.756 0.967 3.302 o
2 -1 8 1.463 1.635 0.247 62.674 o
2 0 0 613.372 616.155 12.388 0.010 o
2 0 1 223.550 233.026 5.479 0.068 o
2 0 2 0.257 0.330 0.117 321.922 o
2 0 3 1.285 0.758 0.259 72.758 o
2 0 4 0.005 0.324 0.163 305.716 o
2 0 5 74.139 67.340 1.586 0.573 o
2 0 6 24.781 24.205 0.862 2.857 o
2 0 7 0.667 0.897 0.232 100.230 o
2 0 8 8.567 9.253 0.555 9.899 o
2 0 9 6.362 6.350 0.463 14.466 o
2 1 0 45.117 45.058 2.273 0.837 o
2 1 1 4383.070 3743.000 90.228 0.000 o
2 1 2 1669.800 1555.180 44.539 0.001 o
2 1 3 773.468 755.065 15.466 0.007 o
2 1 4 83.213 98.708 4.221 0.259 o
2 1 5 247.732 242.410 4.399 0.064 o
2 1 6 0.601 0.297 0.153 182.678 o
2 1 7 7.331 6.673 0.467 13.101 o
2 1 8 15.789 18.769 0.915 4.100 o
2 1 9 6.343 6.871 0.375 15.755 o
2 1 10 1.908 0.743 0.207 70.264 o
2 2 0 629.273 605.486 14.931 0.010 o
2 2 1 2045.590 1873.930 44.506 0.001 o
2 2 2 4068.080 3563.470 66.740 0.000 o
2 2 3 81.179 80.767 2.014 0.447 o
2 2 4 23.871 29.427 1.031 2.503 o
2 2 5 13.394 14.046 0.679 5.947 o
2 2 6 7.497 8.154 0.388 13.253 o
2 2 7 1.544 1.590 0.225 65.673 o
2 2 8 67.029 66.031 1.577 0.639 o
2 2 9 0.000 0.243 0.203 222.860 o
2 2 10 0.470 0.269 0.096 288.347 o
2 3 0 251.205 269.225 5.635 0.055 o
2 3 1 276.499 268.819 6.941 0.046 o
2 3 2 232.744 232.413 7.507 0.056 o
2 3 3 2.555 2.934 0.252 40.699 o
2 3 4 876.690 888.249 21.499 0.005 o
2 3 5 260.939 285.874 5.840 0.051 o
2 3 6 0.893 1.480 0.188 94.911 o
2 3 7 8.322 7.482 0.718 8.807 o
2 3 8 31.894 28.551 1.506 1.653 o
2 3 9 1.972 1.861 0.307 45.265 o
2 3 10 0.301 0.183 0.146 268.442 o
2 4 0 0.829 0.323 0.200 123.254 o
2 4 1 603.053 600.099 9.062 0.012 o
2 4 2 202.351 206.484 3.833 0.090 o
2 4 3 98.749 98.743 2.124 0.329 o
2 4 4 220.905 236.793 5.965 0.066 o
2 4 5 0.259 0.203 0.158 253.850 o
2 4 6 2.414 3.228 0.227 42.663 o
2 4 7 158.313 163.224 5.136 0.114 o
2 4 8 67.845 61.747 1.756 0.628 o
2 4 9 6.665 7.252 0.460 13.619 o
2 4 10 1.029 1.080 0.157 108.473 o
2 5 0 91.754 102.540 3.485 0.277 o
2 5 1 5.115 5.285 0.604 13.654 o
2 5 2 149.434 147.002 4.229 0.140 o
2 5 3 43.563 39.808 1.402 1.219 o
2 5 4 62.002 67.291 1.384 0.707 o
2 5 5 7.359 9.486 0.512 11.170 o
2 5 6 8.595 8.936 0.680 8.696 o
2 5 7 21.819 20.656 1.232 2.668 o
2 5 8 33.632 29.116 0.995 1.967 o
2 5 9 10.351 11.115 0.410 9.413 o
2 5 10 12.018 10.972 0.646 7.056 o
2 5 11 1.262 1.329 0.405 41.265 o
2 6 0 17.370 18.370 0.733 4.396 o
2 6 1 108.124 107.810 3.595 0.233 o
2 6 2 47.310 45.314 1.378 1.087 o
2 6 3 19.314 21.707 0.747 3.798 o
2 6 4 14.495 14.459 0.659 5.676 o
2 6 5 408.149 401.811 7.424 0.024 o
2 6 6 18.418 17.640 0.663 4.457 o
2 6 7 50.505 52.799 1.434 0.947 o
2 6 8 2.857 2.269 0.287 38.165 o
2 6 9 29.224 28.866 1.228 1.995 o
2 6 10 0.111 0.192 0.102 535.242 o
2 6 11 0.261 0.175 0.096 421.328 o
2 7 0 29.920 27.712 0.993 2.209 o
2 7 1 214.284 208.895 4.032 0.083 o
2 7 2 52.920 50.983 1.264 0.962 o
2 7 3 5.140 5.360 0.422 17.967 o
2 7 4 25.790 25.054 0.784 2.828 o
2 7 5 3.575 4.192 0.291 28.556 o
2 7 6 3.371 3.132 0.280 32.669 o
2 7 7 28.583 30.034 1.023 2.191 o
2 7 8 76.071 75.661 2.535 0.441 o
2 7 9 0.048 0.022 0.189 271.011 o
2 7 10 2.386 2.105 0.205 50.874 o
2 7 11 0.019 0.075 0.104 789.511 o
2 8 0 0.300 0.423 0.175 194.930 o
2 8 1 27.923 28.945 1.562 1.737 o
2 8 2 38.323 37.032 1.470 1.353 o
2 8 3 3.122 2.161 0.341 32.791 o
2 8 4 29.207 28.370 1.429 1.820 o
2 8 5 40.640 40.449 0.900 1.494 o
2 8 6 63.243 61.133 2.258 0.595 o
2 8 7 51.881 48.877 2.055 0.798 o
2 8 8 24.764 25.798 1.233 2.308 o
2 8 9 3.374 2.917 0.239 35.690 o
2 8 10 0.576 0.858 0.137 162.868 o
2 8 11 0.625 0.331 0.073 256.021 o
2 9 0 0.004 0.061 0.086 1167.650 o
2 9 1 0.208 0.222 0.197 196.680 o
2 9 2 6.048 6.293 0.545 13.335 o
2 9 3 26.967 30.442 1.048 2.250 o
2 9 4 8.030 7.237 0.452 12.328 o
2 9 5 0.289 0.453 0.171 199.551 o
2 9 6 0.031 0.027 0.073 1424.380 o
2 9 7 0.011 0.099 0.094 908.833 o
2 9 8 14.693 14.973 0.482 6.228 o
2 9 9 1.357 1.433 0.176 82.536 o
2 9 10 1.053 0.695 0.159 117.447 o
2 10 1 0.213 0.177 0.099 449.782 o
2 10 2 0.309 0.079 0.114 366.995 o
2 10 3 0.725 0.838 0.187 120.103 o
2 10 4 1.908 2.449 0.231 51.904 o
2 10 5 8.889 9.568 0.454 10.585 o
2 10 6 1.401 1.089 0.169 88.312 o
2 10 7 24.279 23.455 0.744 3.102 o
2 10 8 1.212 1.235 0.154 96.982 o
2 10 9 1.324 1.066 0.213 79.814 o
2 11 4 0.041 -0.018 0.098 919.868 o
2 11 5 5.672 6.210 0.329 18.358 o
2 11 6 0.826 0.672 0.122 154.533 o
2 11 7 1.092 1.268 0.213 83.816 o
3 -7 0 1.595 1.521 0.243 62.049 o
3 -7 1 2.816 3.264 0.274 35.957 o
3 -6 0 16.164 17.339 0.939 4.078 o
3 -6 1 0.153 0.108 0.161 296.747 o
3 -6 2 2.892 2.732 0.524 21.746 o
3 -6 3 1.834 1.755 0.174 66.550 o
3 -5 0 81.195 86.974 4.376 0.266 o
3 -5 1 1.626 1.763 0.408 36.857 o
3 -5 2 0.011 0.063 0.192 270.284 o
3 -5 3 3.488 2.931 0.323 30.150 o
3 -5 4 0.643 0.463 0.123 191.849 o
3 -4 0 0.035 0.071 0.116 625.440 o
3 -4 1 5.514 6.593 0.609 12.519 o
3 -4 2 0.801 1.261 0.182 106.374 o
3 -4 3 10.380 9.380 0.522 9.063 o
3 -4 4 18.630 17.696 0.683 4.364 o
3 -4 5 1.441 1.881 0.192 70.784 o
3 -3 0 24.942 26.964 0.843 2.747 o
3 -3 1 28.222 30.096 0.904 2.324 o
3 -3 2 36.620 33.895 1.102 1.661 o
3 -3 3 13.886 14.273 0.828 5.141 o
3 -3 4 24.588 24.447 0.893 2.820 o
3 -3 5 1.343 1.305 0.250 67.524 o
3 -3 6 4.683 4.383 0.344 22.376 o
3 -2 0 171.397 164.630 4.477 0.114 o
3 -2 1 849.071 836.485 17.685 0.006 o
3 -2 2 6.656 8.725 0.494 12.355 o
3 -2 3 45.236 50.398 2.150 0.841 o
3 -2 4 5.504 5.923 0.378 17.872 o
3 -2 5 32.914 32.356 0.987 1.928 o
3 -2 6 0.044 0.316 0.191 228.908 o
3 -2 7 15.093 15.963 1.450 2.879 o
3 -1 0 0.017 0.016 0.116 720.316 o
3 -1 1 23.482 28.142 1.054 2.547 o
3 -1 2 294.299 294.683 8.224 0.039 o
3 -1 3 41.783 47.082 0.894 1.355 o
3 -1 4 111.007 112.586 2.922 0.247 o
3 -1 5 0.157 0.326 0.141 305.682 o
3 -1 6 60.397 60.529 2.956 0.509 o
3 -1 7 4.196 5.844 0.591 14.665 o
3 -1 8 3.230 2.665 0.232 37.953 o
3 0 0 35.311 34.067 1.076 1.725 o
3 0 1 45.818 46.924 1.785 0.969 o
3 0 2 38.837 42.126 3.242 0.631 o
3 0 3 284.494 304.866 29.492 0.010 o
3 0 4 0.804 1.063 0.135 132.545 o
3 0 5 130.641 129.860 2.943 0.196 o
3 0 6 16.949 17.675 1.560 2.484 o
3 0 7 26.818 29.967 1.121 2.197 o
3 0 8 0.737 0.472 0.129 172.513 o
3 0 9 1.338 1.298 0.262 65.159 o
3 1 0 1292.270 1189.770 29.679 0.002 o
3 1 1 236.437 224.824 5.805 0.064 o
3 1 2 23.943 22.333 0.753 3.183 o
3 1 3 19.240 18.602 1.222 2.964 o
3 1 4 54.623 59.175 1.929 0.739 o
3 1 5 140.544 138.204 3.477 0.166 o
3 1 6 105.019 108.857 2.397 0.284 o
3 1 7 49.693 49.890 1.399 0.994 o
3 1 8 29.122 31.008 0.925 2.219 o
3 1 9 4.323 4.150 0.366 22.945 o
3 2 0 1.170 0.267 0.210 100.959 o
3 2 1 146.517 152.191 2.965 0.160 o
3 2 2 241.460 248.239 6.505 0.057 o
3 2 3 919.220 955.792 19.238 0.005 o
3 2 4 369.100 344.248 12.456 0.023 o
3 2 5 96.958 90.142 1.518 0.378 o
3 2 6 77.527 71.984 1.933 0.500 o
3 2 7 70.450 68.989 2.285 0.516 o
3 2 8 9.961 11.099 0.737 7.170 o
3 2 9 4.483 7.058 0.606 13.344 o
3 2 10 0.717 0.731 0.134 156.022 o
3 3 0 645.003 635.064 12.935 0.010 o
3 3 1 6.621 6.618 0.418 14.779 o
3 3 2 33.214 37.842 1.288 1.600 o
3 3 3 437.353 454.957 8.637 0.020 o
3 3 4 0.617 0.576 0.344 65.608 o
3 3 5 29.172 34.087 1.132 1.956 o
3 3 6 103.302 103.384 1.728 0.322 o
3 3 7 31.209 36.785 1.180 1.768 o
3 3 8 17.096 16.671 1.032 3.730 o
3 3 9 2.891 2.835 0.524 21.628 o
3 3 10 4.701 5.103 0.500 16.843 o
3 4 0 952.582 954.868 66.502 0.002 o
3 4 1 6.364 6.826 0.425 14.850 o
3 4 2 5.934 6.722 0.409 15.824 o
3 4 3 180.685 192.780 4.378 0.101 o
3 4 4 5.253 10.725 0.659 10.333 o
3 4 5 231.427 235.573 4.675 0.069 o
3 4 6 36.682 40.258 1.901 1.139 o
3 4 7 182.246 175.022 4.407 0.104 o
3 4 8 2.189 1.476 0.174 62.281 o
3 4 9 0.703 1.017 0.234 95.046 o
3 4 10 7.655 10.739 0.461 11.016 o
3 5 0 98.116 91.762 1.847 0.356 o
3 5 1 5.569 4.206 0.391 19.066 o
3 5 2 46.382 43.049 1.568 1.065 o
3 5 3 246.448 231.626 5.656 0.061 o
3 5 4 9.651 10.140 0.346 10.713 o
3 5 5 32.911 34.743 0.956 1.892 o
3 5 6 130.788 143.228 2.478 0.194 o
3 5 7 1.228 1.028 0.198 87.709 o
3 5 8 19.322 18.896 0.667 4.183 o
3 5 9 9.042 9.897 0.472 10.180 o
3 5 10 0.983 1.652 0.216 80.536 o
3 5 11 6.159 7.002 0.433 14.872 o
3 6 0 0.599 0.874 0.235 102.414 o
3 6 1 13.482 15.263 0.731 5.530 o
3 6 2 32.517 34.204 0.833 2.005 o
3 6 3 19.396 22.638 0.663 3.886 o
3 6 4 5.854 5.860 0.484 15.014 o
3 6 5 23.634 23.121 0.650 3.320 o
3 6 6 21.677 21.828 0.708 3.549 o
3 6 7 24.288 21.639 0.914 2.942 o
3 6 8 39.994 38.771 2.061 1.024 o
3 6 9 11.834 13.829 0.661 6.537 o
3 6 10 4.088 6.317 0.379 20.336 o
3 6 11 2.959 2.590 0.225 40.810 o
3 7 0 19.315 19.692 0.905 3.589 o
3 7 1 0.285 0.226 0.153 253.481 o
3 7 2 11.258 10.415 0.567 8.006 o
3 7 3 88.479 88.439 2.710 0.350 o
3 7 4 78.962 73.958 1.503 0.521 o
3 7 5 44.376 41.891 3.209 0.607 o
3 7 6 0.010 0.149 0.198 243.212 o
3 7 7 47.994 45.076 1.872 0.923 o
3 7 8 15.544 15.631 0.706 5.106 o
3 7 9 10.746 12.649 0.622 7.373 o
3 7 10 1.332 1.363 0.190 81.079 o
3 7 11 5.429 6.186 0.378 17.764 o
3 8 0 2.816 1.832 0.246 43.723 o
3 8 1 38.012 39.168 0.961 1.583 o
3 8 2 14.338 13.173 0.799 5.285 o
3 8 3 69.735 66.822 1.825 0.583 o
3 8 4 1.347 1.264 0.231 72.315 o
3 8 5 3.752 4.261 0.266 28.727 o
3 8 6 7.275 7.449 0.378 14.049 o
3 8 7 13.285 13.163 0.600 6.483 o
3 8 8 14.024 14.582 0.784 5.259 o
3 8 9 4.034 4.641 0.290 25.925 o
3 8 10 0.680 0.372 0.120 195.847 o
3 9 0 3.011 4.030 0.259 33.334 o
3 9 1 2.773 3.439 0.288 34.775 o
3 9 2 9.932 11.999 1.091 4.892 o
3 9 3 11.277 10.201 0.684 7.230 o
3 9 4 27.503 25.266 0.928 2.514 o
3 9 5 10.598 9.463 0.663 7.796 o
3 9 6 3.135 3.035 0.318 31.944 o
3 9 7 23.666 24.829 0.701 3.152 o
3 9 8 0.809 0.630 0.122 159.076 o
3 9 9 0.064 0.085 0.092 794.022 o
3 9 10 14.272 13.353 0.379 7.041 o
3 10 0 0.001 0.062 0.069 1715.030 o
3 10 1 1.023 0.987 0.174 104.914 o
3 10 2 3.901 4.040 0.345 25.250 o
3 10 3 0.691 0.418 0.191 135.253 o
3 10 4 6.136 5.834 0.368 17.035 o
3 10 5 1.386 1.565 0.209 72.440 o
3 10 6 18.354 18.522 0.681 4.346 o
3 10 7 12.690 12.867 0.524 7.132 o
3 10 8 11.332 11.835 0.359 8.915 o
3 10 9 0.807 0.770 0.087 169.663 o
3 11 3 4.032 4.026 0.198 30.659 o
3 11 4 0.989 0.658 0.108 145.964 o
3 11 5 0.083 0.027 0.083 927.893 o
3 11 6 7.057 7.214 0.309 15.498 o
3 11 7 8.685 8.607 0.325 12.451 o
4 -7 0 0.334 0.142 0.110 346.611 o
4 -6 0 0.739 1.444 0.384 48.770 o
4 -6 1 1.226 1.347 0.215 78.072 o
4 -6 2 0.539 0.585 0.177 152.075 o
4 -5 0 4.049 3.674 0.388 23.556 o
4 -5 1 1.067 0.859 0.263 76.055 o
4 -5 2 0.936 0.859 0.211 97.839 o
4 -5 3 0.225 0.126 0.102 448.591 o
4 -4 0 0.989 0.867 0.172 110.835 o
4 -4 1 0.879 0.832 0.228 94.048 o
4 -4 2 67.255 74.408 2.581 0.484 o
4 -4 3 21.108 22.431 1.697 1.972 o
4 -4 4 0.235 0.109 0.122 376.674 o
4 -3 0 50.952 55.196 1.429 0.922 o
4 -3 1 0.017 0.044 0.107 786.409 o
4 -3 2 17.001 20.948 0.740 4.221 o
4 -3 3 18.851 19.139 1.389 2.645 o
4 -3 4 2.688 3.229 0.374 30.067 o
4 -3 5 11.401 10.854 0.835 6.113 o
4 -3 6 1.167 0.414 0.152 121.783 o
4 -2 0 126.790 131.592 2.728 0.205 o
4 -2 1 68.071 72.928 2.269 0.520 o
4 -2 2 1.170 1.224 0.161 96.871 o
4 -2 3 5.057 4.043 0.295 23.370 o
4 -2 4 17.246 19.529 0.646 4.543 o
4 -2 5 0.519 0.644 0.160 164.545 o
4 -2 6 5.036 4.969 0.377 19.774 o
4 -2 7 11.242 8.093 0.548 8.724 o
4 -1 0 136.964 133.156 9.034 0.080 o
4 -1 1 19.429 19.210 0.550 4.388 o
4 -1 2 94.949 100.010 1.990 0.346 o
4 -1 3 96.417 96.142 2.007 0.347 o
4 -1 4 13.353 14.540 0.662 5.963 o
4 -1 5 12.637 12.983 1.367 3.412 o
4 -1 6 0.278 0.221 0.142 278.611 o
4 -1 7 2.783 1.811 0.172 50.845 o
4 0 0 28.105 35.236 2.209 1.176 o
4 0 1 66.672 74.674 4.476 0.300 o
4 0 2 66.867 79.851 1.625 0.577 o
4 0 3 41.945 44.483 0.915 1.382 o
4 0 4 3.627 4.635 0.239 29.576 o
4 0 5 44.065 42.906 1.358 1.188 o
4 0 6 3.403 3.505 0.288 31.071 o
4 0 7 15.280 15.398 0.683 5.275 o
4 0 8 0.681 0.841 0.153 142.479 o
4 1 0 215.369 217.815 8.544 0.056 o
4 1 1 295.057 330.257 12.365 0.028 o
4 1 2 245.074 263.603 10.131 0.041 o
4 1 3 0.203 1.594 0.258 93.513 o
4 1 4 118.195 119.169 3.298 0.215 o
4 1 5 15.665 14.572 0.534 5.813 o
4 1 6 0.823 0.660 0.191 117.501 o
4 1 7 8.191 8.907 0.425 11.734 o
4 1 8 5.844 5.960 0.524 14.145 o
4 1 9 0.345 0.256 0.089 358.830 o
4 2 0 1.914 3.030 1.277 5.819 o
4 2 1 573.464 563.301 20.299 0.009 o
4 2 2 1172.130 1235.730 44.773 0.002 o
4 2 3 47.791 48.608 1.752 0.936 o
4 2 4 4.525 5.223 0.211 25.593 o
4 2 5 0.667 0.822 0.103 175.744 o
4 2 6 66.767 68.467 1.868 0.594 o
4 2 7 89.977 86.534 4.717 0.233 o
4 2 8 9.162 9.466 0.419 10.744 o
4 2 9 1.416 2.358 0.305 48.803 o
4 3 0 28.245 28.756 1.071 2.201 o
4 3 1 464.471 482.342 12.326 0.016 o
4 3 2 5.978 4.947 0.531 14.438 o
4 3 3 871.730 857.776 17.777 0.005 o
4 3 4 230.401 233.992 3.848 0.073 o
4 3 5 78.057 73.836 1.770 0.505 o
4 3 6 6.120 6.423 0.282 18.189 o
4 3 7 17.853 17.384 0.729 4.409 o
4 3 8 2.186 2.449 0.272 44.345 o
4 3 9 1.410 1.341 0.177 81.956 o
4 3 10 0.591 0.634 0.146 167.543 o
4 4 0 227.048 215.398 11.548 0.041 o
4 4 1 38.817 41.294 1.570 1.239 o
4 4 2 92.846 106.512 3.130 0.287 o
4 4 3 115.512 124.235 3.541 0.208 o
4 4 4 229.398 236.397 5.113 0.067 o
4 4 5 9.667 8.201 0.282 12.051 o
4 4 6 32.600 33.772 0.778 2.047 o
4 4 7 5.253 4.810 0.299 21.605 o
4 4 8 8.546 8.622 0.615 9.471 o
4 4 9 0.741 0.555 0.201 120.801 o
4 4 10 7.845 11.246 0.453 10.752 o
4 5 0 236.969 253.257 5.694 0.060 o
4 5 1 278.223 288.810 5.907 0.047 o
4 5 2 1.594 1.894 0.131 77.055 o
4 5 3 42.158 42.745 0.814 1.436 o
4 5 4 12.151 9.796 0.315 9.271 o
4 5 5 73.465 75.789 1.595 0.545 o
4 5 6 14.435 14.868 0.418 6.559 o
4 5 7 3.295 2.585 0.259 36.039 o
4 5 8 0.010 0.047 0.102 883.000 o
4 5 9 10.209 8.116 0.413 10.520 o
4 5 10 0.864 1.176 0.213 93.493 o
4 6 0 0.018 0.075 0.111 704.154 o
4 6 1 0.000 0.221 0.115 578.208 o
4 6 2 177.222 187.882 2.753 0.117 o
4 6 3 12.372 12.431 0.407 7.953 o
4 6 4 335.838 335.601 5.514 0.036 o
4 6 5 1.530 1.926 0.156 74.326 o
4 6 6 24.552 25.646 0.640 3.091 o
4 6 7 5.161 6.481 0.490 15.402 o
4 6 8 0.102 0.312 0.235 156.901 o
4 6 9 4.420 4.667 0.339 22.861 o
4 6 10 11.448 13.158 1.249 3.918 o
4 7 0 1.286 1.095 0.302 59.450 o
4 7 1 2.786 3.667 0.234 37.414 o
4 7 2 4.067 4.131 0.212 29.724 o
4 7 3 68.838 69.867 1.370 0.628 o
4 7 4 0.112 0.306 0.109 442.369 o
4 7 5 92.417 90.651 1.814 0.383 o
4 7 6 120.110 113.848 3.300 0.216 o
4 7 7 78.251 74.594 1.663 0.510 o
4 7 8 2.906 2.621 0.249 39.414 o
4 7 9 0.012 0.053 0.095 978.355 o
4 7 10 0.361 0.068 0.078 441.782 o
4 8 0 3.251 3.745 0.246 33.504 o
4 8 1 3.451 4.592 0.357 25.321 o
4 8 2 68.306 73.733 2.603 0.478 o
4 8 3 42.946 43.777 1.620 1.105 o
4 8 4 40.924 41.917 1.079 1.391 o
4 8 5 40.380 39.135 0.953 1.504 o
4 8 6 115.296 110.558 2.881 0.241 o
4 8 7 1.106 1.424 0.181 89.783 o
4 8 8 4.412 5.589 0.349 21.349 o
4 8 9 0.016 0.245 0.102 632.719 o
4 8 10 1.288 1.374 0.167 87.832 o
4 9 0 0.240 0.077 0.074 583.949 o
4 9 1 3.184 2.972 0.199 39.211 o
4 9 2 27.592 28.925 1.091 2.214 o
4 9 3 22.767 23.811 1.116 2.669 o
4 9 4 19.843 18.716 0.853 3.700 o
4 9 5 29.550 28.399 1.193 2.023 o
4 9 6 15.175 15.052 0.567 5.766 o
4 9 7 13.330 14.582 0.554 6.448 o
4 9 8 9.265 8.944 0.353 11.483 o
4 9 9 1.194 0.841 0.170 101.715 o
4 9 10 10.551 11.856 0.807 6.380 o
4 10 0 0.375 0.558 0.092 275.907 o
4 10 1 0.177 0.241 0.101 444.212 o
4 10 2 1.621 1.109 0.175 79.520 o
4 10 3 8.297 8.080 0.493 11.209 o
4 10 4 26.146 25.033 0.849 2.721 o
4 10 5 0.732 0.849 0.179 123.574 o
4 10 6 15.449 14.487 0.586 5.701 o
4 10 7 5.497 5.399 0.390 18.076 o
4 10 8 3.459 4.259 0.215 32.362 o
4 10 9 4.092 4.243 0.267 27.310 o
4 11 3 0.828 0.625 0.100 169.376 o
4 11 4 0.398 0.405 0.097 288.093 o
4 11 5 1.112 0.997 0.153 107.689 o
4 11 6 2.515 2.474 0.183 49.140 o
4 11 7 5.713 5.672 0.257 20.370 o
5 -6 0 1.109 0.814 0.232 85.007 o
5 -5 0 1.985 1.554 0.218 59.083 o
5 -5 1 4.303 4.350 0.350 23.281 o
5 -5 2 4.565 3.888 0.390 21.764 o
5 -4 0 0.386 0.095 0.112 326.143 o
5 -4 1 8.011 8.289 0.397 12.523 o
5 -4 2 0.606 0.597 0.147 167.437 o
5 -4 3 15.516 14.380 0.615 5.592 o
5 -3 0 35.926 36.933 1.267 1.536 o
5 -3 1 1.248 1.008 0.178 93.155 o
5 -3 2 44.087 49.450 1.389 1.107 o
5 -3 3 0.237 0.030 0.131 366.793 o
5 -3 4 10.680 11.731 0.774 6.573 o
5 -2 0 97.191 103.852 2.478 0.310 o
5 -2 1 64.260 65.449 2.467 0.543 o
5 -2 2 0.593 1.190 0.229 98.111 o
5 -2 3 5.686 6.178 0.357 17.753 o
5 -2 4 5.395 5.247 0.567 14.180 o
5 -2 5 17.113 16.996 0.993 3.814 o
5 -1 0 123.927 114.320 2.207 0.238 o
5 -1 1 0.190 0.275 0.160 259.506 o
5 -1 2 15.328 15.063 0.644 5.447 o
5 -1 3 12.573 12.228 0.672 6.499 o
5 -1 4 18.464 16.920 0.648 4.553 o
5 -1 5 0.644 0.783 0.129 164.700 o
5 -1 6 33.884 32.893 4.644 0.399 o
5 0 0 27.005 28.983 0.623 2.716 o
5 0 1 5.382 7.444 0.213 19.863 o
5 0 2 189.236 182.986 4.766 0.095 o
5 0 3 8.120 7.059 0.474 12.032 o
5 0 4 3.340 3.843 0.515 19.931 o
5 0 5 10.166 10.109 0.574 8.555 o
5 0 6 7.977 7.737 0.371 13.166 o
5 0 7 22.500 21.356 1.642 2.007 o
5 1 0 0.015 0.146 0.274 131.864 o
5 1 1 141.859 154.377 3.447 0.156 o
5 1 2 1.910 1.740 0.103 74.202 o
5 1 3 0.028 0.452 0.126 386.010 o
5 1 4 1.906 1.482 0.293 49.805 o
5 1 5 151.336 147.814 7.938 0.086 o
5 1 6 58.817 55.873 4.231 0.362 o
5 1 7 3.644 3.890 0.303 28.342 o
5 1 8 0.644 0.542 0.189 135.691 o
5 2 0 320.992 319.026 12.481 0.026 o
5 2 1 64.272 71.862 3.784 0.370 o
5 2 2 135.727 145.900 2.547 0.184 o
5 2 3 1.596 1.350 0.146 82.572 o
5 2 4 6.702 8.322 0.715 9.462 o
5 2 5 0.162 0.258 0.157 276.517 o
5 2 6 0.865 0.875 0.186 111.194 o
5 2 7 42.828 42.695 1.416 1.197 o
5 2 8 1.731 1.054 0.165 79.240 o
5 2 9 2.062 2.060 0.232 52.390 o
5 3 0 57.422 65.288 2.102 0.651 o
5 3 1 176.751 202.196 4.366 0.100 o
5 3 2 2.279 3.466 0.457 26.037 o
5 3 3 131.278 138.052 2.319 0.201 o
5 3 4 1.042 0.940 0.113 127.676 o
5 3 5 138.127 128.156 3.285 0.179 o
5 3 6 74.534 69.413 1.943 0.526 o
5 3 7 40.549 38.061 2.517 0.848 o
5 3 8 3.966 4.201 0.322 25.672 o
5 3 9 7.948 8.560 0.395 12.474 o
5 4 0 52.316 52.215 1.116 0.994 o
5 4 1 75.898 81.739 1.419 0.521 o
5 4 2 0.586 1.006 0.087 183.942 o
5 4 3 32.818 32.726 0.885 1.994 o
5 4 4 1.530 1.746 0.133 80.795 o
5 4 5 184.778 185.679 3.421 0.108 o
5 4 6 109.153 101.192 2.202 0.290 o
5 4 7 13.497 13.090 0.566 6.587 o
5 4 8 0.450 0.573 0.213 132.849 o
5 4 9 1.094 1.562 0.381 45.133 o
5 4 10 0.029 0.043 0.073 1376.210 o
5 5 0 25.757 28.501 0.675 2.798 o
5 5 1 38.684 47.321 1.085 1.375 o
5 5 2 163.171 158.517 3.059 0.138 o
5 5 3 1.666 2.029 0.117 75.204 o
5 5 4 26.230 27.396 0.702 2.777 o
5 5 5 0.195 0.171 0.094 489.039 o
5 5 6 66.892 63.961 2.098 0.580 o
5 5 7 46.171 41.763 1.002 1.273 o
5 5 8 0.386 0.431 0.136 229.655 o
5 5 9 4.891 5.424 0.475 16.936 o
5 5 10 0.627 0.884 0.152 145.936 o
5 6 0 0.056 0.158 0.146 380.480 o
5 6 1 8.801 8.675 0.292 12.603 o
5 6 2 73.433 70.248 1.455 0.579 o
5 6 3 11.029 10.054 0.357 9.669 o
5 6 4 11.615 12.655 0.399 8.319 o
5 6 5 7.227 6.088 0.253 16.922 o
5 6 6 25.422 23.386 0.631 3.129 o
5 6 7 1.329 1.150 0.154 93.910 o
5 6 8 4.422 4.949 0.314 23.293 o
5 6 9 1.667 1.811 0.187 67.393 o
5 6 10 1.168 1.122 0.129 108.896 o
5 7 0 15.159 13.797 0.522 6.121 o
5 7 1 2.295 1.846 0.172 57.559 o
5 7 2 6.487 7.650 0.325 15.778 o
5 7 3 20.497 21.322 0.662 3.824 o
5 7 4 20.387 20.057 0.521 4.199 o
5 7 5 8.982 9.517 0.346 11.543 o
5 7 6 13.223 13.081 0.514 6.936 o
5 7 7 30.571 29.780 0.805 2.268 o
5 7 8 6.526 6.273 0.382 15.804 o
5 7 9 0.591 0.803 0.156 150.826 o
5 7 10 0.089 0.188 0.054 950.796 o
5 8 0 0.802 0.950 0.138 135.686 o
5 8 1 37.423 42.121 1.630 1.233 o
5 8 2 2.327 1.741 0.167 58.375 o
5 8 3 0.130 0.149 0.091 600.936 o
5 8 4 1.110 1.235 0.128 109.164 o
5 8 5 0.020 0.021 0.082 1283.990 o
5 8 6 65.645 62.185 1.597 0.667 o
5 8 7 0.772 0.445 0.187 131.058 o
5 8 8 4.280 4.030 0.318 25.043 o
5 8 9 4.795 4.001 0.219 26.659 o
5 8 10 0.052 0.012 0.047 2161.530 o
5 9 0 1.372 1.998 0.207 68.235 o
5 9 1 0.004 0.122 0.097 850.233 o
5 9 2 2.139 2.023 0.234 51.334 o
5 9 3 0.001 -0.006 0.115 781.802 o
5 9 4 0.718 0.752 0.151 144.416 o
5 9 5 11.919 11.924 0.480 7.901 o
5 9 6 0.840 0.906 0.150 128.398 o
5 9 7 14.994 15.109 0.673 5.415 o
5 9 8 1.446 1.482 0.169 80.447 o
5 9 9 0.003 0.036 0.064 2072.860 o
5 10 0 0.100 0.116 0.122 477.331 o
5 10 1 6.506 7.759 0.491 13.030 o
5 10 2 2.102 1.890 0.320 42.473 o
5 10 3 5.477 5.829 0.417 17.076 o
5 10 4 10.928 10.772 0.487 8.635 o
5 10 5 17.517 17.028 0.635 4.762 o
5 10 6 16.590 16.726 0.610 5.066 o
5 10 7 0.802 0.561 0.085 186.131 o
5 10 8 0.001 -0.007 0.058 3050.230 o
5 10 9 0.001 0.067 0.091 1056.960 o
5 11 3 0.444 0.353 0.134 228.120 o
5 11 4 3.272 3.175 0.585 18.017 o
5 11 5 0.064 0.101 0.079 925.243 o
5 11 6 0.521 0.379 0.089 262.559 o
5 11 7 0.011 0.104 0.116 644.746 o
6 -5 0 2.443 2.032 0.183 52.791 o
6 -4 0 0.219 0.154 0.126 359.014 o
6 -4 1 3.437 2.926 0.268 33.549 o
6 -4 2 0.088 0.047 0.101 693.124 o
6 -3 0 7.629 8.362 0.424 12.539 o
6 -3 1 10.727 10.711 0.527 8.477 o
6 -3 2 39.742 39.056 1.359 1.342 o
6 -3 3 15.915 15.077 0.932 4.306 o
6 -3 4 2.168 2.090 0.238 50.142 o
6 -2 0 38.014 35.196 0.992 1.643 o
6 -2 1 4.614 3.918 0.424 20.433 o
6 -2 2 40.201 40.780 1.445 1.269 o
6 -2 3 30.569 33.915 1.233 1.816 o
6 -2 4 1.027 1.450 0.305 60.277 o
6 -2 5 1.565 1.249 0.201 73.674 o
6 -1 0 33.368 32.452 0.707 2.084 o
6 -1 1 157.150 159.915 3.562 0.137 o
6 -1 2 9.316 10.473 0.615 8.554 o
6 -1 3 86.932 86.375 2.566 0.369 o
6 -1 4 15.314 16.251 0.746 4.947 o
6 -1 5 9.762 10.394 0.506 9.258 o
6 -1 6 6.998 7.441 0.500 12.554 o
6 0 0 10.427 10.550 0.352 9.943 o
6 0 1 12.376 14.953 0.436 7.256 o
6 0 2 74.395 80.390 9.498 0.097 o
6 0 3 17.738 17.860 0.828 4.120 o
6 0 4 0.005 -0.081 0.171 353.802 o
6 0 5 1.033 0.690 0.173 112.805 o
6 0 6 16.494 14.486 0.610 5.350 o
6 0 7 1.565 1.749 0.219 64.625 o
6 1 0 274.164 293.206 5.627 0.048 o
6 1 1 20.259 18.471 0.399 4.575 o
6 1 2 1.626 2.758 0.146 64.163 o
6 1 3 67.140 70.805 1.800 0.591 o
6 1 4 97.474 81.102 5.223 0.203 o
6 1 5 1.530 1.544 0.293 54.286 o
6 1 6 3.226 2.774 0.272 35.076 o
6 1 7 0.957 0.816 0.219 94.722 o
6 2 0 12.948 12.204 0.346 8.009 o
6 2 1 123.253 123.387 1.813 0.239 o
6 2 2 287.981 314.129 4.013 0.047 o
6 2 3 7.719 8.859 0.295 13.683 o
6 2 4 10.547 12.636 0.966 5.361 o
6 2 5 6.739 6.054 0.478 13.923 o
6 2 6 12.181 10.876 0.589 7.364 o
6 2 7 13.730 14.821 0.652 5.864 o
6 2 8 0.050 0.056 0.081 1050.940 o
6 3 0 115.345 111.848 2.448 0.253 o
6 3 1 240.136 262.707 3.859 0.065 o
6 3 2 59.396 59.288 1.214 0.811 o
6 3 3 374.450 394.480 5.125 0.029 o
6 3 4 32.816 31.403 0.882 2.031 o
6 3 5 0.210 0.255 0.106 397.169 o
6 3 6 1.441 0.855 0.188 86.036 o
6 3 7 10.341 8.769 0.689 7.853 o
6 3 8 7.611 8.509 0.509 11.398 o
6 3 9 0.588 0.597 0.128 185.391 o
6 4 0 9.933 9.657 0.275 11.189 o
6 4 1 3.971 5.108 0.221 27.687 o
6 4 2 250.959 266.540 4.907 0.058 o
6 4 3 13.976 14.540 0.458 6.632 o
6 4 4 94.337 99.088 2.170 0.341 o
6 4 5 3.511 4.802 0.419 22.236 o
6 4 6 166.461 159.622 3.658 0.128 o
6 4 7 10.260 10.606 0.438 9.422 o
6 4 8 1.452 2.222 0.237 59.519 o
6 4 9 0.490 0.408 0.128 219.657 o
6 5 0 5.885 5.840 0.218 20.491 o
6 5 1 6.653 9.459 0.380 13.570 o
6 5 2 0.733 1.095 0.155 127.130 o
6 5 3 5.759 6.828 0.264 18.838 o
6 5 4 7.427 8.938 0.553 10.822 o
6 5 5 228.186 212.429 5.200 0.071 o
6 5 6 2.444 2.263 0.200 49.742 o
6 5 7 46.936 43.140 1.932 0.933 o
6 5 8 11.263 13.736 0.483 7.769 o
6 5 9 0.100 0.069 0.084 803.006 o
6 6 0 0.399 0.495 0.111 253.107 o
6 6 1 11.667 13.273 0.348 8.381 o
6 6 2 3.014 2.675 0.143 45.311 o
6 6 3 1.519 1.768 0.136 80.177 o
6 6 4 50.976 52.755 2.221 0.746 o
6 6 5 76.655 74.350 3.372 0.365 o
6 6 6 135.489 128.006 3.185 0.185 o
6 6 7 16.068 15.479 0.509 5.659 o
6 6 8 0.672 0.585 0.161 150.035 o
6 6 9 0.023 0.100 0.063 1463.630 o
6 7 0 0.413 0.272 0.119 269.046 o
6 7 1 1.656 2.426 0.197 60.246 o
6 7 2 7.441 6.793 0.318 15.116 o
6 7 3 8.722 8.120 0.587 9.819 o
6 7 4 26.993 27.814 1.088 2.285 o
6 7 5 44.907 42.769 1.266 1.204 o
6 7 6 0.189 0.354 0.121 338.083 o
6 7 7 2.125 1.747 0.164 62.192 o
6 7 8 0.171 0.493 0.092 384.713 o
6 7 9 1.450 1.165 0.152 89.383 o
6 8 0 2.434 2.891 0.221 44.569 o
6 8 1 14.379 13.579 0.443 6.718 o
6 8 2 8.229 7.217 0.371 13.175 o
6 8 3 3.630 3.588 0.203 33.821 o
6 8 4 16.468 17.247 0.730 4.670 o
6 8 5 40.406 40.072 1.200 1.382 o
6 8 6 29.755 27.807 0.660 2.510 o
6 8 7 27.537 24.157 0.637 2.873 o
6 8 8 3.575 3.052 0.205 35.782 o
6 8 9 1.206 1.161 0.161 96.648 o
6 9 0 3.300 2.459 0.198 40.376 o
6 9 1 8.377 8.836 0.409 11.771 o
6 9 2 11.521 11.224 0.734 6.641 o
6 9 3 4.407 5.349 0.283 23.716 o
6 9 4 22.540 23.124 0.734 3.324 o
6 9 5 14.589 12.864 0.700 5.690 o
6 9 6 13.165 11.618 0.399 7.811 o
6 9 7 5.211 3.785 0.266 24.165 o
6 9 8 17.765 17.091 0.777 4.316 o
6 9 9 0.061 0.140 0.091 737.266 o
6 10 1 1.068 1.228 0.097 120.973 o
6 10 2 4.840 5.296 0.268 22.919 o
6 10 3 0.097 0.054 0.086 810.551 o
6 10 4 23.898 21.109 0.836 3.126 o
6 10 5 6.399 5.578 0.329 17.593 o
6 10 6 16.396 14.485 0.499 5.736 o
6 10 7 4.481 3.862 0.238 27.581 o
6 10 8 0.056 0.061 0.104 715.704 o
6 11 4 2.696 2.468 0.274 39.635 o
6 11 5 28.402 23.828 1.109 2.298 o
7 -4 0 3.912 3.787 0.237 30.311 o
7 -4 1 8.819 7.349 0.518 10.790 o
7 -3 0 28.783 32.046 1.007 2.137 o
7 -3 1 7.832 7.480 0.469 12.179 o
7 -3 2 0.015 0.295 0.195 230.642 o
7 -2 0 37.416 38.542 0.985 1.606 o
7 -2 1 0.009 0.131 0.168 331.058 o
7 -2 2 27.342 25.389 1.079 2.349 o
7 -2 3 0.393 0.500 0.138 218.584 o
7 -2 4 0.000 -0.043 0.104 970.960 o
7 -1 0 53.587 58.840 1.547 0.832 o
7 -1 1 103.381 97.825 13.297 0.051 o
7 -1 2 1.198 1.337 0.262 67.490 o
7 -1 3 41.494 40.364 1.406 1.260 o
7 -1 4 21.399 20.902 0.813 3.452 o
7 -1 5 0.615 0.817 0.189 127.431 o
7 0 0 79.286 78.653 1.888 0.473 o
7 0 1 12.816 13.048 0.391 7.679 o
7 0 2 305.818 298.328 7.642 0.038 o
7 0 3 8.717 8.922 0.780 7.706 o
7 0 4 4.092 4.650 0.380 22.370 o
7 0 5 10.187 9.650 0.488 9.374 o
7 0 6 0.722 0.597 0.158 146.615 o
7 1 0 47.774 46.127 0.847 1.217 o
7 1 1 48.874 50.430 1.111 1.079 o
7 1 2 14.774 14.727 0.531 6.065 o
7 1 3 41.739 40.512 1.445 1.235 o
7 1 4 129.400 121.912 4.857 0.158 o
7 1 5 7.966 8.184 0.491 11.464 o
7 1 6 1.893 1.630 0.192 63.935 o
7 1 7 0.295 0.366 0.116 300.671 o
7 2 0 76.755 78.153 1.552 0.518 o
7 2 1 19.754 22.385 0.495 4.151 o
7 2 2 90.039 84.808 1.241 0.436 o
7 2 3 154.618 146.260 3.037 0.153 o
7 2 4 3.407 4.001 0.262 31.151 o
7 2 5 19.337 18.155 0.816 3.891 o
7 2 6 0.001 0.122 0.177 307.231 o
7 2 7 1.133 1.628 0.179 85.862 o
7 3 0 91.913 98.795 4.601 0.226 o
7 3 1 58.017 65.163 1.417 0.759 o
7 3 2 13.906 15.875 0.399 6.633 o
7 3 3 3.557 3.117 0.193 36.237 o
7 3 4 23.495 20.752 0.700 3.403 o
7 3 5 0.524 0.941 0.159 148.642 o
7 3 6 14.014 14.292 0.685 5.718 o
7 3 7 3.689 4.393 0.314 26.692 o
7 3 8 0.129 0.061 0.085 726.636 o
7 4 0 9.547 10.992 0.401 10.054 o
7 4 1 20.984 22.917 0.640 3.682 o
7 4 2 50.296 51.921 1.070 1.045 o
7 4 3 15.853 13.813 0.749 5.082 o
7 4 4 26.389 27.902 0.827 2.610 o
7 4 5 2.433 2.609 0.325 36.786 o
7 4 6 9.848 10.335 0.532 9.009 o
7 4 7 1.140 2.539 0.259 58.311 o
7 4 8 4.279 4.435 0.276 25.918 o
7 5 0 199.749 211.781 3.055 0.094 o
7 5 1 25.690 27.638 0.590 2.929 o
7 5 2 229.226 244.487 10.092 0.045 o
7 5 3 15.560 17.087 0.562 5.415 o
7 5 4 3.831 2.873 0.218 34.095 o
7 5 5 0.900 1.591 0.162 100.454 o
7 5 6 27.497 21.938 0.631 2.989 o
7 5 7 32.839 31.806 1.065 1.889 o
7 5 8 3.662 3.675 0.256 30.969 o
7 6 0 8.873 9.628 0.353 11.529 o
7 6 1 193.548 199.292 3.506 0.098 o
7 6 2 17.479 19.226 1.084 3.406 o
7 6 3 56.512 52.216 1.818 0.780 o
7 6 4 27.532 29.951 1.096 2.183 o
7 6 5 4.144 3.253 0.208 31.692 o
7 6 6 7.084 5.985 0.341 15.882 o
7 6 7 39.713 43.317 1.418 1.262 o
7 6 8 1.138 1.755 0.202 77.976 o
7 7 0 26.496 28.692 0.883 2.512 o
7 7 1 7.643 7.469 0.650 9.967 o
7 7 2 136.203 134.011 4.394 0.155 o
7 7 3 116.031 112.390 3.896 0.206 o
7 7 4 27.625 27.669 0.870 2.480 o
7 7 5 0.547 0.655 0.213 122.973 o
7 7 6 6.258 5.001 0.254 19.934 o
7 7 7 0.427 0.507 0.123 228.334 o
7 7 8 0.004 0.040 0.086 1230.830 o
7 8 0 0.359 0.225 0.088 362.296 o
7 8 1 62.869 59.977 3.012 0.490 o
7 8 2 0.002 0.049 0.088 1174.600 o
7 8 3 43.069 47.411 1.343 1.166 o
7 8 4 1.895 2.234 0.203 57.129 o
7 8 5 5.156 4.637 0.322 21.457 o
7 8 6 16.047 16.514 0.572 5.333 o
7 8 7 0.426 0.857 0.126 192.110 o
7 8 8 1.351 1.573 0.174 80.975 o
7 9 0 17.055 16.689 0.575 5.066 o
7 9 1 13.557 12.733 0.977 4.724 o
7 9 2 40.630 40.000 3.073 0.669 o
7 9 3 4.600 4.922 0.309 22.977 o
7 9 4 0.264 0.326 0.137 275.803 o
7 9 5 0.082 0.135 0.084 762.740 o
7 9 6 22.569 20.436 0.610 3.685 o
7 9 7 0.255 0.165 0.116 367.227 o
7 10 1 6.014 5.130 0.439 16.287 o
7 10 2 0.054 0.102 0.080 949.129 o
7 10 3 0.008 -0.048 0.069 2056.030 o
7 10 4 0.364 0.313 0.105 303.717 o
7 10 5 8.284 8.075 0.497 11.175 o
7 10 6 9.337 8.696 0.567 9.469 o
8 -3 0 14.669 12.318 0.559 6.358 o
8 -3 1 2.351 2.054 0.256 46.290 o
8 -2 0 17.338 15.845 1.085 3.606 o
8 -2 1 0.005 0.135 0.134 489.576 o
8 -2 2 8.968 8.005 0.670 8.838 o
8 -1 0 4.408 5.683 0.334 21.693 o
8 -1 1 0.764 0.655 0.439 43.133 o
8 -1 2 0.001 -0.030 0.171 357.866 o
8 -1 3 0.102 0.147 0.112 514.405 o
8 -1 4 1.923 1.779 0.219 58.047 o
8 0 0 1.086 0.609 0.118 135.413 o
8 0 1 16.868 17.906 0.749 4.479 o
8 0 2 40.984 37.899 1.387 1.312 o
8 0 3 0.021 0.683 0.250 132.795 o
8 0 4 2.326 2.127 0.305 41.191 o
8 0 5 3.551 4.254 0.341 26.248 o
8 1 0 23.527 24.751 0.877 2.924 o
8 1 1 18.799 16.803 0.481 4.900 o
8 1 2 0.184 0.040 0.119 449.089 o
8 1 3 0.501 0.919 0.202 124.073 o
8 1 4 0.043 0.010 0.127 574.805 o
8 1 5 0.413 0.293 0.165 200.389 o
8 2 0 95.077 92.467 1.704 0.373 o
8 2 1 5.650 6.456 0.228 20.141 o
8 2 2 2.982 2.561 0.201 42.432 o
8 2 3 45.869 40.694 1.117 1.257 o
8 2 4 0.283 0.376 0.156 229.879 o
8 2 5 1.234 0.945 0.183 93.492 o
8 2 6 13.097 13.229 0.541 6.826 o
8 3 0 44.360 47.292 1.119 1.212 o
8 3 1 15.522 16.657 0.642 5.214 o
8 3 2 145.928 152.333 2.868 0.162 o
8 3 3 12.435 10.987 0.371 8.468 o
8 3 4 3.911 3.827 0.273 28.685 o
8 3 5 0.566 0.561 0.219 121.077 o
8 3 6 0.446 0.316 0.118 254.179 o
8 3 7 3.306 3.589 0.311 30.131 o
8 4 0 39.881 43.341 1.041 1.416 o
8 4 1 32.730 37.244 1.435 1.532 o
8 4 2 2.049 1.632 0.152 66.354 o
8 4 3 28.119 28.883 0.681 2.577 o
8 4 4 50.553 53.002 1.561 0.913 o
8 4 5 3.039 2.338 0.205 42.708 o
8 4 6 0.325 0.636 0.146 208.026 o
8 4 7 3.000 3.276 0.230 37.557 o
8 5 0 40.070 46.151 1.049 1.365 o
8 5 1 10.492 11.280 0.394 9.380 o
8 5 2 115.359 115.917 2.787 0.239 o
8 5 3 79.588 81.598 1.385 0.500 o
8 5 4 5.063 4.055 0.290 23.462 o
8 5 5 80.681 73.778 1.794 0.487 o
8 5 6 4.415 3.767 0.293 25.989 o
8 5 7 6.411 6.137 0.311 17.387 o
8 6 0 4.089 4.815 0.222 27.757 o
8 6 1 67.421 68.018 1.579 0.626 o
8 6 2 0.511 0.817 0.165 151.762 o
8 6 3 23.290 24.719 0.854 2.981 o
8 6 4 55.048 55.090 2.353 0.669 o
8 6 5 1.990 1.580 0.182 63.950 o
8 6 6 17.897 14.966 0.533 5.188 o
8 6 7 0.495 0.210 0.096 288.949 o
8 7 0 0.901 1.095 0.166 111.515 o
8 7 1 4.438 4.735 0.424 19.925 o
8 7 2 60.174 64.346 1.639 0.705 o
8 7 3 52.042 50.775 1.715 0.869 o
8 7 4 0.690 0.584 0.136 166.463 o
8 7 5 7.974 7.369 0.434 12.559 o
8 7 6 0.909 0.573 0.106 159.685 o
8 7 7 0.264 0.333 0.165 225.638 o
8 7 8 0.000 0.006 0.067 2251.460 o
8 8 0 6.740 7.943 1.365 4.268 o
8 8 1 13.043 14.328 0.601 6.369 o
8 8 2 25.141 27.784 1.697 1.728 o
8 8 3 14.247 14.290 0.619 5.931 o
8 8 4 7.724 7.146 0.412 13.235 o
8 8 5 2.679 2.826 0.661 16.464 o
8 8 6 4.829 5.223 0.469 17.364 o
8 8 7 2.799 3.297 0.317 33.083 o
8 9 0 0.141 0.143 0.073 704.702 o
8 9 1 6.867 7.604 0.890 7.615 o
8 9 2 13.364 16.757 2.233 1.632 o
8 9 3 9.665 13.740 2.898 1.112 o
8 9 4 1.778 1.859 0.274 51.742 o
8 9 5 1.861 1.358 0.152 73.787 o
8 9 6 0.968 1.157 0.222 86.930 o
8 9 7 0.286 0.244 0.098 376.927 o
8 10 2 8.964 8.964 0.488 10.417 o
8 10 3 6.275 6.204 0.408 15.725 o
8 10 4 0.232 0.353 0.122 315.591 o
9 -2 0 0.512 0.756 0.189 137.808 o
9 -1 0 0.116 0.207 0.177 254.647 o
9 -1 1 1.039 1.124 0.168 102.891 o
9 -1 2 0.364 0.073 0.098 381.777 o
9 0 0 2.614 2.851 0.296 37.107 o
9 0 1 2.946 3.858 0.463 23.076 o
9 0 2 0.779 0.902 0.259 84.964 o
9 0 3 1.130 0.856 0.129 118.832 o
9 1 0 0.466 0.331 0.097 277.365 o
9 1 1 3.567 3.418 0.244 32.714 o
9 1 2 7.481 7.733 0.485 12.171 o
9 1 3 0.000 0.058 0.107 822.484 o
9 1 4 1.486 1.256 0.149 87.222 o
9 2 0 20.466 20.054 0.713 3.822 o
9 2 1 5.344 6.636 0.347 18.183 o
9 2 2 3.855 4.660 0.374 23.245 o
9 2 3 4.104 3.755 0.325 25.858 o
9 2 4 2.846 3.205 0.372 29.537 o
9 2 5 1.747 0.999 0.189 74.722 o
9 3 0 1.342 2.055 0.219 66.065 o
9 3 1 1.666 2.339 0.175 63.811 o
9 3 2 34.736 32.290 0.960 1.861 o
9 3 3 1.762 1.562 0.217 63.011 o
9 3 4 3.874 3.187 0.256 31.135 o
9 3 5 1.732 1.012 0.183 76.205 o
9 4 0 1.959 2.915 0.241 47.424 o
9 4 1 75.884 72.994 1.855 0.514 o
9 4 2 11.522 12.587 0.387 8.445 o
9 4 3 11.985 12.080 0.433 8.095 o
9 4 4 0.011 0.061 0.120 645.234 o
9 4 5 1.207 1.068 0.156 100.228 o
9 4 6 0.454 0.811 0.177 149.316 o
9 5 0 6.261 7.049 0.397 15.350 o
9 5 1 10.487 8.418 0.366 10.577 o
9 5 2 15.131 16.773 0.481 5.827 o
9 5 3 0.945 1.093 0.168 108.508 o
9 5 4 3.332 4.020 0.257 31.727 o
9 5 5 8.593 8.218 0.429 11.638 o
9 5 6 1.431 1.358 0.146 87.870 o
9 6 0 13.770 13.789 0.626 6.113 o
9 6 1 12.621 12.180 0.449 7.688 o
9 6 2 5.273 5.663 0.367 18.829 o
9 6 3 0.877 1.067 0.195 102.071 o
9 6 4 4.523 4.477 0.753 11.489 o
9 6 5 11.904 12.152 0.792 6.045 o
9 6 6 2.894 3.010 0.317 33.348 o
9 7 0 5.603 5.550 0.960 7.686 o
9 7 1 8.168 8.568 0.945 6.570 o
9 7 2 0.164 0.140 0.121 417.977 o
9 7 3 1.781 1.369 0.204 66.841 o
9 7 4 0.304 0.309 0.112 315.104 o
9 7 5 0.295 0.392 0.131 266.411 o
9 7 6 2.812 2.937 0.311 34.450 o
9 8 0 0.075 0.338 0.108 464.125 o
9 8 1 1.679 1.939 0.347 42.723 o
9 8 2 1.861 2.614 0.378 35.721 o
9 8 3 3.343 3.598 0.255 32.916 o
9 8 4 0.351 0.067 0.074 462.692 o
9 8 5 7.145 6.340 0.340 15.550 o
9 9 1 12.425 16.216 0.811 5.322 o
9 9 2 0.162 0.133 0.082 620.648 o
9 9 3 0.274 0.226 0.086 423.744 o
9 9 4 0.091 0.085 0.110 581.774 o
9 9 5 5.586 5.277 0.384 18.169 o
10 0 0 39.364 33.127 1.463 1.381 o
10 1 0 23.102 19.273 1.030 2.968 o
10 1 1 0.106 0.335 0.171 252.690 o
10 1 2 0.096 0.201 0.116 471.437 o
10 2 0 0.418 0.631 0.140 199.117 o
10 2 1 0.009 0.203 0.121 531.735 o
10 2 2 0.370 0.256 0.146 239.298 o
10 2 3 0.999 0.932 0.171 108.876 o
10 3 0 1.326 1.554 0.305 54.945 o
10 3 1 9.608 9.525 0.457 10.053 o
10 3 2 0.113 0.018 0.110 597.725 o
10 3 3 0.002 0.085 0.128 567.989 o
10 4 0 0.574 0.670 0.174 146.237 o
10 4 1 2.652 6.592 3.861 0.686 o
10 4 2 14.841 16.372 0.705 5.182 o
10 4 3 8.505 8.367 0.628 9.435 o
10 5 0 2.487 3.690 0.249 38.525 o
10 5 1 0.767 0.827 0.185 118.870 o
10 5 2 5.256 7.964 0.922 7.792 o
10 5 3 14.306 15.369 0.926 4.567 o
10 5 4 0.021 0.488 0.189 219.839 o
10 6 0 36.691 33.475 3.394 0.630 o
10 6 1 3.040 4.160 0.353 27.775 o
10 6 2 6.268 7.097 0.332 16.441 o
10 6 3 0.965 4.184 3.096 1.072 o
10 6 4 0.298 0.829 0.207 139.314 o
10 6 5 0.111 0.134 0.122 458.328 o
10 7 1 1.743 1.872 0.183 65.836 o
10 7 2 1.322 2.082 0.189 71.717 o
10 7 3 1.212 1.175 0.241 74.278 o
10 7 4 1.050 1.066 0.195 94.615 o
10 8 1 0.070 0.024 0.085 957.490 o
10 8 2 0.252 0.378 0.128 289.624 o
10 8 3 2.193 2.403 0.414 31.383 o
;
_olex2_submission_special_instructions 'No special instructions were received'
_oxdiff_exptl_absorpt_empirical_details
;
Empirical correction (ABSPACK) includes:
- Absorption correction using spherical harmonics
- Frame scaling
;
loop_
_space_group_symop_id
_space_group_symop_operation_xyz
1 x,y,z
2 -x,-y,-z
loop_
_atom_site_label
_atom_site_type_symbol
_atom_site_fract_x
_atom_site_fract_y
_atom_site_fract_z
_atom_site_U_iso_or_equiv
_atom_site_adp_type
_atom_site_occupancy
_atom_site_refinement_flags_posn
F2 F 0.67201(10) 0.34826(13) 0.66065(13) 0.0711(3) Uani 1.000000 .
F1 F 0.76260(10) 0.04866(13) 0.81832(13) 0.0787(3) Uani 1.000000 .
O1 O 0.56709(11) 0.18991(14) 0.57520(12) 0.0563(3) Uani 1.000000 .
N2 N 0.47567(11) 0.22422(13) 0.79712(12) 0.0420(2) Uani 1.000000 .
C8 C 0.46273(15) 0.23830(17) 0.94737(15) 0.0482(3) Uani 1.000000 .
H8a H 0.42023(15) 0.15238(17) 1.02173(15) 0.0579(3) Uiso 1.000000 R
H8b H 0.57183(15) 0.20623(17) 1.00077(15) 0.0579(3) Uiso 1.000000 R
C10 C 0.35277(18) 0.57674(19) 0.78726(17) 0.0563(3) Uani 1.000000 .
H10 H 0.42055(18) 0.56991(19) 0.71116(17) 0.0676(4) Uiso 1.000000 R
C6 C 0.3276(2) 0.2114(2) 0.44757(17) 0.0589(3) Uani 1.000000 .
H6 H 0.3869(2) 0.1977(2) 0.36787(17) 0.0706(4) Uiso 1.000000 R
C3 C 0.06607(16) 0.2523(2) 0.6697(2) 0.0610(4) Uani 1.000000 .
H3 H -0.02674(16) 0.2618(2) 0.7187(2) 0.0732(4) Uiso 1.000000 R
C5 C 0.1644(2) 0.2303(2) 0.4252(2) 0.0682(4) Uani 1.000000 .
H5 H 0.1292(2) 0.2305(2) 0.3310(2) 0.0819(5) Uiso 1.000000 R
C11 C 0.2505(2) 0.7406(2) 0.7696(2) 0.0652(4) Uani 1.000000 .
H11 H 0.2480(2) 0.8463(2) 0.6812(2) 0.0782(5) Uiso 1.000000 R
C12 C 0.1526(2) 0.7461(2) 0.8839(2) 0.0700(4) Uani 1.000000 .
H12 H 0.075(2) 0.863(3) 0.876(2) 0.0840(5) Uiso 1.000000 .
C4 C 0.04929(19) 0.2487(2) 0.5222(2) 0.0687(4) Uani 1.000000 .
H4 H -0.05356(19) 0.2603(2) 0.4848(2) 0.0824(5) Uiso 1.000000 R
C13 C 0.1616(2) 0.5869(3) 1.0115(3) 0.0818(5) Uani 1.000000 .
B1 B 0.62942(17) 0.2020(2) 0.7153(2) 0.0518(3) Uani 1.000000 .
C1 C 0.35365(13) 0.22898(14) 0.71122(14) 0.0386(2) Uani 1.000000 .
N1 N 0.25972(18) 0.42538(18) 1.03178(17) 0.0670(3) Uani 1.000000 .
C9 C 0.35313(14) 0.42325(17) 0.91919(14) 0.0433(3) Uani 1.000000 .
C7 C 0.41132(15) 0.21038(16) 0.57163(15) 0.0446(3) Uani 1.000000 .
C2 C 0.19734(15) 0.24406(18) 0.75391(17) 0.0484(3) Uani 1.000000 .
H2 H 0.18171(15) 0.24900(18) 0.85128(17) 0.0581(4) Uiso 1.000000 R
H13 H 0.094(3) 0.582(3) 1.100(3) 0.111(7) Uiso 1.000000 .
loop_
_atom_site_aniso_label
_atom_site_aniso_U_11
_atom_site_aniso_U_22
_atom_site_aniso_U_33
_atom_site_aniso_U_12
_atom_site_aniso_U_13
_atom_site_aniso_U_23
F2 0.0506(5) 0.0836(6) 0.0985(7) -0.0419(4) 0.0300(4) -0.0480(5)
F1 0.0371(4) 0.0812(6) 0.0931(7) -0.0048(4) 0.0078(4) -0.0363(5)
O1 0.0475(5) 0.0720(6) 0.0637(6) -0.0274(4) 0.0279(4) -0.0414(5)
N2 0.0326(5) 0.0500(5) 0.0475(5) -0.0164(4) 0.0103(4) -0.0267(4)
C8 0.0453(6) 0.0549(7) 0.0428(6) -0.0174(5) 0.0042(5) -0.0240(5)
C10 0.0601(8) 0.0577(8) 0.0544(7) -0.0240(6) 0.0174(6) -0.0291(6)
C6 0.0725(9) 0.0636(8) 0.0496(7) -0.0285(7) 0.0150(6) -0.0334(6)
C3 0.0374(6) 0.0702(9) 0.0846(10) -0.0237(6) 0.0128(6) -0.0428(8)
C5 0.0786(11) 0.0707(9) 0.0590(8) -0.0313(8) -0.0065(7) -0.0324(7)
C11 0.0715(9) 0.0561(8) 0.0664(9) -0.0227(7) 0.0070(7) -0.0300(7)
C12 0.0569(9) 0.0689(10) 0.0970(12) -0.0181(7) 0.0115(8) -0.0549(9)
C4 0.0510(8) 0.0749(10) 0.0829(10) -0.0254(7) -0.0057(7) -0.0394(8)
C13 0.0835(12) 0.0899(13) 0.1030(14) -0.0398(10) 0.0522(11) -0.0674(12)
B1 0.0327(6) 0.0606(8) 0.0643(9) -0.0181(6) 0.0168(6) -0.0322(7)
C1 0.0341(5) 0.0381(5) 0.0437(6) -0.0135(4) 0.0087(4) -0.0204(4)
N1 0.0773(9) 0.0727(8) 0.0686(8) -0.0354(7) 0.0366(7) -0.0440(7)
C9 0.0393(6) 0.0573(7) 0.0428(6) -0.0220(5) 0.0066(4) -0.0294(5)
C7 0.0448(6) 0.0452(6) 0.0477(6) -0.0187(5) 0.0153(5) -0.0248(5)
C2 0.0379(6) 0.0596(7) 0.0591(7) -0.0227(5) 0.0169(5) -0.0352(6)
loop_
_atom_type_symbol
_atom_type_scat_dispersion_real
_atom_type_scat_dispersion_imag
_atom_type_scat_Cromer_Mann_a1
_atom_type_scat_Cromer_Mann_a2
_atom_type_scat_Cromer_Mann_a3
_atom_type_scat_Cromer_Mann_a4
_atom_type_scat_Cromer_Mann_b1
_atom_type_scat_Cromer_Mann_b2
_atom_type_scat_Cromer_Mann_b3
_atom_type_scat_Cromer_Mann_b4
_atom_type_scat_Cromer_Mann_c
_atom_type_scat_source
_atom_type_scat_dispersion_source
C 0.01920 0.00962 2.31000 1.02000 1.58860 0.86500 20.84390 10.20750 0.56870
51.65120 0.215599998832
'International Tables Volume C Table 6.1.1.4 (pp. 500-502)'
'Henke, Gullikson and Davis, At. Data and Nucl. Data Tables, 1993, 54, 2'
B 0.00963 0.00408 2.05450 1.33260 1.09790 0.70680 23.21850 1.02100 60.34980
0.14030 -0.193200007081
'International Tables Volume C Table 6.1.1.4 (pp. 500-502)'
'Henke, Gullikson and Davis, At. Data and Nucl. Data Tables, 1993, 54, 2'
F 0.07537 0.05506 3.53920 2.64120 1.51700 1.02430 10.28250 4.29440 0.26150
26.14760 0.277599990368
'International Tables Volume C Table 6.1.1.4 (pp. 500-502)'
'Henke, Gullikson and Davis, At. Data and Nucl. Data Tables, 1993, 54, 2'
H 0.00000 0.00000 0.49300 0.32291 0.14019 0.04081 10.51090 26.12570 3.14236
57.79970 0.0030380000826
'International Tables Volume C Table 6.1.1.4 (pp. 500-502)'
'Henke, Gullikson and Davis, At. Data and Nucl. Data Tables, 1993, 54, 2'
O 0.05239 0.03377 3.04850 2.28680 1.54630 0.86700 13.27710 5.70110 0.32390
32.90890 0.250800013542
'International Tables Volume C Table 6.1.1.4 (pp. 500-502)'
'Henke, Gullikson and Davis, At. Data and Nucl. Data Tables, 1993, 54, 2'
N 0.03256 0.01839 12.21260 3.13220 2.01250 1.16630 0.00570 9.89330 28.99750
0.58260 -11.5290002823
'International Tables Volume C Table 6.1.1.4 (pp. 500-502)'
'Henke, Gullikson and Davis, At. Data and Nucl. Data Tables, 1993, 54, 2'
loop_
_geom_angle_atom_site_label_1
_geom_angle_atom_site_label_2
_geom_angle_atom_site_label_3
_geom_angle
C7 O1 B1 111.32(9)
B1 N2 C8 125.88(10)
C1 N2 C8 123.52(10)
C1 N2 B1 110.60(10)
H8a C8 N2 108.80(6)
H8b C8 N2 108.80(6)
H8b C8 H8a 107.7
C9 C8 N2 113.78(10)
C9 C8 H8a 108.80(7)
C9 C8 H8b 108.80(6)
C11 C10 H10 120.54(9)
C9 C10 H10 120.54(8)
C9 C10 C11 118.93(13)
C5 C6 H6 115.81(9)
C7 C6 H6 115.81(8)
C7 C6 C5 128.38(14)
C4 C3 H3 114.89(9)
C2 C3 H3 114.89(8)
C2 C3 C4 130.23(14)
H5 C5 C6 115.39(9)
C4 C5 C6 129.23(14)
C4 C5 H5 115.39(8)
H11 C11 C10 120.45(9)
C12 C11 C10 119.09(15)
C12 C11 H11 120.45(10)
H12 C12 C11 122.0(11)
C13 C12 C11 118.05(15)
C13 C12 H12 119.9(11)
C5 C4 C3 128.40(13)
H4 C4 C3 115.80(9)
H4 C4 C5 115.80(8)
N1 C13 C12 124.18(16)
H13 C13 C12 122.0(13)
H13 C13 N1 113.9(13)
F1 B1 F2 109.33(11)
O1 B1 F2 111.08(12)
O1 B1 F1 111.77(12)
N2 B1 F2 112.59(11)
N2 B1 F1 112.14(12)
N2 B1 O1 99.69(9)
C7 C1 N2 107.98(10)
C2 C1 N2 125.15(11)
C2 C1 C7 126.85(11)
C9 N1 C13 116.77(14)
C10 C9 C8 122.00(11)
N1 C9 C8 115.01(11)
N1 C9 C10 122.98(12)
C6 C7 O1 120.83(12)
C1 C7 O1 110.32(10)
C1 C7 C6 128.85(12)
C1 C2 C3 127.97(13)
H2 C2 C3 116.02(8)
H2 C2 C1 116.02(7)
loop_
_geom_bond_atom_site_label_1
_geom_bond_atom_site_label_2
_geom_bond_distance
F2 B1 1.3824(18)
F1 B1 1.3750(18)
O1 B1 1.4798(19)
O1 C7 1.3224(15)
N2 C8 1.4547(15)
N2 B1 1.5454(16)
N2 C1 1.3249(15)
C8 H8a 0.9700
C8 H8b 0.9700
C8 C9 1.5124(17)
C10 H10 0.9300
C10 C11 1.376(2)
C10 C9 1.3745(19)
C6 H6 0.9300
C6 C5 1.398(2)
C6 C7 1.3692(19)
C3 H3 0.9300
C3 C4 1.393(2)
C3 C2 1.3669(19)
C5 H5 0.9300
C5 C4 1.367(3)
C11 H11 0.9300
C11 C12 1.368(2)
C12 H12 1.01(2)
C12 C13 1.366(3)
C4 H4 0.9300
C13 N1 1.340(2)
C13 H13 1.00(2)
C1 C7 1.4440(16)
C1 C2 1.4111(16)
N1 C9 1.3267(16)
C2 H2 0.9300
