#------------------------------------------------------------------------------
#$Date: 2019-11-08 03:48:54 +0200 (Fri, 08 Nov 2019) $
#$Revision: 225190 $
#$URL: file:///home/coder/svn-repositories/cod/cif/7/15/67/7156764.cif $
#------------------------------------------------------------------------------
#
# This file is available in the Crystallography Open Database (COD),
# http://www.crystallography.net/
#
# All data on this site have been placed in the public domain by the
# contributors.
#
data_7156764
loop_
_publ_author_name
'Lvov, Andrey G.'
'Kavun, Alexey M.'
'Kachala, Vadim V.'
'Lyssenko, Konstantin A.'
'Shirinian, Valerii Z.'
_publ_section_title
;
 Photorearrangement of dihetarylethenes as a tool for the benzannulation
 of heterocycles.
;
_journal_issue                   20
_journal_name_full               'Organic &amp; biomolecular chemistry'
_journal_page_first              4990
_journal_page_last               5000
_journal_paper_doi               10.1039/c9ob00690g
_journal_volume                  17
_journal_year                    2019
_chemical_formula_moiety         'C15 H14 O2 S2'
_chemical_formula_sum            'C15 H14 O2 S2'
_chemical_formula_weight         290.38
_space_group_crystal_system      triclinic
_space_group_IT_number           2
_space_group_name_Hall           '-P 1'
_space_group_name_H-M_alt        'P -1'
_symmetry_space_group_name_Hall  '-P 1'
_symmetry_space_group_name_H-M   'P -1'
_atom_sites_solution_hydrogens   mixed
_audit_creation_method           SHELXL-2014/6
_audit_update_record
;
2018-08-01 deposited with the CCDC.    2019-04-01 downloaded from the CCDC.
;
_cell_angle_alpha                75.4510(10)
_cell_angle_beta                 79.4630(10)
_cell_angle_gamma                65.9620(10)
_cell_formula_units_Z            2
_cell_length_a                   7.5548(5)
_cell_length_b                   8.9850(6)
_cell_length_c                   11.3559(7)
_cell_measurement_reflns_used    5902
_cell_measurement_temperature    120(2)
_cell_measurement_theta_max      36.453
_cell_measurement_theta_min      2.532
_cell_volume                     678.58(8)
_computing_cell_refinement       'Bruker SAINT'
_computing_data_collection       'Bruker APEX II'
_computing_data_reduction        'Bruker SAINT'
_computing_molecular_graphics    'Bruker SHELXTL'
_computing_publication_material  'Bruker SHELXTL'
_computing_structure_refinement  'SHELXL-97 (Sheldrick, 1997)'
_computing_structure_solution    'SHELXS-97 (Sheldrick, 1997)'
_diffrn_ambient_temperature      120(2)
_diffrn_measured_fraction_theta_full 1.000
_diffrn_measured_fraction_theta_max 0.999
_diffrn_measurement_device_type  'Bruker APEX II CCD area detector''
_diffrn_measurement_method       'omega scans'
_diffrn_radiation_type           MoK\a
_diffrn_radiation_wavelength     0.71073
_diffrn_reflns_av_R_equivalents  0.0146
_diffrn_reflns_av_unetI/netI     0.0183
_diffrn_reflns_Laue_measured_fraction_full 1.000
_diffrn_reflns_Laue_measured_fraction_max 0.999
_diffrn_reflns_limit_h_max       10
_diffrn_reflns_limit_h_min       -10
_diffrn_reflns_limit_k_max       12
_diffrn_reflns_limit_k_min       -12
_diffrn_reflns_limit_l_max       15
_diffrn_reflns_limit_l_min       -15
_diffrn_reflns_number            8441
_diffrn_reflns_point_group_measured_fraction_full 1.000
_diffrn_reflns_point_group_measured_fraction_max 0.999
_diffrn_reflns_theta_full        25.242
_diffrn_reflns_theta_max         28.999
_diffrn_reflns_theta_min         1.860
_exptl_absorpt_coefficient_mu    0.386
_exptl_absorpt_correction_type   multi-scan
_exptl_absorpt_process_details   SADABS
_exptl_crystal_colour            colorless
_exptl_crystal_density_diffrn    1.421
_exptl_crystal_description       block
_exptl_crystal_F_000             304
_exptl_crystal_size_max          0.320
_exptl_crystal_size_mid          0.220
_exptl_crystal_size_min          0.180
_exptl_transmission_factor_max   0.934
_exptl_transmission_factor_min   0.886
_refine_diff_density_max         0.473
_refine_diff_density_min         -0.429
_refine_diff_density_rms         0.060
_refine_ls_extinction_method     none
_refine_ls_goodness_of_fit_ref   1.042
_refine_ls_hydrogen_treatment    constr
_refine_ls_matrix_type           full
_refine_ls_number_parameters     189
_refine_ls_number_reflns         3608
_refine_ls_number_restraints     9
_refine_ls_restrained_S_all      1.041
_refine_ls_R_factor_all          0.0408
_refine_ls_R_factor_gt           0.0371
_refine_ls_shift/su_max          0.012
_refine_ls_shift/su_mean         0.001
_refine_ls_structure_factor_coef Fsqd
_refine_ls_weighting_details
'w=1/[\s^2^(Fo^2^)+(0.0548P)^2^+0.4244P] where P=(Fo^2^+2Fc^2^)/3'
_refine_ls_weighting_scheme      calc
_refine_ls_wR_factor_gt          0.1001
_refine_ls_wR_factor_ref         0.1037
_reflns_Friedel_coverage         0.000
_reflns_number_gt                3286
_reflns_number_total             3608
_reflns_threshold_expression     I>2\s(I)
_cod_data_source_file            c9ob00690g2.cif
_cod_data_source_block           a_a_CCDC2
_cod_depositor_comments
'Adding full bibliography for 7156762--7156768.cif.'
_cod_database_code               7156764
_shelx_space_group_comment
;
The symmetry employed for this shelxl refinement is uniquely defined
by the following loop, which should always be used as a source of
symmetry information in preference to the above space-group names.
They are only intended as comments.
;
_shelx_estimated_absorpt_t_min   0.886
_shelx_estimated_absorpt_t_max   0.934
_shelxl_version_number           2014/6
_shelx_res_file
;
TITL a_a.res in P-1
REM Old TITL a in P-1

REM SHELXT solution in P-1
REM R1 0.115,  Rweak 0.006,  Alpha 0.028,  Orientation as input
REM Formula found by SHELXT:  C15 O2 S2

CELL  0.71073   7.5548   8.9850  11.3559   75.451   79.463   65.962
ZERR    2.000   0.0005   0.0006   0.0007    0.001    0.001    0.001
LATT  1
SFAC C H O S
UNIT 30 28 4 4

TEMP -153
SIZE 0.32 0.22 0.18
BOND $h
CONF
L.S. 10
BOND $H
omit -4 58
acta
FMAP 2
PLAN 50
eadp s2 s2'
dfix 2.800 0.001 c14' c12
dfix 31.000  0.002 s2 c14 s2' c14'
dfix 41.00 0.002 s2 c12 s2' c12
eadp c14 c14'
dfix 51 0.002 c12 c13 c12 c13'
dfix 61 0.002 s2 c13 s2' c13'
eadp c13 c13'
WGHT    0.054800    0.424400
FVAR       0.64596   0.96070   1.80021   1.76087   1.50866   2.70511
S1    4    0.868876    0.336102    0.259145    11.00000    0.02072    0.02732 =
         0.01683   -0.00597    0.00037   -0.00680
PART   1
S2    4    0.516398    0.247375    1.039124    21.00000    0.03666    0.04629 =
         0.01403   -0.00571    0.00244   -0.01994
PART   2
S2'   4    0.804604    0.331292    0.935189   -21.00000    0.03666    0.04629 =
         0.01403   -0.00571    0.00244   -0.01994
PART   0
O1    3    0.735768    0.684383    0.542997    11.00000    0.02207    0.01772 =
         0.02474   -0.00430   -0.00194   -0.01039
O2    3    0.831649    0.680491    0.343574    11.00000    0.02166    0.02366 =
         0.02518    0.00206   -0.00166   -0.01249
C1    1    0.796239    0.331700    0.413260    11.00000    0.01271    0.01778 =
         0.01567   -0.00277   -0.00258   -0.00400
C2    1    0.761535    0.187065    0.471720    11.00000    0.01428    0.01460 =
         0.01998   -0.00387   -0.00498   -0.00317
C3    1    0.802165    0.077929    0.387521    11.00000    0.01945    0.01971 =
         0.02877   -0.00996   -0.00699   -0.00316
AFIX  43
H3A   2    0.789714   -0.026823    0.409976    11.00000   -1.20000
AFIX   0
C4    1    0.860033    0.141924    0.272920    11.00000    0.02348    0.02832 =
         0.02586   -0.01370   -0.00346   -0.00519
AFIX  43
H4A   2    0.892636    0.086130    0.206490    11.00000   -1.20000
AFIX   0
C5    1    0.766637    0.450736    0.481519    11.00000    0.01199    0.01505 =
         0.01704   -0.00135   -0.00285   -0.00482
C6    1    0.784328    0.612441    0.443228    11.00000    0.01304    0.01710 =
         0.02365   -0.00157   -0.00407   -0.00646
C7    1    0.684899    0.576220    0.650600    11.00000    0.01850    0.01873 =
         0.02036   -0.00543   -0.00284   -0.00800
AFIX  23
H7A   2    0.550175    0.631989    0.685402    11.00000   -1.20000
H7B   2    0.775039    0.543835    0.714040    11.00000   -1.20000
AFIX   0
C8    1    0.703819    0.426718    0.604269    11.00000    0.01229    0.01602 =
         0.01738   -0.00300   -0.00386   -0.00508
C9    1    0.660775    0.286166    0.664659    11.00000    0.01429    0.01700 =
         0.01577   -0.00029   -0.00402   -0.00579
C10   1    0.689399    0.166157    0.596655    11.00000    0.01562    0.01440 =
         0.01918    0.00022   -0.00554   -0.00516
C11   1    0.567852    0.271087    0.791648    11.00000    0.01934    0.02195 =
         0.01614    0.00029   -0.00148   -0.01017
AFIX   3
H11A  2    0.442822    0.265546    0.802598    11.00000   -1.20000
AFIX   0
C12   1    0.641035    0.264399    0.892328    11.00000    0.02512    0.02856 =
         0.01639   -0.00163   -0.00186   -0.01261
PART   1
C13   1    0.839154    0.264687    0.896954    21.00000    0.02760    0.05328 =
         0.01946    0.00225   -0.00823   -0.02182
AFIX 137
H13A  2    0.910603    0.261182    0.815803    21.00000   -1.50000
H13B  2    0.911435    0.167123    0.955642    21.00000   -1.50000
H13C  2    0.824149    0.365943    0.922424    21.00000   -1.50000
AFIX   0
C14   1    0.293778    0.238295    1.012264    21.00000    0.02666    0.05460 =
         0.02458   -0.00083    0.00611   -0.01650
AFIX 137
H14A  2    0.212304    0.231167    1.089601    21.00000   -1.50000
H14B  2    0.323954    0.140125    0.977782    21.00000   -1.50000
H14C  2    0.223875    0.338650    0.954787    21.00000   -1.50000
AFIX   0
PART   0
C15   1    0.641983    0.014604    0.653209    11.00000    0.02843    0.01701 =
         0.02871    0.00099   -0.00543   -0.01126
AFIX 137
H15A  2    0.606280    0.011004    0.741006    11.00000   -1.50000
H15B  2    0.755959   -0.085508    0.640447    11.00000   -1.50000
H15D  2    0.532862    0.019714    0.614967    11.00000   -1.50000
AFIX   0
PART   2
C13'  1    0.450430    0.311180    0.971219   -21.00000    0.02760    0.05328 =
         0.01946    0.00225   -0.00823   -0.02182
AFIX  33
H13D  2    0.473462    0.313372    1.052825   -21.00000   -1.50000
H13G  2    0.361313    0.421343    0.934333   -21.00000   -1.50000
H13E  2    0.392729    0.229205    0.977732   -21.00000   -1.50000
AFIX   0
C14'  1    1.037360    0.165799    0.916290   -21.00000    0.02666    0.05460 =
         0.02458   -0.00083    0.00611   -0.01650
AFIX  33
H14D  2    1.138856    0.192630    0.938388   -21.00000   -1.50000
H14E  2    1.034906    0.061986    0.969268   -21.00000   -1.50000
H14F  2    1.065016    0.152699    0.830928   -21.00000   -1.50000
PART   0

AFIX   0
HKLF 4

REM  a_a.res in P-1
REM R1 =  0.0371 for    3286 Fo > 4sig(Fo)  and  0.0408 for all    3608 data
REM    189 parameters refined using      9 restraints

END

WGHT      0.0487      0.4512

REM Highest difference peak  0.473,  deepest hole -0.429,  1-sigma level  0.060
Q1    1   0.8618  0.3037  0.3239  11.00000  0.05    0.47
Q2    1   0.9442  0.1572  0.8742  11.00000  0.05    0.45
Q3    1   0.6937  0.5004  0.6292  11.00000  0.05    0.42
Q4    1   0.7276  0.1840  0.5298  11.00000  0.05    0.41
Q5    1   0.7586  0.4278  0.5420  11.00000  0.05    0.39
Q6    1   0.6065  0.2965  0.7234  11.00000  0.05    0.39
Q7    1   0.7797  0.2623  0.4471  11.00000  0.05    0.39
Q8    1   0.4244  0.3571  1.0321  11.00000  0.05    0.38
Q9    1   0.7857  0.5248  0.4568  11.00000  0.05    0.37
Q10   1   0.6642  0.2198  0.6317  11.00000  0.05    0.37
Q11   1   0.8006  0.3900  0.4452  11.00000  0.05    0.37
Q12   1   0.6815  0.3574  0.6332  11.00000  0.05    0.32
Q13   1   0.7427  0.2518  0.8931  11.00000  0.05    0.31
Q14   1   0.5217  0.0394  0.6956  11.00000  0.05    0.31
Q15   1   0.6696  0.0956  0.6260  11.00000  0.05    0.31
Q16   1   0.7701  0.1360  0.4278  11.00000  0.05    0.29
Q17   1   0.5373  0.3441  0.8255  11.00000  0.05    0.28
Q18   1   0.7636  0.3144  0.9573  11.00000  0.05    0.28
Q19   1   0.3711  0.2712  1.0254  11.00000  0.05    0.26
Q20   1   0.5552  0.3366  0.9213  11.00000  0.05    0.26
Q21   1   0.5714  0.2720  0.9556  11.00000  0.05    0.25
Q22   1   0.6056  0.2789  0.8400  11.00000  0.05    0.25
Q23   1   0.8446  0.2333  0.2677  11.00000  0.05    0.25
Q24   1   0.8546  0.4226  0.2688  11.00000  0.05    0.25
Q25   1   0.8624  0.1025  0.3307  11.00000  0.05    0.24
Q26   1   0.6303 -0.0431  0.5959  11.00000  0.05    0.23
Q27   1   0.8072  0.1254  0.3265  11.00000  0.05    0.23
Q28   1   0.7111 -0.0403  0.7329  11.00000  0.05    0.22
Q29   1   0.2772  0.3259  1.0336  11.00000  0.05    0.21
Q30   1   0.5807  0.2891  1.0640  11.00000  0.05    0.20
Q31   1   0.7828  0.6498  0.4887  11.00000  0.05    0.18
Q32   1   0.6278  0.1626  1.0139  11.00000  0.05    0.18
Q33   1   0.9787  0.3232  0.2439  11.00000  0.05    0.17
Q34   1   0.8330  0.3363  0.8974  11.00000  0.05    0.16
Q35   1   0.2778  0.1372  0.9767  11.00000  0.05    0.16
Q36   1   0.5666  0.1184  1.0749  11.00000  0.05    0.15
Q37   1   0.8406  0.6188  0.3966  11.00000  0.05    0.15
Q38   1   0.7750  0.5782  0.6823  11.00000  0.05    0.14
Q39   1   0.2213  0.2714  0.9490  11.00000  0.05    0.14
Q40   1   0.6992  0.6390  0.5871  11.00000  0.05    0.14
Q41   1   0.7567  0.6601  0.3818  11.00000  0.05    0.13
Q42   1   0.8853  0.2214  0.9444  11.00000  0.05    0.13
Q43   1   0.7278  0.7285  0.5380  11.00000  0.05    0.13
Q44   1   0.7482  0.3806  0.2408  11.00000  0.05    0.13
Q45   1   0.6027  0.6448  0.6914  11.00000  0.05    0.13
Q46   1   0.8390  0.1322  0.2501  11.00000  0.05    0.12
Q47   1   0.8728  0.5983  0.3040  11.00000  0.05    0.12
Q48   1   0.9311  0.6574  0.6171  11.00000  0.05    0.12
Q49   1   0.6924 -0.0457  0.5199  11.00000  0.05    0.12
Q50   1   0.2455  0.2648  1.1150  11.00000  0.05    0.12
;
_shelx_res_checksum              89684
_shelx_hkl_file
;
  -1   0   0  221.38    3.10
  -1   0   0  225.38    3.00
   1   0   0  223.38    3.10
   1   0   0  221.78    3.00
  -2   0   0 2266.07   32.30
  -2   0   0 2291.07   30.50
   2   0   0 2302.87   30.40
  -3   0   0  556.74    7.30
  -3   0   0  552.14    7.80
   3   0   0  545.65    7.70
  -4   0   0    2.70    0.40
  -4   0   0    2.60    0.20
   4   0   0    2.40    0.30
  -5   0   0   65.19    1.20
  -5   0   0   63.59    1.80
   5   0   0   64.29    1.70
  -6   0   0  110.89    2.70
   6   0   0  116.49    2.70
  -7   0   0    2.20    0.60
   7   0   0    1.90    0.50
  -8   0   0    9.00    1.10
   8   0   0    8.90    1.00
  -9   0   0    8.30    1.20
   9   0   0    7.40    1.00
 -10   0   0    0.20    0.60
  10   0   0    0.30    0.50
 -11   0   0   24.70    1.90
  11   0   0   19.30    1.50
  11  -1   0    1.10    1.10
  10  -1   0   19.50    1.60
 -10   1   0   21.30    1.70
   9  -1   0   43.30    2.00
  -9   1   0   40.80    2.10
   8  -1   0   11.30    1.20
  -8   1   0   13.60    1.30
   7  -1   0   20.30    1.20
  -7   1   0   19.30    1.30
   6  -1   0   43.40    1.60
  -6   1   0   39.30    1.60
   5  -1   0   91.39    2.20
  -5   1   0   86.89    2.20
   4  -1   0   16.70    0.80
  -4   1   0   16.50    0.40
  -4   1   0   17.10    0.80
   3  -1   0  156.78    2.80
  -3   1   0  162.08    2.20
  -3   1   0  162.08    2.80
   2  -1   0   67.99    1.40
  -2   1   0   66.19    1.00
  -2   1   0   67.29    1.30
   1  -1   0 1316.27   17.20
  -1   1   0 1324.47   17.60
  -1   1   0 1307.57   17.70
   0  -1   0  541.15    7.20
   0   1   0  522.35    7.10
   0   1   0  549.74    7.20
  -1  -1   0  705.63    9.30
  -1  -1   0  686.43    9.20
   1   1   0  690.63    9.30
  -2  -1   0  540.85    7.20
  -2  -1   0  535.85    7.30
   2   1   0  530.35    7.20
  -3  -1   0  800.32   10.90
  -3  -1   0  800.42   10.70
   3   1   0  804.22   10.80
  -4  -1   0  127.49    2.50
  -4  -1   0  126.79    2.10
   4   1   0  126.69    2.30
  -5  -1   0   31.30    1.20
  -5  -1   0   32.80    0.90
   5   1   0   31.30    1.10
  -6  -1   0   31.60    0.90
  -6  -1   0   31.50    1.30
   6   1   0   31.50    1.20
  -7  -1   0    1.50    0.50
   7   1   0    2.20    0.50
  -8  -1   0   31.60    1.60
   8   1   0   30.80    1.50
  -9  -1   0   17.00    1.40
   9   1   0   15.10    1.20
 -10  -1   0   14.60    1.50
  10   1   0   12.30    1.30
 -11  -1   0    7.30    1.20
  11   1   0   10.30    1.20
  10  -2   0    9.80    1.30
 -10   2   0   10.70    1.50
   9  -2   0    7.80    1.10
  -9   2   0    8.40    1.30
   8  -2   0    4.90    0.80
  -8   2   0    3.30    0.80
   7  -2   0   25.20    1.40
  -7   2   0   28.00    1.60
   6  -2   0   85.29    2.40
  -6   2   0   80.49    2.40
   5  -2   0    3.40    0.50
  -5   2   0    4.30    0.60
   4  -2   0    1.50    0.40
  -4   2   0    0.70    0.30
   3  -2   0  596.14    8.70
   3  -2   0  607.14    8.00
  -3   2   0  605.84    8.70
   2  -2   0    2.90    0.20
  -2   2   0    2.70    0.30
  -2   2   0    2.10    0.30
   1  -2   0    0.90    0.10
  -1   2   0    0.90    0.20
  -1   2   0    1.10    0.20
   0  -2   0 2821.82   36.90
   0   2   0 2834.92   45.60
   0   2   0 2753.12   41.60
  -1  -2   0  608.64    8.30
   1   2   0  613.24    8.20
   1   2   0  621.44    8.10
  -2  -2   0   74.19    1.30
   2   2   0   78.89    1.30
  -3  -2   0   59.89    1.20
  -3  -2   0   57.79    1.20
   3   2   0   57.39    1.20
  -4  -2   0    4.80    0.40
  -4  -2   0    4.40    0.40
   4   2   0    3.70    0.30
  -5  -2   0  208.68    3.40
  -5  -2   0  207.68    3.70
   5   2   0  201.18    3.50
  -6  -2   0    6.80    0.50
  -6  -2   0    6.10    0.70
   6   2   0    6.30    0.60
  -7  -2   0    0.20    0.40
  -7  -2   0    0.40    0.20
   7   2   0    0.60    0.30
  -8  -2   0   19.90    1.30
   8   2   0   19.80    1.10
  -9  -2   0   -0.40    0.50
   9   2   0    0.50    0.50
 -10  -2   0   -0.90    0.50
  10   2   0    0.50    0.50
 -11  -2   0   -0.10    0.50
  11   2   0    0.20    0.60
  10  -3   0    0.20    1.10
   9  -3   0    3.80    0.90
  -9   3   0    4.70    1.00
   8  -3   0    2.30    0.70
  -8   3   0    2.30    0.80
   7  -3   0   20.00    1.30
  -7   3   0   19.80    1.40
   6  -3   0   12.00    1.00
  -6   3   0   11.10    1.00
   5  -3   0    5.70    0.70
  -5   3   0    5.60    0.70
   4  -3   0  163.28    3.30
  -4   3   0  162.78    3.30
   3  -3   0    5.90    0.50
   3  -3   0    7.20    0.30
  -3   3   0    7.00    0.60
   2  -3   0  198.68    3.00
  -2   3   0  194.38    3.40
  -2   3   0  202.28    3.30
   1  -3   0   31.60    0.80
  -1   3   0   33.70    0.90
  -1   3   0   30.40    0.80
   0  -3   0  986.60   13.20
   0   3   0  974.40   13.20
   0   3   0  998.50   13.30
  -1  -3   0   31.90    0.80
   1   3   0   30.80    0.60
   1   3   0   31.50    0.80
   2   3   0   41.60    0.80
   2   3   0   39.30    0.90
  -3  -3   0  879.41   11.80
  -3  -3   0  891.01   12.10
   3   3   0  871.01   11.80
  -4  -3   0   77.49    1.60
  -4  -3   0   76.09    1.70
   4   3   0   71.99    1.50
  -5  -3   0   21.20    0.80
  -5  -3   0   20.60    0.90
   5   3   0   22.50    0.80
  -6  -3   0   26.90    1.10
  -6  -3   0   29.00    1.00
   6   3   0   26.90    1.00
  -7  -3   0    8.10    0.60
  -7  -3   0    8.80    0.90
   7   3   0    8.50    0.70
  -8  -3   0   95.09    2.70
   8   3   0   99.79    2.50
  -9  -3   0    6.70    1.00
   9   3   0    7.80    0.90
 -10  -3   0    7.80    1.10
  10   3   0    8.30    1.00
 -11  -3   0   10.00    1.30
  11   3   0    9.70    1.10
   9  -4   0    0.60    0.70
  -9   4   0    0.80    0.70
   8  -4   0    7.80    1.10
  -8   4   0   10.80    1.40
   7  -4   0   28.50    1.70
  -7   4   0   30.60    1.80
   6  -4   0    1.40    0.60
  -6   4   0    1.10    0.60
   5  -4   0   49.99    1.80
  -5   4   0   46.60    1.80
   4  -4   0   54.79    1.80
  -4   4   0   52.09    1.70
   3  -4   0   50.99    1.60
   3  -4   0   49.10    1.10
  -3   4   0   50.89    1.50
   2  -4   0   60.19    1.30
  -2   4   0   58.59    1.50
  -2   4   0   59.39    1.60
   1  -4   0  427.56    6.20
  -1   4   0  440.26    6.20
  -1   4   0  424.26    6.40
   0  -4   0   42.20    1.10
   0   4   0   42.40    0.90
   0   4   0   44.30    1.10
  -1  -4   0  802.42   11.40
   1   4   0  836.92   11.10
   1   4   0  834.12   11.20
  -2  -4   0  420.66    6.30
   2   4   0  423.56    6.00
   2   4   0  421.66    5.80
  -3  -4   0  546.95    8.00
   3   4   0  567.14    7.60
   3   4   0  542.35    7.70
  -4  -4   0   10.00    0.50
  -4  -4   0   10.10    0.60
   4   4   0   10.00    0.50
  -5  -4   0  293.87    4.70
  -5  -4   0  295.47    4.80
   5   4   0  281.07    4.50
  -6  -4   0   27.10    1.10
  -6  -4   0   27.70    1.10
   6   4   0   26.10    1.00
  -7  -4   0   18.10    1.10
  -7  -4   0   18.50    1.00
   7   4   0   18.50    0.90
  -8  -4   0    5.30    0.60
  -8  -4   0    5.50    0.80
   8   4   0    5.40    0.70
  -9  -4   0   13.40    1.20
   9   4   0   15.50    1.10
 -10  -4   0    5.50    1.00
  10   4   0    4.40    0.80
 -11  -4   0   29.30    1.80
 -12  -4   0   26.20    1.90
   8  -5   0    1.50    0.70
  -8   5   0    2.10    0.80
   7  -5   0    9.30    1.20
  -7   5   0   10.70    1.30
   6  -5   0   41.10    1.90
  -6   5   0   39.70    1.90
   5  -5   0   63.29    2.20
  -5   5   0   62.69    2.10
   4  -5   0   77.69    2.30
  -4   5   0   77.59    2.20
   3  -5   0   84.79    2.30
   3  -5   0   85.69    1.70
  -3   5   0   88.29    2.20
   2  -5   0  102.99    2.00
  -2   5   0  104.59    2.40
  -2   5   0   99.29    2.20
   1  -5   0   34.40    1.10
  -1   5   0   32.30    1.10
  -1   5   0   33.50    1.00
   0  -5   0   64.89    1.60
   0   5   0   65.89    1.40
   0   5   0   62.19    1.60
  -1  -5   0   35.70    1.10
   1   5   0   36.00    0.80
   1   5   0   33.80    1.00
  -2  -5   0  143.89    2.90
   2   5   0  154.98    2.40
   2   5   0  151.28    2.60
  -3  -5   0  116.59    2.50
   3   5   0  114.79    2.10
   3   5   0  115.99    2.00
  -4  -5   0    0.20    0.30
   4   5   0    0.20    0.20
   4   5   0    0.80    0.20
  -5  -5   0   37.30    1.30
   5   5   0   36.70    1.10
   5   5   0   36.30    1.10
  -6  -5   0   19.20    1.00
  -6  -5   0   18.20    0.90
   6   5   0   18.40    0.90
  -7  -5   0    0.10    0.30
  -7  -5   0    0.10    0.40
   7   5   0    0.10    0.30
  -8  -5   0   37.40    1.50
  -8  -5   0   34.80    1.50
   8   5   0   35.60    1.40
  -9  -5   0    9.20    1.00
  -9  -5   0   11.60    1.10
   9   5   0   10.70    0.90
 -10  -5   0    8.60    1.10
  10   5   0   10.80    1.00
 -11  -5   0   22.30    1.60
 -12  -5   0   -0.20    0.60
   8  -6   0    4.60    1.00
  -8   6   0    5.60    1.10
   7  -6   0   16.70    1.60
  -7   6   0   13.80    1.50
   6  -6   0   -0.50    0.50
  -6   6   0    0.50    0.50
   5  -6   0    0.20    0.50
  -5   6   0   -0.40    0.30
   4  -6   0   54.49    2.10
  -4   6   0   57.49    2.00
   3  -6   0    7.60    0.90
  -3   6   0   10.10    0.80
   2  -6   0   60.89    1.60
  -2   6   0   60.89    1.70
  -2   6   0   60.09    1.90
   1  -6   0  261.27    4.30
  -1   6   0  254.47    4.20
  -1   6   0  258.17    4.60
   0  -6   0    8.50    0.70
   0   6   0    8.10    0.50
   0   6   0    8.70    0.70
  -1  -6   0  147.39    3.00
   1   6   0  149.49    2.50
   1   6   0  152.58    2.90
  -2  -6   0   67.99    1.80
   2   6   0   65.99    1.60
   2   6   0   66.39    1.30
  -3  -6   0   27.30    1.20
   3   6   0   30.50    1.00
   3   6   0   29.00    0.80
  -4  -6   0  128.79    2.80
   4   6   0  127.59    2.30
   4   6   0  124.89    2.40
  -5  -6   0   17.00    1.00
   5   6   0   16.60    0.80
   5   6   0   16.50    0.70
  -6  -6   0   23.20    1.20
   6   6   0   21.50    0.90
   6   6   0   23.20    0.90
  -7  -6   0   33.20    1.40
   7   6   0   33.10    1.20
   7   6   0   34.30    1.30
  -8  -6   0   57.29    2.00
  -8  -6   0   54.19    1.90
   8   6   0   57.89    1.80
  -9  -6   0   11.50    1.10
  -9  -6   0   11.50    1.10
   9   6   0   10.90    0.90
 -10  -6   0   59.69    2.30
 -11  -6   0    0.70    0.60
 -12  -6   0    0.90    0.60
   7  -7   0    5.30    1.10
  -7   7   0    6.80    1.10
   6  -7   0    0.70    0.60
  -6   7   0    1.00    0.60
   5  -7   0    1.50    0.70
  -5   7   0    1.10    0.60
   4  -7   0    3.40    0.80
  -4   7   0    3.80    0.70
   3  -7   0  115.19    3.10
  -3   7   0  119.79    2.90
   2  -7   0   39.80    1.30
  -2   7   0   39.90    1.60
  -2   7   0   36.20    1.40
   1  -7   0  148.89    3.00
  -1   7   0  147.89    2.90
  -1   7   0  147.69    3.30
   0  -7   0   32.10    1.30
   0   7   0   31.70    1.30
   0   7   0   32.70    1.10
  -1  -7   0    2.00    0.50
   1   7   0    0.80    0.30
   1   7   0    1.90    0.30
  -2  -7   0    1.60    0.50
   2   7   0    1.20    0.40
   2   7   0    1.80    0.30
   3   7   0   66.39    1.70
   3   7   0   67.79    1.40
  -4  -7   0    5.60    0.70
   4   7   0    4.00    0.40
   4   7   0    4.10    0.50
  -5  -7   0   33.10    1.50
   5   7   0   33.30    1.10
   5   7   0   31.50    1.00
  -6  -7   0   21.20    1.20
   6   7   0   21.50    1.00
   6   7   0   20.70    0.90
  -7  -7   0   20.60    1.30
   7   7   0   20.90    1.00
   7   7   0   19.10    0.90
  -8  -7   0   37.00    1.70
   8   7   0   37.80    1.40
   8   7   0   37.50    1.40
  -9  -7   0    2.80    0.70
   9   7   0    1.60    0.50
   9   7   0    2.80    0.60
 -10  -7   0   39.10    2.60
  10   7   0   42.00    1.80
  11   7   0   10.20    1.10
  12   7   0    0.40    0.50
   6  -8   0    2.80    0.90
  -6   8   0    3.70    0.90
   5  -8   0    0.60    0.70
  -5   8   0    0.40    0.60
   4  -8   0   27.40    1.70
  -4   8   0   28.10    1.50
   3  -8   0    2.00    0.70
  -3   8   0    2.60    0.60
  -2   8   0  317.97    5.50
  -2   8   0  321.37    6.10
   1  -8   0   23.90    1.20
  -1   8   0   20.70    1.20
  -1   8   0   21.50    1.00
   0  -8   0   22.30    1.20
   0   8   0   25.30    1.00
   0   8   0   22.70    1.20
  -1  -8   0   60.09    1.90
   1   8   0   59.39    1.40
   1   8   0   55.99    1.80
  -2  -8   0    7.20    0.80
   2   8   0    6.70    0.70
   2   8   0    7.20    0.50
  -3  -8   0    0.80    0.50
   3   8   0    1.70    0.30
   3   8   0    0.60    0.30
  -4  -8   0   15.70    1.10
   4   8   0   14.80    0.60
   4   8   0   14.20    0.80
  -5  -8   0    2.00    0.60
   5   8   0    3.20    0.50
   5   8   0    3.50    0.40
  -6  -8   0   14.40    1.20
   6   8   0   15.70    0.80
   6   8   0   16.60    0.90
  -7  -8   0    2.20    0.60
   7   8   0    2.80    0.50
   7   8   0    2.90    0.50
  -8  -8   0   19.50    1.40
   8   8   0   20.30    1.10
   8   8   0   18.80    1.00
  -9  -8   0    5.20    0.90
   9   8   0    4.90    0.70
 -10  -8   0    8.80    1.20
  10   8   0   10.50    1.00
   5  -9   0    0.00    0.60
   4  -9   0    0.50    0.60
  -4   9   0    0.80    0.60
   3  -9   0   40.90    2.10
  -3   9   0   38.10    1.70
  -2   9   0    2.70    0.70
  -2   9   0    2.10    0.60
   1  -9   0    4.40    0.70
  -1   9   0    4.90    0.70
  -1   9   0    3.70    0.70
   0  -9   0   23.00    1.30
   0   9   0   24.70    1.00
   0   9   0   24.40    1.30
  -1  -9   0   53.59    2.00
   1   9   0   53.69    1.50
   1   9   0   55.59    1.90
  -2  -9   0    6.50    0.90
   2   9   0    7.40    0.80
  -3  -9   0    3.60    0.70
   3   9   0    3.70    0.60
  -4  -9   0   11.40    1.10
   4   9   0   10.80    0.80
  -5  -9   0   28.50    1.60
   5   9   0   29.70    1.20
  -6  -9   0    7.30    1.00
   6   9   0    8.90    0.70
  -7  -9   0   27.00    1.60
   7   9   0   26.50    1.20
  -8  -9   0   23.00    1.60
   8   9   0   21.10    1.70
  -9  -9   0    6.30    1.00
 -10  -9   0    4.20    0.90
   4 -10   0    2.90    0.90
   3 -10   0    0.70    0.70
   2 -10   0   27.10    1.70
  -1  10   0    3.00    0.70
   0 -10   0   20.70    1.40
   0  10   0   17.50    1.30
  -1 -10   0    3.40    0.80
   1  10   0    4.20    0.70
  -2 -10   0    2.60    0.70
   2  10   0    5.80    0.80
  -3 -10   0   67.09    2.40
   3  10   0   70.59    2.20
  -4 -10   0    0.30    0.60
   4  10   0    1.40    0.50
  -5 -10   0    8.20    1.10
   5  10   0    8.80    0.90
  -6 -10   0   10.40    1.20
   6  10   0   11.30    0.90
  -7 -10   0   23.60    1.70
   7  10   0   20.60    1.10
  -8 -10   0   11.30    1.30
  -9 -10   0    5.40    1.10
 -10 -10   0    0.10    0.70
 -11 -10   0   52.09    2.50
   3 -11   0    1.50    0.70
   2 -11   0   12.30    1.40
  -1  11   0    6.50    1.00
   0 -11   0    1.00    1.00
   0  11   0    0.20    0.50
  -1 -11   0   59.49    2.30
   1  11   0   58.19    2.20
  -2 -11   0   23.00    1.60
   2  11   0   22.40    1.40
  -3 -11   0   10.70    1.30
   3  11   0   13.10    1.20
  -4 -11   0   13.90    1.40
   4  11   0   16.10    1.10
  -5 -11   0    5.50    1.00
   5  11   0    7.60    0.90
  -6 -11   0    1.20    0.70
   6  11   0    1.50    0.50
  -7 -11   0   23.50    1.70
  -8 -11   0    0.00    0.70
  -9 -11   0   12.40    1.60
 -10 -11   0    9.60    1.40
 -11 -11   0   20.70    2.70
   2 -12   0    0.10    0.80
   1 -12   0   20.60    1.70
   0  12   0   42.70    2.10
  -1 -12   0   31.10    1.80
   1  12   0   32.20    1.80
  -2 -12   0    7.40    1.10
   2  12   0    7.30    1.00
  -3 -12   0   19.80    1.70
   3  12   0   17.80    1.30
  -4 -12   0    2.30    0.90
   4  12   0    3.70    0.80
  -5 -12   0    8.10    1.20
   5  12   0    7.80    0.90
  -6 -12   0   23.60    1.80
  -7 -12   0    0.70    0.80
  -8 -12   0    0.70    0.70
  -9 -12   0   -1.10    0.60
   0  13   0    0.50    0.60
   1  13   0    1.10    0.70
  -2 -13   0   -0.10    0.70
   2  13   0    0.80    0.60
  -3 -13   0    0.20    0.60
   3  13   0    0.50    0.50
  -4 -13   0    5.00    1.10
   4  13   0    6.20    0.90
  -5 -13   0   -0.40    0.70
  -6 -13   0    0.70    0.80
  -7 -13   0    3.10    1.00
  -8 -13   0    2.90    1.00
   2  14   0    1.40    0.70
  -3 -14   0    7.60    1.30
  -4 -14   0   -0.70    0.70
  -5 -14   0    1.90    0.90
  -6 -14   0    7.90    2.20
  -4 -14   1    4.90    1.60
   3  14  -1    2.80    0.90
  -3 -14   1    4.30    1.20
  -7 -13   1    0.50    0.70
  -6 -13   1    1.70    0.90
   5  13  -1    8.60    1.30
  -5 -13   1    6.90    1.30
   4  13  -1   -0.50    0.40
  -4 -13   1   -1.10    0.60
   3  13  -1    0.00    0.50
  -3 -13   1   -0.40    0.60
   2  13  -1    7.20    1.10
  -2 -13   1    6.80    1.20
   1  13  -1   -0.70    0.50
   0  13  -1   -0.60    0.70
  -9 -12   1   11.50    1.50
  -8 -12   1   18.40    1.70
  -7 -12   1   -0.10    0.70
   6  12  -1   -0.70    0.40
  -6 -12   1   -0.40    0.60
   5  12  -1    0.40    0.50
  -5 -12   1   -0.80    0.60
   4  12  -1   30.10    1.60
  -4 -12   1   28.90    1.90
   3  12  -1    3.80    0.80
  -3 -12   1    3.50    0.90
   2  12  -1    2.30    0.70
  -2 -12   1    4.20    1.00
   1  12  -1   13.20    1.40
  -1 -12   1   12.80    1.40
   0  12  -1    4.90    1.00
  -1  12  -1   22.50    1.70
 -10 -11   1    9.60    1.40
  -9 -11   1   55.79    2.70
  -8 -11   1    2.20    0.90
   7  11  -1   17.30    1.30
  -7 -11   1   20.20    1.70
   6  11  -1    2.10    0.60
  -6 -11   1    3.20    0.90
   5  11  -1    3.90    0.70
  -5 -11   1    3.30    0.90
   4  11  -1   -0.10    0.50
  -4 -11   1    0.60    0.70
   3  11  -1    4.20    0.80
  -3 -11   1    4.30    0.90
   2  11  -1   14.40    1.20
  -2 -11   1   13.50    1.40
   1  11  -1   15.80    1.40
  -1 -11   1   17.40    1.50
   0  11  -1   25.10    1.70
   0 -11   1   23.70    1.60
  -1  11  -1   28.50    1.80
   2 -11   1    1.40    0.70
   3 -11   1    4.20    1.00
 -10 -10   1    0.20    0.70
  -9 -10   1   80.39    3.10
  -8 -10   1    2.70    0.90
   7  10  -1   12.50    1.00
  -7 -10   1   12.50    1.40
   6  10  -1   32.00    1.50
  -6 -10   1   32.90    2.00
   5  10  -1    6.10    0.80
  -5 -10   1    7.40    1.10
   4  10  -1   13.70    1.00
  -4 -10   1   10.10    1.20
   3  10  -1    0.90    0.50
  -3 -10   1    0.50    0.60
   2  10  -1    1.10    0.50
  -2 -10   1   -0.50    0.50
   1  10  -1   41.30    1.80
  -1 -10   1   40.20    1.90
   0  10  -1    0.80    0.50
   0 -10   1    0.70    0.60
  -1  10  -1    0.00    0.50
  -2  10  -1    6.00    1.00
   3 -10   1    0.10    0.60
   4 -10   1    8.50    1.20
 -10  -9   1    2.10    0.70
  -9  -9   1    0.50    0.60
   8   9  -1   23.30    1.30
  -8  -9   1   21.70    1.60
   7   9  -1    7.80    0.80
  -7  -9   1    6.90    1.00
   6   9  -1   44.40    1.60
  -6  -9   1   43.60    2.10
   5   9  -1    5.10    0.70
  -5  -9   1    4.50    0.90
   4   9  -1    0.50    0.30
  -4  -9   1    0.30    0.50
   3   9  -1   28.50    1.30
  -3  -9   1   31.30    1.60
   2   9  -1    2.70    0.60
  -2  -9   1    3.70    0.70
   1   9  -1   15.70    1.10
  -1  -9   1   14.60    1.10
   0   9  -1    2.90    0.60
   0  -9   1    3.40    0.70
  -1   9  -1   18.20    1.30
   1  -9   1   19.60    1.30
  -2   9  -1   21.80    1.40
   3  -9   1    1.10    0.70
   4  -9   1    0.50    0.70
   5  -9   1   22.60    1.80
 -10  -8   1    6.00    1.00
   9   8  -1   24.20    1.30
  -9  -8   1   26.20    1.60
   8   8  -1    1.50    0.50
  -8  -8   1    0.20    0.50
   7   8  -1    9.70    0.80
  -7  -8   1    8.10    1.00
   6   8  -1   45.40    1.50
  -6  -8   1   47.80    2.00
   5   8  -1   45.20    1.50
  -5  -8   1   42.80    1.80
   4   8  -1   18.60    1.00
  -4  -8   1   17.50    1.20
   3   8  -1   -0.10    0.30
  -3  -8   1    0.30    0.40
   2   8  -1   14.10    0.90
   2   8  -1   12.40    0.60
  -2  -8   1   13.60    1.10
   1   8  -1    0.30    0.20
   1   8  -1    0.20    0.40
  -1  -8   1   -0.20    0.40
   0   8  -1    8.60    0.60
   0   8  -1    6.50    0.80
   0  -8   1    8.90    0.90
  -1   8  -1   42.30    1.40
  -1   8  -1   45.80    1.80
   1  -8   1   43.30    1.60
  -2   8  -1   53.39    1.70
  -2   8  -1   57.49    2.10
   2  -8   1   56.79    2.30
  -3   8  -1    1.90    0.60
  -3   8  -1    0.40    0.40
  -4   8  -1  167.58    3.90
   4  -8   1  163.78    4.30
  -5   8  -1    1.80    0.60
   5  -8   1    0.40    0.60
  -6   8  -1   17.60    1.70
   6  -8   1   17.20    1.60
  10   7  -1    4.10    0.70
   9   7  -1    0.60    0.40
   9   7  -1    0.20    0.40
  -9  -7   1    0.90    0.50
   8   7  -1  103.79    2.50
   8   7  -1  110.29    2.70
  -8  -7   1  110.69    3.00
   7   7  -1    2.40    0.40
   7   7  -1    1.80    0.40
  -7  -7   1    2.00    0.60
   6   7  -1   90.89    2.00
   6   7  -1   92.29    2.20
  -6  -7   1   88.59    2.60
   5   7  -1    0.60    0.20
   5   7  -1    0.20    0.30
  -5  -7   1    0.40    0.40
   4   7  -1    1.80    0.40
   4   7  -1    2.00    0.30
  -4  -7   1    1.60    0.50
   3   7  -1   58.79    1.20
   3   7  -1   58.09    1.60
  -3  -7   1   58.39    1.90
   2   7  -1    0.20    0.30
   2   7  -1    0.50    0.20
  -2  -7   1    0.10    0.30
   1   7  -1  139.09    3.00
   1   7  -1  138.19    2.40
  -1  -7   1  142.49    3.10
   0   7  -1    0.70    0.40
   0   7  -1    0.20    0.20
   0  -7   1    0.40    0.40
  -1   7  -1    4.50    0.50
  -1   7  -1    5.20    0.70
   1  -7   1    4.40    0.60
  -2   7  -1    3.70    0.50
  -2   7  -1    2.20    0.60
   2  -7   1    2.10    0.50
  -3   7  -1   82.79    2.30
  -3   7  -1   79.59    2.50
  -4   7  -1   39.90    1.70
   4  -7   1   38.80    1.90
  -5   7  -1   52.79    2.10
   5  -7   1   51.89    2.30
  -6   7  -1    1.00    0.60
   6  -7   1    1.20    0.70
  -7   7  -1    2.20    0.80
   7  -7   1    0.70    0.80
 -12  -6   1    0.90    0.60
 -11  -6   1    4.00    0.80
  10   6  -1    0.60    0.50
 -10  -6   1    0.60    0.50
   9   6  -1    0.90    0.50
  -9  -6   1    1.10    0.50
  -9  -6   1    1.30    0.50
   8   6  -1  195.18    3.90
  -8  -6   1  199.38    4.20
  -8  -6   1  192.08    3.90
   7   6  -1   16.10    0.90
  -7  -6   1   15.20    0.90
  -7  -6   1   13.30    1.00
   6   6  -1   38.00    1.30
   6   6  -1   40.40    1.20
  -6  -6   1   37.10    1.50
   5   6  -1  237.88    3.80
   5   6  -1  237.38    4.10
  -5  -6   1  232.08    4.50
   4   6  -1   24.70    1.00
   4   6  -1   24.90    0.70
  -4  -6   1   24.60    1.20
   3   6  -1    0.30    0.20
   3   6  -1    0.60    0.20
  -3  -6   1    0.50    0.30
   2   6  -1   95.29    2.10
   2   6  -1   98.29    1.70
  -2  -6   1   99.79    2.40
   1   6  -1   50.59    1.50
   1   6  -1   51.99    1.10
  -1  -6   1   49.20    1.50
   0   6  -1  111.99    2.50
   0   6  -1  110.89    2.00
   0  -6   1  116.19    2.50
  -1   6  -1  180.88    3.60
  -1   6  -1  178.38    3.10
   1  -6   1  182.98    3.40
  -2   6  -1   39.90    1.30
  -2   6  -1   36.40    1.50
   2  -6   1   40.30    1.30
  -3   6  -1   64.39    2.10
  -3   6  -1   67.49    1.90
   3  -6   1   64.89    1.70
  -4   6  -1   15.10    1.00
   4  -6   1   16.40    1.20
  -5   6  -1   13.10    1.10
   5  -6   1   11.60    1.20
  -6   6  -1   31.50    1.70
   6  -6   1   29.80    1.80
  -7   6  -1   -0.40    0.50
   7  -6   1    0.40    0.70
  -8   6  -1    0.90    0.80
   8  -6   1   -0.80    0.60
 -12  -5   1   -0.10    0.60
 -11  -5   1   42.30    2.10
  10   5  -1    5.80    0.80
 -10  -5   1    4.90    0.90
   9   5  -1   10.40    1.00
  -9  -5   1    8.30    1.00
   8   5  -1   37.70    1.50
  -8  -5   1   34.80    1.50
  -8  -5   1   37.10    1.50
   7   5  -1    3.80    0.60
  -7  -5   1    2.40    0.50
  -7  -5   1    3.30    0.50
   6   5  -1   25.40    1.10
  -6  -5   1   25.50    1.00
  -6  -5   1   25.50    1.20
   5   5  -1   52.49    1.40
  -5  -5   1   52.39    1.40
  -5  -5   1   52.39    1.60
   4   5  -1  107.59    1.90
   4   5  -1  103.39    2.20
  -4  -5   1  105.89    2.40
   3   5  -1  101.89    2.00
   3   5  -1  102.99    1.70
  -3  -5   1   99.99    2.30
   2   5  -1   23.30    0.60
   2   5  -1   24.40    0.90
  -2  -5   1   22.40    1.00
   1   5  -1   11.20    0.40
   1   5  -1   10.20    0.60
  -1  -5   1   10.20    0.70
   0   5  -1  168.98    2.60
   0   5  -1  163.28    3.10
   0  -5   1  166.58    3.10
  -1   5  -1   40.60    1.10
  -1   5  -1   40.50    1.30
   1  -5   1   39.30    1.20
  -2   5  -1    8.00    0.70
  -2   5  -1    7.90    0.60
   2  -5   1    9.00    0.60
  -3   5  -1   22.30    1.00
  -3   5  -1   21.50    1.10
   3  -5   1   21.80    0.90
  -4   5  -1   89.09    2.40
   4  -5   1   89.99    2.50
  -5   5  -1   50.39    1.90
   5  -5   1   46.90    1.90
  -6   5  -1   20.40    1.40
   6  -5   1   16.40    1.30
  -7   5  -1   34.80    1.90
   7  -5   1   33.50    1.90
  -8   5  -1   12.80    1.50
   8  -5   1   12.50    1.40
 -12  -4   1   26.10    2.30
  11   4  -1   45.90    2.10
 -11  -4   1   48.60    2.30
  10   4  -1   54.79    2.10
 -10  -4   1   49.90    2.20
   9   4  -1   18.30    1.20
  -9  -4   1   21.40    1.40
   8   4  -1   69.19    2.10
  -8  -4   1   66.89    2.20
  -8  -4   1   67.19    1.90
   7   4  -1   11.90    0.80
  -7  -4   1   12.80    0.80
  -7  -4   1   13.00    0.90
   6   4  -1    2.40    0.40
  -6  -4   1    2.00    0.40
  -6  -4   1    1.60    0.40
   5   4  -1  214.18    3.70
  -5  -4   1  218.38    3.70
  -5  -4   1  211.78    3.80
   4   4  -1   40.40    1.10
  -4  -4   1   40.10    1.00
  -4  -4   1   41.80    1.30
   3   4  -1  353.96    5.30
   3   4  -1  348.77    5.00
  -3  -4   1  355.96    5.50
   2   4  -1   14.10    0.60
   2   4  -1   13.40    0.40
  -2  -4   1   14.50    0.70
   1   4  -1  938.61   12.30
   1   4  -1  924.11   12.60
  -1  -4   1  908.51   12.70
   0   4  -1  567.94    7.60
   0   4  -1  566.34    8.10
   0  -4   1  560.04    8.00
  -1   4  -1  593.24    8.30
  -1   4  -1  606.24    8.70
   1  -4   1  595.04    8.40
  -2   4  -1   28.40    0.90
  -2   4  -1   29.00    1.10
   2  -4   1   29.60    0.90
  -3   4  -1  107.19    2.40
  -3   4  -1  104.69    2.50
   3  -4   1  106.59    2.00
  -4   4  -1   22.90    1.10
   4  -4   1   22.50    1.20
   4  -4   1   22.90    1.00
  -5   4  -1   12.20    1.00
   5  -4   1   15.20    1.10
  -6   4  -1   32.70    1.60
   6  -4   1   29.90    1.60
  -7   4  -1   26.80    1.70
   7  -4   1   27.00    1.60
  -8   4  -1    0.00    0.60
   8  -4   1    0.50    0.60
  -9   4  -1   16.00    1.70
   9  -4   1   12.50    1.40
  11   3  -1   33.50    1.80
 -11  -3   1   35.40    2.10
  10   3  -1    2.30    0.70
 -10  -3   1    2.00    0.70
   9   3  -1    0.20    0.50
  -9  -3   1   -0.10    0.50
   8   3  -1   13.70    1.00
  -8  -3   1   16.10    1.20
   7   3  -1    0.20    0.30
  -7  -3   1    0.60    0.40
  -7  -3   1    0.20    0.20
   6   3  -1   90.79    2.20
  -6  -3   1   88.49    2.20
  -6  -3   1   89.09    2.00
   5   3  -1   33.70    1.10
  -5  -3   1   33.30    1.10
  -5  -3   1   35.80    1.10
   4   3  -1   15.90    0.70
  -4  -3   1   14.00    0.60
  -4  -3   1   14.80    0.70
   3   3  -1    2.70    0.30
  -3  -3   1    2.50    0.30
  -3  -3   1    3.30    0.30
   2   3  -1  557.14    7.70
   2   3  -1  565.44    7.40
  -2  -3   1  554.54    7.90
   1   3  -1  311.27    4.60
   1   3  -1  320.97    4.20
  -1  -3   1  315.77    4.70
   0   3  -1   54.29    1.20
   0   3  -1   55.69    1.00
   0  -3   1   55.49    1.20
  -1   3  -1  179.08    2.80
  -1   3  -1  181.68    3.00
   1  -3   1  176.58    2.80
  -2   3  -1  247.58    3.90
  -2   3  -1  243.58    4.00
   2  -3   1  238.18    3.60
  -3   3  -1   41.70    1.30
  -3   3  -1   43.90    1.30
   3  -3   1   40.70    1.00
  -4   3  -1  155.38    3.20
   4  -3   1  160.38    3.30
   4  -3   1  160.08    2.50
  -5   3  -1    7.70    0.80
   5  -3   1    7.90    0.80
  -6   3  -1   35.20    1.60
   6  -3   1   31.10    1.50
  -7   3  -1    6.20    1.00
   7  -3   1    6.20    0.90
  -8   3  -1   -0.20    0.50
   8  -3   1   -0.80    0.40
  -9   3  -1   16.00    1.60
   9  -3   1   12.20    1.40
  10  -3   1    4.00    1.00
  11   2  -1   40.50    2.00
 -11  -2   1   37.30    2.10
  10   2  -1    3.90    0.80
 -10  -2   1    4.70    0.90
   9   2  -1    3.90    0.80
  -9  -2   1    3.90    0.80
   8   2  -1   19.60    1.20
  -8  -2   1   20.60    1.30
   7   2  -1    1.00    0.40
  -7  -2   1    1.40    0.50
   6   2  -1  115.29    2.50
  -6  -2   1  117.19    2.70
  -6  -2   1  114.49    2.20
   5   2  -1   77.59    1.80
  -5  -2   1   80.59    1.90
  -5  -2   1   80.69    1.70
   4   2  -1    0.50    0.20
  -4  -2   1    0.60    0.20
  -4  -2   1    0.40    0.20
   3   2  -1  191.78    3.10
  -3  -2   1  189.58    3.00
  -3  -2   1  195.18    3.10
   2   2  -1   11.00    0.40
  -2  -2   1   11.50    0.40
   1   2  -1   14.50    0.50
   1   2  -1   15.00    0.30
   0   2  -1  988.60   13.10
   0   2  -1  994.50   13.00
   0  -2   1  973.00   13.30
  -1   2  -1  810.62   10.90
  -1   2  -1  794.62   10.70
   1  -2   1  803.52   10.70
  -2   2  -1  365.46    5.40
  -2   2  -1  354.56    5.30
   2  -2   1  362.86    5.00
  -3   2  -1    7.80    0.50
   3  -2   1    8.10    0.40
   3  -2   1    8.40    0.60
  -4   2  -1    0.30    0.30
   4  -2   1    0.30    0.20
   4  -2   1    0.30    0.10
  -5   2  -1  186.88    3.70
   5  -2   1  183.98    3.70
  -6   2  -1    0.40    0.40
   6  -2   1    0.20    0.30
  -7   2  -1    1.10    0.60
   7  -2   1    0.20    0.40
  -8   2  -1   22.10    1.50
   8  -2   1   20.00    1.40
  -9   2  -1    5.50    1.10
   9  -2   1    6.10    1.00
 -10   2  -1    2.70    0.90
  10  -2   1    0.80    0.60
  11   1  -1   26.10    1.70
 -11  -1   1   25.80    1.90
  10   1  -1    1.40    0.60
 -10  -1   1    2.70    0.80
   9   1  -1   76.39    2.50
  -9  -1   1   73.29    2.70
   8   1  -1   35.70    1.60
  -8  -1   1   40.50    1.80
   7   1  -1   11.70    0.90
  -7  -1   1   11.40    1.00
   6   1  -1   28.60    1.20
  -6  -1   1   29.70    1.30
  -6  -1   1   28.80    0.80
   5   1  -1  129.39    2.60
  -5  -1   1  126.19    2.70
  -5  -1   1  127.99    2.20
   4   1  -1   38.90    1.10
  -4  -1   1   38.20    1.10
  -4  -1   1   38.40    0.90
  -3  -1   1    9.50    0.50
  -3  -1   1    9.90    0.40
   2   1  -1    3.20    0.20
  -2  -1   1    2.80    0.20
  -2  -1   1    2.60    0.20
   1   1  -1  297.77    4.20
  -1  -1   1  302.57    4.20
  -1  -1   1  308.27    4.00
   0   1  -1  206.78    2.70
   0  -1   1  210.98    2.70
   0  -1   1  207.98    2.90
  -1   1  -1  422.86    5.70
  -1   1  -1  420.06    5.70
  -1   1  -1  427.46    5.80
  -2   1  -1  346.27    4.70
  -2   1  -1  338.17    5.00
  -2   1  -1  353.26    5.00
  -3   1  -1  820.12   11.20
  -3   1  -1  789.02   10.70
   3  -1   1  817.42   11.20
  -4   1  -1  223.98    3.90
  -4   1  -1  222.18    3.20
   4  -1   1  225.28    3.80
  -5   1  -1   24.70    0.60
  -5   1  -1   24.10    1.10
   5  -1   1   24.90    1.10
  -6   1  -1   -0.10    0.40
   6  -1   1    0.30    0.30
  -7   1  -1   16.10    1.20
   7  -1   1   16.80    1.10
  -8   1  -1   42.90    2.00
   8  -1   1   43.00    1.90
  -9   1  -1   20.20    1.70
   9  -1   1   17.90    1.40
 -10   1  -1   11.00    1.40
  10  -1   1   12.30    1.30
  11  -1   1    6.70    1.10
  11   0  -1   -0.20    0.50
 -11   0   1    0.20    0.80
  10   0  -1    3.90    0.80
 -10   0   1    4.60    1.00
   9   0  -1   82.19    2.70
  -9   0   1   88.09    3.00
   8   0  -1    1.30    0.50
  -8   0   1    1.60    0.60
   7   0  -1   24.40    1.30
  -7   0   1   22.10    1.30
   6   0  -1   89.69    2.30
  -6   0   1   93.19    2.50
   5   0  -1    6.30    0.60
  -5   0   1    7.60    0.70
  -5   0   1    6.50    0.30
   4   0  -1  152.18    2.90
  -4   0   1  153.68    2.30
  -4   0   1  163.78    3.00
   3   0  -1  138.89    2.40
  -3   0   1  141.89    2.50
  -3   0   1  138.59    2.00
   2   0  -1    0.50    0.10
  -2   0   1    0.60    0.10
  -2   0   1    0.40    0.10
   1   0  -1  372.86    5.10
  -1   0   1  380.06    5.00
  -1   0   1  376.56    5.10
   0   0  -1  986.20   16.10
   0   0  -1  976.90   13.00
  -1   0  -1  315.87    4.20
  -1   0  -1  319.47    4.30
  -1   0  -1  311.87    4.30
  -2   0  -1 9579.64  133.99
  -2   0  -1 9999.00  139.29
   2   0   1 9379.46  137.99
  -3   0  -1   18.30    0.50
  -3   0  -1   17.10    0.70
   3   0   1   17.10    0.60
  -4   0  -1  539.05    7.50
  -4   0  -1  563.04    8.10
   4   0   1  544.75    7.90
  -5   0  -1  194.48    3.00
  -5   0  -1  202.38    3.80
   5   0   1  196.58    3.50
  -6   0  -1    2.50    0.50
  -6   0  -1    3.00    0.30
   6   0   1    3.30    0.50
  -7   0  -1    9.10    1.00
   7   0   1    9.60    0.80
  -8   0  -1   18.80    1.40
   8   0   1   19.00    1.20
  -9   0  -1   -0.20    0.50
   9   0   1   -0.40    0.40
 -10   0  -1    2.10    0.80
  10   0   1    2.30    0.70
 -11   0  -1   19.70    1.80
  11   0   1   19.30    1.50
  10  -1  -1   16.90    1.50
 -10   1   1   17.90    1.80
   9  -1  -1    1.00    0.60
  -9   1   1    0.70    0.70
   8  -1  -1   49.60    2.00
  -8   1   1   46.10    2.10
   7  -1  -1   43.80    1.80
  -7   1   1   44.50    1.90
   6  -1  -1    1.50    0.40
  -6   1   1    1.30    0.50
   5  -1  -1    0.60    0.30
  -5   1   1    0.60    0.30
   4  -1  -1  123.69    2.50
  -4   1   1  120.89    2.50
   3  -1  -1   76.89    1.70
  -3   1   1   76.79    1.70
   2  -1  -1   64.49    1.30
  -2   1   1   64.89    1.30
   1  -1  -1   94.69    1.60
   0  -1  -1  148.59    2.10
   0  -1  -1  150.78    2.10
   0   1   1  148.49    2.10
  -1  -1  -1  397.46    5.20
  -1  -1  -1  395.56    5.40
   1   1   1  405.46    5.40
   1   1   1  401.36    5.30
  -2  -1  -1  235.28    3.30
  -2  -1  -1  227.78    3.40
   2   1   1  230.78    3.20
  -3  -1  -1  481.75    6.80
  -3  -1  -1  477.15    6.60
   3   1   1  472.85    6.60
  -4  -1  -1    0.20    0.10
  -4  -1  -1    0.00    0.20
   4   1   1    0.20    0.20
  -5  -1  -1  138.29    2.40
  -5  -1  -1  135.29    2.80
   5   1   1  140.29    2.60
  -6  -1  -1   13.00    0.90
  -6  -1  -1   12.90    0.60
   6   1   1   13.00    0.80
  -7  -1  -1    4.20    0.60
   7   1   1    4.00    0.60
  -8  -1  -1   60.59    2.20
   8   1   1   52.89    1.80
  -9  -1  -1    1.80    0.70
   9   1   1    0.70    0.50
 -10  -1  -1   19.50    1.60
  10   1   1   21.80    1.40
 -11  -1  -1    0.30    0.70
  11   1   1    0.00    0.50
  10  -2  -1    1.40    0.70
 -10   2   1   -0.70    0.60
   9  -2  -1   19.00    1.50
  -9   2   1   18.10    1.60
   8  -2  -1   10.90    1.20
  -8   2   1   11.50    1.30
   7  -2  -1   28.40    1.50
  -7   2   1   28.60    1.60
   6  -2  -1   59.89    2.00
  -6   2   1   61.59    2.10
   5  -2  -1   23.40    1.10
  -5   2   1   22.90    1.10
   4  -2  -1   93.59    2.20
  -4   2   1   98.39    2.30
   3  -2  -1    4.10    0.40
  -3   2   1    3.70    0.40
   2  -2  -1    4.60    0.40
  -2   2   1    5.80    0.40
   1  -2  -1 1684.53   21.70
   1  -2  -1 1661.93   22.20
  -1   2   1 1623.04   21.80
  -1   2   1 1655.43   22.20
   0  -2  -1  872.71   11.70
   0   2   1  908.71   11.90
   0   2   1  872.61   11.80
  -1  -2  -1    1.30    0.20
   1   2   1    1.80    0.10
   1   2   1    1.70    0.20
  -2  -2  -1  398.16    5.50
  -2  -2  -1  395.96    5.50
   2   2   1  387.76    5.30
  -3  -2  -1  366.26    5.30
  -3  -2  -1  365.36    5.30
   3   2   1  362.66    5.10
  -4  -2  -1   46.10    1.30
  -4  -2  -1   47.80    1.20
   4   2   1   48.50    1.10
  -5  -2  -1    4.20    0.40
  -5  -2  -1    4.30    0.50
   5   2   1    3.50    0.40
  -6  -2  -1    7.80    0.70
  -6  -2  -1   10.20    0.60
   6   2   1    7.50    0.60
  -7  -2  -1   50.89    1.40
  -7  -2  -1   51.89    1.80
   7   2   1   50.59    1.60
  -8  -2  -1    0.90    0.50
   8   2   1    2.00    0.50
  -9  -2  -1    3.80    0.80
   9   2   1    5.60    0.80
 -10  -2  -1    3.40    0.90
  10   2   1    4.70    0.80
 -11  -2  -1   16.20    1.60
  11   2   1   12.50    1.30
   9  -3  -1    1.40    0.70
  -9   3   1    1.20    0.70
   8  -3  -1   -0.60    0.40
  -8   3   1   -0.10    0.60
   7  -3  -1    3.10    0.70
  -7   3   1    1.80    0.60
   6  -3  -1    0.30    0.40
  -6   3   1    0.10    0.40
   5  -3  -1    6.60    0.80
  -5   3   1    5.20    0.70
   4  -3  -1   22.90    1.10
  -4   3   1   20.90    1.00
   3  -3  -1   24.60    1.00
  -3   3   1   24.50    1.00
   2  -3  -1  125.19    2.40
   2  -3  -1  127.29    1.90
  -2   3   1  126.09    2.30
   1  -3  -1   17.40    0.50
  -1   3   1   18.40    0.60
  -1   3   1   16.90    0.60
   0  -3  -1  698.33    9.30
   0   3   1  696.23    9.40
   0   3   1  680.13    9.40
  -1  -3  -1    1.30    0.20
   1   3   1    1.20    0.20
  -2  -3  -1  995.70   13.40
   2   3   1  981.70   13.30
   2   3   1  993.70   13.20
  -3  -3  -1    1.00    0.20
  -3  -3  -1    0.90    0.20
   3   3   1    1.00    0.20
  -4  -3  -1  230.08    3.70
  -4  -3  -1  221.78    3.70
   4   3   1  220.48    3.40
  -5  -3  -1  216.58    3.70
  -5  -3  -1  217.88    3.80
   5   3   1  225.88    3.60
  -6  -3  -1   62.49    1.80
  -6  -3  -1   58.39    1.50
   6   3   1   61.19    1.50
  -7  -3  -1   10.10    0.70
  -7  -3  -1   10.30    0.90
   7   3   1   11.70    0.70
  -8  -3  -1   40.00    1.30
  -8  -3  -1   42.00    1.80
   8   3   1   42.80    1.50
  -9  -3  -1   18.20    1.40
   9   3   1   19.70    1.20
 -10  -3  -1   71.59    2.70
  10   3   1   70.49    2.40
 -11  -3  -1   -0.90    0.50
   9  -4  -1    0.00    0.60
  -9   4   1    0.30    0.60
   8  -4  -1   18.20    1.50
  -8   4   1   21.40    1.60
   7  -4  -1    3.70    0.80
  -7   4   1    3.50    0.80
   6  -4  -1   40.90    1.80
  -6   4   1   39.20    1.80
   5  -4  -1   91.29    2.60
  -5   4   1   96.89    2.70
   4  -4  -1    0.50    0.30
  -4   4   1    0.00    0.30
   3  -4  -1   98.49    2.40
   3  -4  -1  100.29    1.60
  -3   4   1   99.39    2.30
   2  -4  -1   96.99    2.20
   2  -4  -1   97.69    1.70
  -2   4   1   99.29    2.10
   1  -4  -1  171.58    2.80
  -1   4   1  169.58    3.00
  -1   4   1  174.38    2.90
   0  -4  -1  426.56    6.20
   0   4   1  438.56    6.10
   0   4   1  427.06    6.20
  -1  -4  -1  472.05    6.80
   1   4   1  472.45    6.60
   1   4   1  470.55    6.50
   2   4   1   38.10    0.90
   2   4   1   38.40    0.90
  -3  -4  -1  811.12   11.30
   3   4   1  791.22   10.80
   3   4   1  822.22   10.90
  -4  -4  -1  322.37    5.10
   4   4   1  312.77    4.70
   4   4   1  318.07    4.80
  -5  -4  -1  277.97    4.60
  -5  -4  -1  274.07    4.50
   5   4   1  272.27    4.20
  -6  -4  -1   25.40    1.10
  -6  -4  -1   23.50    1.10
   6   4   1   25.30    0.90
  -7  -4  -1   67.69    2.00
  -7  -4  -1   64.39    1.80
   7   4   1   65.99    1.70
  -8  -4  -1    0.30    0.30
  -8  -4  -1    0.30    0.40
   8   4   1    0.00    0.30
  -9  -4  -1   17.60    1.30
   9   4   1   15.80    1.00
 -10  -4  -1    9.00    1.10
  10   4   1    8.30    0.90
 -11  -4  -1   -0.40    0.50
 -12  -4  -1   -0.80    0.50
   8  -5  -1   29.80    1.90
  -8   5   1   31.50    2.00
   7  -5  -1    6.60    1.10
  -7   5   1    9.00    1.20
   6  -5  -1    0.60    0.50
  -6   5   1    0.30    0.50
   5  -5  -1   14.90    1.20
  -5   5   1   16.80    1.20
   4  -5  -1   55.79    1.90
  -4   5   1   53.39    1.80
   3  -5  -1  122.69    2.90
  -3   5   1  123.79    2.70
   2  -5  -1   61.29    1.40
  -2   5   1   61.99    1.80
  -2   5   1   60.69    1.60
   1  -5  -1  233.38    3.80
  -1   5   1  231.68    4.00
  -1   5   1  238.18    3.80
   0  -5  -1  121.29    2.30
   0   5   1  127.39    2.20
   0   5   1  122.59    2.40
  -1  -5  -1    6.10    0.50
   1   5   1    6.80    0.50
   1   5   1    7.80    0.40
  -2  -5  -1   91.79    2.00
   2   5   1   91.99    1.70
   2   5   1   95.19    1.80
  -3  -5  -1    6.20    0.60
   3   5   1    5.60    0.40
   3   5   1    6.50    0.40
  -4  -5  -1  236.38    4.20
   4   5   1  235.28    3.70
   4   5   1  237.18    3.70
  -5  -5  -1   10.50    0.80
   5   5   1   12.20    0.60
   5   5   1   11.20    0.60
  -6  -5  -1    0.90    0.30
  -6  -5  -1    0.20    0.30
   6   5   1    0.00    0.20
  -7  -5  -1  131.69    3.00
  -7  -5  -1  136.69    3.00
   7   5   1  133.59    2.70
  -8  -5  -1    0.50    0.40
  -8  -5  -1    0.50    0.40
   8   5   1    0.40    0.30
  -9  -5  -1    6.30    0.80
  -9  -5  -1    4.50    0.80
   9   5   1    6.10    0.70
 -10  -5  -1   27.50    1.60
 -11  -5  -1   -0.20    0.60
 -12  -5  -1    1.20    0.70
   8  -6  -1    0.30    0.70
  -8   6   1    2.30    0.80
   7  -6  -1    0.20    0.60
  -7   6   1    1.10    0.70
   6  -6  -1    4.10    0.90
  -6   6   1    3.20    0.80
   5  -6  -1   40.00    1.90
  -5   6   1   39.10    1.80
   4  -6  -1    0.40    0.40
  -4   6   1   -0.20    0.40
   3  -6  -1    0.20    0.40
  -3   6   1    0.20    0.30
   2  -6  -1  108.29    2.20
  -2   6   1  111.09    2.70
  -2   6   1  106.79    2.40
   1  -6  -1    1.20    0.30
  -1   6   1    0.70    0.40
  -1   6   1    1.00    0.30
   0  -6  -1  304.37    5.00
   0   6   1  305.97    4.70
   0   6   1  310.67    5.00
  -1  -6  -1  358.26    5.80
   1   6   1  370.96    5.70
   1   6   1  380.46    5.50
  -2  -6  -1   77.59    2.00
   2   6   1   77.99    1.60
   2   6   1   81.99    1.80
  -3  -6  -1  124.89    2.70
   3   6   1  129.49    2.40
   3   6   1  131.19    2.30
  -4  -6  -1   44.80    1.50
   4   6   1   45.00    1.20
   4   6   1   45.10    1.20
  -5  -6  -1   14.10    0.90
   5   6   1   15.30    0.70
   5   6   1   15.60    0.70
  -6  -6  -1  158.38    3.40
   6   6   1  155.38    3.00
   6   6   1  149.09    2.80
  -7  -6  -1    0.30    0.40
   7   6   1    0.50    0.30
   7   6   1    0.20    0.30
  -8  -6  -1    2.10    0.60
   8   6   1    1.60    0.50
   8   6   1    2.60    0.50
  -9  -6  -1   21.40    1.30
  -9  -6  -1   20.00    1.30
   9   6   1   19.10    1.10
 -10  -6  -1   72.59    2.50
 -11  -6  -1   -0.70    0.40
  12   6   1   28.60    1.80
   7  -7  -1    0.80    0.70
  -7   7   1    1.60    0.80
   6  -7  -1    4.10    1.00
  -6   7   1    3.30    0.80
   5  -7  -1    8.90    1.20
  -5   7   1    9.20    1.10
   4  -7  -1    1.20    0.60
  -4   7   1    0.60    0.40
   3  -7  -1    1.40    0.60
  -3   7   1    1.20    0.50
   2  -7  -1    0.80    0.40
  -2   7   1    0.40    0.30
  -2   7   1    0.30    0.40
   1  -7  -1  166.98    3.20
  -1   7   1  164.28    3.50
  -1   7   1  163.18    3.20
   0  -7  -1   57.49    1.70
   0   7   1   59.09    1.70
   0   7   1   54.59    1.50
  -1  -7  -1  266.57    4.70
   1   7   1  270.37    4.60
   1   7   1  270.87    4.30
  -2  -7  -1   77.19    2.10
   2   7   1   77.19    1.60
   2   7   1   74.89    1.80
  -3  -7  -1   29.60    1.30
   3   7   1   29.90    1.00
   3   7   1   31.10    0.90
  -4  -7  -1   25.00    1.30
   4   7   1   26.30    0.90
   4   7   1   25.90    0.90
  -5  -7  -1   76.39    2.20
   5   7   1   76.79    1.70
   5   7   1   77.89    1.80
  -6  -7  -1    4.00    0.70
   6   7   1    6.10    0.50
   6   7   1    6.00    0.50
  -7  -7  -1   98.19    2.80
   7   7   1   97.29    2.30
   7   7   1  103.89    2.30
  -8  -7  -1   34.90    1.60
   8   7   1   38.80    1.50
   8   7   1   37.90    1.30
  -9  -7  -1   30.10    1.60
   9   7   1   28.70    1.40
 -10  -7  -1   17.30    1.30
  10   7   1   18.00    1.20
  11   7   1    0.90    0.50
  12   7   1   23.70    1.60
   6  -8  -1    0.00    0.60
  -6   8   1    0.40    0.60
   5  -8  -1   21.20    1.70
  -5   8   1   24.00    1.60
   4  -8  -1    1.30    0.60
  -4   8   1    0.30    0.50
   3  -8  -1    1.00    0.60
  -3   8   1    0.60    0.40
   2  -8  -1   32.50    1.60
  -2   8   1   33.40    1.40
   1  -8  -1   11.20    0.90
  -1   8   1   12.00    1.00
  -1   8   1   10.10    0.80
   0  -8  -1  610.54    9.30
   0   8   1  603.24    9.40
   0   8   1  603.34    8.90
  -1  -8  -1   17.40    1.10
   1   8   1   17.30    0.80
   1   8   1   17.80    1.00
  -2  -8  -1   57.79    1.90
   2   8   1   57.69    1.70
   2   8   1   55.59    1.40
  -3  -8  -1  114.59    2.90
   3   8   1  110.79    2.20
   3   8   1  112.49    2.50
  -4  -8  -1   13.00    1.10
   4   8   1   14.20    0.80
   4   8   1   14.10    0.70
  -5  -8  -1    1.10    0.50
   5   8   1    3.00    0.40
   5   8   1    1.50    0.40
  -6  -8  -1   25.30    1.40
   6   8   1   22.50    1.00
   6   8   1   23.80    1.00
  -7  -8  -1    0.40    0.50
   7   8   1    1.00    0.30
   7   8   1    0.70    0.30
  -8  -8  -1    1.50    0.60
   8   8   1    2.40    0.50
  -9  -8  -1    4.40    0.90
   9   8   1    3.00    0.60
 -10  -8  -1    0.40    0.60
  10   8   1    0.40    0.40
  11   8   1   -0.10    0.40
  12   8   1    4.20    1.20
  -6   9   1    0.40    0.60
   5  -9  -1    8.70    1.20
  -5   9   1    5.00    0.90
   4  -9  -1   11.50    1.40
  -4   9   1   10.50    1.20
   3  -9  -1    0.50    0.60
  -3   9   1    0.20    0.50
   2  -9  -1    8.90    1.10
  -2   9   1    9.80    1.00
   1  -9  -1   47.40    1.90
  -1   9   1   46.60    1.60
  -1   9   1   49.40    1.90
   0  -9  -1    4.40    0.70
   0   9   1    4.70    0.70
   0   9   1    4.10    0.60
  -1  -9  -1   11.60    1.00
   1   9   1   11.30    0.90
   1   9   1    9.70    0.70
  -2  -9  -1   20.60    1.30
   2   9   1   22.50    1.10
   2   9   1   22.00    0.90
  -3  -9  -1  111.59    3.00
   3   9   1  113.79    2.60
   3   9   1  110.79    2.20
  -4  -9  -1   17.30    1.20
   4   9   1   15.60    0.90
   4   9   1   15.30    0.80
  -5  -9  -1   12.40    1.20
   5   9   1   10.60    0.70
   5   9   1   10.90    0.80
  -6  -9  -1   23.00    1.50
   6   9   1   26.20    1.00
   6   9   1   24.20    1.10
  -7  -9  -1   -0.30    0.50
   7   9   1    0.30    0.30
   7   9   1    0.10    0.30
  -8  -9  -1   19.70    1.50
   8   9   1   20.20    1.00
  -9  -9  -1   32.30    1.80
   9   9   1   33.90    1.50
 -10  -9  -1   15.20    1.50
 -11  -9  -1   -0.10    0.90
   4 -10  -1    1.20    0.70
   3 -10  -1   12.30    1.40
   2 -10  -1    2.00    0.70
  -1  10   1    6.50    0.90
   0 -10  -1   81.59    2.50
   0  10   1   79.89    2.50
  -1 -10  -1    2.80    0.70
   1  10   1    3.20    0.60
  -2 -10  -1    8.40    1.00
   2  10   1    7.80    0.90
  -3 -10  -1    2.50    0.70
   3  10   1    2.60    0.60
  -4 -10  -1    1.90    0.70
   4  10   1    2.70    0.50
  -5 -10  -1   86.39    2.80
   5  10   1   87.29    2.30
  -6 -10  -1    5.80    1.00
   6  10   1    4.50    0.70
  -7 -10  -1    1.00    0.70
  -8 -10  -1    3.80    0.90
  -9 -10  -1   18.00    1.60
 -10 -10  -1   -0.20    0.60
 -11 -10  -1    0.60    0.70
   3 -11  -1    4.20    1.00
   2 -11  -1    0.20    0.70
   1 -11  -1    2.30    0.80
   0  11   1   22.60    1.50
  -1 -11  -1    3.50    0.80
   1  11   1    2.80    0.70
  -2 -11  -1    0.40    0.60
   2  11   1    0.00    0.50
  -3 -11  -1  107.39    3.30
   3  11   1  106.09    2.80
  -4 -11  -1   13.90    1.40
   4  11   1   15.70    1.10
  -5 -11  -1   17.70    1.50
   5  11   1   20.40    1.20
  -6 -11  -1   25.50    1.80
  -7 -11  -1   -0.30    0.70
  -8 -11  -1    4.10    1.00
  -9 -11  -1   31.70    2.00
 -10 -11  -1   -0.30    0.60
 -11 -11  -1   17.20    1.80
   2 -12  -1    2.20    0.90
   1 -12  -1   -0.60    0.60
   0  12   1    0.40    0.60
  -1 -12  -1   26.30    1.70
   1  12   1   25.20    1.60
  -2 -12  -1   46.00    2.20
   2  12   1   46.20    2.00
  -3 -12  -1   21.10    1.70
   3  12   1   23.00    1.40
  -4 -12  -1    5.70    1.10
   4  12   1    3.10    0.70
  -5 -12  -1   20.70    1.70
  -6 -12  -1    3.80    1.00
  -7 -12  -1    1.50    0.80
  -8 -12  -1   19.80    1.80
  -9 -12  -1    0.10    0.60
 -10 -12  -1    4.10    1.00
   0 -13  -1    4.20    1.00
   1  13   1    0.20    0.50
  -2 -13  -1   -0.30    0.60
   2  13   1   -0.20    0.50
  -3 -13  -1    0.90    0.80
   3  13   1    1.70    0.70
  -4 -13  -1    1.30    0.80
  -5 -13  -1    0.80    0.70
  -6 -13  -1    0.50    0.70
  -7 -13  -1    7.00    1.30
  -8 -13  -1    1.10    0.80
  -3 -14  -1    3.20    1.00
  -4 -14  -1    3.10    1.00
  -5 -14  -1   10.10    1.50
  -6 -14  -1    1.30    0.90
   4  14  -2   21.40    2.30
  -7 -13   2   25.50    2.40
  -6 -13   2   -0.80    0.60
   5  13  -2    2.40    0.70
  -5 -13   2    1.60    0.90
   4  13  -2    0.60    0.60
  -4 -13   2    0.20    0.80
   3  13  -2    4.40    0.90
  -3 -13   2    3.60    1.00
   2  13  -2    0.20    0.50
  -2 -13   2   -0.20    0.70
   1  13  -2   -0.40    0.50
  -9 -12   2    1.00    0.80
  -8 -12   2    3.30    1.10
  -7 -12   2   16.30    1.80
   6  12  -2   21.00    1.40
  -6 -12   2   21.70    1.90
   5  12  -2    3.10    0.70
  -5 -12   2    3.70    1.00
   4  12  -2    1.00    0.60
  -4 -12   2    1.40    0.80
   3  12  -2    0.10    0.50
  -3 -12   2    0.50    0.70
   2  12  -2   16.90    1.40
  -2 -12   2   15.10    1.60
   1  12  -2    1.00    0.70
  -1 -12   2    0.40    0.70
   0  12  -2    0.50    0.60
  -1  12  -2   18.30    1.60
 -10 -11   2   -0.30    0.60
  -9 -11   2   26.60    1.90
  -8 -11   2   27.80    2.00
   7  11  -2   72.09    2.40
  -7 -11   2   73.29    3.00
   6  11  -2    3.30    0.70
  -6 -11   2    4.40    1.00
   5  11  -2   23.40    1.40
  -5 -11   2   22.90    1.80
   4  11  -2   12.90    1.10
  -4 -11   2   14.80    1.50
   3  11  -2    1.00    0.60
  -3 -11   2    0.20    0.60
   2  11  -2   -0.20    0.50
  -2 -11   2    0.80    0.70
   1  11  -2    6.40    1.00
  -1 -11   2    6.40    1.00
   0  11  -2   11.20    1.30
   0 -11   2   14.50    1.40
  -1  11  -2    8.40    1.20
  -2  11  -2   20.40    1.60
 -10 -10   2   10.20    1.40
  -9 -10   2   45.40    2.40
   8  10  -2    0.10    0.40
  -8 -10   2   -0.70    0.50
   7  10  -2   90.99    2.60
  -7 -10   2   91.39    3.20
   6  10  -2   -0.60    0.30
  -6 -10   2   -0.50    0.60
   5  10  -2   50.29    1.90
  -5 -10   2   50.39    2.30
   4  10  -2   72.29    2.30
  -4 -10   2   70.69    2.70
   3  10  -2   18.00    1.20
   2  10  -2    6.30    0.90
  -2 -10   2    6.70    1.00
   1  10  -2    0.10    0.50
  -1 -10   2   -1.00    0.50
   0  10  -2    0.30    0.50
   0 -10   2    0.30    0.60
  -1  10  -2   33.80    1.80
   1 -10   2   36.80    2.70
  -2  10  -2    2.30    0.70
   3 -10   2    2.80    0.90
   4 -10   2    1.00    0.80
 -10  -9   2   -0.10    0.60
   9   9  -2   -0.20    0.40
  -9  -9   2    0.90    0.70
   8   9  -2   11.80    1.00
  -8  -9   2    7.90    1.10
   7   9  -2    3.80    0.70
  -7  -9   2    3.50    0.80
   6   9  -2   17.10    1.10
  -6  -9   2   18.10    1.40
   5   9  -2    2.80    0.60
  -5  -9   2    3.80    0.80
   4   9  -2   87.39    2.50
  -4  -9   2   95.29    2.90
   3   9  -2    6.80    0.80
  -3  -9   2    4.70    0.80
   2   9  -2    0.70    0.40
  -2  -9   2    0.30    0.40
   1   9  -2   63.49    2.20
  -1  -9   2   67.09    2.30
   0   9  -2    0.40    0.50
   0  -9   2    0.30    0.50
  -1   9  -2    8.50    1.00
   1  -9   2    9.20    1.00
  -2   9  -2    0.00    0.50
  -3   9  -2    3.20    0.80
   4  -9   2   18.90    1.70
   5  -9   2    2.20    0.80
 -10  -8   2   39.10    2.70
   9   8  -2    0.10    0.40
  -9  -8   2   -0.30    0.50
   8   8  -2   21.20    1.20
  -8  -8   2   20.90    1.50
   7   8  -2   41.00    1.60
  -7  -8   2   42.70    2.00
   6   8  -2    0.60    0.40
  -6  -8   2    0.10    0.50
   5   8  -2   70.19    2.00
  -5  -8   2   67.19    2.40
   4   8  -2   83.89    2.20
  -4  -8   2   80.09    2.50
   3   8  -2   11.70    0.90
  -3  -8   2   11.30    1.00
   2   8  -2    4.30    0.60
  -2  -8   2    3.50    0.70
   1   8  -2    0.50    0.40
  -1  -8   2    0.20    0.40
   0   8  -2   22.40    1.30
   0  -8   2   22.70    1.30
  -1   8  -2    9.90    1.00
   1  -8   2    9.50    0.90
  -2   8  -2    1.30    0.50
   2  -8   2    1.10    0.50
  -3   8  -2    4.40    0.80
   4  -8   2   53.89    2.40
   5  -8   2    1.40    0.70
   6  -8   2   79.89    3.10
  10   7  -2    2.00    0.60
   9   7  -2   23.70    1.30
  -9  -7   2   24.80    1.50
   8   7  -2    1.00    0.40
   8   7  -2    1.30    0.40
  -8  -7   2    0.30    0.50
   7   7  -2    5.20    0.50
   7   7  -2    5.20    0.70
  -7  -7   2    4.50    0.80
   6   7  -2  131.99    2.90
   6   7  -2  134.99    2.50
  -6  -7   2  131.69    3.30
   5   7  -2   25.10    1.10
   5   7  -2   25.10    0.80
  -5  -7   2   23.80    1.30
   4   7  -2  251.47    4.50
   4   7  -2  246.98    4.10
  -4  -7   2  247.18    4.90
   3   7  -2    0.20    0.30
  -3  -7   2    0.30    0.40
   2   7  -2    0.50    0.30
   2   7  -2    0.70    0.20
  -2  -7   2    0.00    0.40
   1   7  -2    6.40    0.40
   1   7  -2    5.00    0.60
  -1  -7   2    6.60    0.70
   0   7  -2    0.30    0.20
   0   7  -2    0.50    0.40
   0  -7   2    0.40    0.40
  -1   7  -2   83.79    1.90
  -1   7  -2   85.79    2.40
   1  -7   2   84.99    2.30
  -2   7  -2    2.30    0.60
  -2   7  -2    3.10    0.50
   2  -7   2    2.90    0.50
  -3   7  -2   18.70    1.10
  -3   7  -2   15.80    1.20
  -4   7  -2    2.30    0.60
   4  -7   2    1.60    0.60
  -5   7  -2   42.90    1.90
   5  -7   2   45.00    2.20
  -6   7  -2    5.20    0.90
   6  -7   2    5.30    1.00
  -7   7  -2   16.90    1.50
   7  -7   2   14.60    1.60
 -11  -6   2    7.40    1.10
  10   6  -2    1.40    0.60
 -10  -6   2    1.70    0.60
   9   6  -2    5.00    0.80
  -9  -6   2    5.00    0.80
  -9  -6   2    4.10    0.70
   8   6  -2   12.40    0.90
  -8  -6   2   10.70    1.00
  -8  -6   2   13.10    0.90
   7   6  -2    0.70    0.40
  -7  -6   2   -0.10    0.30
  -7  -6   2    0.20    0.40
   6   6  -2  308.97    5.20
   6   6  -2  301.27    4.80
  -6  -6   2  295.87    5.50
   5   6  -2  117.89    2.60
   5   6  -2  119.39    2.20
  -5  -6   2  115.19    2.80
   4   6  -2   32.60    1.20
   4   6  -2   33.20    0.80
  -4  -6   2   31.80    1.40
   3   6  -2  189.18    2.80
   3   6  -2  193.28    3.50
  -3  -6   2  189.48    3.80
   2   6  -2   15.50    0.40
   2   6  -2   16.40    0.80
  -2  -6   2   16.00    0.90
   1   6  -2    9.80    0.40
   1   6  -2    9.90    0.70
  -1  -6   2    9.80    0.80
   0   6  -2   60.89    1.80
   0   6  -2   59.79    1.30
   0  -6   2   58.49    1.70
  -1   6  -2    7.40    0.50
  -1   6  -2    6.50    0.70
   1  -6   2    6.20    0.70
  -2   6  -2   28.70    1.10
  -2   6  -2   31.90    1.40
   2  -6   2   33.70    1.20
  -3   6  -2   36.30    1.40
  -3   6  -2   36.60    1.60
   3  -6   2   38.10    1.30
  -4   6  -2   24.70    1.30
   4  -6   2   27.00    1.50
  -5   6  -2   16.10    1.20
   5  -6   2   17.20    1.30
  -6   6  -2    1.30    0.60
   6  -6   2    0.60    0.60
  -7   6  -2    7.20    1.10
   7  -6   2    6.70    1.10
  -8   6  -2   10.60    1.40
   8  -6   2   12.80    1.70
 -12  -5   2   24.30    1.90
  11   5  -2    5.60    0.90
 -11  -5   2    5.60    1.00
  10   5  -2   11.30    1.20
 -10  -5   2   12.00    1.20
   9   5  -2  150.28    3.50
  -9  -5   2  152.28    3.60
   8   5  -2    1.20    0.50
  -8  -5   2    0.80    0.40
  -8  -5   2    1.30    0.50
   7   5  -2   57.99    1.80
  -7  -5   2   55.89    1.70
  -7  -5   2   57.19    1.80
   6   5  -2   46.00    1.50
  -6  -5   2   43.50    1.40
  -6  -5   2   47.10    1.60
   5   5  -2    1.90    0.40
  -5  -5   2    1.80    0.30
  -5  -5   2    2.10    0.50
   4   5  -2    1.10    0.20
   4   5  -2    0.80    0.30
  -4  -5   2    0.40    0.30
   3   5  -2   59.79    1.50
   3   5  -2   62.19    1.10
  -3  -5   2   62.19    1.70
   2   5  -2  215.28    2.90
   2   5  -2  206.08    3.60
   1   5  -2    0.20    0.20
   1   5  -2    0.40    0.10
  -1  -5   2    0.40    0.30
   0   5  -2   66.69    1.70
   0   5  -2   64.69    1.20
   0  -5   2   62.79    1.70
  -1   5  -2    1.30    0.30
  -1   5  -2    1.20    0.30
   1  -5   2    1.50    0.40
  -2   5  -2   32.40    1.30
  -2   5  -2   35.00    1.10
   2  -5   2   34.20    1.20
  -3   5  -2   47.80    1.50
  -3   5  -2   47.40    1.70
   3  -5   2   49.80    1.40
  -4   5  -2    4.80    0.70
  -4   5  -2    2.80    0.50
  -5   5  -2   10.80    1.00
   5  -5   2   12.70    1.10
  -6   5  -2   10.90    1.10
   6  -5   2   11.10    1.20
  -7   5  -2   23.90    1.60
   7  -5   2   27.30    1.70
  -8   5  -2   13.70    1.50
   8  -5   2   13.10    1.50
  11   4  -2    9.30    1.10
 -11  -4   2   10.00    1.30
  10   4  -2   59.89    2.30
 -10  -4   2   57.49    2.40
   9   4  -2   91.89    2.70
  -9  -4   2   88.89    2.80
   8   4  -2  165.28    3.60
  -8  -4   2  164.18    3.40
  -8  -4   2  157.28    3.60
   7   4  -2   41.20    1.50
  -7  -4   2   40.10    1.40
  -7  -4   2   40.50    1.50
   6   4  -2  198.88    3.80
  -6  -4   2  208.08    3.70
  -6  -4   2  200.38    3.80
   5   4  -2  203.58    3.70
  -5  -4   2  206.68    3.80
  -5  -4   2  196.98    3.50
   4   4  -2   13.70    0.70
  -4  -4   2   13.00    0.80
  -4  -4   2   13.70    0.60
   3   4  -2  101.79    2.00
   3   4  -2   98.69    1.70
  -3  -4   2   99.89    2.20
   2   4  -2   61.59    1.00
   2   4  -2   55.09    1.40
  -2  -4   2   58.59    1.50
   1   4  -2  304.17    3.90
   1   4  -2  284.47    4.50
  -1  -4   2  287.27    4.60
   0   4  -2   31.60    0.70
   0   4  -2   33.10    1.00
   0  -4   2   32.00    1.00
  -1   4  -2  253.77    4.30
  -1   4  -2  266.57    3.90
   1  -4   2  263.27    4.20
  -2   4  -2  157.48    3.10
  -2   4  -2  159.98    2.80
   2  -4   2  158.88    2.80
  -3   4  -2   68.79    1.90
  -3   4  -2   67.29    1.70
   3  -4   2   67.79    1.60
  -4   4  -2   33.20    1.30
  -4   4  -2   34.90    1.40
   4  -4   2   33.80    1.00
  -5   4  -2   33.90    1.50
   5  -4   2   35.50    1.60
  -6   4  -2    4.60    0.80
   6  -4   2    4.20    0.80
  -7   4  -2    4.00    0.80
   7  -4   2    3.30    0.80
  -8   4  -2    8.30    1.20
   8  -4   2    8.90    1.20
  -9   4  -2    8.40    1.30
   9  -4   2    7.30    1.20
  11   3  -2   22.20    1.60
 -11  -3   2   23.40    1.70
  10   3  -2   11.20    1.20
 -10  -3   2   10.80    1.20
   9   3  -2  136.19    3.40
  -9  -3   2  132.29    3.50
   8   3  -2    1.20    0.50
  -8  -3   2    1.30    0.50
   7   3  -2    4.40    0.60
  -7  -3   2    4.70    0.70
  -7  -3   2    5.90    0.60
   6   3  -2   54.79    1.70
  -6  -3   2   55.29    1.50
  -6  -3   2   56.19    1.70
   5   3  -2   32.30    1.10
  -5  -3   2   29.70    1.10
  -5  -3   2   29.70    1.00
   4   3  -2   33.00    1.00
  -4  -3   2   32.10    1.00
  -4  -3   2   28.40    0.90
   3   3  -2    2.50    0.30
  -3  -3   2    2.70    0.30
  -3  -3   2    2.20    0.20
   2   3  -2    1.10    0.20
  -2  -3   2    2.30    0.30
   1   3  -2  194.08    3.10
  -1  -3   2  192.28    3.20
   0   3  -2  280.67    4.30
   0   3  -2  283.27    3.90
   0  -3   2  286.37    4.30
  -1   3  -2  147.19    2.40
  -1   3  -2  152.98    2.70
   1  -3   2  149.69    2.60
  -2   3  -2   26.60    0.90
  -2   3  -2   26.70    0.80
   2  -3   2   26.30    0.80
  -3   3  -2  173.78    3.30
  -3   3  -2  168.68    3.10
   3  -3   2  170.28    2.80
  -4   3  -2   20.40    1.00
   4  -3   2   21.90    1.10
   4  -3   2   21.70    0.70
  -5   3  -2   40.90    1.60
   5  -3   2   41.70    1.60
  -6   3  -2   13.70    1.10
   6  -3   2   12.00    1.00
  -7   3  -2    9.30    1.10
   7  -3   2   11.40    1.20
  -8   3  -2   24.40    1.60
   8  -3   2   22.20    1.50
  -9   3  -2    4.10    1.00
   9  -3   2    5.20    1.00
  10  -3   2    1.00    0.70
  11   2  -2    1.50    0.70
 -11  -2   2    1.40    0.80
  10   2  -2    2.10    0.70
 -10  -2   2    1.10    0.60
   9   2  -2   88.69    2.70
  -9  -2   2   93.69    3.00
   8   2  -2   16.20    1.10
  -8  -2   2   16.20    1.20
   7   2  -2    2.10    0.50
  -7  -2   2    2.10    0.50
   6   2  -2  118.39    2.70
  -6  -2   2  123.09    2.30
  -6  -2   2  117.39    2.70
   5   2  -2  122.69    2.50
  -5  -2   2  118.79    2.50
  -5  -2   2  117.69    2.30
   4   2  -2  185.98    3.20
  -4  -2   2  183.18    3.10
  -4  -2   2  184.88    3.20
   3   2  -2    5.00    0.40
  -3  -2   2    5.40    0.40
  -3  -2   2    4.60    0.30
   2   2  -2   20.00    0.60
  -2  -2   2   19.70    0.50
  -2  -2   2   19.70    0.60
   1   2  -2   25.10    0.70
  -1  -2   2   26.30    0.70
   0   2  -2  104.29    1.40
   0   2  -2  101.59    1.80
   0  -2   2   97.59    1.80
  -1   2  -2  173.68    2.80
  -1   2  -2  167.78    2.60
   1  -2   2  166.38    2.70
  -2   2  -2   12.40    0.60
  -2   2  -2   11.50    0.50
   2  -2   2   12.70    0.50
  -3   2  -2   37.10    1.10
  -3   2  -2   37.00    1.10
   3  -2   2   38.10    0.90
  -4   2  -2  169.78    3.30
   4  -2   2  178.88    2.80
   4  -2   2  168.28    3.30
  -5   2  -2   12.00    0.90
   5  -2   2   11.70    0.50
   5  -2   2   11.40    0.80
  -6   2  -2    4.50    0.70
   6  -2   2    4.30    0.60
  -7   2  -2   67.99    2.40
   7  -2   2   65.29    2.20
  -8   2  -2    2.20    0.70
   8  -2   2    3.60    0.80
  -9   2  -2    0.80    0.70
   9  -2   2    0.50    0.60
 -10   2  -2   17.80    1.60
  10  -2   2   16.50    1.50
  11   1  -2    0.60    0.60
 -11  -1   2   -0.70    0.60
  10   1  -2    9.40    1.20
 -10  -1   2    7.00    1.10
   9   1  -2   16.40    1.30
  -9  -1   2   19.00    1.50
   8   1  -2   20.90    1.30
  -8  -1   2   21.10    1.40
   7   1  -2   98.09    2.60
  -7  -1   2   95.19    2.70
   6   1  -2  158.08    3.30
  -6  -1   2  159.48    2.60
  -6  -1   2  158.78    3.40
   5   1  -2    2.50    0.40
  -5  -1   2    2.30    0.40
  -5  -1   2    3.00    0.30
   4   1  -2   23.20    0.90
  -4  -1   2   23.50    0.70
  -4  -1   2   22.50    0.90
   3   1  -2  100.49    2.00
  -3  -1   2  102.99    1.80
  -3  -1   2  103.89    1.90
  -2  -1   2   18.90    0.50
  -2  -1   2   17.60    0.50
   1   1  -2  441.26    6.00
  -1  -1   2  434.16    5.80
  -1  -1   2  443.16    6.00
   0   1  -2   83.99    1.40
   0  -1   2   85.69    1.40
   0  -1   2   84.99    1.20
   0  -1   2   84.99    1.20
  -1   1  -2   52.99    1.00
  -1   1  -2   53.09    1.00
  -1   1  -2   51.69    1.00
  -2   1  -2  512.25    6.90
  -2   1  -2  491.35    7.00
  -2   1  -2  498.65    7.00
  -3   1  -2  115.19    2.20
  -3   1  -2  110.99    1.90
  -3   1  -2  116.79    2.20
  -4   1  -2   17.30    0.60
  -4   1  -2   17.00    0.80
   4  -1   2   16.20    0.80
  -5   1  -2  386.66    6.30
  -5   1  -2  380.56    5.50
   5  -1   2  376.66    6.10
  -6   1  -2   11.90    1.00
   6  -1   2   13.60    0.90
  -7   1  -2    7.40    0.90
   7  -1   2    9.70    0.90
  -8   1  -2    4.60    0.90
   8  -1   2    5.40    0.80
  -9   1  -2    6.70    1.10
   9  -1   2    5.30    0.90
 -10   1  -2   18.50    1.60
  10  -1   2   19.60    1.50
  11  -1   2    4.70    1.00
  11   0  -2    1.00    0.60
  10   0  -2   12.50    1.40
 -10   0   2   12.20    1.40
   9   0  -2    4.50    0.90
  -9   0   2    4.40    0.90
   8   0  -2    0.30    0.40
  -8   0   2    1.10    0.60
   7   0  -2  166.08    3.80
  -7   0   2  175.38    4.00
   6   0  -2   35.00    1.40
  -6   0   2   35.00    1.50
   5   0  -2    5.60    0.60
  -5   0   2    6.30    0.70
   4   0  -2  112.99    2.30
  -4   0   2  113.79    2.40
  -4   0   2  114.39    1.80
   3   0  -2    8.90    0.50
  -3   0   2    9.40    0.30
  -3   0   2    9.20    0.50
  -2   0   2  408.16    5.70
  -2   0   2  407.96    5.50
  -1   0   2  149.49    2.20
  -1   0   2  151.08    2.20
   0   0  -2  317.07    4.20
   0   0  -2  310.07    4.30
   0   0   2  308.37    4.20
  -1   0  -2 1086.89   14.20
  -1   0  -2 1069.19   14.50
  -1   0  -2 1075.29   14.30
  -2   0  -2 3113.29   40.80
  -2   0  -2 2996.40   50.19
  -2   0  -2 3112.49   40.70
  -3   0  -2    5.50    0.30
  -3   0  -2    5.60    0.40
   3   0   2    5.30    0.40
  -4   0  -2 3583.24   47.70
  -4   0  -2 3547.45   47.00
   4   0   2 3580.64   47.80
  -5   0  -2   11.80    0.50
  -5   0  -2   12.70    0.80
   5   0   2   13.30    0.70
  -6   0  -2  195.08    3.90
  -6   0  -2  189.28    3.10
   6   0   2  192.18    3.60
  -7   0  -2   86.49    2.60
   7   0   2   89.09    2.40
  -8   0  -2    1.50    0.60
   8   0   2    2.10    0.60
  -9   0  -2    4.70    1.00
   9   0   2    5.30    0.80
 -10   0  -2   13.30    1.50
  10   0   2    9.60    1.10
 -11   0  -2    2.50    0.90
  11   0   2    1.60    0.70
  10  -1  -2    4.50    0.90
 -10   1   2    3.80    1.00
   9  -1  -2    0.60    0.50
  -9   1   2   -0.10    0.50
   8  -1  -2   58.09    2.20
  -8   1   2   54.29    2.30
   7  -1  -2    0.50    0.50
  -7   1   2    0.00    0.40
   6  -1  -2  162.08    3.50
  -6   1   2  158.58    3.60
   5  -1  -2    9.10    0.80
  -5   1   2    9.90    0.80
  -4   1   2    0.30    0.30
   3  -1  -2    6.60    0.50
  -3   1   2    7.00    0.50
   2  -1  -2   33.90    0.90
  -2   1   2   35.80    0.90
   1  -1  -2  710.93    9.30
   1  -1  -2  682.43    9.40
  -1   1   2  709.93    9.60
   0  -1  -2   10.10    0.30
   0  -1  -2   11.10    0.30
   0   1   2   10.60    0.30
  -1  -1  -2   11.70    0.40
  -1  -1  -2   11.10    0.20
   1   1   2   11.30    0.20
   1   1   2   11.10    0.30
  -2  -1  -2   31.70    0.80
  -2  -1  -2   32.20    0.80
   2   1   2   32.70    0.60
  -3  -1  -2   20.50    0.60
  -3  -1  -2   21.00    0.70
   3   1   2   21.00    0.60
  -4  -1  -2  547.85    8.00
  -4  -1  -2  546.55    7.70
   4   1   2  548.65    7.70
  -5  -1  -2   70.69    1.50
  -5  -1  -2   70.99    1.80
   5   1   2   70.59    1.60
  -6  -1  -2   74.19    1.60
  -6  -1  -2   72.49    2.10
   6   1   2   77.49    1.90
  -7  -1  -2   97.89    2.70
  -7  -1  -2  102.29    2.10
   7   1   2  102.69    2.50
  -8  -1  -2   32.30    1.60
   8   1   2   31.80    1.40
  -9  -1  -2    1.60    0.70
   9   1   2    2.90    0.60
 -10  -1  -2   35.00    2.00
  10   1   2   34.80    1.70
 -11  -1  -2    0.20    0.60
  10  -2  -2   10.40    1.30
 -10   2   2   11.50    1.40
   9  -2  -2   -0.20    0.50
  -9   2   2   -0.40    0.50
   8  -2  -2    6.30    1.00
  -8   2   2    5.90    1.00
   7  -2  -2   47.00    1.90
  -7   2   2   43.10    1.90
   6  -2  -2    1.70    0.50
  -6   2   2    2.30    0.50
   5  -2  -2  197.88    3.90
  -5   2   2  196.58    4.00
   4  -2  -2  128.09    2.70
  -4   2   2  129.29    2.70
   3  -2  -2  116.19    2.40
  -3   2   2  120.69    2.40
   2  -2  -2   76.89    1.70
  -2   2   2   81.79    1.70
   1  -2  -2    1.80    0.20
   1  -2  -2    1.70    0.10
  -1   2   2    2.10    0.20
   0  -2  -2  179.38    2.60
   0  -2  -2  180.68    2.70
   0   2   2  182.68    2.70
  -1  -2  -2 2860.51   37.80
   1   2   2 2836.22   40.10
  -2  -2  -2   21.60    0.70
   2   2   2   23.30    0.40
  -3  -2  -2   18.90    0.60
  -3  -2  -2   18.40    0.70
   3   2   2   18.90    0.50
  -4  -2  -2  340.87    5.10
  -4  -2  -2  338.77    5.20
   4   2   2  335.37    4.90
  -5  -2  -2   18.70    0.70
  -5  -2  -2   20.20    0.90
   5   2   2   19.00    0.70
  -6  -2  -2   37.90    1.10
  -6  -2  -2   36.50    1.40
   6   2   2   35.70    1.20
  -7  -2  -2    0.00    0.30
  -7  -2  -2    0.70    0.30
   7   2   2    0.50    0.30
  -8  -2  -2    1.90    0.60
   8   2   2    2.80    0.50
  -9  -2  -2   42.30    2.00
   9   2   2   42.70    1.70
 -10  -2  -2   -0.20    0.50
  10   2   2   -0.30    0.40
 -11  -2  -2    1.00    0.70
   9  -3  -2    6.70    1.10
  -9   3   2    5.60    1.10
   8  -3  -2   25.60    1.60
  -8   3   2   22.60    1.70
   7  -3  -2    1.20    0.50
  -7   3   2    0.40    0.50
   6  -3  -2    3.30    0.70
  -6   3   2    3.80    0.70
   5  -3  -2    1.10    0.50
  -5   3   2    1.70    0.50
   4  -3  -2    3.20    0.50
   3  -3  -2   10.60    0.70
  -3   3   2   10.90    0.70
   2  -3  -2  235.38    3.90
   2  -3  -2  242.78    3.30
  -2   3   2  239.88    3.90
   1  -3  -2    4.20    0.30
   1  -3  -2    4.70    0.40
  -1   3   2    4.40    0.30
   0  -3  -2  227.68    3.40
   0   3   2  230.68    3.40
   0   3   2  232.78    3.40
  -1  -3  -2   83.39    1.60
   1   3   2   84.89    1.50
   1   3   2   87.69    1.40
  -2  -3  -2  380.26    5.70
   2   3   2  400.56    5.50
   2   3   2  387.56    5.20
  -3  -3  -2   39.50    1.10
   3   3   2   40.10    0.80
   3   3   2   39.50    1.00
  -4  -3  -2 1101.69   14.90
  -4  -3  -2 1099.89   14.90
   4   3   2 1086.39   14.60
  -5  -3  -2   51.09    1.50
  -5  -3  -2   53.49    1.40
   5   3   2   53.79    1.20
  -6  -3  -2   13.50    0.80
  -6  -3  -2   14.20    0.70
   6   3   2   14.00    0.70
  -7  -3  -2  242.48    4.70
  -7  -3  -2  243.18    4.20
   7   3   2  242.58    4.20
  -8  -3  -2   13.00    1.10
  -8  -3  -2   11.40    0.80
   8   3   2   11.70    0.80
  -9  -3  -2    2.70    0.70
   9   3   2    3.80    0.60
 -10  -3  -2   31.50    1.90
  10   3   2   32.60    1.50
 -11  -3  -2    1.80    0.80
   9  -4  -2    0.10    0.60
  -9   4   2    0.60    0.70
   8  -4  -2   23.10    1.60
  -8   4   2   23.30    1.80
   7  -4  -2    1.60    0.70
  -7   4   2    1.40    0.70
   6  -4  -2   20.80    1.40
  -6   4   2   21.40    1.40
   5  -4  -2   43.20    1.70
  -5   4   2   43.50    1.70
   4  -4  -2   62.99    2.00
   3  -4  -2  127.09    2.80
  -3   4   2  126.09    2.70
   2  -4  -2    1.00    0.20
  -2   4   2    1.20    0.30
   1  -4  -2  212.88    3.60
   1  -4  -2  218.68    3.30
  -1   4   2  219.98    3.50
   0  -4  -2  406.96    5.90
   0   4   2  413.16    5.90
   0   4   2  408.96    5.90
  -1  -4  -2  352.76    5.20
   1   4   2  353.96    5.00
   1   4   2  341.47    5.00
  -2  -4  -2   10.30    0.60
   2   4   2   10.50    0.50
   2   4   2   10.70    0.40
  -3  -4  -2  160.28    2.90
   3   4   2  162.88    2.70
   3   4   2  163.58    2.40
  -4  -4  -2   11.00    0.70
   4   4   2   10.80    0.60
   4   4   2   11.70    0.40
  -5  -4  -2  226.78    3.90
  -5  -4  -2  228.78    4.00
   5   4   2  220.08    3.50
  -6  -4  -2  214.78    4.00
  -6  -4  -2  219.78    4.00
   6   4   2  216.28    3.60
  -7  -4  -2  140.89    3.00
  -7  -4  -2  145.69    3.20
   7   4   2  150.78    2.80
  -8  -4  -2    1.10    0.40
  -8  -4  -2    1.10    0.50
   8   4   2    1.60    0.40
  -9  -4  -2   56.49    2.10
   9   4   2   55.89    1.80
 -10  -4  -2    0.30    0.60
 -11  -4  -2    1.70    0.70
 -12  -4  -2    4.90    1.00
   8  -5  -2    2.40    0.90
  -8   5   2    3.90    1.00
   7  -5  -2    0.10    0.50
  -7   5   2    0.80    0.60
   6  -5  -2   36.80    1.90
  -6   5   2   35.50    1.80
   5  -5  -2   52.89    2.10
  -5   5   2   56.39    2.10
   4  -5  -2    1.30    0.50
  -4   5   2    1.20    0.50
   3  -5  -2   42.20    1.50
  -3   5   2   44.50    1.50
   2  -5  -2  177.98    3.50
   2  -5  -2  179.58    2.90
  -2   5   2  182.08    3.40
   1  -5  -2  125.99    2.30
  -1   5   2  126.69    2.40
  -1   5   2  125.29    2.50
   0  -5  -2   76.79    1.70
   0   5   2   79.19    1.70
   0   5   2   81.89    1.70
  -1  -5  -2  648.64    9.20
   1   5   2  642.64    9.00
   1   5   2  646.34    9.00
  -2  -5  -2   42.90    1.30
   2   5   2   42.50    1.10
   2   5   2   40.70    1.00
  -3  -5  -2    5.10    0.60
   3   5   2    5.10    0.40
  -4  -5  -2  302.57    5.10
   4   5   2  309.77    4.50
   4   5   2  309.27    4.70
  -5  -5  -2   27.10    1.10
   5   5   2   26.90    0.80
   5   5   2   25.30    1.00
  -6  -5  -2   57.99    1.70
   6   5   2   56.29    1.60
   6   5   2   53.69    1.30
  -7  -5  -2   51.89    1.70
  -7  -5  -2   48.40    1.60
   7   5   2   46.20    1.30
  -8  -5  -2    6.50    0.80
  -8  -5  -2    5.70    0.70
   8   5   2    7.60    0.70
  -9  -5  -2   88.09    2.40
  -9  -5  -2   90.39    2.70
   9   5   2   95.59    2.50
 -10  -5  -2    1.60    0.60
 -11  -5  -2    0.70    0.60
 -12  -5  -2    6.90    1.10
   8  -6  -2   13.90    1.80
  -8   6   2   14.50    1.60
   7  -6  -2   -1.00    0.50
  -7   6   2    0.30    0.60
   6  -6  -2   11.10    1.30
  -6   6   2    8.60    1.10
   5  -6  -2   12.00    1.20
  -5   6   2   12.50    1.10
   4  -6  -2   11.10    1.10
  -4   6   2   12.50    1.00
   3  -6  -2   49.10    1.80
  -3   6   2   51.49    1.70
   2  -6  -2    0.10    0.30
   2  -6  -2    0.80    0.30
  -2   6   2    0.60    0.30
   1  -6  -2    0.30    0.30
  -1   6   2    0.60    0.30
  -1   6   2    0.40    0.30
   0  -6  -2  225.58    3.90
   0   6   2  223.38    3.70
   0   6   2  227.08    3.90
  -1  -6  -2    1.50    0.40
   1   6   2    1.00    0.30
   1   6   2    0.90    0.20
  -2  -6  -2  179.88    3.40
   2   6   2  181.68    3.10
   2   6   2  185.38    3.10
   3   6   2  321.67    5.00
   3   6   2  335.27    4.90
  -4  -6  -2   70.79    2.00
   4   6   2   72.09    1.50
   4   6   2   71.99    1.60
  -5  -6  -2   45.20    1.60
   5   6   2   45.40    1.30
   5   6   2   44.50    1.10
  -6  -6  -2   39.90    1.50
   6   6   2   38.90    1.10
   6   6   2   37.20    1.30
  -7  -6  -2   19.20    1.10
   7   6   2   19.50    1.00
   7   6   2   20.20    0.80
  -8  -6  -2   59.99    2.00
   8   6   2   61.99    2.00
   8   6   2   57.79    1.60
  -9  -6  -2   12.60    1.10
   9   6   2   11.50    1.00
  10   6   2    1.30    0.50
  11   6   2    0.90    0.60
  12   6   2   43.00    2.10
   7  -7  -2    6.40    1.20
  -7   7   2    6.60    1.20
   6  -7  -2   50.49    2.40
  -6   7   2   46.90    2.30
   5  -7  -2   12.60    1.40
  -5   7   2   12.50    1.30
   4  -7  -2    3.70    0.80
  -4   7   2    4.80    0.80
   3  -7  -2   20.20    1.30
  -3   7   2   18.70    1.10
   2  -7  -2   22.30    1.20
  -2   7   2   21.70    1.10
   1  -7  -2   18.50    0.90
  -1   7   2   18.50    1.00
  -1   7   2   18.80    0.90
   0  -7  -2    0.80    0.40
   0   7   2    1.10    0.30
   0   7   2    1.20    0.30
  -1  -7  -2  158.68    3.20
   1   7   2  160.18    3.10
   1   7   2  160.58    2.90
  -2  -7  -2   37.30    1.40
   2   7   2   33.50    1.10
   2   7   2   34.80    1.10
  -3  -7  -2  360.76    6.10
   3   7   2  366.46    5.50
   3   7   2  361.76    5.50
  -4  -7  -2  142.79    3.20
   4   7   2  143.39    2.60
   4   7   2  142.49    2.60
  -5  -7  -2    5.90    0.70
   5   7   2    5.90    0.50
   5   7   2    6.40    0.50
  -6  -7  -2   10.00    0.90
   6   7   2    9.20    0.60
   6   7   2    8.50    0.60
  -7  -7  -2    7.30    0.90
   7   7   2    6.80    0.70
   7   7   2    7.70    0.60
  -8  -7  -2   12.20    1.10
   8   7   2   10.60    0.90
  -9  -7  -2   78.59    2.50
   9   7   2   75.19    2.30
 -10  -7  -2   38.30    1.80
  10   7   2   37.70    1.70
  11   7   2    3.90    0.80
  12   7   2   12.50    1.30
   6  -8  -2   10.80    1.40
  -6   8   2   10.90    1.40
   5  -8  -2   -0.30    0.60
  -5   8   2    0.30    0.50
   4  -8  -2    0.20    0.60
  -4   8   2    0.70    0.50
   3  -8  -2   34.20    1.80
  -3   8   2   35.90    1.60
   2  -8  -2    4.20    0.70
  -2   8   2    3.80    0.60
   1  -8  -2    0.20    0.30
  -1   8   2    0.80    0.30
  -1   8   2    0.80    0.40
   0  -8  -2   15.60    1.00
   0   8   2   14.90    0.80
   0   8   2   16.80    1.00
  -1  -8  -2    5.60    0.70
   1   8   2    8.30    0.60
   1   8   2    7.40    0.70
  -2  -8  -2  452.75    7.40
   2   8   2  451.35    6.80
   2   8   2  459.25    7.00
  -3  -8  -2    4.70    0.70
   3   8   2    4.30    0.50
   3   8   2    4.50    0.50
  -4  -8  -2   48.70    1.80
   4   8   2   49.30    1.40
   4   8   2   50.99    1.40
  -5  -8  -2   96.79    2.70
   5   8   2   97.09    2.10
   5   8   2   94.49    2.00
  -6  -8  -2   16.70    1.20
   6   8   2   17.20    0.80
   6   8   2   17.50    0.90
  -7  -8  -2   -0.30    0.40
   7   8   2    0.40    0.40
   7   8   2    0.60    0.30
  -8  -8  -2    5.50    0.90
   8   8   2    6.60    0.70
  -9  -8  -2    0.20    0.50
   9   8   2    0.40    0.40
 -10  -8  -2    1.20    0.60
  10   8   2    0.90    0.50
  11   8   2    3.90    0.80
  12   8   2    0.00    0.50
  -6   9   2    1.00    0.80
   5  -9  -2    0.60    0.70
  -5   9   2    1.60    0.60
   4  -9  -2    1.70    0.80
  -4   9   2    1.20    0.60
   3  -9  -2    6.60    1.00
  -3   9   2    7.90    1.00
   2  -9  -2   14.30    1.20
  -2   9   2   14.80    1.10
  -1   9   2   -0.30    0.40
  -1   9   2    0.50    0.40
   0  -9  -2   15.80    1.10
   0   9   2   17.40    1.10
   0   9   2   16.30    1.00
  -1  -9  -2   26.90    1.40
   1   9   2   27.40    1.10
   1   9   2   27.70    1.30
  -2  -9  -2   16.10    1.20
   2   9   2   15.80    0.80
   2   9   2   16.40    1.00
  -3  -9  -2   23.60    1.40
   3   9   2   23.90    1.10
   3   9   2   23.10    1.00
  -4  -9  -2    8.30    1.00
   4   9   2    8.70    0.70
   4   9   2    7.90    0.60
  -5  -9  -2   68.69    2.30
   5   9   2   69.59    1.80
   5   9   2   67.59    1.80
  -6  -9  -2    5.80    0.90
   6   9   2    5.80    0.60
   6   9   2    6.40    0.60
  -7  -9  -2   -0.20    0.50
   7   9   2    0.20    0.30
  -8  -9  -2   37.20    1.90
   8   9   2   39.40    1.50
  -9  -9  -2    3.80    0.90
   9   9   2    2.60    0.60
 -10  -9  -2   26.20    1.70
  10   9   2   24.00    1.40
 -11  -9  -2   13.40    1.50
  11   9   2   11.50    1.10
   4 -10  -2    1.90    0.80
  -4  10   2    2.50    0.80
   3 -10  -2    0.60    0.60
  -3  10   2    0.20    0.50
   2 -10  -2    1.50    0.70
  -2  10   2    2.80    0.70
   1 -10  -2   28.90    1.60
  -1  10   2   29.20    1.40
   0 -10  -2    0.60    0.50
   0  10   2    0.20    0.40
   0  10   2    0.00    0.30
  -1 -10  -2    9.80    1.00
   1  10   2    8.30    0.90
   1  10   2    9.70    0.80
  -2 -10  -2   67.99    2.30
   2  10   2   63.89    2.00
   2  10   2   65.69    1.80
  -3 -10  -2    3.60    0.80
   3  10   2    3.70    0.60
   3  10   2    3.50    0.50
  -4 -10  -2    9.10    1.10
   4  10   2    9.00    0.70
   4  10   2    9.60    0.80
  -5 -10  -2    5.10    0.90
   5  10   2    4.40    0.50
   5  10   2    5.10    0.60
  -6 -10  -2    1.60    0.60
   6  10   2    1.40    0.40
  -7 -10  -2   57.89    2.40
   7  10   2   49.80    1.60
  -8 -10  -2    0.70    0.60
   8  10   2    2.10    0.70
  -9 -10  -2    4.60    0.90
 -10 -10  -2    0.70    0.70
 -11 -10  -2   29.40    1.90
   3 -11  -2   14.70    1.60
   2 -11  -2   13.00    1.40
   1 -11  -2    8.10    1.10
   0  11   2    1.10    0.60
  -1 -11  -2    0.60    0.60
   1  11   2    0.20    0.40
  -2 -11  -2   33.50    1.80
   2  11   2   33.20    1.60
  -3 -11  -2    1.90    0.70
   3  11   2    2.80    0.60
  -4 -11  -2    1.10    0.70
   4  11   2    1.40    0.50
  -5 -11  -2   91.69    3.00
  -6 -11  -2    7.10    1.10
  -7 -11  -2    1.90    0.80
  -8 -11  -2   32.70    2.00
  -9 -11  -2    0.80    0.70
 -10 -11  -2    4.10    1.00
 -11 -11  -2   14.10    1.60
   2 -12  -2    3.50    0.90
   1 -12  -2   25.50    1.80
   0 -12  -2    1.00    0.60
   1  12   2   -0.20    0.50
  -2 -12  -2   -0.20    0.60
   2  12   2   -0.20    0.40
  -3 -12  -2   32.50    1.90
   3  12   2   30.50    1.50
  -4 -12  -2   55.79    2.40
  -5 -12  -2   20.60    1.60
  -6 -12  -2    0.40    0.70
  -7 -12  -2   18.10    1.70
  -8 -12  -2    3.70    1.00
  -9 -12  -2    1.00    0.80
 -10 -12  -2    3.70    1.00
   0 -13  -2    3.90    1.00
   1  13   2    2.60    0.70
  -2 -13  -2   12.70    1.40
   2  13   2   13.50    1.20
  -3 -13  -2    1.50    0.80
  -4 -13  -2   -0.60    0.60
  -5 -13  -2   -0.20    0.60
  -6 -13  -2    1.40    0.80
  -7 -13  -2    4.00    1.00
  -8 -13  -2    0.60    0.80
  -9 -13  -2   14.10    1.70
  -1 -14  -2   17.30    2.50
  -3 -14  -2    0.50    0.80
  -4 -14  -2    0.90    0.90
  -5 -14  -2    5.90    1.20
  -6 -14  -2    7.10    1.30
  -7 -14  -2   14.90    2.00
   6  13  -3    0.40    0.60
  -6 -13   3    0.20    0.80
   5  13  -3   27.70    1.70
  -5 -13   3   28.40    2.10
   4  13  -3    3.70    0.90
  -4 -13   3    5.20    1.10
   3  13  -3    4.20    0.90
  -3 -13   3    5.50    1.20
   2  13  -3    0.30    0.50
  -2 -13   3   -0.70    0.70
   7  12  -3    0.10    0.50
  -7 -12   3    0.10    0.70
   6  12  -3    8.70    1.10
  -6 -12   3   10.00    1.40
   5  12  -3   20.10    1.40
  -5 -12   3   19.50    1.80
   4  12  -3   34.90    1.90
  -4 -12   3   34.60    2.10
   3  12  -3    1.40    0.60
  -3 -12   3    1.30    0.80
   2  12  -3    1.10    0.60
  -2 -12   3    0.30    0.70
   1  12  -3    2.60    0.80
  -1 -12   3    2.70    0.90
   0  12  -3    5.70    1.00
  -9 -11   3    0.70    0.80
   8  11  -3    1.70    0.60
  -8 -11   3   -0.40    0.70
   7  11  -3   47.60    2.00
  -7 -11   3   49.30    2.60
   6  11  -3   24.20    1.50
  -6 -11   3   25.50    1.90
   5  11  -3   77.29    2.60
  -5 -11   3   80.89    3.10
   4  11  -3    8.10    1.00
  -4 -11   3    8.40    1.30
   3  11  -3   24.40    1.50
  -3 -11   3   22.60    1.70
   2  11  -3   12.10    1.30
  -2 -11   3   13.20    1.40
   1  11  -3    0.20    0.60
  -1 -11   3    1.40    0.80
   0  11  -3    1.70    0.70
   0 -11   3    1.00    0.70
  -1  11  -3    0.90    0.70
  -2  11  -3   10.30    1.40
 -10 -10   3   13.10    1.60
   9  10  -3   12.30    1.60
  -9 -10   3   10.70    1.40
   8  10  -3   12.30    1.10
  -8 -10   3   12.20    1.50
   7  10  -3   57.29    2.10
  -7 -10   3   55.89    2.50
   6  10  -3    1.30    0.60
  -6 -10   3    2.50    0.80
   5  10  -3  124.09    3.20
  -5 -10   3  117.79    3.60
   4  10  -3    1.30    0.60
  -4 -10   3    0.80    0.70
   3  10  -3   30.70    1.60
  -3 -10   3   28.90    1.80
   2  10  -3   43.30    1.90
  -2 -10   3   43.60    2.10
   1  10  -3   16.00    1.30
  -1 -10   3   19.90    1.50
   0  10  -3    1.90    0.70
   0 -10   3    2.90    0.80
  -1  10  -3    0.80    0.60
   1 -10   3    0.90    0.70
  -2  10  -3    0.00    0.60
  -3  10  -3   11.60    1.40
 -10  -9   3   20.90    1.70
   9   9  -3    1.40    0.60
  -9  -9   3    2.10    0.70
   8   9  -3    7.10    0.90
  -8  -9   3    8.30    1.20
   7   9  -3    0.10    0.40
  -7  -9   3   -0.60    0.50
   6   9  -3    2.80    0.60
  -6  -9   3    4.00    0.90
   5   9  -3   11.40    1.00
  -5  -9   3   11.40    1.20
   4   9  -3    4.20    0.70
  -4  -9   3    3.10    0.80
   3   9  -3    0.30    0.40
  -3  -9   3    0.90    0.60
   2   9  -3   78.19    2.50
  -2  -9   3   83.59    2.70
   1   9  -3   -0.70    0.30
  -1  -9   3   -0.20    0.50
   0   9  -3    0.70    0.50
   0  -9   3    0.00    0.50
  -1   9  -3   29.10    1.60
   1  -9   3   31.00    1.60
  -2   9  -3    0.50    0.50
  -3   9  -3    6.90    1.10
   4  -9   3    1.50    0.70
   5  -9   3   -0.50    0.60
  10   8  -3   12.80    1.30
   9   8  -3    1.30    0.60
  -9  -8   3    1.70    0.70
   8   8  -3   61.99    2.10
  -8  -8   3   58.49    2.40
   7   8  -3    2.70    0.60
  -7  -8   3    1.80    0.70
   6   8  -3   12.80    1.00
  -6  -8   3   11.30    1.20
   5   8  -3  103.89    2.70
  -5  -8   3  103.89    3.00
   4   8  -3    1.10    0.40
  -4  -8   3    0.80    0.50
   3   8  -3   32.60    1.40
  -3  -8   3   33.70    1.60
   2   8  -3   38.10    1.50
  -2  -8   3   37.60    1.70
   1   8  -3    0.40    0.40
  -1  -8   3    0.60    0.50
   0   8  -3    0.70    0.40
   0  -8   3    0.30    0.40
  -1   8  -3    0.60    0.50
   1  -8   3    1.20    0.50
  -2   8  -3   19.20    1.30
   2  -8   3   19.80    1.20
  -3   8  -3    1.20    0.60
   4  -8   3    0.40    0.70
   5  -8   3   -0.20    0.60
   6  -8   3   50.19    2.50
  10   7  -3    7.00    1.00
   9   7  -3    4.80    0.80
  -9  -7   3    5.30    0.90
   8   7  -3    0.10    0.40
  -8  -7   3   -0.30    0.40
   7   7  -3   19.50    1.20
  -7  -7   3   17.50    1.30
   6   7  -3    1.90    0.50
  -6  -7   3    0.10    0.50
   5   7  -3    7.00    0.80
  -5  -7   3    8.30    0.90
   4   7  -3   85.19    2.20
  -4  -7   3   85.69    2.50
   3   7  -3   52.19    1.70
  -3  -7   3   51.69    1.90
   2   7  -3  281.07    5.00
  -2  -7   3  277.67    5.20
   1   7  -3   15.70    1.00
  -1  -7   3   14.20    1.10
   0   7  -3    3.40    0.60
   0  -7   3    5.10    0.70
  -1   7  -3   12.70    1.00
   1  -7   3   13.60    1.00
  -2   7  -3    1.90    0.50
  -2   7  -3    2.40    0.60
   2  -7   3    1.50    0.50
  -3   7  -3   64.39    1.90
  -3   7  -3   66.29    2.30
  -4   7  -3    6.80    0.80
  -4   7  -3    5.30    0.90
  -5   7  -3   22.10    1.80
   5  -7   3   21.20    1.60
   6  -7   3   -0.90    0.40
   7  -7   3   28.60    2.00
  11   6  -3    9.90    1.20
  10   6  -3    0.50    0.50
   9   6  -3   11.70    1.10
  -9  -6   3   11.60    1.30
   8   6  -3    2.70    0.60
  -8  -6   3    3.40    0.60
  -8  -6   3    4.20    0.70
   7   6  -3    1.90    0.50
  -7  -6   3    1.70    0.40
  -7  -6   3    0.70    0.50
   6   6  -3    7.20    0.80
   6   6  -3    7.10    0.60
  -6  -6   3    8.30    0.90
   5   6  -3   36.50    1.40
   5   6  -3   35.10    1.00
  -5  -6   3   34.50    1.50
   4   6  -3  467.65    6.30
   4   6  -3  456.15    7.20
  -4  -6   3  450.15    7.50
   3   6  -3   32.50    1.20
  -3  -6   3   32.90    1.40
   2   6  -3   58.79    1.70
  -2  -6   3   60.29    1.90
   1   6  -3  163.58    3.30
  -1  -6   3  166.78    3.40
   0   6  -3    5.90    0.60
   0   6  -3    6.30    0.40
   0  -6   3    6.90    0.70
  -1   6  -3    1.20    0.30
  -1   6  -3    0.70    0.40
   1  -6   3    1.10    0.40
  -2   6  -3   33.30    1.10
  -2   6  -3   33.00    1.40
   2  -6   3   32.00    1.30
  -3   6  -3   32.60    1.30
  -3   6  -3   33.40    1.60
   3  -6   3   34.50    1.30
  -4   6  -3    8.10    1.00
  -4   6  -3    9.20    0.90
  -5   6  -3   12.00    1.10
   5  -6   3   13.50    1.20
  -6   6  -3   24.60    1.60
   6  -6   3   22.70    1.60
  -7   6  -3    3.10    0.80
   7  -6   3    3.20    0.90
  -8   6  -3   -0.10    0.60
  11   5  -3    3.90    0.80
 -11  -5   3    4.80    0.90
  10   5  -3   11.40    1.20
 -10  -5   3   10.20    1.10
   9   5  -3    8.40    1.00
  -9  -5   3    7.90    0.90
   8   5  -3    2.40    0.60
  -8  -5   3    3.00    0.60
  -8  -5   3    1.90    0.50
   7   5  -3  204.98    4.20
  -7  -5   3  212.98    4.20
  -7  -5   3  199.58    3.90
   6   5  -3   16.30    1.00
  -6  -5   3   14.40    0.80
  -6  -5   3   14.90    1.00
   5   5  -3  142.39    3.00
  -5  -5   3  141.69    2.60
  -5  -5   3  144.79    3.20
   4   5  -3   18.10    0.90
   4   5  -3   18.00    0.60
  -4  -5   3   16.00    1.00
   3   5  -3    1.50    0.30
  -3  -5   3    2.00    0.40
   2   5  -3    8.10    0.60
  -2  -5   3    7.70    0.70
   1   5  -3  173.58    3.30
  -1  -5   3  172.78    3.30
   0   5  -3  155.08    2.40
   0   5  -3  158.58    3.10
   0  -5   3  152.68    3.10
  -1   5  -3    6.70    0.40
  -1   5  -3    6.10    0.60
   1  -5   3    6.10    0.60
  -2   5  -3  126.29    2.90
  -2   5  -3  129.29    2.50
   2  -5   3  128.49    2.70
  -3   5  -3   24.90    1.20
  -3   5  -3   24.90    1.10
   3  -5   3   25.20    1.10
  -4   5  -3    6.70    0.70
  -4   5  -3    5.70    0.80
   4  -5   3    7.40    0.70
  -5   5  -3   43.30    1.80
   5  -5   3   48.00    2.00
  -6   5  -3    1.20    0.50
   6  -5   3   -0.40    0.40
  -7   5  -3   -0.20    0.50
   7  -5   3    0.60    0.60
  -8   5  -3    2.30    0.80
   8  -5   3    5.20    1.00
  11   4  -3    0.50    0.50
 -11  -4   3    0.70    0.60
  10   4  -3   45.80    2.00
 -10  -4   3   46.70    2.10
   9   4  -3   11.20    1.10
  -9  -4   3   11.30    1.20
   8   4  -3   91.49    2.60
  -8  -4   3   95.39    2.60
   7   4  -3  115.39    2.80
  -7  -4   3  118.29    2.80
  -7  -4   3  116.99    2.70
   6   4  -3  214.18    4.00
  -6  -4   3  209.08    3.90
  -6  -4   3  215.68    4.00
  -5  -4   3    2.40    0.50
   4   4  -3  503.45    7.60
  -4  -4   3  504.95    7.70
  -4  -4   3  509.45    7.10
   3   4  -3   65.09    1.60
  -3  -4   3   68.89    1.80
  -2  -4   3  107.89    2.30
   1   4  -3   38.50    1.20
  -1  -4   3   39.10    1.20
   0   4  -3   26.40    1.00
   0   4  -3   26.60    0.60
   0  -4   3   26.10    1.00
  -1   4  -3  405.46    5.70
  -1   4  -3  397.56    6.20
   1  -4   3  406.16    6.10
  -2   4  -3   16.90    0.90
  -2   4  -3   17.70    0.70
   2  -4   3   17.60    0.80
  -3   4  -3  284.17    5.10
  -3   4  -3  292.87    4.80
   3  -4   3  296.27    4.70
  -4   4  -3   66.79    2.10
  -4   4  -3   68.59    1.90
   4  -4   3   68.79    1.70
  -5   4  -3   11.30    1.00
   5  -4   3   10.60    1.00
  -6   4  -3   53.39    2.00
   6  -4   3   56.69    2.10
  -7   4  -3    8.80    1.10
   7  -4   3    6.60    1.00
  -8   4  -3    0.80    0.60
   8  -4   3   -0.50    0.50
  -9   4  -3    2.10    0.80
   9  -4   3    2.30    0.80
  11   3  -3    0.00    0.50
 -11  -3   3    0.20    0.60
  10   3  -3   11.50    1.20
 -10  -3   3   11.90    1.30
   9   3  -3   35.10    1.70
  -9  -3   3   37.20    1.80
   8   3  -3   46.50    1.80
  -8  -3   3   41.50    1.80
   7   3  -3  147.19    3.30
  -7  -3   3  146.19    2.90
  -7  -3   3  143.59    3.20
   6   3  -3    0.10    0.30
  -6  -3   3    0.10    0.30
  -6  -3   3    0.20    0.20
   5   3  -3   25.80    1.10
  -5  -3   3   28.20    1.00
  -5  -3   3   27.90    1.00
   4   3  -3  251.57    4.20
  -4  -3   3  258.97    4.20
  -4  -3   3  249.48    4.00
   3   3  -3   32.50    1.00
  -3  -3   3   34.40    1.10
  -3  -3   3   32.90    0.80
   2   3  -3    4.80    0.40
  -2  -3   3    4.70    0.40
  -2  -3   3    6.20    0.20
   1   3  -3  312.87    4.70
  -1  -3   3  301.87    4.80
   0   3  -3    2.80    0.30
   0   3  -3    4.00    0.20
   0  -3   3    2.30    0.30
  -1   3  -3   18.80    0.60
  -1   3  -3   19.50    0.80
   1  -3   3   19.70    0.80
  -2   3  -3  301.47    4.90
  -2   3  -3  301.37    4.60
   2  -3   3  307.17    4.70
  -3   3  -3   14.10    0.80
  -3   3  -3   13.20    0.70
   3  -3   3   13.10    0.70
  -4   3  -3   55.69    1.70
  -4   3  -3   53.99    1.60
   4  -3   3   50.79    1.30
  -5   3  -3  132.39    3.00
   5  -3   3  130.19    3.10
   5  -3   3  131.89    2.50
  -6   3  -3   35.20    1.60
   6  -3   3   32.40    1.50
  -7   3  -3    4.70    0.80
   7  -3   3    4.80    0.80
  -8   3  -3    8.80    1.20
   8  -3   3    5.80    1.00
  -9   3  -3    6.50    1.10
   9  -3   3    8.40    1.20
  10  -3   3    5.10    1.20
  11   2  -3    0.10    0.60
 -11  -2   3   -0.70    0.50
  10   2  -3   12.90    1.30
 -10  -2   3   14.30    1.50
   9   2  -3    1.30    0.60
  -9  -2   3    2.30    0.70
   8   2  -3    0.10    0.40
  -8  -2   3    0.40    0.50
   7   2  -3  131.49    3.20
  -7  -2   3  132.09    3.20
   6   2  -3   20.60    1.10
  -6  -2   3   20.90    0.80
  -6  -2   3   21.00    1.00
   5   2  -3  110.09    2.50
  -5  -2   3  110.59    2.20
  -5  -2   3  105.59    2.40
   4   2  -3  321.17    5.10
  -4  -2   3  322.07    5.00
  -4  -2   3  324.27    4.90
   3   2  -3   42.70    1.20
  -3  -2   3   44.50    1.10
  -3  -2   3   42.70    1.00
  -2  -2   3  219.58    3.50
  -2  -2   3  228.28    3.20
   1   2  -3    2.40    0.30
  -1  -2   3    2.40    0.30
   0   2  -3   18.80    0.60
   0  -2   3   17.70    0.30
  -1   2  -3  364.26    5.10
  -1   2  -3  363.06    5.40
   1  -2   3  367.26    5.30
  -2   2  -3    0.30    0.10
  -2   2  -3    0.20    0.20
  -2   2  -3    0.50    0.20
  -3   2  -3   25.50    0.90
  -3   2  -3   24.30    0.80
  -3   2  -3   24.00    0.90
  -4   2  -3   13.70    0.80
  -4   2  -3   12.20    0.80
  -4   2  -3   13.20    0.60
  -5   2  -3    0.00    0.30
   5  -2   3    1.10    0.40
  -6   2  -3   19.00    1.20
   6  -2   3   19.00    1.10
  -7   2  -3    5.10    0.90
   7  -2   3    7.50    0.90
  -8   2  -3    8.80    1.10
   8  -2   3    9.50    1.10
  -9   2  -3   17.30    1.50
   9  -2   3   21.10    1.50
 -10   2  -3    0.00    0.70
  10  -2   3    0.00    0.50
  11   1  -3   10.60    1.30
 -11  -1   3   13.00    1.50
  10   1  -3    0.70    0.60
 -10  -1   3    1.10    0.70
   9   1  -3    0.70    0.50
  -9  -1   3    1.20    0.60
   8   1  -3   43.70    1.80
  -8  -1   3   44.30    2.00
   7   1  -3   80.69    2.40
  -7  -1   3   79.29    2.40
   6   1  -3   22.00    1.10
  -6  -1   3   21.80    1.10
   5   1  -3  101.09    2.30
  -5  -1   3  102.39    2.40
  -5  -1   3   99.69    1.90
   4   1  -3  629.04    9.20
  -4  -1   3  632.74    8.80
  -4  -1   3  642.64    9.10
   3   1  -3    0.60    0.20
  -3  -1   3    0.60    0.20
  -3  -1   3    0.90    0.20
   2   1  -3    0.80    0.20
  -2  -1   3    0.90    0.20
  -2  -1   3    1.40    0.20
   1   1  -3 1286.87   17.50
  -1  -1   3 1303.77   17.00
  -1  -1   3 1277.97   17.50
   0   1  -3    9.30    0.40
   0   1  -3    9.10    0.40
   0  -1   3    9.40    0.20
  -1   1  -3  174.68    2.70
  -1   1  -3  176.48    2.80
  -1   1  -3  176.68    2.60
  -2   1  -3  125.89    2.20
  -2   1  -3  124.29    2.20
  -2   1  -3  129.89    2.20
  -3   1  -3    8.50    0.50
  -3   1  -3    8.50    0.50
  -3   1  -3    9.20    0.50
  -4   1  -3  512.55    7.70
  -4   1  -3  508.85    7.20
   4  -1   3  514.75    7.60
  -5   1  -3   22.80    1.10
  -5   1  -3   23.60    0.80
   5  -1   3   23.80    1.00
  -6   1  -3  102.09    2.00
  -6   1  -3  101.29    2.70
   6  -1   3  101.89    2.50
  -7   1  -3  133.09    3.30
   7  -1   3  130.19    3.10
  -8   1  -3   21.20    1.50
   8  -1   3   23.70    1.40
  -9   1  -3    1.50    0.70
   9  -1   3    1.00    0.60
 -10   1  -3    0.20    0.70
  10  -1   3    0.90    0.60
  10   0  -3   13.60    1.40
 -10   0   3   16.00    1.60
   9   0  -3    3.40    0.80
  -9   0   3    1.20    0.60
   8   0  -3   28.70    1.50
  -8   0   3   27.70    1.60
   7   0  -3   10.20    0.90
  -7   0   3    8.90    1.00
   6   0  -3    1.20    0.40
  -6   0   3    1.50    0.50
  -5   0   3  690.13    9.30
  -5   0   3  714.63   10.40
  -4   0   3   92.99    2.10
  -4   0   3   92.69    1.50
   3   0  -3   35.80    1.10
  -3   0   3   35.20    1.00
  -3   0   3   36.90    0.80
   2   0  -3   84.29    1.70
  -2   0   3   82.99    1.40
  -2   0   3   86.29    1.60
   1   0  -3   65.29    1.30
   1   0  -3   66.99    1.20
  -1   0   3   66.19    1.10
   0   0  -3  893.41   12.30
   0   0  -3  914.81   12.60
   0   0   3  942.71   12.30
  -1   0  -3 1083.89   14.60
  -1   0  -3 1096.79   14.70
   1   0   3 1085.99   14.60
  -2   0  -3    2.10    0.20
  -2   0  -3    1.60    0.20
  -2   0  -3    1.50    0.20
  -3   0  -3  101.09    1.90
  -3   0  -3  104.39    2.00
  -3   0  -3   99.39    1.80
  -4   0  -3  658.53    9.10
  -4   0  -3  653.13    9.40
   4   0   3  651.13    9.20
  -5   0  -3   41.80    1.40
  -5   0  -3   43.10    1.10
   5   0   3   43.70    1.30
  -6   0  -3  940.71   13.60
  -6   0  -3  936.91   12.80
   6   0   3  928.81   13.30
  -7   0  -3   13.20    1.10
   7   0   3   10.40    0.90
  -8   0  -3  131.19    3.50
   8   0   3  122.39    3.10
  -9   0  -3   43.70    2.10
   9   0   3   44.10    1.90
 -10   0  -3    1.00    0.70
  10   0   3    1.10    0.60
 -11   0  -3    1.00    0.80
  10  -1  -3    2.50    0.90
 -10   1   3    4.00    1.00
   9  -1  -3    0.30    0.50
  -9   1   3    0.80    0.70
   8  -1  -3   24.50    1.50
  -8   1   3   24.20    1.60
   7  -1  -3   11.40    1.00
  -7   1   3   11.60    1.10
   6  -1  -3   82.09    2.40
  -6   1   3   84.89    2.40
   5  -1  -3    7.60    0.80
  -5   1   3    9.00    0.80
   4  -1  -3  491.15    7.60
  -4   1   3  505.35    7.60
   3  -1  -3   13.90    0.70
  -3   1   3   14.60    0.70
   2  -1  -3  112.79    2.10
  -2   1   3  111.29    2.10
  -2   1   3  120.99    1.70
   1  -1  -3  403.26    5.70
   1  -1  -3  399.46    5.50
  -1   1   3  410.86    5.60
   0  -1  -3  227.28    3.20
   0  -1  -3  230.68    3.30
   0   1   3  226.48    3.30
  -1  -1  -3  476.05    6.30
  -1  -1  -3  466.85    6.60
   1   1   3  486.95    6.50
  -2  -1  -3  219.58    3.10
  -2  -1  -3  219.98    3.40
   2   1   3  221.28    3.30
  -3  -1  -3   11.00    0.50
  -3  -1  -3   11.70    0.60
   3   1   3   13.00    0.40
  -4  -1  -3  263.17    4.30
  -4  -1  -3  263.17    4.10
   4   1   3  264.67    4.00
  -5  -1  -3    0.60    0.20
  -5  -1  -3    0.60    0.30
   5   1   3    0.40    0.20
  -6  -1  -3   32.50    1.10
  -6  -1  -3   33.10    1.40
   6   1   3   33.30    1.10
  -7  -1  -3   17.90    1.20
  -7  -1  -3   17.30    0.80
   7   1   3   17.50    0.90
  -8  -1  -3   15.80    1.30
   8   1   3   16.00    1.00
  -9  -1  -3   27.40    1.70
   9   1   3   29.90    1.50
 -10  -1  -3   12.50    1.40
  10   1   3   15.50    1.20
 -11  -1  -3    0.90    0.70
  10  -2  -3    1.20    0.70
 -10   2   3    1.40    0.80
   9  -2  -3    1.20    0.70
  -9   2   3    2.50    0.80
   8  -2  -3   40.40    1.90
  -8   2   3   37.80    2.00
   7  -2  -3    1.00    0.50
  -7   2   3   -0.20    0.40
   6  -2  -3   31.30    1.50
  -6   2   3   29.00    1.50
   5  -2  -3  221.08    4.30
  -5   2   3  217.38    4.30
   4  -2  -3    6.00    0.60
  -4   2   3    7.10    0.60
   3  -2  -3  247.18    4.20
  -3   2   3  256.87    4.20
   2  -2  -3  208.98    2.80
   2  -2  -3  210.88    3.50
  -2   2   3  210.78    3.40
   1  -2  -3  437.96    6.20
   1  -2  -3  434.46    5.90
  -1   2   3  434.66    6.20
   0  -2  -3  236.98    3.40
   0  -2  -3  233.08    3.40
   0   2   3  238.78    3.50
  -1  -2  -3  115.19    1.60
  -1  -2  -3  116.89    2.00
   1   2   3  115.69    1.90
  -2  -2  -3  114.19    2.00
   2   2   3  111.39    1.90
  -3  -2  -3  730.13   10.10
  -3  -2  -3  741.63   10.10
   3   2   3  720.23    9.60
  -4  -2  -3    5.30    0.50
  -4  -2  -3    5.00    0.40
   4   2   3    5.50    0.30
  -5  -2  -3   73.49    1.70
  -5  -2  -3   73.19    1.90
   5   2   3   74.49    1.60
  -6  -2  -3   54.09    1.50
  -6  -2  -3   57.39    1.80
   6   2   3   55.49    1.40
  -7  -2  -3    1.20    0.30
  -7  -2  -3    2.10    0.50
   7   2   3    1.20    0.40
  -8  -2  -3    3.00    0.60
  -8  -2  -3    3.30    0.70
   8   2   3    2.60    0.50
  -9  -2  -3    0.60    0.50
   9   2   3    0.30    0.40
 -10  -2  -3   -0.20    0.50
  10   2   3   -0.80    0.60
 -11  -2  -3    3.40    0.90
   9  -3  -3   56.89    2.50
  -9   3   3   63.19    2.80
   8  -3  -3    0.90    0.60
  -8   3   3    0.50    0.60
   7  -3  -3   26.40    1.60
  -7   3   3   26.10    1.60
   6  -3  -3   25.10    1.40
  -6   3   3   27.70    1.50
   5  -3  -3   13.80    1.00
  -5   3   3    9.20    0.90
   4  -3  -3   34.70    1.40
  -4   3   3   35.30    1.40
   3  -3  -3    6.80    0.60
  -3   3   3    7.60    0.60
   2  -3  -3   14.90    0.70
   2  -3  -3   15.70    0.40
  -2   3   3   15.10    0.70
   1  -3  -3   25.70    0.60
   1  -3  -3   26.20    0.80
  -1   3   3   25.10    0.80
   0  -3  -3  566.54    7.60
   0  -3  -3  530.25    7.60
   0   3   3  563.44    7.70
  -1  -3  -3   76.09    1.50
  -1  -3  -3   77.69    1.30
   1   3   3   75.19    1.40
  -2  -3  -3    0.50    0.20
  -2  -3  -3    1.20    0.10
   2   3   3    1.80    0.20
  -3  -3  -3  274.97    4.30
   3   3   3  279.77    4.20
   3   3   3  265.27    3.70
  -4  -3  -3    1.10    0.30
  -4  -3  -3    1.00    0.30
   4   3   3    1.30    0.20
  -5  -3  -3   10.30    0.70
  -5  -3  -3   10.60    0.60
   5   3   3    9.40    0.50
  -6  -3  -3  142.89    3.00
  -6  -3  -3  135.59    2.70
   6   3   3  138.99    2.50
  -7  -3  -3   11.60    0.90
  -7  -3  -3   12.00    0.80
   7   3   3   11.40    0.70
  -8  -3  -3   30.80    1.20
  -8  -3  -3   32.00    1.50
   8   3   3   32.60    1.20
  -9  -3  -3  101.49    3.00
   9   3   3   90.09    2.40
 -10  -3  -3    2.80    0.80
 -11  -3  -3    0.00    0.60
   9  -4  -3    5.30    1.10
  -9   4   3    6.90    1.20
   8  -4  -3   44.90    2.30
  -8   4   3   46.00    2.40
   7  -4  -3    1.20    0.70
  -7   4   3    1.10    0.60
   6  -4  -3  102.19    3.00
  -6   4   3   96.39    3.00
   5  -4  -3   41.50    1.70
  -5   4   3   40.50    1.70
   4  -4  -3   50.79    1.80
  -4   4   3   51.09    1.70
   3  -4  -3   22.90    1.10
  -3   4   3   24.50    1.10
   2  -4  -3  107.09    2.30
   2  -4  -3  104.69    1.70
  -2   4   3  103.79    2.20
   1  -4  -3  190.48    2.90
   1  -4  -3  190.98    3.30
  -1   4   3  188.88    3.20
   0  -4  -3    2.80    0.30
   0  -4  -3    3.40    0.30
   0   4   3    3.10    0.30
  -1  -4  -3  111.09    2.10
   1   4   3  112.59    1.90
   1   4   3  110.69    2.00
  -2  -4  -3  126.19    2.40
   2   4   3  132.09    2.30
   2   4   3  128.69    1.90
  -3  -4  -3   69.09    1.60
   3   4   3   69.69    1.10
   3   4   3   67.59    1.50
  -4  -4  -3    8.50    0.60
   4   4   3    8.50    0.30
   4   4   3    9.20    0.50
  -5  -4  -3    8.80    0.60
   5   4   3    7.40    0.60
   5   4   3    9.10    0.40
  -6  -4  -3   28.90    1.20
  -6  -4  -3   29.80    1.20
   6   4   3   28.30    0.90
  -7  -4  -3   70.59    1.90
  -7  -4  -3   70.89    2.10
   7   4   3   72.59    1.70
  -8  -4  -3   65.39    1.90
  -8  -4  -3   64.69    2.10
   8   4   3   64.39    1.70
  -9  -4  -3   38.20    1.80
  -9  -4  -3   34.50    1.40
 -10  -4  -3    4.60    0.90
 -11  -4  -3    3.40    0.90
 -12  -4  -3    5.30    1.10
   8  -5  -3    2.30    0.80
  -8   5   3    2.10    0.80
   7  -5  -3    0.70    0.60
  -7   5   3    0.70    0.60
   6  -5  -3    9.50    1.10
  -6   5   3    9.90    1.20
   5  -5  -3    7.30    0.90
  -5   5   3    5.70    0.80
   4  -5  -3   44.40    1.70
  -4   5   3   41.90    1.70
   3  -5  -3  135.09    3.00
  -3   5   3  135.29    3.00
   2  -5  -3   40.50    1.40
   2  -5  -3   36.90    0.90
  -2   5   3   38.00    1.30
   1  -5  -3   23.10    0.80
   1  -5  -3   21.80    0.90
  -1   5   3   22.90    0.90
   0  -5  -3  236.18    3.90
   0   5   3  245.38    3.90
   0   5   3  241.78    3.90
  -1  -5  -3  105.79    2.20
   1   5   3  108.79    2.00
   1   5   3  112.09    2.10
   2   5   3    1.30    0.30
   2   5   3    1.50    0.20
  -3  -5  -3  816.92   11.60
   3   5   3  827.02   11.30
   3   5   3  808.42   10.90
  -4  -5  -3    1.70    0.40
   4   5   3    2.50    0.20
   4   5   3    1.70    0.30
  -5  -5  -3    4.10    0.50
   5   5   3    4.70    0.50
   5   5   3    4.90    0.30
  -6  -5  -3   46.00    1.60
   6   5   3   48.40    1.50
   6   5   3   49.50    1.20
  -7  -5  -3    3.50    0.60
   7   5   3    4.40    0.60
   7   5   3    4.90    0.50
  -8  -5  -3   50.49    1.80
  -8  -5  -3   51.49    1.80
   8   5   3   50.09    1.50
  -9  -5  -3    9.50    1.00
  -9  -5  -3   10.30    1.00
 -10  -5  -3    6.20    0.90
 -11  -5  -3   35.60    1.90
 -12  -5  -3    0.70    0.60
  -8   6   3    0.20    0.80
   7  -6  -3    0.40    0.60
  -7   6   3    1.20    0.70
   6  -6  -3   61.79    2.50
  -6   6   3   63.09    2.50
   5  -6  -3    4.50    0.80
  -5   6   3    4.50    0.80
   4  -6  -3   15.70    1.20
  -4   6   3   14.60    1.10
   3  -6  -3    7.00    0.80
  -3   6   3    5.80    0.70
   2  -6  -3   18.90    0.70
   2  -6  -3   19.90    1.10
  -2   6   3   20.50    1.00
   1  -6  -3   94.49    2.00
   1  -6  -3   95.49    2.30
  -1   6   3   97.09    2.20
   0  -6  -3    4.20    0.50
   0   6   3    4.70    0.50
   0   6   3    3.90    0.40
  -1  -6  -3    0.50    0.30
   1   6   3    0.70    0.20
   1   6   3    0.80    0.30
  -2  -6  -3   47.80    1.40
   2   6   3   44.90    1.10
   2   6   3   45.60    1.20
  -3  -6  -3   51.29    1.60
   3   6   3   53.49    1.20
   3   6   3   54.39    1.40
  -4  -6  -3  148.99    3.20
   4   6   3  158.08    2.80
   4   6   3  159.48    2.50
  -5  -6  -3  127.09    2.90
   5   6   3  129.89    2.20
   5   6   3  127.99    2.60
  -6  -6  -3   66.49    2.00
   6   6   3   67.09    1.80
   6   6   3   70.09    1.40
  -7  -6  -3   14.70    1.10
   7   6   3   13.60    0.90
   7   6   3   15.00    0.70
  -8  -6  -3    1.00    0.50
   8   6   3    1.80    0.50
  -9  -6  -3    3.20    0.70
   9   6   3    4.50    0.70
 -10  -6  -3   34.90    1.60
  10   6   3   35.10    1.70
  11   6   3    0.20    0.50
  12   6   3    0.60    0.60
   7  -7  -3   24.90    1.80
  -7   7   3   25.90    1.90
   6  -7  -3   53.29    2.40
  -6   7   3   57.99    2.50
   5  -7  -3   23.60    1.60
  -5   7   3   23.90    1.60
   4  -7  -3   72.09    2.50
  -4   7   3   71.29    2.40
   3  -7  -3   21.70    1.30
  -3   7   3   24.70    1.30
   2  -7  -3   23.20    1.20
  -2   7   3   25.30    1.20
   1  -7  -3    7.30    0.60
   1  -7  -3    8.30    0.80
  -1   7   3    8.70    0.70
   0  -7  -3   34.50    1.20
   0   7   3   37.50    1.20
   0   7   3   35.30    1.30
  -1  -7  -3   69.69    1.90
   1   7   3   71.69    1.80
   1   7   3   71.09    1.70
  -2  -7  -3   21.50    1.10
   2   7   3   21.20    0.80
   2   7   3   20.90    0.80
  -3  -7  -3   91.19    2.30
   3   7   3   92.79    1.90
   3   7   3   92.69    2.00
  -4  -7  -3    5.60    0.70
   4   7   3    6.30    0.50
   4   7   3    5.90    0.40
  -5  -7  -3  248.18    4.80
   5   7   3  260.17    3.90
   5   7   3  258.17    4.30
  -6  -7  -3   30.30    1.40
   6   7   3   30.80    1.20
   6   7   3   27.40    0.90
  -7  -7  -3   11.20    1.00
   7   7   3   10.20    0.80
  -8  -7  -3   23.00    1.40
   8   7   3   22.00    1.20
  -9  -7  -3    4.70    0.80
   9   7   3    4.90    0.70
 -10  -7  -3   12.00    1.10
  10   7   3   11.00    1.10
  11   7   3   27.00    1.60
  12   7   3    9.00    1.20
   6  -8  -3    2.30    0.80
  -6   8   3    1.60    0.70
   5  -8  -3    1.60    0.80
  -5   8   3   -0.10    0.50
   4  -8  -3   16.50    1.40
  -4   8   3   15.90    1.30
   3  -8  -3    3.10    0.80
  -3   8   3    5.50    0.80
   2  -8  -3    0.80    0.50
  -2   8   3    1.70    0.50
   1  -8  -3   78.49    2.00
   1  -8  -3   72.49    2.20
  -1   8   3   76.09    2.10
   0  -8  -3   19.00    1.00
   0   8   3   17.50    1.00
   0   8   3   19.20    0.90
  -1  -8  -3    8.00    0.80
   1   8   3    6.30    0.60
   1   8   3    9.60    0.70
  -2  -8  -3   53.19    1.80
   2   8   3   52.29    1.50
   2   8   3   54.49    1.50
  -3  -8  -3    0.80    0.50
   3   8   3    1.90    0.40
   3   8   3    1.60    0.30
  -4  -8  -3  351.26    6.30
   4   8   3  363.36    5.70
   4   8   3  358.16    5.50
  -5  -8  -3    2.60    0.60
   5   8   3    2.70    0.40
   5   8   3    2.90    0.40
  -6  -8  -3   45.60    1.90
   6   8   3   49.80    1.50
  -7  -8  -3   67.89    2.30
   7   8   3   71.29    2.00
  -8  -8  -3    4.10    0.80
   8   8   3    4.30    0.60
  -9  -8  -3    0.60    0.60
   9   8   3    0.70    0.40
 -10  -8  -3    3.90    0.80
  10   8   3    2.60    0.60
  11   8   3    5.50    0.90
  12   8   3    3.30    0.80
   5  -9  -3    2.30    0.80
  -5   9   3    3.00    0.80
   4  -9  -3    8.80    1.20
  -4   9   3   10.70    1.30
   3  -9  -3    0.40    0.50
  -3   9   3    1.20    0.60
   2  -9  -3    0.30    0.50
  -2   9   3    0.50    0.40
   1  -9  -3   27.60    1.50
  -1   9   3   27.10    1.30
   0  -9  -3   30.90    1.40
   0   9   3   27.60    1.40
   0   9   3   30.90    1.30
  -1  -9  -3    1.10    0.50
   1   9   3    1.00    0.40
   1   9   3    0.60    0.30
  -2  -9  -3   73.89    2.30
   2   9   3   73.69    2.00
   2   9   3   71.69    1.90
  -3  -9  -3   10.40    1.00
   3   9   3    9.90    0.70
   3   9   3    8.50    0.70
  -4  -9  -3   37.70    1.70
   4   9   3   36.80    1.30
   4   9   3   36.90    1.20
  -5  -9  -3   10.00    1.10
   5   9   3    9.90    0.70
   5   9   3   10.90    0.70
  -6  -9  -3   23.70    1.50
   6   9   3   23.80    1.10
  -7  -9  -3   72.49    2.50
   7   9   3   69.49    2.00
  -8  -9  -3    9.80    1.10
   8   9   3   11.00    0.90
  -9  -9  -3    0.40    0.60
   9   9   3    0.20    0.40
 -10  -9  -3   28.70    1.80
  10   9   3   28.10    1.50
 -11  -9  -3    1.10    0.70
  11   9   3    1.40    0.60
  12   9   3   11.30    1.20
  -5  10   3    0.50    0.70
   4 -10  -3    9.40    1.30
  -4  10   3   10.60    1.30
   3 -10  -3    5.60    1.00
  -3  10   3    5.40    0.90
   2 -10  -3    4.40    0.90
  -2  10   3    5.50    0.80
   1 -10  -3    0.90    0.60
  -1  10   3    0.30    0.40
   0 -10  -3    0.50    0.50
   0 -10  -3    1.50    0.60
   0  10   3    0.70    0.40
  -1 -10  -3   39.30    1.70
   1  10   3   39.40    1.50
   1  10   3   36.10    1.50
  -2 -10  -3    5.60    0.80
   2  10   3    6.00    0.70
   2  10   3    6.80    0.80
  -3 -10  -3    4.60    0.80
   3  10   3    5.60    0.60
   3  10   3    5.10    0.60
  -4 -10  -3   76.19    2.50
   4  10   3   69.09    1.90
   4  10   3   70.09    1.90
  -5 -10  -3   -0.70    0.50
   5  10   3   -0.40    0.30
  -6 -10  -3    5.30    0.90
   6  10   3    5.80    0.70
  -7 -10  -3    4.30    0.90
   7  10   3    4.30    0.60
  -8 -10  -3    5.00    1.00
   8  10   3    4.10    0.60
  -9 -10  -3   42.90    2.20
   9  10   3   42.10    1.70
 -10 -10  -3   -0.40    0.60
  10  10   3    0.60    0.50
 -11 -10  -3    1.10    0.70
   3 -11  -3   -0.10    0.70
   2 -11  -3    5.10    1.00
  -2  11   3    5.80    0.90
   1 -11  -3   31.40    1.80
  -1  11   3   31.80    1.60
   0 -11  -3   20.50    1.40
   0  11   3   19.80    1.20
  -1 -11  -3    1.40    0.70
   1  11   3    2.10    0.60
   1  11   3    2.50    0.60
  -2 -11  -3    1.10    0.60
   2  11   3    1.30    0.40
   2  11   3    1.10    0.50
  -3 -11  -3   -0.80    0.50
   3  11   3    0.20    0.40
   3  11   3    0.10    0.30
  -4 -11  -3   39.30    2.00
   4  11   3   37.00    1.40
  -5 -11  -3   10.60    1.20
   5  11   3   11.80    0.90
  -6 -11  -3    0.20    0.60
   6  11   3    0.20    0.50
  -7 -11  -3  118.59    3.70
  -8 -11  -3    1.40    0.80
  -9 -11  -3    1.20    0.80
 -10 -11  -3   27.50    1.90
 -11 -11  -3   -0.30    0.60
   2 -12  -3    1.20    0.70
   1 -12  -3   12.00    1.40
   0 -12  -3   18.00    1.50
  -1 -12  -3   34.60    1.80
  -2 -12  -3    6.70    1.00
   2  12   3    5.60    0.80
  -3 -12  -3    0.30    0.70
  -4 -12  -3   -0.20    0.70
  -5 -12  -3   22.40    1.70
  -6 -12  -3   45.10    2.30
  -7 -12  -3   12.90    1.50
  -8 -12  -3   -0.10    0.60
  -9 -12  -3   18.90    1.80
 -10 -12  -3    5.30    1.10
   1 -13  -3    2.50    1.00
   0 -13  -3   -0.50    0.50
  -1 -13  -3    7.10    1.00
  -2 -13  -3    3.40    1.10
  -3 -13  -3    0.40    0.70
  -4 -13  -3   23.20    1.80
  -5 -13  -3    0.30    0.70
  -6 -13  -3    1.20    0.80
  -7 -13  -3    0.60    0.70
  -8 -13  -3    3.40    1.00
  -9 -13  -3    3.60    1.00
  -3 -14  -3   26.60    2.00
  -4 -14  -3    9.20    1.30
  -5 -14  -3    0.30    0.70
  -6 -14  -3    0.00    0.80
  -7 -14  -3    6.30    1.20
   6  13  -4   -0.10    0.60
   5  13  -4    8.50    1.20
   4  13  -4   -0.10    0.50
  -4 -13   4   -0.20    1.00
   3  13  -4   20.70    1.70
  -3 -13   4   20.60    2.20
  -2 -13   4    4.10    1.40
   7  12  -4    6.00    1.00
  -7 -12   4    4.90    1.20
   6  12  -4   -0.10    0.50
  -6 -12   4    0.50    0.80
   5  12  -4    0.40    0.60
  -5 -12   4    0.20    0.80
   4  12  -4    8.40    1.20
  -4 -12   4    9.70    1.40
   3  12  -4   12.20    1.30
  -3 -12   4   14.00    1.60
   2  12  -4   19.80    1.60
  -2 -12   4   22.10    1.80
   1  12  -4   -0.40    0.50
  -1 -12   4    1.60    0.80
   0  12  -4    2.40    0.80
  -9 -11   4    0.30    0.70
   8  11  -4    1.20    0.60
  -8 -11   4    1.00    0.80
   7  11  -4    1.60    0.60
  -7 -11   4    0.40    0.80
   6  11  -4    5.70    0.90
  -6 -11   4    5.60    1.10
   5  11  -4   71.99    2.60
  -5 -11   4   72.79    3.00
   4  11  -4   17.90    1.40
  -4 -11   4   15.50    1.60
   3  11  -4   61.79    2.50
  -3 -11   4   68.39    2.80
   2  11  -4    6.10    1.00
  -2 -11   4    6.70    1.10
   1  11  -4   21.20    1.60
  -1 -11   4   20.70    1.70
   0  11  -4    9.80    1.20
   0 -11   4    9.00    1.20
  -1  11  -4   -0.50    0.60
  -2  11  -4    0.40    0.70
 -10 -10   4    4.00    1.00
   9  10  -4    2.50    0.70
  -9 -10   4    2.40    0.90
   8  10  -4   14.20    1.20
  -8 -10   4   12.90    1.60
   7  10  -4    9.00    1.10
  -7 -10   4   10.50    1.40
   6  10  -4    8.00    1.00
  -6 -10   4    8.00    1.30
   5  10  -4   59.59    2.20
  -5 -10   4   55.29    2.60
   4  10  -4    1.10    0.60
  -4 -10   4    0.80    0.70
   3  10  -4   75.99    2.60
  -3 -10   4   81.49    3.00
   2  10  -4    4.70    0.90
  -2 -10   4    5.10    1.00
   1  10  -4   11.20    1.20
  -1 -10   4   12.70    1.40
   0  10  -4   22.00    1.60
   0 -10   4   20.10    1.60
  -1  10  -4    7.20    1.10
   1 -10   4   13.00    1.40
  -2  10  -4    2.40    0.80
  -3  10  -4   -0.10    0.60
  10   9  -4    1.10    0.60
   9   9  -4    2.40    0.70
  -9  -9   4    3.10    0.90
   8   9  -4   26.20    1.50
  -8  -9   4   24.90    1.80
   7   9  -4    2.90    0.70
  -7  -9   4    0.90    0.70
   6   9  -4    1.70    0.60
  -6  -9   4    1.30    0.70
   5   9  -4    1.10    0.50
  -5  -9   4    1.00    0.60
   4   9  -4    0.00    0.40
  -4  -9   4    0.10    0.50
   3   9  -4   24.70    1.40
  -3  -9   4   25.70    1.60
   2   9  -4    1.60    0.60
  -2  -9   4    0.90    0.60
   1   9  -4    0.80    0.50
  -1  -9   4    0.70    0.60
   0   9  -4   62.89    2.40
   0  -9   4   68.49    2.40
  -1   9  -4    4.50    0.80
   1  -9   4    5.00    0.80
  -2   9  -4   -0.10    0.50
  -3   9  -4   16.00    1.50
   4  -9   4   -0.20    0.60
  10   8  -4   16.50    1.30
   9   8  -4   37.60    1.80
  -9  -8   4   37.30    2.00
   8   8  -4   26.10    1.50
  -8  -8   4   26.60    1.70
   7   8  -4    3.20    0.70
  -7  -8   4    5.40    1.00
   6   8  -4   33.90    1.60
  -6  -8   4   36.20    1.80
   5   8  -4    2.80    0.60
  -5  -8   4    1.90    0.70
   4   8  -4   37.40    1.60
  -4  -8   4   36.10    1.80
   3   8  -4   60.99    2.00
  -3  -8   4   62.69    2.30
   2   8  -4    7.70    0.90
  -2  -8   4    5.30    0.80
   1   8  -4   19.30    1.20
  -1  -8   4   18.50    1.30
   0   8  -4   14.40    1.10
   0  -8   4   12.10    1.10
  -1   8  -4    0.10    0.50
   1  -8   4    0.80    0.50
  -2   8  -4    0.80    0.50
   2  -8   4    0.10    0.40
  -3   8  -4   -0.10    0.50
  -4   8  -4    9.30    1.20
   5  -8   4    1.70    0.80
   6  -8   4    0.90    1.20
  11   7  -4    0.50    0.50
  10   7  -4    2.00    0.60
   9   7  -4   29.50    1.60
  -9  -7   4   31.20    1.70
   8   7  -4    4.00    0.70
  -8  -7   4    4.60    0.80
   7   7  -4    0.50    0.40
  -7  -7   4    0.70    0.50
   6   7  -4   15.90    1.00
  -6  -7   4   16.50    1.20
   5   7  -4   16.70    1.00
  -5  -7   4   17.20    1.30
   4   7  -4    8.60    0.80
  -4  -7   4    6.60    0.90
   3   7  -4   20.30    1.10
  -3  -7   4   21.00    1.30
   2   7  -4   90.39    2.40
  -2  -7   4   89.09    2.60
   1   7  -4   97.79    2.60
  -1  -7   4   96.79    2.70
   0   7  -4  260.67    5.00
   0  -7   4  257.67    5.00
  -1   7  -4   -0.10    0.40
   1  -7   4    0.40    0.40
  -2   7  -4    0.40    0.50
   2  -7   4    0.60    0.50
  -3   7  -4    1.70    0.60
   3  -7   4    1.50    0.50
  -4   7  -4    4.10    0.90
   5  -7   4   45.00    2.20
   6  -7   4    1.60    0.70
  11   6  -4   -0.50    0.50
  10   6  -4   21.20    1.40
   9   6  -4   12.20    1.10
   8   6  -4   -0.10    0.40
  -8  -6   4    0.10    0.40
   7   6  -4   14.20    1.00
  -7  -6   4   16.80    1.20
   6   6  -4    0.60    0.40
  -6  -6   4    0.80    0.50
   5   6  -4   13.10    0.90
  -5  -6   4   12.50    1.00
   4   6  -4   60.09    1.80
  -4  -6   4   57.39    2.00
   3   6  -4    3.30    0.50
  -3  -6   4    2.60    0.60
   2   6  -4  234.78    4.30
  -2  -6   4  228.28    4.50
   1   6  -4   10.50    0.80
  -1  -6   4   11.60    0.90
   0   6  -4   81.49    2.20
   0  -6   4   78.29    2.20
  -1   6  -4  136.49    3.20
   1  -6   4  141.59    3.10
  -2   6  -4   13.90    1.00
  -2   6  -4   15.80    0.80
   2  -6   4   15.10    1.00
  -3   6  -4   13.60    0.80
  -3   6  -4   13.40    1.10
   3  -6   4   11.20    0.90
  -4   6  -4   12.00    1.10
  -4   6  -4   10.00    0.90
  -5   6  -4   15.80    1.10
   5  -6   4   16.70    1.40
  -6   6  -4    0.10    0.50
   6  -6   4   -0.50    0.50
  -7   6  -4    1.40    1.00
   7  -6   4    1.30    0.70
  11   5  -4    1.70    0.70
  10   5  -4    5.60    0.90
   9   5  -4   24.50    1.50
  -9  -5   4   26.10    1.40
   8   5  -4   39.00    1.70
  -8  -5   4   40.70    1.60
   7   5  -4   39.90    1.60
  -7  -5   4   37.20    1.60
  -7  -5   4   37.80    1.40
   6   5  -4   40.70    1.50
  -6  -5   4   36.50    1.50
  -6  -5   4   35.00    1.20
   5   5  -4  316.27    5.40
  -5  -5   4  314.67    5.60
  -5  -5   4  314.47    4.80
   4   5  -4   77.69    2.10
   4   5  -4   78.59    1.40
  -4  -5   4   76.99    2.20
   3   5  -4  288.37    4.90
  -3  -5   4  290.97    5.10
   2   5  -4   18.80    0.90
  -2  -5   4   18.70    1.00
   1   5  -4   63.19    1.80
  -1  -5   4   66.29    1.90
   0   5  -4   18.40    0.50
   0   5  -4   18.10    0.90
   0  -5   4   19.20    1.00
  -1   5  -4    8.80    0.50
  -1   5  -4    8.30    0.70
   1  -5   4    8.80    0.70
  -2   5  -4   62.89    1.90
  -2   5  -4   62.89    1.50
   2  -5   4   62.49    1.80
  -3   5  -4    0.70    0.30
  -3   5  -4    0.00    0.30
   3  -5   4   -0.40    0.30
  -4   5  -4  104.49    2.60
  -4   5  -4  101.19    2.80
   4  -5   4  107.39    2.40
  -5   5  -4   34.50    1.50
   5  -5   4   32.30    1.70
  -6   5  -4    6.70    0.90
   6  -5   4    8.10    1.10
  -7   5  -4    5.60    0.90
   7  -5   4    5.90    1.00
  -8   5  -4    0.30    0.60
   8  -5   4   -0.30    0.50
  11   4  -4    2.50    0.80
 -11  -4   4    2.60    0.80
  10   4  -4   12.10    1.30
 -10  -4   4   15.20    1.30
   9   4  -4    1.20    0.50
  -9  -4   4    1.30    0.60
   8   4  -4   62.29    2.20
  -8  -4   4   65.19    2.10
   7   4  -4    7.20    0.80
  -7  -4   4    9.70    0.80
  -7  -4   4    7.80    0.80
   6   4  -4  242.08    4.60
  -6  -4   4  244.78    4.50
  -6  -4   4  247.28    4.30
   5   4  -4  305.67    5.30
  -5  -4   4  304.77    4.80
  -5  -4   4  294.17    5.20
   4   4  -4  470.15    7.30
  -4  -4   4  469.15    7.40
  -4  -4   4  468.75    6.60
   3   4  -4   24.40    1.00
  -3  -4   4   21.30    1.00
   2   4  -4  420.86    6.50
  -2  -4   4  421.96    6.60
   1   4  -4   34.40    1.10
  -1  -4   4   36.70    1.20
   0   4  -4  202.08    3.60
   0  -4   4  199.58    3.60
  -1   4  -4   53.49    1.60
  -1   4  -4   55.29    1.10
   1  -4   4   53.39    1.50
  -2   4  -4   25.90    1.10
  -2   4  -4   23.50    0.80
   2  -4   4   27.10    1.10
  -3   4  -4   83.39    1.90
  -3   4  -4   81.09    2.20
   3  -4   4   79.99    2.00
  -4   4  -4    7.30    0.80
  -4   4  -4    7.00    0.70
   4  -4   4    6.90    0.60
  -5   4  -4  115.79    2.90
   5  -4   4  122.19    3.10
  -6   4  -4    8.40    1.00
   6  -4   4    7.30    1.00
  -7   4  -4    0.90    0.60
   7  -4   4    0.70    0.50
  -8   4  -4   40.50    2.10
   8  -4   4   38.20    2.00
  -9   4  -4    0.80    0.70
   9  -4   4    2.00    0.70
  11   3  -4    4.60    1.00
 -11  -3   4    5.40    1.00
  10   3  -4    3.60    0.90
 -10  -3   4    4.50    0.90
   9   3  -4    2.40    0.60
  -9  -3   4    2.80    0.70
   8   3  -4    4.00    0.70
  -8  -3   4    2.00    0.60
   7   3  -4  128.99    3.10
  -7  -3   4  128.99    3.00
  -7  -3   4  128.19    2.70
   6   3  -4    8.40    0.80
  -6  -3   4    8.40    0.70
  -6  -3   4    7.20    0.60
   5   3  -4  211.68    4.00
  -5  -3   4  218.78    3.80
  -5  -3   4  213.48    3.90
   4   3  -4    9.00    0.70
  -4  -3   4    7.50    0.50
  -4  -3   4    7.60    0.60
   3   3  -4   87.59    2.00
  -3  -3   4   88.59    2.00
  -3  -3   4   86.19    1.60
   2   3  -4  408.16    6.10
  -2  -3   4  405.16    6.20
  -2  -3   4  403.06    5.40
   1   3  -4  288.27    4.50
  -1  -3   4  284.77    4.60
   0   3  -4    0.80    0.20
   0  -3   4    0.60    0.20
  -1   3  -4   66.39    1.60
  -1   3  -4   63.69    1.20
   1  -3   4   65.59    1.60
  -2   3  -4   16.10    0.80
  -2   3  -4   15.00    0.60
   2  -3   4   14.50    0.70
  -3   3  -4   34.40    1.10
  -3   3  -4   36.50    1.30
   3  -3   4   35.40    1.10
  -4   3  -4  203.48    3.90
  -4   3  -4  201.48    3.80
   4  -3   4  208.88    3.60
  -5   3  -4    2.00    0.50
   5  -3   4    2.90    0.40
   5  -3   4    1.80    0.50
  -6   3  -4    7.70    0.90
   6  -3   4    6.90    0.90
  -7   3  -4   20.00    1.40
   7  -3   4   22.80    1.40
  -8   3  -4    7.00    1.00
   8  -3   4    7.50    1.00
  -9   3  -4    1.60    0.80
   9  -3   4    1.80    0.70
  10  -3   4    0.70    0.90
  11   2  -4    6.20    1.00
 -11  -2   4    4.60    1.00
  10   2  -4   39.10    2.00
 -10  -2   4   34.70    1.90
   9   2  -4    0.70    0.50
  -9  -2   4    1.20    0.60
   8   2  -4   20.60    1.30
  -8  -2   4   17.70    1.30
   7   2  -4    5.00    0.70
  -7  -2   4    4.00    0.70
   6   2  -4    4.70    0.60
  -6  -2   4    5.90    0.50
  -6  -2   4    5.10    0.60
   5   2  -4  489.15    7.60
  -5  -2   4  475.95    7.10
  -5  -2   4  487.05    7.40
   4   2  -4   60.59    1.60
  -4  -2   4   62.59    1.50
  -4  -2   4   59.79    1.50
   3   2  -4    0.80    0.20
  -3  -2   4   -0.10    0.20
  -3  -2   4    0.10    0.10
   2   2  -4  315.57    4.90
  -2  -2   4  314.07    4.90
  -2  -2   4  328.17    4.50
  -1  -2   4   63.79    1.50
  -1  -2   4   65.99    1.00
   0   2  -4  105.69    2.00
   0  -2   4  103.09    2.00
   0  -2   4  103.59    1.50
  -1   2  -4   75.89    1.30
  -1   2  -4   73.39    1.60
   1  -2   4   72.99    1.60
  -2   2  -4    0.10    0.10
  -2   2  -4   -0.10    0.10
  -2   2  -4    0.50    0.20
  -3   2  -4   29.70    0.90
  -3   2  -4   28.80    1.00
  -3   2  -4   28.40    1.00
  -4   2  -4   -0.10    0.20
  -4   2  -4    0.40    0.20
  -4   2  -4    0.40    0.30
  -5   2  -4    6.80    0.60
  -5   2  -4    6.90    0.80
   5  -2   4    8.20    0.80
  -6   2  -4    5.30    0.70
   6  -2   4    4.10    0.70
  -7   2  -4    9.40    1.00
   7  -2   4    6.40    0.90
  -8   2  -4    2.10    0.70
   8  -2   4    2.30    0.60
  -9   2  -4    2.50    0.80
   9  -2   4    0.90    0.60
 -10   2  -4    0.40    0.70
  10  -2   4   -0.10    0.60
 -11  -1   4    7.50    2.00
  10   1  -4   27.80    1.80
 -10  -1   4   24.10    1.80
   9   1  -4   23.30    1.50
  -9  -1   4   25.10    1.70
   8   1  -4    0.40    0.50
  -8  -1   4    0.70    0.50
   7   1  -4    3.20    0.60
  -7  -1   4    2.90    0.60
   6   1  -4   27.80    1.30
  -6  -1   4   26.60    1.30
   5   1  -4  176.38    3.50
  -5  -1   4  173.38    3.40
  -5  -1   4  171.38    2.90
   4   1  -4   11.50    0.70
  -4  -1   4   10.90    0.70
  -4  -1   4   11.00    0.50
   3   1  -4  160.68    2.90
  -3  -1   4  158.28    2.70
  -3  -1   4  155.38    2.70
   2   1  -4 1634.34   22.00
  -2  -1   4 1672.83   22.10
  -2  -1   4 1650.43   22.00
  -1  -1   4  442.26    6.40
  -1  -1   4  448.86    6.00
   0   1  -4   15.20    0.60
   0   1  -4   15.60    0.60
   0  -1   4   15.80    0.40
  -1   1  -4  210.98    3.30
  -1   1  -4  210.78    3.40
   1  -1   4  213.78    3.10
  -2   1  -4   12.10    0.50
  -2   1  -4   11.50    0.50
  -2   1  -4   12.40    0.60
  -3   1  -4  187.98    3.20
  -3   1  -4  186.88    3.20
  -3   1  -4  192.78    3.20
  -4   1  -4  148.39    2.70
  -4   1  -4  152.28    2.90
  -4   1  -4  155.18    2.90
  -5   1  -4   73.59    1.70
  -5   1  -4   71.99    2.00
   5  -1   4   74.99    1.90
  -6   1  -4  140.89    3.20
  -6   1  -4  139.59    2.60
   6  -1   4  137.29    3.10
  -7   1  -4   68.39    2.30
   7  -1   4   72.89    2.20
  -8   1  -4   37.70    1.90
   8  -1   4   36.60    1.70
  -9   1  -4   62.29    2.50
   9  -1   4   57.79    2.30
 -10   1  -4    6.50    1.10
  10  -1   4    5.90    1.00
  10   0  -4    0.80    0.60
 -10   0   4    0.50    0.60
   9   0  -4    0.30    0.50
  -9   0   4    1.20    0.70
   8   0  -4   25.40    1.50
  -8   0   4   24.90    1.60
   7   0  -4   20.30    1.30
  -7   0   4   19.80    1.30
   6   0  -4   32.30    1.40
  -6   0   4   32.00    1.40
   5   0  -4  113.69    2.60
  -5   0   4  112.39    2.60
   4   0  -4   24.30    1.00
  -4   0   4   25.00    0.70
  -4   0   4   23.60    1.00
   3   0  -4  648.34    9.20
  -3   0   4  650.43    8.80
  -3   0   4  632.24    9.10
   2   0  -4   72.99    1.60
  -2   0   4   73.69    1.40
  -2   0   4   74.99    1.50
   1   0  -4  137.79    2.30
   1   0  -4  134.49    2.20
  -1   0   4  137.49    2.10
   0   0  -4   41.80    1.00
   0   0  -4   40.10    0.90
   0   0   4   40.90    0.80
  -1   0  -4   10.20    0.50
  -1   0  -4    8.90    0.40
   1   0   4    9.40    0.30
  -2   0  -4  207.68    3.20
  -2   0  -4  200.68    3.30
  -2   0  -4  203.28    3.10
  -3   0  -4   83.29    1.70
  -3   0  -4   83.69    1.80
  -3   0  -4   84.29    1.60
  -4   0  -4   19.40    0.80
  -4   0  -4   19.60    0.90
  -4   0  -4   20.70    0.80
  -5   0  -4   27.40    1.00
  -5   0  -4   26.40    1.10
   5   0   4   26.30    1.00
  -6   0  -4  498.35    7.40
  -6   0  -4  505.15    8.10
   6   0   4  501.65    7.70
  -7   0  -4   46.40    1.80
  -7   0  -4   44.20    1.30
   7   0   4   44.80    1.60
  -8   0  -4  312.77    6.10
   8   0   4  300.57    5.60
  -9   0  -4   11.80    1.30
   9   0   4   12.10    1.10
 -10   0  -4   36.20    2.10
  10   0   4   34.80    1.90
 -11   0  -4   14.00    1.70
  10  -1  -4   28.60    1.90
 -10   1   4   27.40    2.00
   9  -1  -4   32.80    1.90
  -9   1   4   30.70    1.90
   8  -1  -4    2.90    0.70
  -8   1   4    3.10    0.80
   7  -1  -4    1.20    0.50
  -7   1   4    1.90    0.60
   6  -1  -4   21.30    1.20
  -6   1   4   20.60    1.20
   5  -1  -4   43.00    1.60
  -5   1   4   44.30    1.60
   4  -1  -4   78.69    2.00
  -4   1   4   81.89    2.00
   3  -1  -4   10.30    0.60
  -3   1   4   10.00    0.30
  -3   1   4    9.40    0.60
   2  -1  -4 1319.17   17.70
  -2   1   4 1314.57   17.40
  -2   1   4 1308.27   18.20
   1  -1  -4  154.98    2.40
   1  -1  -4  158.68    2.60
  -1   1   4  154.18    2.50
   0  -1  -4  116.99    1.90
   0  -1  -4  114.19    2.00
   0   1   4  113.29    1.90
  -1  -1  -4  116.79    2.10
  -1  -1  -4  120.09    1.80
   1   1   4  119.29    1.90
  -2  -1  -4    2.70    0.20
  -2  -1  -4    2.60    0.30
  -3  -1  -4  540.95    7.70
  -3  -1  -4  548.15    7.70
  -3  -1  -4  537.55    7.40
  -4  -1  -4  219.88    3.80
  -4  -1  -4  219.98    3.70
   4   1   4  226.58    3.50
  -5  -1  -4   48.10    1.30
  -5  -1  -4   45.20    1.50
   5   1   4   47.60    1.30
  -6  -1  -4   29.00    1.30
  -6  -1  -4   29.20    1.10
   6   1   4   31.20    1.10
  -7  -1  -4    6.50    0.80
  -7  -1  -4    7.50    0.60
   7   1   4    8.20    0.70
  -8  -1  -4   39.10    1.80
   8   1   4   38.50    1.50
  -9  -1  -4    3.40    0.80
   9   1   4    2.80    0.60
 -10  -1  -4   14.60    1.50
 -11  -1  -4   12.80    1.50
   9  -2  -4   19.10    1.50
  -9   2   4   17.10    1.60
   8  -2  -4    0.00    0.60
  -8   2   4    0.60    0.60
   7  -2  -4    4.90    0.80
  -7   2   4    6.30    0.90
   6  -2  -4   90.69    2.60
  -6   2   4   87.79    2.60
   5  -2  -4   20.00    1.10
  -5   2   4   22.40    1.20
   4  -2  -4   72.69    2.00
  -4   2   4   75.89    2.00
   3  -2  -4  158.58    3.00
  -3   2   4  157.98    3.00
   2  -2  -4   60.99    1.50
   2  -2  -4   57.59    1.00
  -2   2   4   59.29    1.40
   1  -2  -4  359.46    5.30
   1  -2  -4  360.56    5.00
  -1   2   4  360.16    5.30
   0  -2  -4  374.56    5.20
   0  -2  -4  366.16    5.30
   0   2   4  377.96    5.30
  -1  -2  -4   76.09    1.20
  -1  -2  -4   75.29    1.50
  -2  -2  -4   52.19    1.20
   2   2   4   54.69    1.20
  -3  -2  -4   33.60    1.00
   3   2   4   32.60    0.90
   3   2   4   31.50    0.60
  -4  -2  -4    2.00    0.40
  -4  -2  -4    2.00    0.30
   4   2   4    2.10    0.20
  -5  -2  -4  162.38    3.00
  -5  -2  -4  157.98    3.10
   5   2   4  156.58    2.70
  -6  -2  -4   63.29    1.90
  -6  -2  -4   62.59    1.60
   6   2   4   59.29    1.50
  -7  -2  -4   44.20    1.40
  -7  -2  -4   46.80    1.70
   7   2   4   44.10    1.40
  -8  -2  -4    5.60    0.60
  -8  -2  -4    4.50    0.70
   8   2   4    6.20    0.70
  -9  -2  -4   -0.60    0.40
   9   2   4   -0.20    0.30
 -10  -2  -4    8.80    1.20
 -11  -2  -4    2.70    0.90
   9  -3  -4   12.10    1.50
  -9   3   4   10.80    1.40
   8  -3  -4   -0.20    0.50
  -8   3   4    0.30    0.50
   7  -3  -4   88.99    2.90
  -7   3   4   88.39    2.90
   6  -3  -4    6.50    0.90
  -6   3   4    4.30    0.80
   5  -3  -4   60.69    2.10
  -5   3   4   65.59    2.10
  -4   3   4   19.30    1.10
   3  -3  -4   33.70    1.20
  -3   3   4   33.40    1.20
   2  -3  -4  211.08    3.00
   2  -3  -4  208.78    3.60
   1  -3  -4  132.39    2.10
   1  -3  -4  129.89    2.40
   0  -3  -4    4.20    0.30
   0  -3  -4    4.30    0.30
   0   3   4    4.70    0.40
  -1  -3  -4    0.20    0.10
  -1  -3  -4    0.30    0.20
   1   3   4    0.60    0.20
  -2  -3  -4 1049.30   14.40
   2   3   4 1078.59   14.30
  -3  -3  -4  199.48    3.40
   3   3   4  206.28    3.30
  -4  -3  -4   55.49    1.40
   4   3   4   54.39    0.90
   4   3   4   52.19    1.40
  -5  -3  -4  264.47    4.50
  -5  -3  -4  259.57    4.40
   5   3   4  259.97    3.80
  -6  -3  -4   39.20    1.30
  -6  -3  -4   41.40    1.40
   6   3   4   38.40    1.10
  -7  -3  -4   -0.20    0.30
  -7  -3  -4    0.40    0.30
   7   3   4    0.10    0.20
  -8  -3  -4   97.99    2.70
  -8  -3  -4   96.19    2.30
   8   3   4   95.19    2.20
  -9  -3  -4   20.60    1.40
 -10  -3  -4    9.60    1.20
 -11  -3  -4   48.20    2.30
   9  -4  -4    0.50    1.00
  -9   4   4    1.00    1.20
   8  -4  -4   70.49    2.80
  -8   4   4   65.79    2.80
   7  -4  -4    7.60    1.10
  -7   4   4    6.70    1.00
   6  -4  -4   91.39    2.80
  -6   4   4   87.89    2.80
   5  -4  -4    7.80    0.90
  -5   4   4    8.10    1.00
   4  -4  -4  251.57    4.70
  -4   4   4  243.48    4.70
   3  -4  -4   22.70    1.10
  -3   4   4   25.20    1.10
   2  -4  -4  160.38    2.40
   2  -4  -4  163.98    3.10
  -2   4   4  163.48    3.10
   1  -4  -4   26.40    0.90
   1  -4  -4   25.10    0.70
  -1   4   4   23.60    0.90
   0  -4  -4  218.98    3.40
   0  -4  -4  216.18    3.40
   0   4   4  220.28    3.60
  -1  -4  -4  398.26    6.00
  -1  -4  -4  405.16    5.70
   1   4   4  417.16    6.00
  -2  -4  -4    7.20    0.50
  -2  -4  -4    7.10    0.30
   2   4   4    7.50    0.50
  -3  -4  -4  256.07    4.30
   3   4   4  265.67    4.10
  -4  -4  -4  149.79    2.90
   4   4   4  147.19    2.70
   4   4   4  146.09    2.10
  -5  -4  -4    0.70    0.30
   5   4   4    0.50    0.30
   5   4   4    1.50    0.20
  -6  -4  -4   40.20    1.40
   6   4   4   39.70    1.40
   6   4   4   39.50    1.00
  -7  -4  -4   -0.10    0.30
  -7  -4  -4    1.10    0.40
   7   4   4    0.70    0.20
  -8  -4  -4   55.99    1.80
  -8  -4  -4   53.19    1.90
   8   4   4   53.79    2.10
  -9  -4  -4   24.90    1.50
  -9  -4  -4   28.30    1.30
 -10  -4  -4   60.49    2.40
 -11  -4  -4   38.10    2.10
 -12  -4  -4    2.10    0.90
   8  -5  -4    8.90    1.30
  -8   5   4    7.80    1.30
   7  -5  -4   46.00    2.20
  -7   5   4   46.80    2.30
   6  -5  -4   12.80    1.30
  -6   5   4   11.40    1.30
   5  -5  -4    1.00    0.50
  -5   5   4    1.30    0.50
   4  -5  -4   29.90    1.50
  -4   5   4   29.70    1.40
   3  -5  -4   18.30    1.10
  -3   5   4   16.40    1.00
   2  -5  -4   35.70    1.30
   2  -5  -4   33.20    0.80
  -2   5   4   37.30    1.30
   1  -5  -4  475.55    6.70
   1  -5  -4  472.85    7.10
  -1   5   4  471.15    7.10
   0  -5  -4   69.29    1.60
   0  -5  -4   73.09    1.60
  -1  -5  -4   64.49    1.40
  -1  -5  -4   63.59    1.50
   1   5   4   63.29    1.50
  -2  -5  -4  481.45    7.30
   2   5   4  489.95    7.10
   2   5   4  500.05    6.70
  -3  -5  -4    7.40    0.60
   3   5   4    7.00    0.30
   3   5   4    6.70    0.50
  -4  -5  -4   23.70    1.10
   4   5   4   23.60    0.90
   4   5   4   24.40    0.50
  -5  -5  -4  554.54    8.50
   5   5   4  561.94    8.30
   5   5   4  562.74    7.50
  -6  -5  -4   38.10    1.40
   6   5   4   36.50    0.90
   6   5   4   35.60    1.30
  -7  -5  -4    2.10    0.50
   7   5   4    2.20    0.50
   7   5   4    2.70    0.40
  -8  -5  -4   47.60    1.70
   8   5   4   51.79    1.80
  -9  -5  -4   12.10    1.00
 -10  -5  -4   15.90    1.30
  11   5   4    4.20    0.90
  12   5   4   -0.10    0.50
   7  -6  -4   24.10    1.80
  -7   6   4   28.40    1.90
   6  -6  -4    0.50    0.70
  -6   6   4    1.60    0.70
   5  -6  -4    1.70    0.60
  -5   6   4    1.20    0.60
   4  -6  -4  133.89    3.40
  -4   6   4  135.19    3.40
   3  -6  -4    0.00    0.40
  -3   6   4    0.10    0.30
   2  -6  -4   14.80    1.00
  -2   6   4   15.60    0.90
   1  -6  -4   10.50    0.70
   1  -6  -4   10.10    0.60
  -1   6   4    9.50    0.70
   0  -6  -4    9.50    0.60
   0  -6  -4   10.20    0.60
   0   6   4   11.00    0.70
  -1  -6  -4  244.48    4.10
   1   6   4  237.78    4.00
  -2  -6  -4    0.70    0.30
   2   6   4    0.20    0.20
   2   6   4    1.00    0.20
  -3  -6  -4   32.40    1.20
   3   6   4   33.40    1.10
   3   6   4   33.30    0.80
  -4  -6  -4   27.30    1.20
   4   6   4   26.80    1.00
   4   6   4   27.80    0.70
  -5  -6  -4  109.69    2.70
   5   6   4  112.49    1.80
   5   6   4  112.59    2.40
  -6  -6  -4   20.20    1.10
   6   6   4   19.20    1.00
   6   6   4   18.70    0.80
  -7  -6  -4   71.59    2.20
   7   6   4   71.59    2.00
  -8  -6  -4   66.79    2.20
   8   6   4   66.59    2.10
  -9  -6  -4    6.20    0.80
   9   6   4    6.10    0.80
 -10  -6  -4    3.30    0.70
  10   6   4    3.80    0.70
  11   6   4   16.40    1.30
  12   6   4    5.30    1.00
   7  -7  -4    2.00    0.80
  -7   7   4    1.40    0.70
   6  -7  -4    3.20    0.90
  -6   7   4    4.50    0.90
   5  -7  -4   41.60    2.00
  -5   7   4   40.90    2.00
   4  -7  -4  150.88    3.80
  -4   7   4  147.99    3.80
   3  -7  -4   47.60    1.90
  -3   7   4   50.09    1.90
   2  -7  -4   86.19    2.40
  -2   7   4   81.39    2.30
   1  -7  -4   92.79    2.40
   1  -7  -4   89.79    2.00
  -1   7   4   92.19    2.30
   0  -7  -4   26.80    1.10
   0  -7  -4   25.10    1.00
   0   7   4   27.00    1.10
  -1  -7  -4   16.90    0.90
   1   7   4   17.30    0.80
   1   7   4   16.30    0.80
  -2  -7  -4  145.69    3.10
   2   7   4  148.29    2.80
   2   7   4  145.09    2.60
  -3  -7  -4  212.68    4.10
   3   7   4  213.48    3.70
   3   7   4  215.68    3.40
  -4  -7  -4   88.79    2.40
   4   7   4   86.49    2.00
   4   7   4   91.49    1.70
  -5  -7  -4   50.19    1.80
   5   7   4   54.29    1.10
   5   7   4   54.49    1.50
  -6  -7  -4   57.29    2.00
   6   7   4   54.69    1.60
  -7  -7  -4  156.78    3.60
   7   7   4  154.08    3.30
  -8  -7  -4   31.80    1.60
   8   7   4   32.80    1.40
  -9  -7  -4    0.30    0.40
   9   7   4    0.30    0.40
 -10  -7  -4   11.40    1.20
  10   7   4   11.90    1.20
  11   7   4    1.00    0.60
  12   7   4    0.60    0.50
   6  -8  -4    0.10    0.70
  -6   8   4    1.50    0.70
   5  -8  -4   45.10    2.20
  -5   8   4   41.00    2.20
   4  -8  -4    4.90    0.90
  -4   8   4    3.70    0.80
   3  -8  -4    2.50    0.70
  -3   8   4    3.80    0.70
   2  -8  -4   31.90    1.50
  -2   8   4   30.70    1.40
   1  -8  -4   10.40    1.00
  -1   8   4    9.60    0.80
   0  -8  -4    0.70    0.40
   0  -8  -4    1.00    0.40
   0   8   4    0.70    0.30
  -1  -8  -4  136.59    3.00
   1   8   4  134.09    2.80
   1   8   4  134.09    2.80
  -2  -8  -4    7.00    0.80
   2   8   4    7.80    0.60
   2   8   4    6.90    0.60
  -3  -8  -4    0.00    0.40
   3   8   4    0.60    0.30
   3   8   4    0.80    0.30
  -4  -8  -4   44.70    1.80
   4   8   4   46.40    1.20
   4   8   4   45.90    1.40
  -5  -8  -4   15.30    1.10
   5   8   4   16.50    0.90
  -6  -8  -4  136.89    3.40
   6   8   4  134.09    2.90
  -7  -8  -4    7.30    1.00
   7   8   4    8.20    0.70
  -8  -8  -4   49.10    2.00
   8   8   4   49.60    1.70
  -9  -8  -4   54.29    2.20
   9   8   4   56.49    2.00
 -10  -8  -4    7.80    1.10
  10   8   4    6.40    0.90
 -11  -8  -4    4.70    0.90
  11   8   4    5.50    0.90
  12   8   4   -0.40    0.40
   5  -9  -4    5.20    1.10
  -5   9   4    2.50    0.80
   4  -9  -4    9.70    1.20
  -4   9   4   10.30    1.20
   3  -9  -4    6.10    1.00
  -3   9   4    5.70    0.90
   2  -9  -4   22.70    1.40
  -2   9   4   25.10    1.40
   1  -9  -4    0.40    0.40
  -1   9   4    1.20    0.50
   0  -9  -4   -0.20    0.40
   0  -9  -4    0.20    0.40
   0   9   4   -0.10    0.30
  -1  -9  -4   45.40    1.70
   1   9   4   44.40    1.60
   1   9   4   44.30    1.50
  -2  -9  -4    5.80    0.80
   2   9   4    8.80    0.70
   2   9   4    5.40    0.60
  -3  -9  -4   12.70    1.10
   3   9   4   11.80    0.70
   3   9   4   11.30    0.80
  -4  -9  -4  124.49    3.20
   4   9   4  123.69    2.70
   4   9   4  126.69    2.50
  -5  -9  -4    4.80    0.80
   5   9   4    4.40    0.60
  -6  -9  -4    4.50    0.80
   6   9   4    6.20    0.70
  -7  -9  -4    6.30    0.90
   7   9   4    6.10    0.70
  -8  -9  -4    3.60    0.80
   8   9   4    5.40    0.70
  -9  -9  -4   35.00    1.90
   9   9   4   34.00    1.60
 -10  -9  -4    6.00    1.00
  10   9   4    6.50    0.90
 -11  -9  -4   -0.20    0.50
  11   9   4    0.70    0.50
  12   9   4    5.60    1.00
   4 -10  -4    9.60    1.40
  -4  10   4    7.70    1.20
   3 -10  -4    0.50    0.60
  -3  10   4    0.10    0.50
   2 -10  -4   25.20    1.60
  -2  10   4   25.00    1.50
   1 -10  -4    4.90    0.80
  -1  10   4    3.90    0.70
   0 -10  -4   11.90    1.10
   0  10   4   11.00    0.90
  -1 -10  -4    1.10    0.50
  -1 -10  -4    1.00    0.50
   1  10   4    1.00    0.40
  -2 -10  -4   11.30    1.10
   2  10   4   10.00    0.80
   2  10   4   10.20    0.80
  -3 -10  -4   19.30    1.30
   3  10   4   18.00    1.00
   3  10   4   18.70    1.00
  -4 -10  -4    9.10    1.00
   4  10   4    9.20    0.80
  -5 -10  -4    0.30    0.50
   5  10   4    0.70    0.40
  -6 -10  -4   28.40    1.70
   6  10   4   27.30    1.20
  -7 -10  -4   -0.30    0.50
   7  10   4    0.10    0.40
  -8 -10  -4    2.10    0.80
   8  10   4    1.80    0.50
  -9 -10  -4    1.00    0.60
   9  10   4    1.70    0.50
 -10 -10  -4    3.80    0.90
  10  10   4    2.10    0.60
 -11 -10  -4    4.10    0.90
  11  10   4    5.00    0.90
  12  10   4    0.20    0.60
   3 -11  -4   12.00    1.40
  -3  11   4    9.80    1.30
   2 -11  -4    6.30    1.10
  -2  11   4    6.00    0.90
   1 -11  -4   -0.50    0.50
  -1  11   4   -0.40    0.40
   0 -11  -4    3.40    0.80
   0  11   4    4.20    0.70
  -1 -11  -4   58.99    2.10
  -1 -11  -4   59.29    2.20
   1  11   4   54.49    1.90
  -2 -11  -4    7.00    0.90
   2  11   4    5.50    0.70
   2  11   4    5.20    0.70
  -3 -11  -4   -1.30    0.50
   3  11   4    0.50    0.40
   3  11   4   -0.30    0.40
  -4 -11  -4   13.10    1.40
   4  11   4   13.40    0.90
  -5 -11  -4   -0.20    0.60
   5  11   4    0.50    0.40
  -6 -11  -4   10.30    1.30
   6  11   4   10.30    0.80
  -7 -11  -4   15.40    1.60
   7  11   4   14.90    1.00
  -8 -11  -4    0.30    0.70
   8  11   4    0.40    0.40
  -9 -11  -4   81.29    3.00
   9  11   4   75.99    2.40
 -10 -11  -4   -0.10    0.60
 -11 -11  -4   -0.40    0.60
   2 -12  -4    4.70    1.00
   1 -12  -4    0.20    0.60
   0 -12  -4    1.30    0.70
  -1 -12  -4    9.90    1.20
  -2 -12  -4   14.30    1.40
  -2 -12  -4   17.80    1.30
  -3 -12  -4   34.20    1.90
  -4 -12  -4   12.00    1.30
  -5 -12  -4   11.80    1.40
  -6 -12  -4    2.30    0.80
  -7 -12  -4   13.40    1.50
  -8 -12  -4   28.90    2.00
  -9 -12  -4    6.40    1.20
 -10 -12  -4    0.60    0.80
   1 -13  -4    0.20    0.60
   0 -13  -4    0.40    0.60
  -3 -13  -4    9.40    1.20
  -4 -13  -4    5.10    1.00
  -5 -13  -4    0.20    0.70
  -6 -13  -4   17.60    1.70
  -7 -13  -4    1.00    0.70
  -8 -13  -4    0.20    0.70
  -9 -13  -4   -0.30    0.70
  -3 -14  -4    5.30    1.20
  -4 -14  -4   28.50    2.00
  -5 -14  -4   16.00    1.70
  -6 -14  -4   13.60    1.70
  -7 -14  -4    1.50    0.90
   7  12  -5    9.00    1.20
   6  12  -5    2.10    0.80
  -6 -12   5    2.00    1.00
   5  12  -5    6.10    1.00
  -5 -12   5    6.70    1.30
   4  12  -5    1.60    0.70
  -4 -12   5    2.00    1.00
   3  12  -5    0.10    0.60
  -3 -12   5   -0.60    0.60
   2  12  -5   19.20    1.60
  -2 -12   5   16.80    1.70
   1  12  -5    4.30    1.00
  -1 -12   5    3.30    0.90
   9  11  -5    0.00    0.70
   8  11  -5    7.60    1.10
  -8 -11   5    7.80    1.40
   7  11  -5    0.10    0.50
  -7 -11   5   -0.10    0.70
   6  11  -5    3.90    0.80
  -6 -11   5    4.10    1.10
   5  11  -5   -0.20    0.50
  -5 -11   5    1.00    0.80
   4  11  -5    7.30    1.10
  -4 -11   5    7.90    1.30
   3  11  -5   87.69    3.00
  -3 -11   5   90.99    3.40
   2  11  -5    9.30    1.20
  -2 -11   5    7.30    1.20
   1  11  -5   37.90    2.10
  -1 -11   5   40.20    2.30
   0  11  -5    7.30    1.10
   0 -11   5    8.20    1.20
  -1  11  -5    6.00    1.10
   9  10  -5    7.10    1.00
  -9 -10   5    7.20    1.30
   8  10  -5   15.80    1.30
  -8 -10   5   13.90    1.60
   7  10  -5    2.00    0.70
  -7 -10   5    2.70    0.90
   6  10  -5    6.00    0.90
  -6 -10   5    6.00    1.10
   5  10  -5    4.70    0.80
  -5 -10   5    5.70    1.10
   4  10  -5   19.20    1.40
  -4 -10   5   19.60    1.70
   3  10  -5   43.20    2.00
  -3 -10   5   41.50    2.20
   2  10  -5    3.60    0.80
  -2 -10   5    3.00    0.90
   1  10  -5   36.40    1.90
  -1 -10   5   37.20    2.10
   0  10  -5   15.30    1.50
   0 -10   5   14.80    1.50
  -1  10  -5    1.20    0.70
   1 -10   5    1.70    0.80
  -2  10  -5   10.80    1.40
  -3  10  -5    9.50    1.30
  10   9  -5    0.30    0.60
   9   9  -5    4.60    0.90
  -9  -9   5    4.50    1.00
   8   9  -5    0.60    0.60
  -8  -9   5    0.70    0.70
   7   9  -5    8.20    1.00
  -7  -9   5    8.20    1.20
   6   9  -5   82.99    2.70
  -6  -9   5   87.39    3.10
   5   9  -5    1.60    0.60
  -5  -9   5    1.70    0.70
   4   9  -5    3.50    0.70
  -4  -9   5    2.10    0.80
   3   9  -5    7.20    1.00
  -3  -9   5    5.50    1.00
   2   9  -5   -0.40    0.40
  -2  -9   5    0.70    0.60
   1   9  -5   35.20    1.80
  -1  -9   5   37.40    1.90
   0   9  -5    2.40    0.70
   0  -9   5    0.90    0.60
  -1   9  -5    2.20    0.70
   1  -9   5    2.60    0.70
  -2   9  -5   21.90    1.60
   2  -9   5   19.60    1.50
  -3   9  -5    2.00    0.80
  -4   9  -5    0.20    0.60
  10   8  -5   15.40    1.40
   9   8  -5    9.40    1.10
  -9  -8   5    7.80    1.20
   8   8  -5   13.40    1.30
  -8  -8   5   11.30    1.30
   7   8  -5   50.29    2.00
  -7  -8   5   52.79    2.30
   6   8  -5   55.79    2.10
  -6  -8   5   52.89    2.30
   5   8  -5    6.70    0.90
  -5  -8   5    5.60    0.90
   4   8  -5   85.79    2.50
  -4  -8   5   83.99    2.90
   3   8  -5   10.40    1.00
  -3  -8   5    8.80    1.10
   2   8  -5    1.90    0.60
  -2  -8   5    2.10    0.60
   1   8  -5   26.90    1.50
  -1  -8   5   27.70    1.60
   0   8  -5   16.60    1.20
   0  -8   5   16.70    1.30
  -1   8  -5    6.30    0.90
   1  -8   5    7.00    0.90
  -2   8  -5    9.10    1.10
   2  -8   5   10.20    1.10
  -3   8  -5    5.20    0.90
  -4   8  -5    2.00    0.70
   5  -8   5    1.10    0.70
  11   7  -5    0.50    0.70
  10   7  -5    8.10    1.10
   9   7  -5    1.90    0.60
   8   7  -5    9.70    1.10
  -8  -7   5   10.10    1.20
   7   7  -5   50.49    2.00
  -7  -7   5   52.99    2.20
   6   7  -5   44.70    1.80
  -6  -7   5   43.60    2.00
   5   7  -5   -0.40    0.30
  -5  -7   5   -0.70    0.40
   4   7  -5   27.20    1.30
  -4  -7   5   27.40    1.50
   3   7  -5    1.10    0.40
  -3  -7   5    0.70    0.50
   2   7  -5   14.20    1.00
  -2  -7   5   14.40    1.10
   1   7  -5   37.90    1.60
  -1  -7   5   41.40    1.80
   0   7  -5   43.70    1.80
   0  -7   5   43.70    1.80
  -1   7  -5   21.10    1.30
   1  -7   5   21.70    1.30
  -2   7  -5   93.99    2.80
   2  -7   5   94.69    2.70
  -3   7  -5    0.10    0.50
   3  -7   5   -0.30    0.40
  -4   7  -5    0.90    0.60
   5  -7   5    0.30    0.60
   6  -7   5    1.20    0.70
  11   6  -5    0.10    0.50
  10   6  -5   20.10    1.50
   9   6  -5    1.50    0.60
   8   6  -5   15.10    1.20
  -8  -6   5   16.70    1.20
   7   6  -5   12.00    1.00
  -7  -6   5   12.20    1.10
   6   6  -5   10.10    0.90
  -6  -6   5   12.00    1.10
   5   6  -5   23.00    1.20
  -5  -6   5   21.10    1.30
   4   6  -5   13.40    0.90
  -4  -6   5   11.60    1.00
   3   6  -5    0.60    0.40
  -3  -6   5    0.40    0.40
   2   6  -5    7.50    0.80
  -2  -6   5    7.40    0.80
   1   6  -5    0.70    0.40
  -1  -6   5    0.50    0.40
   0   6  -5   65.79    2.00
   0  -6   5   68.49    2.10
  -1   6  -5    1.00    0.40
   1  -6   5   -0.20    0.40
  -2   6  -5   49.90    1.90
   2  -6   5   51.79    1.80
  -3   6  -5   51.89    2.00
   3  -6   5   52.09    1.80
  -4   6  -5    6.40    0.90
  -5   6  -5    2.70    0.70
   6  -6   5    1.50    0.70
   7  -6   5   16.10    1.70
  11   5  -5    2.00    0.80
  10   5  -5   16.20    1.40
   9   5  -5    1.80    0.60
   8   5  -5    0.80    0.50
   7   5  -5   73.99    2.30
  -7  -5   5   75.29    2.30
   6   5  -5    3.30    0.60
  -6  -5   5    2.40    0.60
   5   5  -5   63.39    1.90
  -5  -5   5   61.39    2.00
   4   5  -5   64.99    1.90
  -4  -5   5   65.59    2.10
   3   5  -5  264.97    4.80
  -3  -5   5  272.17    5.00
   2   5  -5   99.89    2.40
  -2  -5   5  101.69    2.50
   1   5  -5  470.55    7.40
  -1  -5   5  463.85    7.50
   0   5  -5    0.10    0.30
   0  -5   5   -0.30    0.30
  -1   5  -5    5.90    0.70
  -1   5  -5    6.50    0.60
   1  -5   5    7.00    0.70
  -2   5  -5    0.30    0.20
  -2   5  -5    0.70    0.40
   2  -5   5   -0.20    0.30
  -3   5  -5    7.30    0.60
  -3   5  -5    5.30    0.70
   3  -5   5    7.20    0.80
  -4   5  -5   25.80    1.40
  -4   5  -5   28.60    1.20
   4  -5   5   26.60    1.20
  -5   5  -5    2.10    0.60
  -5   5  -5    1.30    0.60
  -6   5  -5   57.09    2.10
   6  -5   5   52.69    2.30
  -7   5  -5    7.00    1.00
   7  -5   5    7.80    1.10
  -8   5  -5    6.70    1.10
   8  -5   5    4.40    1.00
  11   4  -5    1.80    0.70
  10   4  -5   18.00    1.50
 -10  -4   5   16.60    2.30
   9   4  -5    8.40    1.00
  -9  -4   5    9.00    1.10
   8   4  -5   15.80    1.20
  -8  -4   5   12.50    1.00
   7   4  -5    5.30    0.80
  -7  -4   5    4.30    0.60
  -7  -4   5    3.70    0.60
   6   4  -5   47.80    1.70
  -6  -4   5   48.00    1.50
  -6  -4   5   46.30    1.70
   5   4  -5   29.40    1.30
  -5  -4   5   28.90    1.00
  -5  -4   5   28.90    1.30
   4   4  -5  179.18    3.60
  -4  -4   5  181.58    2.90
  -4  -4   5  188.08    3.70
   3   4  -5  140.59    2.90
  -3  -4   5  138.49    2.00
  -3  -4   5  136.69    3.00
   2   4  -5  223.78    4.00
  -2  -4   5  221.38    4.10
   1   4  -5   29.80    1.10
  -1  -4   5   30.70    1.20
   0   4  -5  191.28    3.60
   0  -4   5  195.38    3.70
  -1   4  -5    6.80    0.60
  -1   4  -5    8.40    0.40
   1  -4   5    9.60    0.70
  -2   4  -5   93.49    2.30
  -2   4  -5   94.79    1.90
   2  -4   5   92.49    2.20
  -3   4  -5    0.20    0.30
  -3   4  -5    0.20    0.30
   3  -4   5    0.20    0.30
  -4   4  -5    3.80    0.50
  -4   4  -5    4.10    0.70
   4  -4   5    3.00    0.50
  -5   4  -5   83.99    2.50
  -5   4  -5   77.29    2.20
   5  -4   5   81.09    2.20
  -6   4  -5    0.70    0.50
   6  -4   5    0.00    0.40
  -7   4  -5   83.49    2.70
   7  -4   5   81.99    2.80
  -8   4  -5    2.30    0.80
   8  -4   5    3.40    0.80
  -9   4  -5   -0.20    0.60
   9  -4   5   -0.60    0.60
  11   3  -5    0.30    0.60
 -11  -3   5   -0.10    0.60
  10   3  -5   52.29    2.30
 -10  -3   5   49.20    2.30
   9   3  -5    2.50    0.70
  -9  -3   5    2.40    0.70
   8   3  -5   15.60    1.20
  -8  -3   5   17.60    1.20
   7   3  -5   20.40    1.20
  -7  -3   5   20.00    1.20
   6   3  -5   63.99    2.00
  -6  -3   5   63.19    1.80
  -6  -3   5   60.69    1.80
   5   3  -5  204.18    4.00
  -5  -3   5  213.48    3.90
  -5  -3   5  207.08    3.70
   4   3  -5    0.50    0.30
  -4  -3   5    0.80    0.20
  -4  -3   5    0.60    0.30
   3   3  -5  175.58    3.30
  -3  -3   5  176.28    3.30
  -3  -3   5  175.98    2.70
   2   3  -5   20.70    0.90
  -2  -3   5   20.10    0.90
   1   3  -5  303.97    4.90
  -1  -3   5  302.27    5.00
   0   3  -5  385.16    5.90
   0  -3   5  379.86    6.00
  -1   3  -5   11.50    0.70
   1  -3   5   11.70    0.70
  -2   3  -5   11.00    0.50
  -2   3  -5   11.40    0.70
   2  -3   5   10.60    0.70
  -3   3  -5   91.69    2.20
  -3   3  -5   91.49    2.00
   3  -3   5   90.29    2.10
  -4   3  -5   11.50    0.80
  -4   3  -5   12.90    0.90
   4  -3   5   12.60    0.80
  -5   3  -5   32.60    1.40
  -5   3  -5   34.20    1.40
   5  -3   5   32.70    1.20
  -6   3  -5   89.69    2.60
   6  -3   5   91.09    2.60
  -7   3  -5    3.60    0.70
   7  -3   5    3.20    0.70
  -8   3  -5    2.70    0.80
   8  -3   5    1.40    0.60
  -9   3  -5    6.70    1.10
   9  -3   5    8.00    1.10
 -11  -2   5    4.70    1.10
  10   2  -5    2.00    0.70
 -10  -2   5    1.70    0.70
   9   2  -5   17.80    1.40
  -9  -2   5   21.20    1.50
   8   2  -5   43.80    1.90
  -8  -2   5   44.60    1.90
   7   2  -5   13.90    1.10
  -7  -2   5   10.00    0.90
   6   2  -5    7.40    0.80
  -6  -2   5    7.80    0.60
  -6  -2   5    8.40    0.80
   5   2  -5    3.20    0.50
  -5  -2   5    3.00    0.40
  -5  -2   5    3.40    0.50
   4   2  -5   17.00    0.90
  -4  -2   5   15.70    0.80
  -4  -2   5   14.50    0.70
   3   2  -5  309.07    5.00
  -3  -2   5  307.27    4.60
  -3  -2   5  302.57    4.90
   2   2  -5    3.10    0.40
  -2  -2   5    2.60    0.40
  -2  -2   5    3.00    0.20
   1   2  -5    5.00    0.40
  -1  -2   5    5.00    0.40
  -1  -2   5    4.50    0.20
   0   2  -5  101.59    2.00
   0  -2   5  104.29    2.10
   0  -2   5  101.29    1.50
  -1   2  -5    6.40    0.50
   1  -2   5    6.50    0.50
   1  -2   5    5.90    0.30
  -2   2  -5   65.69    1.60
  -2   2  -5   63.99    1.40
  -2   2  -5   65.09    1.60
  -3   2  -5    1.30    0.30
  -3   2  -5    1.00    0.30
  -3   2  -5    1.20    0.30
  -4   2  -5    4.60    0.50
  -4   2  -5    3.10    0.50
  -4   2  -5    4.90    0.60
  -5   2  -5   51.19    1.70
  -5   2  -5   48.20    1.60
  -5   2  -5   50.79    1.40
  -6   2  -5   14.20    1.10
   6  -2   5   14.50    1.00
   6  -2   5   12.80    0.80
  -7   2  -5   21.70    1.40
   7  -2   5   23.50    1.30
  -8   2  -5    6.90    1.00
   8  -2   5    5.20    0.90
  -9   2  -5    7.40    1.10
   9  -2   5    8.50    1.10
 -10   2  -5    3.40    1.00
  10   1  -5   -0.20    0.50
 -10  -1   5    0.10    0.60
   9   1  -5   31.70    1.80
  -9  -1   5   31.10    1.80
   8   1  -5   37.10    1.80
  -8  -1   5   36.50    1.80
   7   1  -5   18.10    1.20
  -7  -1   5   14.50    1.10
   6   1  -5   23.60    1.20
  -6  -1   5   20.60    1.10
   5   1  -5    7.10    0.70
  -5  -1   5    8.30    0.70
  -5  -1   5    7.50    0.50
   4   1  -5   12.50    0.80
  -4  -1   5   13.20    0.70
  -4  -1   5   14.10    0.60
   3   1  -5  357.76    5.70
  -3  -1   5  363.96    5.50
  -3  -1   5  376.56    5.50
   2   1  -5   12.00    0.60
  -2  -1   5   10.70    0.60
  -2  -1   5   12.30    0.50
   1   1  -5    0.70    0.20
  -1  -1   5    0.50    0.10
  -1  -1   5    0.60    0.20
   0   1  -5 1762.12   23.60
   0   1  -5 1758.52   23.70
   0  -1   5 1754.52   23.30
  -1   1  -5    1.20    0.20
  -1   1  -5    1.70    0.30
   1  -1   5    1.40    0.20
  -2   1  -5   20.10    0.70
  -2   1  -5   20.00    0.80
  -2   1  -5   20.10    0.70
  -3   1  -5  215.48    3.60
  -3   1  -5  212.88    3.50
  -3   1  -5  212.48    3.60
  -4   1  -5    1.50    0.30
  -4   1  -5    3.20    0.40
  -4   1  -5    2.00    0.40
  -5   1  -5  148.59    2.90
  -5   1  -5  150.18    3.10
   5  -1   5  148.39    3.00
  -6   1  -5   61.39    2.00
  -6   1  -5   62.79    1.60
   6  -1   5   63.79    1.90
  -7   1  -5    9.70    1.00
   7  -1   5    9.70    0.90
  -8   1  -5   89.29    2.90
   8  -1   5   85.69    2.60
  -9   1  -5   40.20    2.00
   9  -1   5   37.60    1.80
 -10   1  -5   38.80    2.20
  10   0  -5    1.00    0.70
 -10   0   5    0.90    0.70
   9   0  -5   41.10    2.10
  -9   0   5   44.20    2.20
   8   0  -5    0.60    0.50
  -8   0   5    1.30    0.60
   7   0  -5   -0.20    0.40
  -7   0   5    0.00    0.40
   6   0  -5   28.30    1.40
  -6   0   5   27.00    1.30
   5   0  -5    5.40    0.70
  -5   0   5    7.30    0.70
   4   0  -5   97.19    2.30
  -4   0   5   97.59    1.80
  -4   0   5  102.59    2.30
   3   0  -5   24.10    1.00
  -3   0   5   24.00    0.90
  -3   0   5   24.20    0.70
   2   0  -5    2.00    0.30
  -2   0   5    2.10    0.30
  -2   0   5    1.90    0.30
   1   0  -5  905.51   12.30
   1   0  -5  892.71   12.20
  -1   0   5  904.51   12.30
   0   0  -5   11.30    0.50
   0   0  -5   11.30    0.50
   0   0   5   11.50    0.40
  -1   0  -5   49.50    1.10
  -1   0  -5   49.20    1.20
   1   0   5   48.30    1.00
  -2   0  -5   24.40    0.70
  -2   0  -5   26.00    0.90
   2   0   5   28.10    0.80
  -3   0  -5  127.79    2.30
  -3   0  -5  130.89    2.40
  -3   0  -5  127.29    2.40
  -4   0  -5   83.19    1.90
  -4   0  -5   82.79    1.80
  -4   0  -5   85.39    2.00
  -5   0  -5   89.39    2.00
  -5   0  -5   87.59    2.20
   5   0   5   86.69    2.00
  -6   0  -5   15.60    1.00
  -6   0  -5   18.50    0.90
   6   0   5   16.70    0.90
  -7   0  -5   -0.20    0.40
  -7   0  -5    0.90    0.30
   7   0   5    0.30    0.30
  -8   0  -5  244.28    5.10
   8   0   5  233.98    4.70
  -9   0  -5   29.90    1.80
   9   0   5   29.10    1.50
 -10   0  -5  155.68    4.30
 -11   0  -5    6.30    1.70
  10  -1  -5   22.70    1.80
 -10   1   5   24.90    1.90
   9  -1  -5   23.00    1.60
  -9   1   5   22.50    1.70
   8  -1  -5   44.10    2.00
  -8   1   5   43.30    2.10
   7  -1  -5   35.20    1.70
  -7   1   5   36.30    1.80
   6  -1  -5   54.89    2.00
  -6   1   5   52.49    2.00
   5  -1  -5    7.90    0.80
  -5   1   5    7.10    0.80
   4  -1  -5   11.50    0.80
  -4   1   5   10.30    0.40
  -4   1   5    8.90    0.70
   3  -1  -5  148.49    2.90
  -3   1   5  148.19    2.80
  -3   1   5  151.78    2.40
   2  -1  -5   45.60    1.20
   2  -1  -5   44.50    1.00
  -2   1   5   45.30    1.20
   1  -1  -5  193.98    3.20
   1  -1  -5  193.38    3.10
  -1   1   5  195.28    3.10
   0  -1  -5 1199.68   15.90
   0  -1  -5 1177.78   16.20
   0   1   5 1175.98   16.30
  -1  -1  -5   45.50    1.10
  -1  -1  -5   46.00    0.90
   1   1   5   45.10    1.00
  -2  -1  -5  121.59    2.30
  -2  -1  -5  120.59    1.90
   2   1   5  119.79    2.10
  -3  -1  -5  182.08    3.20
  -3  -1  -5  183.98    2.80
   3   1   5  181.68    3.10
  -4  -1  -5    4.50    0.50
  -4  -1  -5    4.50    0.50
  -5  -1  -5  409.96    6.40
  -5  -1  -5  403.26    6.20
   5   1   5  396.66    6.00
  -6  -1  -5   24.50    1.00
  -6  -1  -5   25.30    1.20
   6   1   5   24.40    1.00
  -7  -1  -5    0.30    0.40
  -7  -1  -5    0.60    0.30
   7   1   5    0.20    0.30
  -8  -1  -5   43.40    2.00
   8   1   5   42.80    1.60
  -9  -1  -5    2.80    0.80
   9   1   5    2.80    0.70
 -10  -1  -5    2.80    0.80
 -11  -1  -5    0.30    0.60
   9  -2  -5    0.10    0.60
  -9   2   5    1.20    0.70
   8  -2  -5    7.20    1.10
  -8   2   5    7.60    1.20
   7  -2  -5   18.00    1.40
  -7   2   5   18.90    1.40
   6  -2  -5    0.10    0.40
  -6   2   5    0.00    0.40
   5  -2  -5    0.10    0.30
  -5   2   5   -0.10    0.30
   4  -2  -5  243.98    4.50
  -4   2   5  248.48    4.50
   3  -2  -5    0.30    0.30
  -3   2   5    0.20    0.10
  -3   2   5    0.20    0.20
   2  -2  -5   39.60    1.20
   2  -2  -5   38.10    0.80
   1  -2  -5  163.28    2.70
   1  -2  -5  156.88    2.50
  -1   2   5  154.88    2.70
   0  -2  -5  179.08    2.80
   0  -2  -5  178.38    2.90
   0   2   5  174.08    2.90
  -1  -2  -5  467.35    6.30
  -1  -2  -5  469.65    6.70
   1   2   5  468.35    6.60
  -2  -2  -5  256.27    3.40
  -2  -2  -5  248.58    4.00
   2   2   5  247.38    3.80
  -3  -2  -5  213.78    3.00
  -3  -2  -5  214.18    3.60
   3   2   5  214.28    3.50
  -4  -2  -5  115.69    2.40
   4   2   5  117.89    2.40
   4   2   5  116.59    1.90
  -5  -2  -5   15.30    0.80
  -5  -2  -5   15.00    0.80
   5   2   5   14.40    0.60
  -6  -2  -5  109.89    2.40
  -6  -2  -5  105.89    2.60
   6   2   5  106.19    2.10
  -7  -2  -5   24.20    1.10
  -7  -2  -5   25.00    1.30
   7   2   5   24.30    1.00
  -8  -2  -5   55.59    2.10
  -8  -2  -5   54.19    1.70
   8   2   5   54.79    1.70
  -9  -2  -5   36.00    1.80
 -10  -2  -5   10.20    1.20
 -11  -2  -5   -0.50    0.50
   9  -3  -5    0.40    0.70
  -9   3   5    1.20    0.70
   8  -3  -5   -0.30    0.50
  -8   3   5    0.90    0.60
   7  -3  -5   48.40    2.10
  -7   3   5   46.70    2.10
   6  -3  -5    7.70    0.90
  -6   3   5    7.80    1.00
   5  -3  -5  162.28    3.70
  -5   3   5  162.78    3.70
   4  -3  -5   20.10    1.10
  -4   3   5   21.50    1.10
   3  -3  -5  172.18    3.40
  -3   3   5  169.08    3.40
   2  -3  -5    2.50    0.40
   2  -3  -5    3.40    0.20
  -2   3   5    1.70    0.30
   1  -3  -5  261.47    4.20
   1  -3  -5  268.37    3.90
  -1   3   5  259.77    4.20
   0  -3  -5  351.76    5.30
   0  -3  -5  369.56    5.20
   0   3   5  361.26    5.40
  -1  -3  -5    0.00    0.10
  -1  -3  -5    0.10    0.10
   1   3   5    0.10    0.10
  -2  -3  -5    1.80    0.30
   2   3   5    2.70    0.30
  -3  -3  -5   30.30    1.00
   3   3   5   31.40    0.90
  -4  -3  -5  655.23    9.50
   4   3   5  653.53    8.50
   4   3   5  649.34    9.30
  -5  -3  -5  230.78    4.00
   5   3   5  218.78    3.30
   5   3   5  227.98    4.00
  -6  -3  -5    0.60    0.30
  -6  -3  -5    0.20    0.30
   6   3   5    0.50    0.20
  -7  -3  -5   65.59    2.00
  -7  -3  -5   64.19    1.80
   7   3   5   64.29    1.60
  -8  -3  -5    1.30    0.50
  -8  -3  -5    0.20    0.40
 -10  -3  -5    8.60    1.10
 -11  -3  -5    7.30    1.20
   8  -4  -5   14.80    1.50
  -8   4   5   16.40    1.80
   7  -4  -5    1.20    0.60
  -7   4   5    1.70    0.70
   6  -4  -5  126.09    3.50
  -6   4   5  125.19    3.50
   5  -4  -5   32.00    1.60
  -5   4   5   30.20    1.50
   4  -4  -5  182.48    3.80
  -4   4   5  169.78    3.70
   3  -4  -5    0.00    0.30
  -3   4   5    0.30    0.30
   2  -4  -5  279.37    4.00
   2  -4  -5  287.17    4.80
  -2   4   5  278.67    4.80
   1  -4  -5   25.60    0.90
   1  -4  -5   24.00    0.70
  -1   4   5   22.50    0.90
   0  -4  -5  283.47    4.30
   0  -4  -5  289.47    4.40
   0   4   5  281.77    4.50
  -1  -4  -5   75.59    1.40
  -1  -4  -5   72.79    1.60
   1   4   5   76.79    1.70
  -2  -4  -5  160.78    2.30
  -2  -4  -5  160.98    2.90
  -3  -4  -5   76.79    1.80
   3   4   5   76.79    1.70
  -4  -4  -5    6.20    0.60
   4   4   5    6.20    0.50
  -5  -4  -5  146.49    3.00
   5   4   5  151.38    2.10
   5   4   5  152.28    3.00
  -6  -4  -5    0.30    0.30
   6   4   5    0.40    0.30
  -7  -4  -5    2.40    0.50
   7   4   5    2.10    0.50
  -8  -4  -5   50.89    1.90
  -8  -4  -5   51.59    1.80
  -9  -4  -5    1.10    0.60
  -9  -4  -5    2.60    0.60
 -10  -4  -5    8.80    1.10
 -11  -4  -5    4.60    0.90
  12   4   5    5.10    1.30
   8  -5  -5   -0.10    0.50
  -8   5   5   -0.10    0.70
   7  -5  -5   54.69    2.40
  -7   5   5   56.49    2.50
   6  -5  -5    6.50    1.00
  -6   5   5    5.80    1.00
   5  -5  -5   64.49    2.30
  -5   5   5   69.19    2.40
   4  -5  -5   43.40    1.80
  -4   5   5   42.00    1.70
   3  -5  -5    2.90    0.50
  -3   5   5    2.80    0.50
   2  -5  -5   78.49    2.10
   2  -5  -5   84.49    1.50
  -2   5   5   84.09    2.10
   1  -5  -5   69.59    1.80
   1  -5  -5   70.89    1.50
  -1   5   5   70.99    1.80
   0  -5  -5   46.10    1.20
   0  -5  -5   45.50    1.20
   0   5   5   46.30    1.30
  -1  -5  -5  419.16    6.30
  -1  -5  -5  419.36    6.00
   1   5   5  429.96    6.40
  -2  -5  -5  113.69    1.80
  -2  -5  -5  113.39    2.40
   2   5   5  113.29    2.30
  -3  -5  -5    3.10    0.40
   3   5   5    3.10    0.40
  -4  -5  -5  518.55    8.00
   4   5   5  531.35    7.80
  -5  -5  -5    9.70    0.80
   5   5   5    8.20    0.70
  -6  -5  -5    0.60    0.40
   6   5   5   -0.10    0.30
  -7  -5  -5  209.88    4.10
   7   5   5  208.98    4.10
  -8  -5  -5    3.70    0.60
   8   5   5    2.60    0.60
  -9  -5  -5    1.10    0.50
   9   5   5    0.90    0.50
 -10  -5  -5   12.90    1.70
  10   5   5   13.20    1.20
  11   5   5    1.50    0.70
  12   5   5    3.60    0.90
   7  -6  -5    0.00    0.60
  -7   6   5    0.10    0.60
   6  -6  -5    0.60    0.60
  -6   6   5    1.50    0.70
   5  -6  -5   77.49    2.70
  -5   6   5   76.39    2.70
   4  -6  -5    0.30    0.50
  -4   6   5   -0.10    0.40
   3  -6  -5    3.90    0.70
  -3   6   5    4.60    0.70
   2  -6  -5  170.78    3.50
  -2   6   5  167.78    3.50
   1  -6  -5    0.20    0.30
   1  -6  -5    0.20    0.20
  -1   6   5    0.80    0.30
   0  -6  -5    2.70    0.40
   0  -6  -5    3.00    0.40
   0   6   5    4.10    0.50
  -1  -6  -5   17.00    0.80
  -1  -6  -5   16.90    0.70
   1   6   5   17.00    0.80
  -2  -6  -5    7.10    0.40
  -2  -6  -5    7.10    0.60
   2   6   5    6.40    0.50
  -3  -6  -5  118.29    2.60
  -3  -6  -5  122.49    1.90
   3   6   5  119.29    2.40
  -4  -6  -5    5.20    0.60
   4   6   5    5.10    0.50
  -5  -6  -5   37.10    1.50
   5   6   5   38.60    1.30
  -6  -6  -5   16.30    1.00
   6   6   5   15.70    0.90
  -7  -6  -5  127.59    3.10
   7   6   5  127.69    2.90
  -8  -6  -5    1.80    0.60
   8   6   5    1.70    0.50
  -9  -6  -5   38.00    1.70
   9   6   5   38.40    1.70
 -10  -6  -5    9.30    1.00
  10   6   5   12.00    1.20
  11   6   5   -0.10    0.50
  12   6   5    2.90    0.80
   7  -7  -5    5.50    1.50
  -7   7   5    4.70    1.10
   6  -7  -5    2.80    0.80
  -6   7   5    2.00    0.80
   5  -7  -5    1.10    0.70
  -5   7   5    1.50    0.60
   4  -7  -5    1.70    0.70
  -4   7   5    1.80    0.60
   3  -7  -5   43.40    1.80
  -3   7   5   46.30    1.90
   2  -7  -5  295.07    5.40
  -2   7   5  295.87    5.40
   1  -7  -5  140.99    3.10
   1  -7  -5  135.49    2.60
  -1   7   5  138.09    3.10
   0  -7  -5  130.29    2.80
   0  -7  -5  133.89    2.70
   0   7   5  135.79    2.90
  -1  -7  -5   66.99    1.80
  -1  -7  -5   68.09    1.70
   1   7   5   68.99    1.80
  -2  -7  -5   65.39    1.50
  -2  -7  -5   61.99    1.80
   2   7   5   63.79    1.70
  -3  -7  -5    1.20    0.40
   3   7   5    0.90    0.20
   3   7   5    0.60    0.30
  -4  -7  -5  213.08    4.20
   4   7   5  219.88    3.20
   4   7   5  205.58    3.80
  -5  -7  -5  292.37    5.30
   5   7   5  285.67    4.90
  -6  -7  -5   32.00    1.50
   6   7   5   31.80    1.30
  -7  -7  -5   67.69    2.20
   7   7   5   68.69    2.00
  -8  -7  -5   16.10    1.20
   8   7   5   16.40    1.10
  -9  -7  -5   61.79    2.30
   9   7   5   65.19    2.20
 -10  -7  -5    7.70    1.00
  10   7   5    6.20    0.90
  11   7   5    0.90    0.50
  12   7   5    1.30    0.70
   6  -8  -5   -1.40    0.50
  -6   8   5   -0.60    0.50
   5  -8  -5    7.30    1.10
  -5   8   5    7.20    1.10
   4  -8  -5    2.40    0.80
  -4   8   5    1.80    0.70
   3  -8  -5   34.60    1.70
  -3   8   5   32.60    1.70
   2  -8  -5    4.30    0.70
  -2   8   5    3.50    0.70
   1  -8  -5    0.50    0.40
  -1   8   5    1.30    0.50
   0  -8  -5   39.70    1.50
   0  -8  -5   39.00    1.40
   0   8   5   39.10    1.40
  -1  -8  -5   17.10    0.90
  -1  -8  -5   17.10    1.00
   1   8   5   15.70    0.90
  -2  -8  -5    3.90    0.60
  -2  -8  -5    4.00    0.50
   2   8   5    3.40    0.50
  -3  -8  -5   79.89    2.30
   3   8   5   77.69    2.00
   3   8   5   78.89    1.70
  -4  -8  -5    7.50    0.80
   4   8   5    8.20    0.70
  -5  -8  -5    1.90    0.60
   5   8   5    1.00    0.40
  -6  -8  -5  101.59    2.80
   6   8   5   99.39    2.40
  -7  -8  -5   28.40    1.60
   7   8   5   25.20    1.20
  -8  -8  -5   45.10    2.00
   8   8   5   43.60    1.70
  -9  -8  -5    9.20    1.10
   9   8   5   10.90    1.00
 -10  -8  -5   12.30    1.30
  10   8   5   13.10    1.10
 -11  -8  -5   15.10    1.40
  11   8   5   13.90    1.20
  12   8   5    0.50    0.50
   5  -9  -5    3.90    1.00
  -5   9   5    3.80    1.00
   4  -9  -5    3.50    0.90
  -4   9   5    1.70    0.70
   3  -9  -5    4.60    0.90
  -3   9   5    4.40    0.80
   2  -9  -5   23.40    1.50
  -2   9   5   17.30    1.30
   1  -9  -5   17.90    1.20
  -1   9   5   14.60    1.10
   0  -9  -5   19.90    1.20
   0  -9  -5   20.30    1.10
   0   9   5   20.40    1.10
  -1  -9  -5    0.00    0.30
  -1  -9  -5    0.50    0.40
   1   9   5   -0.20    0.30
  -2  -9  -5   10.90    0.80
  -2  -9  -5    9.00    0.90
   2   9   5    9.70    0.80
  -3  -9  -5  111.79    2.90
   3   9   5  110.79    2.30
   3   9   5  111.29    2.60
  -4  -9  -5    0.90    0.50
   4   9   5    0.00    0.30
  -5  -9  -5   20.00    1.30
   5   9   5   16.80    1.00
  -6  -9  -5   66.99    2.40
   6   9   5   62.99    1.90
  -7  -9  -5    5.20    0.80
   7   9   5    6.20    0.80
  -8  -9  -5    8.20    1.10
   8   9   5    6.20    0.80
  -9  -9  -5    0.60    0.60
   9   9   5    1.40    0.50
 -10  -9  -5    0.90    0.60
  10   9   5    3.10    0.70
 -11  -9  -5   21.70    1.60
  11   9   5   23.90    1.50
  12   9   5    1.10    0.70
   4 -10  -5    3.30    0.90
  -4  10   5    1.50    0.70
   3 -10  -5   39.40    2.00
  -3  10   5   35.80    1.90
   2 -10  -5   21.90    1.50
  -2  10   5   20.60    1.40
   1 -10  -5    0.50    0.50
  -1  10   5    0.30    0.40
   0 -10  -5   34.30    1.60
   0  10   5   38.10    1.60
  -1 -10  -5    2.80    0.60
  -1 -10  -5    1.50    0.50
   1  10   5    2.90    0.60
  -2 -10  -5   19.20    1.30
  -2 -10  -5   16.30    1.00
   2  10   5   18.90    1.10
  -3 -10  -5   -0.30    0.40
   3  10   5    0.10    0.30
  -4 -10  -5   12.00    1.10
   4  10   5   11.50    0.90
  -5 -10  -5    2.30    0.70
   5  10   5    2.10    0.50
  -6 -10  -5   43.60    2.00
   6  10   5   41.70    1.60
  -7 -10  -5    4.30    0.90
   7  10   5    5.20    0.70
  -8 -10  -5   10.80    1.30
   8  10   5   12.10    1.00
  -9 -10  -5   -0.70    0.50
   9  10   5   -0.10    0.40
 -10 -10  -5    3.70    0.90
  10  10   5    3.80    0.70
 -11 -10  -5    5.60    1.00
  11  10   5    5.40    0.90
 -12 -10  -5    5.60    1.40
   3 -11  -5   20.70    1.70
  -3  11   5   23.40    1.70
   2 -11  -5    8.80    1.20
  -2  11   5    9.70    1.20
   1 -11  -5    9.80    1.20
  -1  11   5   10.30    1.10
   0 -11  -5    3.70    0.80
   0  11   5    5.20    0.80
  -1 -11  -5    3.00    0.70
  -1 -11  -5    3.30    0.90
   1  11   5    2.90    0.60
  -2 -11  -5   17.50    1.40
  -2 -11  -5   16.50    1.10
   2  11   5   17.30    1.10
  -3 -11  -5   94.49    2.90
   3  11   5   94.29    2.50
  -4 -11  -5    1.80    0.70
   4  11   5    1.70    0.50
  -5 -11  -5    4.00    0.90
   5  11   5    1.80    0.50
  -6 -11  -5    7.00    1.10
   6  11   5    7.40    0.80
  -7 -11  -5   -0.60    0.60
   7  11   5   -0.30    0.30
  -8 -11  -5    7.80    1.20
   8  11   5    7.90    0.90
  -9 -11  -5   21.00    1.70
   9  11   5   22.30    1.30
 -10 -11  -5    0.70    0.70
  10  11   5   -0.40    0.40
 -11 -11  -5   53.29    2.60
  11  11   5   50.39    2.10
   2 -12  -5    3.40    0.90
  -2  12   5    5.70    1.00
   1 -12  -5    0.10    0.60
  -1  12   5    0.40    0.50
   0 -12  -5    9.10    1.10
   0  12   5   10.90    1.20
  -1 -12  -5    1.60    0.70
   1  12   5    1.70    0.60
  -2 -12  -5    1.50    0.70
   2  12   5    2.70    0.60
  -3 -12  -5   16.30    1.40
   3  12   5   16.20    1.10
  -4 -12  -5   21.80    1.60
   4  12   5   20.80    1.20
  -5 -12  -5   16.40    1.50
   5  12   5   13.40    1.00
  -6 -12  -5   27.00    1.80
   6  12   5   25.10    1.30
  -7 -12  -5   13.00    1.40
   7  12   5   12.90    1.00
  -8 -12  -5    1.80    0.80
   8  12   5    2.00    0.90
  -9 -12  -5    6.40    1.10
 -10 -12  -5   19.40    1.80
   1 -13  -5    2.40    1.10
  -3 -13  -5    3.10    0.90
  -4 -13  -5    5.30    1.00
  -5 -13  -5   12.00    1.40
  -6 -13  -5   13.70    1.50
  -7 -13  -5    0.90    0.80
  -8 -13  -5   19.90    1.70
  -9 -13  -5    0.60    0.80
  -4 -14  -5   11.30    1.40
  -5 -14  -5   14.00    1.60
  -6 -14  -5   13.20    1.60
  -7 -14  -5   13.40    1.60
   5  12  -6    4.00    0.90
   4  12  -6    2.70    0.80
  -4 -12   6    1.80    1.00
   3  12  -6    1.70    0.80
  -3 -12   6    1.80    0.90
   2  12  -6    0.60    1.10
  -2 -12   6    0.80    0.80
  -1 -12   6    0.20    0.80
   8  11  -6    0.20    0.70
   7  11  -6   -0.30    0.50
  -7 -11   6    1.10    0.90
   6  11  -6   25.30    1.70
  -6 -11   6   23.80    2.10
   5  11  -6    0.30    0.60
  -5 -11   6   -0.30    0.70
   4  11  -6   -0.10    0.50
  -4 -11   6    0.90    0.80
   3  11  -6    1.80    0.70
  -3 -11   6    0.90    0.80
   2  11  -6   10.50    1.30
  -2 -11   6   13.20    1.50
   1  11  -6   97.79    3.40
  -1 -11   6   93.89    3.40
   0  11  -6   -0.10    0.60
   0 -11   6    1.10    0.80
   9  10  -6    8.60    1.30
  -9 -10   6   12.50    1.70
   8  10  -6   19.30    1.50
  -8 -10   6   17.10    1.80
   7  10  -6    3.80    0.90
  -7 -10   6    6.40    1.20
   6  10  -6   26.50    1.60
  -6 -10   6   26.00    1.90
   5  10  -6   -0.50    0.50
  -5 -10   6    0.30    0.70
   4  10  -6    9.10    1.10
  -4 -10   6    9.60    1.40
   3  10  -6    5.50    0.90
  -3 -10   6    5.50    1.10
   2  10  -6    6.20    1.00
  -2 -10   6    7.00    1.20
   1  10  -6   31.00    1.80
  -1 -10   6   33.40    2.00
   0  10  -6    2.80    0.90
   0 -10   6    3.90    1.00
  -1  10  -6    9.40    1.30
   1 -10   6    9.50    1.30
  -2  10  -6   18.40    1.60
   9   9  -6   19.10    1.50
  -9  -9   6   16.60    1.70
   8   9  -6    1.00    0.60
  -8  -9   6    1.90    0.80
   7   9  -6    2.00    0.60
  -7  -9   6    1.90    0.80
   6   9  -6    1.60    0.60
  -6  -9   6    3.00    0.90
   5   9  -6   16.10    1.30
  -5  -9   6   19.50    1.60
   4   9  -6   72.49    2.50
  -4  -9   6   76.89    3.00
   3   9  -6    1.50    0.60
  -3  -9   6    1.00    0.70
   2   9  -6    1.50    0.70
  -2  -9   6   -0.20    0.60
   1   9  -6   12.70    1.30
  -1  -9   6   15.00    1.50
   0   9  -6    6.00    1.00
   0  -9   6    5.60    1.00
  -1   9  -6   19.20    1.50
   1  -9   6   19.80    1.50
  -2   9  -6    1.40    0.70
   2  -9   6    0.00    0.60
  -3   9  -6    3.00    0.90
  -4   9  -6    8.90    1.30
  10   8  -6    5.20    1.00
   9   8  -6    0.20    0.50
  -9  -8   6    0.80    0.80
   8   8  -6   10.70    1.20
  -8  -8   6   12.90    1.40
   7   8  -6    3.70    0.80
  -7  -8   6    3.90    0.90
   6   8  -6    4.90    0.80
  -6  -8   6    5.10    1.00
   5   8  -6   40.00    1.80
  -5  -8   6   42.60    2.10
   4   8  -6   23.10    1.40
  -4  -8   6   23.20    1.60
   3   8  -6    4.20    0.70
  -3  -8   6    3.80    0.80
   2   8  -6   26.60    1.50
  -2  -8   6   25.40    1.60
   1   8  -6   23.20    1.40
  -1  -8   6   22.90    1.50
   0   8  -6    0.40    0.50
   0  -8   6    0.20    0.50
  -1   8  -6    1.30    0.60
   1  -8   6    2.10    0.70
  -2   8  -6   20.70    1.50
   2  -8   6   16.00    1.30
  -3   8  -6    2.10    0.80
  -4   8  -6    4.40    0.90
   5  -8   6    1.40    0.70
  10   7  -6    2.50    0.70
   9   7  -6    7.20    1.00
   8   7  -6   14.50    1.20
  -8  -7   6   16.50    1.40
   7   7  -6    3.20    0.70
  -7  -7   6    3.10    0.80
   6   7  -6    0.50    0.50
  -6  -7   6    0.00    0.50
   5   7  -6   71.39    2.30
  -5  -7   6   74.99    2.60
   4   7  -6   29.50    1.40
  -4  -7   6   29.80    1.60
   3   7  -6    2.50    0.60
  -3  -7   6    2.50    0.70
   2   7  -6   47.00    1.80
  -2  -7   6   47.40    2.00
   1   7  -6    6.20    0.90
  -1  -7   6    5.40    0.90
   0   7  -6   52.49    2.00
   0  -7   6   54.09    2.10
  -1   7  -6   10.50    1.10
   1  -7   6   12.20    1.10
  -2   7  -6   80.59    2.70
   2  -7   6   79.79    2.50
  -3   7  -6   11.20    1.20
   3  -7   6   10.30    1.10
  -4   7  -6   44.60    2.10
  -5   7  -6    0.60    0.60
   6  -7   6    0.40    0.60
  10   6  -6   10.80    1.30
   9   6  -6    3.40    0.80
   8   6  -6   19.00    1.30
  -8  -6   6   16.30    1.30
   7   6  -6    0.00    0.40
  -7  -6   6   -0.20    0.50
   6   6  -6    5.70    0.80
  -6  -6   6    6.60    0.90
   5   6  -6    5.90    0.80
  -5  -6   6    5.20    0.80
   4   6  -6    0.30    0.40
  -4  -6   6    0.50    0.40
   3   6  -6   21.50    1.20
  -3  -6   6   20.90    1.30
   2   6  -6    6.10    0.70
  -2  -6   6    6.60    0.80
   1   6  -6    0.60    0.40
  -1  -6   6    1.40    0.50
   0   6  -6    0.60    0.40
   0  -6   6    1.40    0.50
  -1   6  -6   24.40    1.30
   1  -6   6   25.80    1.40
  -2   6  -6   15.40    1.20
   2  -6   6   16.20    1.10
  -3   6  -6    7.80    0.90
   3  -6   6    8.20    0.90
  -4   6  -6   51.29    2.20
   4  -6   6   48.10    1.90
  -5   6  -6   42.10    2.00
   6  -6   6    4.50    0.90
   7  -6   6    3.80    0.90
  10   5  -6    5.30    1.00
   9   5  -6    0.50    0.60
   8   5  -6   22.60    1.40
   7   5  -6    4.80    0.80
  -7  -5   6    3.60    0.70
   6   5  -6   46.00    1.80
  -6  -5   6   43.20    1.80
   5   5  -6  126.09    3.00
  -5  -5   6  117.29    3.00
   4   5  -6   11.80    0.90
  -4  -5   6   11.30    1.00
   3   5  -6  138.79    3.10
  -3  -5   6  137.39    3.20
   2   5  -6   93.89    2.40
  -2  -5   6   94.39    2.50
   1   5  -6  171.58    3.50
  -1  -5   6  169.48    3.60
   0   5  -6  181.08    3.70
   0  -5   6  181.48    3.80
  -1   5  -6  219.98    4.40
   1  -5   6  225.28    4.40
  -2   5  -6   23.40    1.20
   2  -5   6   24.00    1.20
  -3   5  -6   11.60    1.10
   3  -5   6   10.10    0.90
  -4   5  -6   -0.30    0.40
   4  -5   6   -0.30    0.40
  -5   5  -6   -0.80    0.40
   6  -5   6    7.30    1.00
   7  -5   6    0.10    0.60
   8  -5   6   20.30    1.60
  10   4  -6    1.90    0.80
   9   4  -6   17.10    1.40
   8   4  -6    9.70    1.10
   7   4  -6    2.30    0.60
  -7  -4   6    1.60    0.50
  -7  -4   6    0.70    0.50
   6   4  -6    6.50    0.80
  -6  -4   6    7.20    0.70
  -6  -4   6    6.80    0.80
   5   4  -6    3.40    0.60
  -5  -4   6    4.10    0.60
  -5  -4   6    3.10    0.50
   4   4  -6  183.98    3.70
  -4  -4   6  178.58    3.70
   3   4  -6   11.40    0.80
  -3  -4   6   12.10    0.90
   2   4  -6  516.05    8.00
  -2  -4   6  525.65    8.20
   1   4  -6   68.09    1.90
  -1  -4   6   67.59    2.00
   0   4  -6   76.29    2.00
   0  -4   6   82.69    2.20
  -1   4  -6  117.09    2.70
   1  -4   6  113.89    1.90
   1  -4   6  118.89    2.70
  -2   4  -6   86.19    1.70
  -2   4  -6   85.19    2.30
   2  -4   6   85.69    2.20
  -3   4  -6    1.60    0.30
  -3   4  -6    1.40    0.50
   3  -4   6    1.70    0.40
  -4   4  -6   96.69    2.30
  -4   4  -6  102.89    2.70
   4  -4   6   96.09    2.40
  -5   4  -6    4.20    0.70
  -5   4  -6    4.20    0.70
   5  -4   6    6.80    0.70
  -6   4  -6    0.80    0.50
   6  -4   6    1.50    0.60
  -7   4  -6   14.70    1.30
   7  -4   6   13.70    1.40
  -8   4  -6    0.80    0.60
   8  -4   6    0.10    0.60
  -9   4  -6   29.50    1.90
   9  -4   6   29.80    2.10
  10   3  -6   -0.20    0.50
 -10  -3   6    1.10    0.70
   9   3  -6    3.30    0.80
  -9  -3   6    2.70    0.70
   8   3  -6   85.69    2.70
  -8  -3   6   85.99    2.60
   7   3  -6    0.30    0.40
  -7  -3   6    0.30    0.40
   6   3  -6    0.60    0.40
  -6  -3   6    1.10    0.40
  -6  -3   6    1.00    0.40
   5   3  -6   38.80    1.50
  -5  -3   6   38.20    1.20
  -5  -3   6   38.30    1.40
   4   3  -6   53.39    1.70
  -4  -3   6   51.39    1.30
  -4  -3   6   52.89    1.60
   3   3  -6  365.26    6.00
  -3  -3   6  369.26    5.20
  -3  -3   6  372.06    6.00
   2   3  -6    9.00    0.70
  -2  -3   6    7.30    0.70
   1   3  -6   31.80    1.10
  -1  -3   6   29.30    1.20
   0   3  -6  128.69    2.70
   0  -3   6  131.69    2.80
  -1   3  -6   38.80    1.30
   1  -3   6   36.10    1.30
   1  -3   6   35.80    0.80
  -2   3  -6   47.60    1.10
  -2   3  -6   46.40    1.50
   2  -3   6   46.60    1.50
  -3   3  -6   22.70    1.10
  -3   3  -6   21.40    0.90
   3  -3   6   25.10    1.10
  -4   3  -6    8.60    0.70
  -4   3  -6    8.60    0.80
   4  -3   6   10.10    0.80
  -5   3  -6   37.70    1.50
  -5   3  -6   43.30    1.70
   5  -3   6   40.10    1.40
  -6   3  -6    9.20    1.00
   6  -3   6    9.80    1.00
  -7   3  -6    2.20    0.70
   7  -3   6    1.20    0.60
  -8   3  -6   27.40    1.70
   8  -3   6   26.40    1.60
  -9   3  -6    1.10    0.70
   9  -3   6    1.00    0.60
  10   2  -6   17.70    1.60
 -10  -2   6   18.30    1.60
   9   2  -6   27.70    1.70
  -9  -2   6   27.10    1.70
   8   2  -6   13.10    1.20
  -8  -2   6   11.60    1.20
   7   2  -6   23.90    1.40
  -7  -2   6   23.40    1.30
   6   2  -6   34.40    1.60
  -6  -2   6   36.80    1.40
  -6  -2   6   36.80    1.30
   5   2  -6   19.50    1.10
  -5  -2   6   19.90    0.90
  -5  -2   6   20.20    1.00
   4   2  -6   67.39    1.90
  -4  -2   6   65.89    1.60
  -4  -2   6   66.29    1.70
   3   2  -6    5.00    0.60
  -3  -2   6    4.90    0.40
  -3  -2   6    5.40    0.60
   2   2  -6    7.30    0.60
  -2  -2   6    7.50    0.40
  -2  -2   6    8.10    0.60
  -1  -2   6  322.97    5.20
  -1  -2   6  312.27    4.30
   0   2  -6   81.39    1.80
   0  -2   6   83.59    1.30
   0  -2   6   81.19    1.90
  -1   2  -6   71.39    1.70
   1  -2   6   68.19    1.80
   1  -2   6   70.19    1.30
  -2   2  -6   41.50    1.30
  -2   2  -6   41.70    1.30
   2  -2   6   40.90    1.00
  -3   2  -6   46.50    1.40
  -3   2  -6   47.20    1.40
  -3   2  -6   45.70    1.30
  -4   2  -6    4.30    0.50
  -4   2  -6    5.80    0.70
  -4   2  -6    4.70    0.60
  -5   2  -6   15.00    1.00
  -5   2  -6   16.00    0.90
  -5   2  -6   13.80    0.90
  -6   2  -6   13.50    1.00
   6  -2   6   13.30    1.00
  -7   2  -6    2.20    0.60
   7  -2   6    1.10    0.50
  -8   2  -6    2.50    0.80
   8  -2   6    4.70    0.80
  -9   2  -6   11.10    1.30
   9  -2   6   13.40    1.20
 -10   2  -6    2.00    0.80
  10   1  -6    0.30    0.60
 -10  -1   6    0.90    0.70
   9   1  -6    1.10    0.60
  -9  -1   6    0.80    0.60
   8   1  -6    0.50    0.50
  -8  -1   6    1.20    0.60
   7   1  -6   85.39    2.70
  -7  -1   6   88.89    2.60
   6   1  -6  202.08    4.30
  -6  -1   6  202.58    4.10
   5   1  -6   20.50    1.10
  -5  -1   6   19.90    0.80
  -5  -1   6   21.60    1.10
   4   1  -6   30.40    1.20
  -4  -1   6   29.20    1.10
  -4  -1   6   31.10    1.00
   3   1  -6   57.59    1.60
  -3  -1   6   62.49    1.50
  -3  -1   6   61.99    1.40
   2   1  -6    0.40    0.20
  -2  -1   6    0.60    0.20
  -2  -1   6    0.40    0.20
   1   1  -6  849.72   11.80
  -1  -1   6  849.61   11.80
  -1  -1   6  837.22   11.40
   0   1  -6    1.00    0.30
   0   1  -6    1.60    0.30
   0  -1   6    1.60    0.20
  -1   1  -6  156.28    2.90
  -1   1  -6  162.08    2.80
   1  -1   6  159.18    2.50
  -2   1  -6  657.53    9.50
  -2   1  -6  666.53    9.30
   2  -1   6  655.03    9.10
  -3   1  -6   25.60    0.90
  -3   1  -6   26.70    1.00
  -3   1  -6   23.10    0.90
  -4   1  -6   10.90    0.70
  -4   1  -6   11.30    0.70
  -4   1  -6   10.80    0.70
  -5   1  -6   95.99    2.40
  -5   1  -6   96.69    2.30
  -5   1  -6   99.09    2.30
  -6   1  -6    0.30    0.30
  -6   1  -6    0.00    0.40
   6  -1   6   -0.10    0.30
  -7   1  -6   12.40    1.20
  -7   1  -6   11.40    1.30
   7  -1   6   11.50    1.00
  -8   1  -6   30.40    1.70
   8  -1   6   28.30    1.50
  -9   1  -6   15.70    1.40
   9  -1   6   13.80    1.20
 -10   1  -6   20.30    1.60
  10   0  -6   19.50    1.60
 -10   0   6   19.00    1.70
   9   0  -6   10.10    1.30
  -9   0   6    6.90    1.10
   8   0  -6    1.10    0.60
  -8   0   6    1.10    0.60
   7   0  -6   63.99    2.30
  -7   0   6   59.89    2.30
   6   0  -6    4.90    0.70
  -6   0   6    6.20    0.80
   5   0  -6    1.60    0.40
  -5   0   6    1.60    0.40
   4   0  -6  138.19    3.00
  -4   0   6  140.49    2.90
  -4   0   6  136.39    2.50
   3   0  -6  101.79    2.30
  -3   0   6   99.39    2.10
  -3   0   6   99.99    2.00
   2   0  -6    6.80    0.50
  -2   0   6    5.90    0.40
  -2   0   6    6.70    0.40
   1   0  -6   32.70    1.00
   1   0  -6   29.90    1.00
  -1   0   6   33.00    0.80
   0   0  -6   60.99    1.40
   0   0  -6   59.99    1.50
   0   0   6   61.09    1.20
  -1   0  -6  366.06    5.60
  -1   0  -6  354.56    5.30
   1   0   6  363.46    5.10
  -2   0  -6    5.20    0.50
  -2   0  -6    4.00    0.30
   2   0   6    4.20    0.30
  -3   0  -6  175.08    3.30
  -3   0  -6  176.78    3.00
   3   0   6  178.48    3.10
  -4   0  -6    4.40    0.50
  -4   0  -6    5.40    0.50
  -4   0  -6    4.80    0.50
  -5   0  -6   10.00    0.70
  -6   0  -6    0.90    0.40
  -6   0  -6    1.90    0.40
   6   0   6    0.90    0.40
  -7   0  -6    3.70    0.50
  -7   0  -6    2.80    0.60
   7   0   6    4.30    0.70
  -8   0  -6    4.20    0.80
   8   0   6    4.20    0.70
  -9   0  -6    2.10    0.70
 -10   0  -6   75.79    2.80
   9  -1  -6   13.60    1.40
  -9   1   6   11.60    1.40
   8  -1  -6   48.30    2.20
  -8   1   6   48.90    2.20
   7  -1  -6   69.89    2.50
  -7   1   6   69.69    2.50
   6  -1  -6  186.98    4.10
  -6   1   6  182.28    4.10
   5  -1  -6   56.79    1.90
  -5   1   6   57.59    1.90
   4  -1  -6   92.29    2.30
  -4   1   6   92.59    1.70
  -4   1   6   87.99    2.20
   3  -1  -6   48.50    1.50
  -3   1   6   51.09    1.10
  -3   1   6   49.00    1.40
   2  -1  -6    1.90    0.30
   2  -1  -6    1.50    0.30
  -2   1   6    1.20    0.30
   1  -1  -6  727.93   10.00
   1  -1  -6  719.93    9.90
  -1   1   6  697.23    9.80
   0  -1  -6   25.10    0.80
   0   1   6   23.70    0.70
  -1  -1  -6    4.70    0.30
  -1  -1  -6    4.40    0.40
   1   1   6    4.10    0.30
  -2  -1  -6  573.74    8.30
  -2  -1  -6  575.64    7.90
   2   1   6  576.64    8.00
  -3  -1  -6    6.30    0.40
  -3  -1  -6    6.40    0.50
   3   1   6    6.70    0.50
  -4  -1  -6   41.00    1.30
  -4  -1  -6   40.80    1.00
   4   1   6   39.80    1.20
  -5  -1  -6  149.88    3.10
  -5  -1  -6  148.49    3.00
   5   1   6  148.79    2.70
  -6  -1  -6    1.10    0.40
  -6  -1  -6    0.90    0.40
   6   1   6    1.50    0.30
  -7  -1  -6   66.29    2.10
  -7  -1  -6   64.69    1.80
   7   1   6   67.79    1.80
  -8  -1  -6   11.60    1.20
  -8  -1  -6   16.30    1.00
   8   1   6   13.20    0.90
  -9  -1  -6    0.00    0.50
 -10  -1  -6    1.10    0.70
 -11  -1  -6   -0.60    0.50
   9  -2  -6   11.10    1.40
  -9   2   6    9.40    1.40
   8  -2  -6    3.30    0.80
  -8   2   6    3.30    0.90
   7  -2  -6    0.10    0.50
  -7   2   6   -0.60    0.40
   6  -2  -6   19.40    1.30
  -6   2   6   16.40    1.20
   5  -2  -6   52.59    1.90
  -5   2   6   51.49    1.90
   4  -2  -6    4.60    0.60
  -4   2   6    4.90    0.60
   3  -2  -6   23.90    1.00
  -3   2   6   24.30    0.70
  -3   2   6   24.10    1.00
   2  -2  -6  168.88    2.70
   2  -2  -6  172.78    3.10
  -2   2   6  167.28    3.10
   1  -2  -6    1.90    0.30
   1  -2  -6    1.80    0.30
  -1   2   6    1.70    0.30
   0  -2  -6    0.20    0.20
   0  -2  -6    1.10    0.20
   0   2   6    0.40    0.20
  -1  -2  -6   36.20    0.80
  -1  -2  -6   37.00    1.10
   1   2   6   36.50    1.00
  -2  -2  -6  253.97    3.60
  -2  -2  -6  253.37    4.20
   2   2   6  251.87    3.90
  -3  -2  -6   55.09    1.00
  -3  -2  -6   56.59    1.50
   3   2   6   56.19    1.40
  -4  -2  -6  130.89    2.70
   4   2   6  129.09    2.60
   4   2   6  130.79    2.10
  -5  -2  -6   24.60    1.10
   5   2   6   25.70    0.80
   5   2   6   26.50    1.10
  -6  -2  -6    2.30    0.50
  -6  -2  -6    3.60    0.50
   6   2   6    3.40    0.40
  -7  -2  -6   40.50    1.60
  -7  -2  -6   41.50    1.50
   7   2   6   41.80    1.30
  -8  -2  -6   53.49    1.80
  -8  -2  -6   54.19    2.10
  -9  -2  -6    1.90    0.70
 -10  -2  -6   11.80    1.30
 -11  -2  -6    7.70    1.20
   9  -3  -6   23.30    1.80
  -9   3   6   27.90    2.00
   8  -3  -6    1.30    0.70
  -8   3   6    0.40    0.60
   7  -3  -6   -0.20    0.50
  -7   3   6    0.10    0.50
   6  -3  -6   20.80    1.40
  -6   3   6   20.10    1.40
   5  -3  -6  100.99    2.80
  -5   3   6   97.49    2.80
   4  -3  -6   22.40    1.20
  -4   3   6   21.40    1.20
   3  -3  -6  168.28    3.40
  -3   3   6  165.08    3.30
   2  -3  -6   64.79    1.70
   2  -3  -6   66.59    1.30
   1  -3  -6  510.15    7.40
   1  -3  -6  514.05    7.20
  -1   3   6  509.35    7.50
   0   3   6    0.70    0.20
  -1  -3  -6   68.29    1.30
  -1  -3  -6   67.69    1.60
   1   3   6   69.89    1.50
  -2  -3  -6  244.98    3.30
  -2  -3  -6  240.28    4.00
   2   3   6  244.78    3.90
  -3  -3  -6   13.70    0.70
   3   3   6   13.10    0.60
  -4  -3  -6    0.40    0.30
   4   3   6    0.80    0.30
  -5  -3  -6   37.00    1.30
   5   3   6   36.20    0.80
   5   3   6   38.40    1.30
  -6  -3  -6  253.57    4.50
   6   3   6  254.17    4.60
   6   3   6  249.78    3.80
  -7  -3  -6   41.90    1.60
  -7  -3  -6   41.60    1.50
  -8  -3  -6    4.60    0.70
  -8  -3  -6    4.60    0.70
  -9  -3  -6   30.10    1.40
  -9  -3  -6   29.00    1.70
 -10  -3  -6    6.70    1.00
 -11  -3  -6   -0.20    0.60
   8  -4  -6    5.10    1.10
  -8   4   6    4.60    1.10
   7  -4  -6    0.10    0.60
  -7   4   6    1.70    0.70
   6  -4  -6   23.80    1.60
  -6   4   6   23.40    1.60
   5  -4  -6   16.60    1.20
  -5   4   6   13.20    1.10
   4  -4  -6  155.68    3.50
  -4   4   6  151.98    3.50
   3  -4  -6   11.70    0.90
  -3   4   6   12.80    0.90
   2  -4  -6  106.89    1.90
   2  -4  -6  110.59    2.50
  -2   4   6  110.19    2.50
   1  -4  -6   11.90    0.70
   1  -4  -6   13.20    0.60
  -1   4   6   12.40    0.70
   0  -4  -6  215.38    3.50
   0  -4  -6  213.58    3.40
   0   4   6  205.48    3.60
  -1  -4  -6    3.00    0.30
  -1  -4  -6    3.00    0.40
   1   4   6    3.30    0.40
  -2  -4  -6  343.87    4.60
  -2  -4  -6  342.87    5.40
   2   4   6  339.87    5.30
  -3  -4  -6    3.70    0.50
   3   4   6    2.90    0.40
  -4  -4  -6   70.99    1.90
   4   4   6   73.19    1.80
  -5  -4  -6   58.59    1.70
   5   4   6   59.59    1.70
  -6  -4  -6   26.40    1.20
   6   4   6   26.90    1.20
  -7  -4  -6  148.79    3.30
   7   4   6  146.29    3.30
  -8  -4  -6    0.10    0.40
   8   4   6    0.60    0.40
  -9  -4  -6    3.90    0.70
   9   4   6    4.30    0.80
  10   4   6    7.50    1.00
  11   4   6   -0.70    0.40
   8  -5  -6    0.10    0.70
  -8   5   6    1.40    0.70
   7  -5  -6    1.90    0.80
  -7   5   6    3.50    0.90
   6  -5  -6    0.90    0.70
  -6   5   6    0.70    0.60
   5  -5  -6   88.79    2.80
  -5   5   6   90.29    2.90
   4  -5  -6    5.60    0.80
  -4   5   6    6.20    0.80
   3  -5  -6   41.20    1.60
  -3   5   6   38.90    1.60
   2  -5  -6  127.69    2.80
  -2   5   6  131.69    2.90
   1  -5  -6   38.70    1.30
   1  -5  -6   38.50    1.00
  -1   5   6   36.70    1.30
   0  -5  -6  128.09    2.40
   0  -5  -6  121.59    2.40
   0   5   6  123.99    2.50
  -1  -5  -6    3.00    0.40
  -1  -5  -6    2.70    0.30
   1   5   6    3.10    0.40
  -2  -5  -6   87.29    2.00
  -2  -5  -6   88.39    1.50
   2   5   6   86.29    1.90
  -3  -5  -6  506.65    7.60
   3   5   6  493.55    7.40
  -4  -5  -6  103.79    2.40
   4   5   6  105.69    2.30
  -5  -5  -6    0.80    0.40
   5   5   6    1.80    0.40
  -6  -5  -6  272.87    5.00
   6   5   6  270.77    4.80
  -7  -5  -6    1.10    0.40
   7   5   6    1.30    0.40
  -8  -5  -6    3.00    0.60
   8   5   6    3.20    0.60
  -9  -5  -6   79.09    2.40
   9   5   6   79.29    2.60
 -10  -5  -6   21.00    1.30
  10   5   6   22.00    1.50
  11   5   6   -0.30    0.40
  12   5   6    7.00    1.50
   7  -6  -6   10.70    1.30
  -7   6   6    7.20    1.20
   6  -6  -6    1.00    0.60
  -6   6   6   -0.10    0.50
   5  -6  -6    3.10    0.80
  -5   6   6    3.10    0.70
   4  -6  -6    0.40    0.50
  -4   6   6    1.00    0.50
   3  -6  -6   73.49    2.30
  -3   6   6   68.09    2.20
   2  -6  -6   20.90    1.10
  -2   6   6   19.20    1.10
   1  -6  -6   11.00    0.80
   1  -6  -6   10.00    0.60
  -1   6   6    8.80    0.70
   0  -6  -6  169.68    3.00
   0  -6  -6  165.58    3.10
   0   6   6  164.88    3.20
  -1  -6  -6    7.60    0.60
  -1  -6  -6    8.10    0.50
   1   6   6    8.20    0.60
  -2  -6  -6    1.40    0.40
  -2  -6  -6    2.00    0.20
   2   6   6    1.90    0.40
  -3  -6  -6    0.10    0.10
  -3  -6  -6    0.20    0.30
   3   6   6   -0.20    0.20
  -4  -6  -6    5.40    0.70
   4   6   6    6.50    0.60
  -5  -6  -6  100.09    2.50
   5   6   6  100.99    2.30
  -6  -6  -6    5.70    0.70
   6   6   6    6.70    0.70
  -7  -6  -6   57.59    2.00
   7   6   6   55.39    1.80
  -8  -6  -6   29.40    1.50
   8   6   6   31.30    1.50
  -9  -6  -6  111.59    3.00
   9   6   6  109.79    3.00
 -10  -6  -6    8.80    1.00
  10   6   6    7.90    1.00
  11   6   6   24.70    1.60
  12   6   6   19.00    1.60
   6  -7  -6    0.70    0.60
  -6   7   6    0.70    0.70
   5  -7  -6   12.40    1.30
  -5   7   6   12.50    1.40
   4  -7  -6    1.90    0.70
  -4   7   6    1.30    0.60
   3  -7  -6    9.10    1.00
  -3   7   6    6.20    0.80
   2  -7  -6    0.50    0.40
  -2   7   6    0.20    0.40
   1  -7  -6   26.10    1.20
   1  -7  -6   27.30    1.10
  -1   7   6   24.50    1.20
   0  -7  -6  404.86    6.40
   0  -7  -6  410.76    6.30
   0   7   6  407.16    6.60
  -1  -7  -6   63.39    1.80
  -1  -7  -6   65.79    1.60
   1   7   6   62.09    1.80
  -2  -7  -6  162.18    3.30
  -2  -7  -6  167.08    2.80
   2   7   6  162.28    3.20
  -3  -7  -6  131.89    2.20
  -3  -7  -6  133.99    3.00
   3   7   6  134.29    2.80
  -4  -7  -6   59.19    1.90
   4   7   6   57.59    1.70
  -5  -7  -6    1.20    0.50
   5   7   6    0.70    0.30
  -6  -7  -6  115.59    3.00
   6   7   6  119.09    2.70
  -7  -7  -6  147.29    3.60
   7   7   6  148.29    3.30
  -8  -7  -6   46.60    1.90
   8   7   6   40.90    1.70
  -9  -7  -6   50.79    2.10
   9   7   6   55.49    2.10
 -10  -7  -6   23.30    1.50
  10   7   6   21.80    1.40
 -11  -7  -6   40.00    2.10
  11   7   6   43.10    2.00
  12   7   6    2.40    0.70
   6  -8  -6    0.90    0.80
  -6   8   6    1.00    0.60
   5  -8  -6    0.50    0.60
  -5   8   6    0.30    0.50
   4  -8  -6    0.00    0.50
  -4   8   6    0.60    0.50
   3  -8  -6    4.60    0.80
  -3   8   6    3.10    0.70
   2  -8  -6    0.70    0.50
  -2   8   6    0.50    0.40
   1  -8  -6   32.10    1.40
  -1   8   6   34.60    1.50
   0  -8  -6    0.80    0.40
   0  -8  -6    0.30    0.30
   0   8   6    0.10    0.40
  -1  -8  -6    0.50    0.30
  -1  -8  -6    0.30    0.30
   1   8   6    0.30    0.30
  -2  -8  -6   45.30    1.30
  -2  -8  -6   45.80    1.60
   2   8   6   43.30    1.50
  -3  -8  -6   43.80    1.20
  -3  -8  -6   44.40    1.60
   3   8   6   45.00    1.50
  -4  -8  -6    2.30    0.60
   4   8   6    2.60    0.50
  -5  -8  -6   55.89    2.00
   5   8   6   58.69    1.80
  -6  -8  -6    8.10    1.00
   6   8   6    7.40    0.80
  -7  -8  -6   12.40    1.10
   7   8   6   11.90    0.90
  -8  -8  -6   63.79    2.30
   8   8   6   61.99    2.10
  -9  -8  -6   20.50    1.50
   9   8   6   19.60    1.30
 -10  -8  -6   35.40    1.90
  10   8   6   33.60    1.70
 -11  -8  -6    9.90    1.20
  11   8   6   10.60    1.20
  12   8   6   23.30    1.80
   5  -9  -6   -0.40    0.60
  -5   9   6    0.10    0.60
   4  -9  -6    0.10    0.60
  -4   9   6    0.20    0.60
   3  -9  -6   18.60    1.40
  -3   9   6   21.40    1.50
   2  -9  -6    0.30    0.50
  -2   9   6    0.30    0.40
   1  -9  -6    0.70    0.50
  -1   9   6    0.10    0.40
   0  -9  -6   25.60    1.30
   0  -9  -6   24.60    1.50
   0   9   6   21.80    1.20
  -1  -9  -6    1.80    0.50
  -1  -9  -6    1.80    0.50
   1   9   6    1.50    0.50
  -2  -9  -6   24.70    1.30
  -2  -9  -6   23.40    1.00
   2   9   6   22.40    1.10
  -3  -9  -6    4.30    0.70
   3   9   6    4.30    0.60
  -4  -9  -6   19.40    1.20
   4   9   6   19.10    1.00
  -5  -9  -6  133.69    3.40
   5   9   6  135.19    3.00
  -6  -9  -6    1.40    0.60
   6   9   6    1.00    0.40
  -7  -9  -6    3.80    0.80
   7   9   6    4.00    0.60
  -8  -9  -6   55.29    2.30
   8   9   6   52.39    1.90
  -9  -9  -6    6.30    1.00
   9   9   6    9.20    1.00
 -10  -9  -6    0.00    0.50
  10   9   6   -0.10    0.40
 -11  -9  -6    2.60    0.80
  11   9   6    0.80    0.50
   4 -10  -6   19.00    1.70
  -4  10   6   19.30    1.70
   3 -10  -6    2.90    0.80
  -3  10   6    1.90    0.70
   2 -10  -6    2.10    0.70
  -2  10   6    3.30    0.80
   1 -10  -6   52.99    2.10
  -1  10   6   51.19    2.10
   0 -10  -6   57.59    2.00
   0  10   6   58.59    2.10
  -1 -10  -6    0.20    0.50
  -1 -10  -6    1.10    0.50
   1  10   6   -0.10    0.30
  -2 -10  -6   47.70    1.70
  -2 -10  -6   48.80    1.90
   2  10   6   49.50    1.80
  -3 -10  -6    4.70    0.80
   3  10   6    5.80    0.70
  -4 -10  -6   27.10    1.60
   4  10   6   28.00    1.30
  -5 -10  -6    0.70    0.50
   5  10   6   -0.30    0.30
  -6 -10  -6   43.00    2.00
   6  10   6   44.40    1.70
  -7 -10  -6   -0.30    0.50
   7  10   6    1.20    0.50
  -8 -10  -6   36.10    1.90
   8  10   6   34.40    1.60
  -9 -10  -6    8.50    1.20
   9  10   6    8.00    1.00
 -10 -10  -6    9.70    1.20
  10  10   6    9.70    1.10
 -11 -10  -6    0.20    0.60
  11  10   6   -0.20    0.40
   3 -11  -6    5.50    1.00
  -3  11   6    3.90    0.90
   2 -11  -6    3.00    0.80
  -2  11   6    3.10    0.80
   1 -11  -6   46.00    2.10
  -1  11   6   44.40    2.00
   0 -11  -6    9.70    1.10
   0  11   6   10.60    1.10
  -1 -11  -6   23.00    1.40
   1  11   6   22.50    1.30
  -2 -11  -6   10.70    1.10
   2  11   6    9.20    0.90
  -3 -11  -6    0.10    0.60
   3  11   6    0.60    0.40
  -4 -11  -6   23.80    1.60
   4  11   6   22.10    1.20
  -5 -11  -6  109.79    3.30
   5  11   6  104.49    2.70
  -6 -11  -6    3.20    0.80
   6  11   6    3.00    0.60
  -7 -11  -6    0.00    0.60
   7  11   6    0.30    0.40
  -8 -11  -6   12.60    1.40
   8  11   6   12.50    1.10
  -9 -11  -6    0.90    0.70
   9  11   6    0.40    0.40
 -10 -11  -6    0.90    0.80
  10  11   6    0.80    0.60
 -11 -11  -6   13.60    1.50
  11  11   6   10.20    1.10
   2 -12  -6    0.40    0.70
  -2  12   6    1.60    0.70
   1 -12  -6   11.20    1.30
  -1  12   6   11.00    1.30
   0  12   6   10.90    1.20
   1  12   6    1.10    0.50
  -2 -12  -6   16.50    1.30
   2  12   6   13.70    1.10
  -3 -12  -6    0.80    0.60
   3  12   6    1.30    0.50
  -4 -12  -6    1.80    0.70
   4  12   6    1.50    0.50
  -5 -12  -6   19.50    1.60
   5  12   6   21.90    1.30
  -6 -12  -6    4.10    0.90
   6  12   6    3.50    0.70
  -7 -12  -6    6.40    1.10
   7  12   6    6.10    0.80
  -8 -12  -6   19.80    1.70
   8  12   6   23.00    1.40
  -9 -12  -6   12.00    1.50
   9  12   6   10.90    1.10
 -10 -12  -6    0.60    0.70
  10  12   6    1.10    0.50
   1  13   6    0.20    0.80
   2  13   6   11.30    1.30
  -3 -13  -6    0.10    0.60
   3  13   6    0.80    0.50
  -4 -13  -6    5.00    1.00
   4  13   6    5.30    0.90
  -5 -13  -6   13.30    1.40
   5  13   6   11.10    1.60
  -6 -13  -6    7.10    1.20
  -7 -13  -6    4.40    1.00
  -8 -13  -6   13.00    1.50
  -9 -13  -6    3.20    1.00
  -4 -14  -6   13.50    1.50
  -5 -14  -6    4.50    1.00
  -6 -14  -6   27.60    2.00
  -7 -14  -6   15.60    1.70
   6  11  -7    0.40    0.60
  -6 -11   7   -0.30    0.70
   5  11  -7    6.30    1.10
  -5 -11   7    4.10    1.10
   4  11  -7   13.40    1.50
  -4 -11   7   16.00    1.80
   3  11  -7   -0.10    0.60
  -3 -11   7    0.70    0.80
   2  11  -7    0.50    0.70
  -2 -11   7    1.00    0.80
   1  11  -7    1.60    0.80
  -1 -11   7    2.40    0.90
   0 -11   7   12.80    1.50
   8  10  -7   10.90    1.40
  -8 -10   7   10.10    1.50
   7  10  -7    3.10    0.80
  -7 -10   7    3.30    1.00
   6  10  -7   11.10    1.30
  -6 -10   7   10.60    1.50
   5  10  -7    0.60    0.50
  -5 -10   7    1.00    0.80
   4  10  -7   25.90    1.70
  -4 -10   7   29.30    2.00
   3  10  -7    0.40    0.60
  -3 -10   7    0.70    0.80
   2  10  -7    2.90    0.80
  -2 -10   7    1.80    0.80
   1  10  -7    0.40    0.60
  -1 -10   7    0.20    0.70
   0  10  -7    6.00    1.10
   0 -10   7    5.60    1.10
  -1  10  -7   25.60    1.80
   1 -10   7   22.20    1.70
  -2  10  -7    3.00    1.00
   9   9  -7    3.80    1.20
  -9  -9   7    1.50    0.90
   8   9  -7    0.10    0.50
  -8  -9   7   -0.20    0.60
   7   9  -7   18.80    1.40
  -7  -9   7   19.90    1.70
   6   9  -7    4.20    0.80
  -6  -9   7    2.20    0.90
   5   9  -7    3.90    0.80
  -5  -9   7    4.70    1.10
   4   9  -7   -0.60    0.40
  -4  -9   7   -0.60    0.60
   3   9  -7   11.90    1.30
  -3  -9   7   11.10    1.40
   2   9  -7   75.19    2.70
  -2  -9   7   79.49    3.00
   1   9  -7    0.60    0.60
  -1  -9   7    0.10    0.60
   0   9  -7    0.50    0.60
   0  -9   7    0.10    0.60
  -1   9  -7   13.70    1.40
   1  -9   7   12.40    1.40
  -2   9  -7    0.20    0.50
   2  -9   7    0.00    0.60
  -3   9  -7    6.90    1.20
   9   8  -7    7.90    1.10
   8   8  -7    4.30    0.80
  -8  -8   7    6.70    1.20
   7   8  -7    5.40    0.90
  -7  -8   7    3.80    0.90
   6   8  -7    5.40    0.90
  -6  -8   7    6.40    1.10
   5   8  -7    0.50    0.50
  -5  -8   7    0.60    0.70
   4   8  -7    5.00    0.80
  -4  -8   7    4.60    0.90
   3   8  -7   58.59    2.20
  -3  -8   7   57.19    2.40
   2   8  -7   43.80    1.90
  -2  -8   7   39.50    2.00
   1   8  -7    6.70    1.00
  -1  -8   7    7.10    1.10
   0   8  -7   25.90    1.60
   0  -8   7   23.20    1.60
  -1   8  -7   35.10    1.90
   1  -8   7   31.50    1.80
  -2   8  -7    5.20    0.90
   2  -8   7    5.80    1.00
  -3   8  -7    0.30    0.50
  -4   8  -7   18.90    1.60
   9   7  -7    0.80    0.60
   8   7  -7    5.20    0.90
  -8  -7   7    5.40    1.00
   7   7  -7    7.50    1.00
  -7  -7   7    8.40    1.20
   6   7  -7   63.99    2.40
  -6  -7   7   63.49    2.50
   5   7  -7   16.30    1.30
  -5  -7   7   17.70    1.40
   4   7  -7   14.90    1.10
  -4  -7   7   13.20    1.30
   3   7  -7   50.99    2.00
  -3  -7   7   48.80    2.10
   2   7  -7   33.00    1.60
  -2  -7   7   31.60    1.70
   1   7  -7    3.90    0.70
  -1  -7   7    4.00    0.80
   0   7  -7   80.49    2.60
   0  -7   7   79.79    2.70
  -1   7  -7    6.20    0.90
   1  -7   7    8.70    1.10
  -2   7  -7    8.40    1.10
   2  -7   7    8.00    1.00
  -3   7  -7    2.40    0.70
   3  -7   7    5.20    0.90
  -4   7  -7   44.50    2.20
  -5   7  -7    1.50    0.70
   6  -7   7   18.20    1.70
  10   6  -7   -0.20    0.50
   9   6  -7   70.19    2.70
   8   6  -7    6.20    0.90
   7   6  -7    0.60    0.50
  -7  -6   7    0.00    0.50
   6   6  -7   18.50    1.30
  -6  -6   7   19.50    1.40
   5   6  -7    4.60    0.70
  -5  -6   7    6.00    0.90
   4   6  -7   14.90    1.10
  -4  -6   7   13.50    1.10
   3   6  -7    8.30    0.90
  -3  -6   7    8.80    1.00
   2   6  -7   26.90    1.30
  -2  -6   7   24.20    1.50
   1   6  -7    9.80    1.00
  -1  -6   7    8.90    1.00
   0   6  -7    4.20    0.70
   0  -6   7    6.60    0.90
  -1   6  -7   20.60    1.30
   1  -6   7   24.40    1.40
  -2   6  -7    0.70    0.50
   2  -6   7    1.80    0.60
  -3   6  -7   25.90    1.60
   3  -6   7   23.30    1.40
  -4   6  -7   -0.20    0.40
   4  -6   7    0.40    0.50
  -5   6  -7    2.10    0.70
   6  -6   7   18.40    1.60
   7  -6   7   10.00    1.40
  10   5  -7    7.30    1.10
   9   5  -7    8.10    1.10
   8   5  -7   10.60    1.20
   7   5  -7    2.00    0.60
  -7  -5   7    2.70    0.70
   6   5  -7  109.19    3.00
  -6  -5   7  108.59    3.00
   5   5  -7   20.10    1.20
  -5  -5   7   19.50    1.20
   4   5  -7    6.30    0.80
  -4  -5   7    6.00    0.80
   3   5  -7  127.69    3.00
  -3  -5   7  130.19    3.20
   2   5  -7    2.20    0.50
  -2  -5   7    3.00    0.60
   1   5  -7  198.68    4.00
  -1  -5   7  202.38    4.20
   0   5  -7  199.98    4.10
   0  -5   7  205.28    4.20
  -1   5  -7  167.88    3.70
   1  -5   7  163.28    3.70
  -2   5  -7   29.10    1.50
   2  -5   7   27.70    1.40
  -3   5  -7  125.09    3.20
   3  -5   7  126.69    3.10
  -4   5  -7    9.40    1.00
   4  -5   7   12.10    1.10
  -5   5  -7    1.00    0.60
   6  -5   7    0.20    0.50
   7  -5   7   -0.80    0.50
   8  -5   7    0.40    0.70
  10   4  -7    1.20    0.70
   9   4  -7   72.99    2.70
   8   4  -7   -0.10    0.40
   7   4  -7    6.90    0.90
  -7  -4   7    8.00    1.00
   6   4  -7    2.20    0.60
  -6  -4   7    2.80    0.60
   5   4  -7    3.30    0.60
  -5  -4   7    3.30    0.60
   4   4  -7   32.10    1.40
  -4  -4   7   30.80    1.40
   3   4  -7    0.50    0.30
  -3  -4   7    1.00    0.40
   2   4  -7   59.99    1.80
  -2  -4   7   60.39    1.90
   1   4  -7    9.00    0.80
  -1  -4   7   11.10    0.90
   0   4  -7  472.55    7.50
   0  -4   7  465.95    7.60
  -1   4  -7    0.40    0.40
   1  -4   7   -0.30    0.40
  -2   4  -7   14.90    1.00
   2  -4   7   16.50    1.10
  -3   4  -7  113.69    2.90
  -3   4  -7  115.79    3.10
   3  -4   7  115.19    2.80
  -4   4  -7   13.40    0.80
  -4   4  -7   13.50    1.10
   4  -4   7   13.40    1.00
  -5   4  -7    2.60    0.60
  -5   4  -7    2.80    0.50
   5  -4   7    3.00    0.60
  -6   4  -7   37.70    1.60
   6  -4   7   35.20    1.80
   7  -4   7    2.10    0.70
   8  -4   7   -0.50    0.50
  10   3  -7   15.90    1.40
   9   3  -7   30.30    1.80
   8   3  -7    0.10    0.50
  -8  -3   7    0.70    0.60
   7   3  -7    7.50    0.90
  -7  -3   7    6.60    0.80
   6   3  -7  321.97    6.00
  -6  -3   7  312.17    5.40
  -6  -3   7  312.77    5.60
   5   3  -7    1.40    0.50
  -5  -3   7    1.90    0.50
  -5  -3   7    1.50    0.40
   4   3  -7   11.80    0.90
  -4  -3   7   12.30    0.60
  -4  -3   7   12.00    0.90
   3   3  -7   61.89    1.80
  -3  -3   7   60.09    1.80
  -3  -3   7   61.79    1.30
   2   3  -7   78.69    2.10
  -2  -3   7   83.39    2.20
   1   3  -7  504.95    7.70
  -1  -3   7  485.15    7.80
   0   3  -7  121.79    2.60
   0  -3   7  118.49    2.70
  -1   3  -7   38.50    1.40
   1  -3   7   36.00    1.40
   1  -3   7   37.00    0.80
  -2   3  -7   10.90    0.80
   2  -3   7   11.80    0.80
   2  -3   7   10.80    0.50
  -3   3  -7   22.30    1.10
  -3   3  -7   23.60    0.90
   3  -3   7   21.60    1.10
  -4   3  -7   18.70    1.10
  -4   3  -7   15.80    0.90
   4  -3   7   17.20    1.00
  -5   3  -7    2.00    0.50
  -5   3  -7    1.70    0.50
   5  -3   7    1.70    0.50
  -6   3  -7    3.90    0.60
   6  -3   7    3.20    0.80
   6  -3   7    4.20    0.80
  -7   3  -7    4.90    0.80
   7  -3   7    5.00    0.90
  -8   3  -7    0.40    0.60
   8  -3   7   -0.20    0.50
  -9   3  -7    1.50    0.70
  10   2  -7   19.90    1.60
 -10  -2   7   21.20    1.70
   9   2  -7   17.70    1.50
  -9  -2   7   18.10    1.40
   8   2  -7    8.80    1.10
  -8  -2   7    9.80    1.10
   7   2  -7   20.70    1.40
  -7  -2   7   21.00    1.20
   6   2  -7   29.30    1.50
  -6  -2   7   34.50    1.40
   5   2  -7   34.40    1.50
  -5  -2   7   32.50    1.20
  -5  -2   7   30.50    1.20
   4   2  -7  101.89    2.60
  -4  -2   7  101.39    2.20
  -4  -2   7  104.59    2.40
   3   2  -7   92.39    2.30
  -3  -2   7   92.59    2.20
  -3  -2   7   93.99    1.80
   2   2  -7    0.20    0.30
  -2  -2   7    0.20    0.30
   1   2  -7    1.00    0.30
  -1  -2   7    2.90    0.50
  -1  -2   7    1.50    0.20
   0   2  -7   18.20    0.80
   0  -2   7   17.10    0.90
   0  -2   7   18.20    0.50
  -1   2  -7   35.40    1.20
   1  -2   7   36.40    0.80
   1  -2   7   37.00    1.30
  -2   2  -7  122.99    2.70
  -2   2  -7  119.99    2.50
   2  -2   7  117.59    2.10
  -3   2  -7  104.29    2.40
  -3   2  -7  103.59    2.40
   3  -2   7  103.79    2.10
  -4   2  -7    0.20    0.30
  -4   2  -7    0.40    0.30
  -4   2  -7    0.90    0.40
  -5   2  -7    3.50    0.50
  -5   2  -7    3.90    0.60
  -5   2  -7    3.60    0.60
  -6   2  -7    3.50    0.60
   6  -2   7    3.60    0.60
  -7   2  -7    2.40    0.60
   7  -2   7    1.60    0.60
  -8   2  -7    8.60    1.10
   8  -2   7    9.30    1.10
  -9   2  -7    1.70    0.70
  10   1  -7    0.00    0.60
 -10  -1   7   -0.60    0.50
   9   1  -7   28.00    1.80
  -9  -1   7   28.90    1.80
   8   1  -7    0.00    0.50
  -8  -1   7    0.20    0.40
   7   1  -7    0.60    0.50
  -7  -1   7    0.30    0.40
   6   1  -7   22.20    1.40
  -6  -1   7   21.80    1.20
   5   1  -7  151.98    3.50
  -5  -1   7  158.38    3.00
  -5  -1   7  159.48    3.30
   4   1  -7  169.78    3.50
  -4  -1   7  172.08    3.20
  -4  -1   7  166.98    3.20
   3   1  -7   10.80    0.70
  -3  -1   7    8.80    0.60
  -3  -1   7    9.40    0.60
   2   1  -7  109.39    2.40
  -2  -1   7  108.49    2.30
  -2  -1   7  112.69    2.00
   1   1  -7  259.57    4.30
  -1  -1   7  260.87    4.40
  -1  -1   7  255.57    3.80
   0   1  -7   58.29    1.50
   0   1  -7   54.49    1.50
   0  -1   7   57.39    1.10
  -1   1  -7  361.36    5.50
  -1   1  -7  358.86    5.70
   1  -1   7  351.66    5.10
  -2   1  -7   33.50    1.20
  -2   1  -7   32.70    1.10
   2  -1   7   34.00    0.90
  -3   1  -7   52.99    1.60
  -3   1  -7   52.09    1.40
   3  -1   7   49.30    1.30
  -4   1  -7  292.67    4.90
  -4   1  -7  303.57    5.10
  -4   1  -7  298.07    4.90
  -5   1  -7    7.00    0.70
  -5   1  -7    5.80    0.60
  -5   1  -7    7.70    0.70
  -6   1  -7    2.30    0.50
  -6   1  -7    1.70    0.50
   6  -1   7    1.90    0.50
  -7   1  -7    7.30    0.90
  -7   1  -7    8.70    0.80
   7  -1   7    8.80    0.90
  -8   1  -7    4.00    0.80
   8  -1   7    3.40    0.70
  -9   1  -7    5.30    1.00
 -10   1  -7    1.90    0.70
 -10   0   7   18.10    2.10
   9   0  -7   -0.70    0.50
  -9   0   7   -0.10    0.60
   8   0  -7   21.80    1.50
  -8   0   7   22.20    1.50
   7   0  -7    2.70    0.70
  -7   0   7    1.30    0.60
   6   0  -7   19.00    1.30
  -6   0   7   17.10    1.20
   5   0  -7   92.29    2.60
  -5   0   7   92.39    2.40
   4   0  -7    1.70    0.40
  -4   0   7    2.00    0.40
  -4   0   7    3.00    0.40
   3   0  -7    4.50    0.60
  -3   0   7    4.70    0.50
  -3   0   7    3.90    0.50
   2   0  -7   29.70    1.10
  -2   0   7   30.20    1.00
  -2   0   7   31.40    1.00
   1   0  -7  102.49    2.10
   1   0  -7   97.39    2.10
  -1   0   7   98.19    1.80
   0   0  -7    8.90    0.50
   0   0  -7   10.60    0.60
   0   0   7    9.10    0.40
  -1   0  -7   42.30    1.10
  -1   0  -7   41.30    1.30
   1   0   7   42.80    1.00
  -2   0  -7  150.08    2.60
  -2   0  -7  154.88    3.00
   2   0   7  152.18    2.60
  -3   0  -7   58.39    1.40
  -3   0  -7   58.49    1.60
   3   0   7   58.19    1.40
  -4   0  -7    7.20    0.70
  -4   0  -7    6.70    0.50
   4   0   7    6.00    0.60
  -5   0  -7   23.20    1.10
  -5   0  -7   26.00    1.10
  -5   0  -7   23.50    1.00
  -6   0  -7    2.40    0.50
  -6   0  -7    3.40    0.50
   6   0   7    1.60    0.40
  -7   0  -7   45.20    1.60
  -7   0  -7   44.90    1.80
   7   0   7   45.30    1.60
  -8   0  -7    0.90    0.60
   8   0   7    0.10    0.40
  -9   0  -7    0.10    0.60
 -10   0  -7    0.20    0.60
   9  -1  -7    1.20    0.70
  -9   1   7    1.40    0.70
   8  -1  -7   13.40    1.40
  -8   1   7   12.90    1.40
   7  -1  -7   29.50    1.70
  -7   1   7   32.50    1.70
   6  -1  -7   25.00    1.40
  -6   1   7   25.20    1.40
   5  -1  -7  141.09    3.30
  -5   1   7  141.29    3.30
   4  -1  -7  207.78    4.10
  -4   1   7  208.78    3.40
  -4   1   7  208.28    4.00
   3  -1  -7   62.49    1.80
  -3   1   7   62.69    1.70
  -3   1   7   66.99    1.50
   2  -1  -7  196.58    3.30
   2  -1  -7  195.78    3.50
  -2   1   7  193.48    3.40
   1  -1  -7  261.17    4.20
   1  -1  -7  255.87    4.10
  -1   1   7  256.87    4.10
   0  -1  -7   70.69    1.70
   0  -1  -7   70.29    1.50
   0   1   7   73.19    1.50
  -1  -1  -7  313.67    5.00
  -1  -1  -7  308.47    4.60
   1   1   7  318.07    4.70
  -2  -1  -7   64.49    1.70
  -2  -1  -7   66.39    1.30
   2   1   7   65.79    1.40
  -3  -1  -7   11.70    0.70
  -3  -1  -7   12.30    0.50
   3   1   7   11.50    0.60
  -4  -1  -7  200.98    3.70
  -4  -1  -7  201.88    3.30
   4   1   7  201.38    3.60
  -5  -1  -7   27.30    1.20
   5   1   7   21.90    1.00
  -6  -1  -7   33.30    1.30
  -6  -1  -7   33.00    1.40
   6   1   7   37.30    1.20
  -7  -1  -7   22.80    1.30
  -7  -1  -7   23.80    1.20
   7   1   7   24.10    1.10
  -8  -1  -7    0.00    0.30
  -8  -1  -7   -0.80    0.40
  -9  -1  -7   42.30    2.00
 -10  -1  -7    0.80    0.60
 -11  -1  -7    0.80    0.80
   9  -2  -7    2.60    0.80
  -9   2   7    4.70    1.00
   8  -2  -7   18.60    1.50
  -8   2   7   20.10    1.60
   7  -2  -7   12.80    1.30
  -7   2   7   12.20    1.30
   6  -2  -7   -0.10    0.50
  -6   2   7    0.10    0.40
   5  -2  -7    0.60    0.40
  -5   2   7    0.90    0.40
   4  -2  -7    3.80    0.60
  -4   2   7    6.50    0.70
   3  -2  -7   39.50    1.40
  -3   2   7   39.00    1.40
  -3   2   7   38.60    1.00
   2  -2  -7   22.10    0.80
   2  -2  -7   22.10    1.00
  -2   2   7   23.30    0.90
   1  -2  -7   61.69    1.40
   1  -2  -7   57.59    1.50
  -1   2   7   58.39    1.50
   0  -2  -7   79.69    1.80
   0  -2  -7   80.89    1.70
   0   2   7   82.79    1.70
  -1  -2  -7   84.49    1.60
  -1  -2  -7   86.39    1.90
   1   2   7   84.39    1.70
  -2  -2  -7   35.70    1.20
  -2  -2  -7   36.50    0.80
   2   2   7   36.80    1.10
  -3  -2  -7   12.30    0.40
  -3  -2  -7   14.40    0.80
   3   2   7   11.70    0.60
  -4  -2  -7  205.68    3.10
  -4  -2  -7  197.68    3.70
   4   2   7  198.18    3.60
  -5  -2  -7   70.49    1.90
   5   2   7   69.19    1.90
   5   2   7   69.99    1.50
  -6  -2  -7   13.50    0.90
   6   2   7   13.90    0.70
   6   2   7   13.70    0.90
  -7  -2  -7   57.79    1.80
   7   2   7   54.39    1.90
  -8  -2  -7    4.90    0.70
  -8  -2  -7    3.80    0.80
  -9  -2  -7   24.80    1.60
 -10  -2  -7   15.70    1.40
  11   2   7    8.20    1.20
   8  -3  -7    5.80    1.00
  -8   3   7    4.00    0.90
   7  -3  -7   63.19    2.50
  -7   3   7   63.29    2.60
   6  -3  -7    0.00    0.50
  -6   3   7    0.70    0.50
   5  -3  -7   -0.20    0.40
  -5   3   7    0.00    0.40
   4  -3  -7   20.50    1.20
  -4   3   7   23.10    1.20
   3  -3  -7  233.78    4.30
  -3   3   7  228.48    4.30
   2  -3  -7  110.49    2.40
   2  -3  -7  110.79    2.00
  -2   3   7  106.49    2.40
   1  -3  -7   78.09    1.60
   1  -3  -7   74.59    1.70
  -1   3   7   73.69    1.80
   0  -3  -7  142.89    2.60
   0  -3  -7  151.78    2.70
   0   3   7  146.79    2.70
  -1  -3  -7  251.47    3.80
  -1  -3  -7  262.27    4.30
   1   3   7  257.27    4.20
  -2  -3  -7   30.20    1.10
  -2  -3  -7   30.60    0.70
   2   3   7   32.90    1.00
  -3  -3  -7  113.09    2.50
   3   3   7  117.79    2.30
  -4  -3  -7  129.99    2.80
   4   3   7  129.69    2.60
  -5  -3  -7    1.40    0.40
   5   3   7    1.70    0.40
   5   3   7    2.50    0.20
  -6  -3  -7    0.60    0.40
   6   3   7    0.30    0.30
  -7  -3  -7    0.20    0.30
   7   3   7   -0.10    0.30
  -8  -3  -7  112.99    2.80
   8   3   7  107.39    3.00
  -9  -3  -7   23.90    1.30
   9   3   7   22.70    1.40
  10   3   7    4.40    0.80
  11   3   7    4.80    0.90
   8  -4  -7   -0.30    0.60
  -8   4   7   -0.80    0.50
   7  -4  -7   11.50    1.30
  -7   4   7   11.50    1.40
   6  -4  -7   10.10    1.20
  -6   4   7   10.00    1.20
   5  -4  -7    0.40    0.50
  -5   4   7    2.30    0.60
   4  -4  -7   67.49    2.20
  -4   4   7   66.79    2.20
   3  -4  -7   19.20    1.10
  -3   4   7   16.10    1.00
   2  -4  -7  358.36    5.90
   2  -4  -7  362.16    5.20
   1  -4  -7    2.70    0.40
   1  -4  -7    3.00    0.40
  -1   4   7    5.10    0.60
   0  -4  -7   48.00    1.30
   0  -4  -7   46.40    1.20
   0   4   7   47.60    1.40
  -1  -4  -7  132.19    2.60
  -1  -4  -7  130.59    2.20
   1   4   7  131.39    2.60
  -2  -4  -7   85.49    1.40
  -2  -4  -7   81.59    2.00
   2   4   7   87.29    1.90
  -3  -4  -7   20.50    1.00
   3   4   7   21.10    0.90
  -4  -4  -7  268.47    4.70
   4   4   7  270.47    4.50
  -5  -4  -7   30.50    1.30
   5   4   7   31.30    1.20
  -6  -4  -7    1.00    0.40
   6   4   7    1.20    0.40
  -7  -4  -7    0.90    0.40
   7   4   7    0.00    0.30
  -8  -4  -7   14.40    1.10
   8   4   7   17.00    1.20
  -9  -4  -7   83.69    2.50
   9   4   7   88.49    2.80
  10   4   7    2.80    0.70
  11   4   7    1.50    0.70
   7  -5  -7    0.30    0.60
  -7   5   7    0.10    0.60
   6  -5  -7    8.40    1.10
  -6   5   7    7.00    1.00
   5  -5  -7    4.80    0.80
  -5   5   7    4.00    0.80
   4  -5  -7    0.70    0.50
  -4   5   7   -0.10    0.40
   3  -5  -7  182.68    3.90
  -3   5   7  182.88    3.90
   2  -5  -7    1.00    0.40
  -2   5   7    1.10    0.40
   1  -5  -7    4.00    0.50
   1  -5  -7    3.60    0.40
  -1   5   7    4.10    0.50
   0  -5  -7  272.07    4.30
   0  -5  -7  268.17    4.30
   0   5   7  254.07    4.50
  -1  -5  -7    4.10    0.40
  -1  -5  -7    3.70    0.50
   1   5   7    3.50    0.50
  -2  -5  -7   36.40    0.80
  -2  -5  -7   39.00    1.30
   2   5   7   36.30    1.20
  -3  -5  -7   11.10    0.80
   3   5   7   10.70    0.70
  -4  -5  -7   67.79    1.90
   4   5   7   69.39    1.80
  -5  -5  -7  277.37    5.00
   5   5   7  281.57    4.80
  -6  -5  -7   52.09    1.80
   6   5   7   51.09    1.70
  -7  -5  -7   10.80    1.00
   7   5   7   10.40    0.90
  -8  -5  -7  147.39    3.50
   8   5   7  144.19    3.50
  -9  -5  -7    0.10    0.50
   9   5   7    1.20    0.50
 -10  -5  -7    4.20    0.80
  10   5   7    4.30    0.80
  11   5   7   27.10    1.70
   7  -6  -7   -0.10    0.60
  -7   6   7    0.40    0.60
   6  -6  -7   16.50    1.50
  -6   6   7   12.10    1.40
   5  -6  -7   20.40    1.50
  -5   6   7   22.40    1.60
   4  -6  -7    1.90    0.60
  -4   6   7    2.10    0.70
   3  -6  -7    3.20    0.70
  -3   6   7    2.30    0.60
   2  -6  -7   10.80    0.90
  -2   6   7    7.70    0.80
   1  -6  -7   77.19    2.00
   1  -6  -7   75.89    1.70
  -1   6   7   74.19    2.10
   0  -6  -7   60.39    1.60
   0  -6  -7   63.49    1.60
   0   6   7   61.99    1.80
  -1  -6  -7   63.99    1.70
  -1  -6  -7   64.09    1.50
  -2  -6  -7  114.09    2.00
  -2  -6  -7  114.19    2.60
   2   6   7  112.49    2.50
  -3  -6  -7   53.49    1.70
   3   6   7   50.59    1.50
  -4  -6  -7   15.40    1.00
   4   6   7   13.50    0.80
  -5  -6  -7    5.10    0.70
   5   6   7    7.90    0.70
  -6  -6  -7   35.10    1.50
   6   6   7   36.70    1.40
  -7  -6  -7   16.60    1.10
   7   6   7   16.10    1.00
  -8  -6  -7    0.10    0.40
   8   6   7    0.90    0.50
  -9  -6  -7   31.60    1.70
   9   6   7   35.10    1.70
 -10  -6  -7   13.10    1.20
  10   6   7   13.90    1.30
  11   6   7   41.00    2.10
   6  -7  -7   29.30    1.90
  -6   7   7   31.90    2.00
   5  -7  -7   -0.80    0.60
  -5   7   7    0.00    0.50
   4  -7  -7    0.20    0.50
  -4   7   7    1.60    0.60
   3  -7  -7   57.89    2.10
  -3   7   7   55.29    2.10
   2  -7  -7    0.90    0.50
  -2   7   7    0.40    0.40
   1  -7  -7   35.20    1.40
  -1   7   7   32.60    1.40
   0  -7  -7    4.90    0.60
   0  -7  -7    5.60    0.60
   0   7   7    6.20    0.70
  -1  -7  -7   77.19    2.00
  -1  -7  -7   75.59    1.80
   1   7   7   76.89    2.10
  -2  -7  -7  333.07    5.60
  -2  -7  -7  321.67    4.90
   2   7   7  326.47    5.50
  -3  -7  -7   97.59    2.50
   3   7   7   93.79    2.30
  -4  -7  -7  119.99    2.90
   4   7   7  119.69    2.70
  -5  -7  -7  100.59    2.70
   5   7   7  105.79    2.50
  -6  -7  -7   30.50    1.50
   6   7   7   29.50    1.30
  -7  -7  -7   19.80    1.30
   7   7   7   19.00    1.10
  -8  -7  -7   63.69    2.30
   8   7   7   62.39    2.10
  -9  -7  -7   88.19    2.80
   9   7   7   89.09    2.70
 -10  -7  -7    1.90    0.70
  10   7   7    3.40    0.80
 -11  -7  -7   28.80    1.70
  11   7   7   29.30    1.70
   5  -8  -7    2.10    0.80
  -5   8   7    5.30    1.00
   4  -8  -7   10.20    1.20
  -4   8   7   11.20    1.30
   3  -8  -7    5.00    0.90
  -3   8   7    4.50    0.80
   2  -8  -7    0.60    0.50
  -2   8   7    0.90    0.50
   1  -8  -7    4.30    0.70
  -1   8   7    4.20    0.70
   0  -8  -7   13.50    0.90
   0  -8  -7   14.20    0.90
   0   8   7   15.00    1.00
  -1  -8  -7    1.50    0.40
  -1  -8  -7    2.10    0.40
   1   8   7    1.20    0.40
  -2  -8  -7    0.70    0.40
  -2  -8  -7    1.20    0.30
   2   8   7    1.00    0.40
  -3  -8  -7    3.60    0.60
   3   8   7    3.50    0.50
  -4  -8  -7   36.30    1.60
   4   8   7   37.70    1.40
  -5  -8  -7   21.20    1.30
   5   8   7   20.80    1.10
  -6  -8  -7   22.60    1.40
   6   8   7   23.30    1.20
  -7  -8  -7    4.20    0.80
   7   8   7    6.50    0.70
  -8  -8  -7    5.40    0.90
   8   8   7    5.90    0.80
  -9  -8  -7   10.40    1.20
   9   8   7   11.00    1.10
 -10  -8  -7   20.10    1.50
  10   8   7   21.00    1.40
 -11  -8  -7    4.00    0.90
  11   8   7    2.90    0.70
   5  -9  -7    9.80    1.30
  -5   9   7    7.20    1.30
   4  -9  -7    1.50    0.70
  -4   9   7   -0.40    0.50
   3  -9  -7    4.80    0.90
  -3   9   7    4.60    0.90
   2  -9  -7    0.50    0.50
  -2   9   7    1.40    0.60
   1  -9  -7   59.99    2.10
  -1   9   7   58.49    2.10
   0  -9  -7    0.40    0.40
   0   9   7    0.80    0.40
  -1  -9  -7    9.10    0.80
  -1  -9  -7    9.30    0.90
   1   9   7   11.20    0.90
  -2  -9  -7   21.20    1.20
   2   9   7   22.10    1.20
  -3  -9  -7    6.20    0.80
   3   9   7    5.90    0.70
  -4  -9  -7   12.00    1.00
   4   9   7   11.90    0.90
  -5  -9  -7    3.80    0.70
   5   9   7    3.80    0.60
  -6  -9  -7   21.90    1.40
   6   9   7   21.60    1.20
  -7  -9  -7   69.99    2.50
   7   9   7   66.69    2.20
  -8  -9  -7    0.10    0.50
   8   9   7    0.00    0.40
  -9  -9  -7    1.60    0.70
   9   9   7    0.70    0.50
 -10  -9  -7    8.00    1.10
  10   9   7    7.70    1.00
 -11  -9  -7    2.60    0.80
  11   9   7    2.60    0.70
   4 -10  -7    4.30    1.00
  -4  10   7    4.20    1.00
   3 -10  -7    8.90    1.20
  -3  10   7   12.20    1.40
   2 -10  -7   23.70    1.60
  -2  10   7   20.10    1.50
   1 -10  -7    3.20    0.70
  -1  10   7    3.30    0.80
   0 -10  -7    0.00    0.40
   0  10   7    0.00    0.40
  -1 -10  -7   36.60    1.60
  -1 -10  -7   36.60    1.50
   1  10   7   36.60    1.60
  -2 -10  -7   87.99    2.50
   2  10   7   88.69    2.50
  -3 -10  -7    6.30    0.90
   3  10   7    5.70    0.80
  -4 -10  -7   47.90    2.00
   4  10   7   46.90    1.70
  -5 -10  -7    1.80    0.60
   5  10   7    2.50    0.60
  -6 -10  -7    7.30    1.00
   6  10   7    4.90    0.70
  -7 -10  -7    2.80    0.70
   7  10   7    1.70    0.60
  -8 -10  -7   25.80    1.70
   8  10   7   26.00    1.40
  -9 -10  -7    2.50    0.80
   9  10   7    0.80    0.50
 -10 -10  -7   12.70    1.40
  10  10   7   13.70    1.20
 -11 -10  -7    3.20    0.80
  11  10   7    2.20    0.70
   3 -11  -7   28.60    1.90
  -3  11   7   28.40    1.90
   2 -11  -7    1.10    0.70
  -2  11   7   -0.20    0.50
   1 -11  -7   14.00    1.30
  -1  11   7   16.00    1.40
   0 -11  -7    4.90    1.00
   0  11   7    5.60    0.90
   1  11   7   33.10    1.60
  -2 -11  -7   13.10    1.20
   2  11   7   11.20    1.00
  -3 -11  -7   13.60    1.30
   3  11   7   14.80    1.10
  -4 -11  -7    8.80    1.10
   4  11   7    8.10    0.90
  -5 -11  -7    0.50    0.60
   5  11   7    0.60    0.40
  -6 -11  -7   20.40    1.50
   6  11   7   20.10    1.20
  -7 -11  -7   54.79    2.40
   7  11   7   59.19    2.10
  -8 -11  -7    3.70    0.90
   8  11   7    3.90    0.70
  -9 -11  -7    0.40    0.70
   9  11   7   -0.10    0.40
 -10 -11  -7    3.30    0.90
  10  11   7    4.70    0.90
 -11 -11  -7    0.70    0.70
  11  11   7    1.30    0.60
   2 -12  -7   19.30    2.50
  -2  12   7   17.70    1.80
  -1  12   7    5.90    1.00
   0  12   7    0.90    0.60
   1  12   7   10.60    1.20
   2  12   7   12.00    1.10
  -3 -12  -7   -0.60    0.50
   3  12   7   -0.20    0.40
  -4 -12  -7   21.50    1.60
   4  12   7   20.90    1.30
  -5 -12  -7    1.10    0.70
   5  12   7    0.60    0.50
  -6 -12  -7   10.90    1.30
   6  12   7   11.50    1.10
  -7 -12  -7   25.20    1.80
   7  12   7   25.20    1.40
  -8 -12  -7    3.50    0.90
   8  12   7    2.60    0.70
  -9 -12  -7    2.30    0.90
   9  12   7    2.70    0.70
 -10 -12  -7   11.40    1.40
  10  12   7   12.00    1.20
   0  13   7    0.50    0.50
   1  13   7    1.80    0.70
   2  13   7    0.50    0.50
  -3 -13  -7    0.90    0.70
   3  13   7    0.30    0.50
  -4 -13  -7    5.40    1.00
   4  13   7    7.10    0.90
  -5 -13  -7    0.10    0.60
   5  13   7    0.10    0.40
  -6 -13  -7    7.50    1.20
   6  13   7    7.10    0.90
  -7 -13  -7   12.50    1.50
   7  13   7   12.70    1.20
  -8 -13  -7    9.40    1.30
   8  13   7    8.10    1.00
  -9 -13  -7    0.80    0.80
  -4 -14  -7    1.90    0.80
  -5 -14  -7   17.30    1.60
  -6 -14  -7    7.60    1.20
  -7 -14  -7    8.90    1.40
   4  11  -8    0.20    0.60
  -4 -11   8    1.30    1.10
   3  11  -8    0.10    0.70
  -3 -11   8    0.00    0.80
   2  11  -8    9.00    2.10
  -2 -11   8   10.60    1.60
   7  10  -8    4.30    1.10
  -7 -10   8    4.70    1.30
   6  10  -8    5.20    1.00
  -6 -10   8    5.10    1.10
   5  10  -8    0.00    0.60
  -5 -10   8   -0.20    0.70
   4  10  -8    4.10    0.90
  -4 -10   8    3.70    1.00
   3  10  -8    1.70    0.70
  -3 -10   8    0.50    0.80
   2  10  -8   29.10    1.90
  -2 -10   8   29.10    2.10
   1  10  -8   -0.30    0.60
  -1 -10   8    0.10    0.70
   0  10  -8    4.80    1.00
   0 -10   8    5.60    1.10
  -1  10  -8   -0.40    0.60
   1 -10   8   -0.70    0.70
   8   9  -8   14.60    1.50
  -8  -9   8   11.40    1.50
   7   9  -8    3.00    0.80
  -7  -9   8    1.50    0.80
   6   9  -8    4.20    0.90
  -6  -9   8    3.60    1.00
   5   9  -8   55.09    2.30
  -5  -9   8   54.59    2.70
   4   9  -8    1.00    0.60
  -4  -9   8    0.80    0.70
   3   9  -8    0.90    0.60
  -3  -9   8    0.90    0.70
   2   9  -8    2.30    0.70
  -2  -9   8    1.90    0.80
   1   9  -8    6.60    1.10
  -1  -9   8    6.80    1.20
   0   9  -8   73.79    2.80
   0  -9   8   68.59    2.90
  -1   9  -8   -0.10    0.60
   1  -9   8    1.00    0.80
  -2   9  -8    1.10    0.70
   2  -9   8    0.90    0.70
  -3   9  -8    5.90    1.50
   8   8  -8    3.30    0.80
  -8  -8   8    1.70    0.80
   7   8  -8    1.50    0.70
  -7  -8   8    2.80    0.80
   6   8  -8    2.90    0.80
  -6  -8   8    2.50    0.80
   5   8  -8   19.80    1.40
  -5  -8   8   18.60    1.60
   4   8  -8   -0.20    0.40
  -4  -8   8    0.60    0.70
   3   8  -8    0.50    0.50
  -3  -8   8    0.80    0.70
   2   8  -8    0.30    0.50
  -2  -8   8    1.00    0.60
   1   8  -8   35.60    1.80
  -1  -8   8   34.70    2.00
   0   8  -8   11.00    1.20
   0  -8   8   12.10    1.30
  -1   8  -8    4.30    0.90
   1  -8   8    5.00    1.00
  -2   8  -8    5.40    1.00
   2  -8   8    6.60    1.10
  -3   8  -8   24.90    1.70
   3  -8   8   25.20    1.80
  -4   8  -8    5.80    1.00
   9   7  -8    0.00    0.50
   8   7  -8    0.10    0.50
  -8  -7   8   -0.10    0.50
   7   7  -8    1.70    0.70
  -7  -7   8    1.80    0.70
   6   7  -8   22.50    1.50
  -6  -7   8   21.90    1.60
   5   7  -8   35.20    1.80
  -5  -7   8   36.10    2.00
   4   7  -8   31.50    1.70
  -4  -7   8   34.80    1.90
   3   7  -8    1.90    0.60
  -3  -7   8    2.70    0.80
   2   7  -8   15.00    1.20
  -2  -7   8   14.50    1.30
   1   7  -8   31.00    1.70
  -1  -7   8   30.90    1.80
   0   7  -8   35.70    1.80
   0  -7   8   36.40    1.90
  -1   7  -8    5.40    0.90
   1  -7   8    5.60    0.90
  -2   7  -8   20.40    1.50
   2  -7   8   19.20    1.50
  -3   7  -8    2.20    0.80
   3  -7   8    2.50    0.70
  -4   7  -8    7.50    1.10
  -5   7  -8    0.30    0.50
   9   6  -8    0.50    0.60
   8   6  -8    3.30    0.80
   7   6  -8   47.70    2.10
  -7  -6   8   47.00    2.10
   6   6  -8    0.50    0.50
  -6  -6   8    0.30    0.50
   5   6  -8   11.00    1.10
  -5  -6   8   13.70    1.30
   4   6  -8   12.70    1.10
  -4  -6   8   13.90    1.20
   3   6  -8    3.50    0.60
  -3  -6   8    3.10    0.70
   2   6  -8    0.10    0.40
  -2  -6   8   -0.20    0.40
   1   6  -8    1.70    0.50
  -1  -6   8    1.40    0.50
   0   6  -8    4.60    0.70
   0  -6   8    3.30    0.70
  -1   6  -8    0.60    0.50
   1  -6   8    0.40    0.50
  -2   6  -8   24.70    1.50
   2  -6   8   26.10    1.50
  -3   6  -8   21.50    1.50
   3  -6   8   19.60    1.40
  -4   6  -8    1.30    0.60
   4  -6   8    1.20    0.60
  -5   6  -8    6.00    1.00
   6  -6   8    1.20    0.70
   9   5  -8   21.40    1.60
   8   5  -8    5.90    0.90
   7   5  -8    8.70    1.10
  -7  -5   8   11.10    1.20
   6   5  -8   57.49    2.20
  -6  -5   8   57.19    2.20
   5   5  -8    1.00    0.50
  -5  -5   8    1.60    0.60
   4   5  -8   54.39    2.00
  -4  -5   8   52.89    2.00
   3   5  -8    3.40    0.60
  -3  -5   8    3.80    0.70
   2   5  -8    4.20    0.70
  -2  -5   8    4.90    0.80
   1   5  -8   93.39    2.60
  -1  -5   8   95.89    2.70
   0   5  -8    5.00    0.80
   0  -5   8    6.00    0.80
  -1   5  -8  190.58    4.10
   1  -5   8  195.68    4.20
  -2   5  -8   58.69    2.10
   2  -5   8   58.29    2.10
  -3   5  -8  135.29    3.50
   3  -5   8  137.89    3.40
  -4   5  -8   10.60    1.10
   4  -5   8   15.00    1.20
  -5   5  -8   32.70    1.80
   6  -5   8    8.60    1.20
   7  -5   8    1.70    0.70
   9   4  -8    8.50    1.20
   8   4  -8    0.30    0.50
   7   4  -8   55.79    2.20
   6   4  -8    1.80    0.60
  -6  -4   8    2.10    0.60
   5   4  -8    0.20    0.40
  -5  -4   8    0.90    0.40
   4   4  -8    0.50    0.40
  -4  -4   8    0.20    0.40
   3   4  -8   11.30    0.90
  -3  -4   8    9.90    0.90
   2   4  -8    0.40    0.40
  -2  -4   8    0.50    0.40
   1   4  -8    1.20    0.50
  -1  -4   8    1.60    0.50
   0   4  -8  122.19    2.90
   0  -4   8  120.89    3.00
  -1   4  -8    1.20    0.50
   1  -4   8    1.30    0.50
  -2   4  -8  462.65    7.70
   2  -4   8  460.15    7.70
  -3   4  -8    6.10    0.80
   3  -4   8    7.10    0.80
  -4   4  -8    0.50    0.50
   4  -4   8    4.00    0.70
  -5   4  -8   39.30    1.80
   5  -4   8   39.30    1.70
  -6   4  -8   20.20    1.40
   7  -4   8   -0.10    0.50
   8  -4   8   23.90    1.60
   9   3  -8    1.70    0.70
   8   3  -8   23.40    1.60
   7   3  -8   49.30    2.10
   6   3  -8   21.90    1.40
  -6  -3   8   22.80    1.20
   5   3  -8   34.70    1.60
  -5  -3   8   32.00    1.40
   4   3  -8  236.68    4.60
  -4  -3   8  233.18    4.50
   3   3  -8    0.60    0.40
  -3  -3   8    0.50    0.30
   2   3  -8    5.70    0.70
  -2  -3   8    5.20    0.70
   1   3  -8   70.79    2.00
  -1  -3   8   79.49    2.20
   0   3  -8  159.98    3.30
   0  -3   8  165.38    3.50
  -1   3  -8  352.66    5.90
   1  -3   8  350.56    6.10
  -2   3  -8    5.90    0.70
   2  -3   8    7.50    0.80
  -3   3  -8   18.10    1.10
   3  -3   8   19.00    0.80
   3  -3   8   18.30    1.10
  -4   3  -8   16.40    1.10
   4  -3   8   18.20    1.10
   4  -3   8   16.40    0.90
  -5   3  -8    0.30    0.40
  -5   3  -8    0.10    0.40
   5  -3   8    0.40    0.50
  -6   3  -8    4.00    0.70
  -6   3  -8    1.60    0.60
   6  -3   8    3.60    0.70
  -7   3  -8   -0.20    0.40
   7  -3   8    0.40    0.50
  -8   3  -8    5.50    1.10
   8  -3   8    5.50    0.90
   9   2  -8    0.10    0.60
   8   2  -8   18.20    1.40
  -8  -2   8   15.90    1.30
   7   2  -8    1.70    0.60
  -7  -2   8    2.30    0.60
   6   2  -8    3.00    0.70
  -6  -2   8    2.00    0.50
   5   2  -8    7.50    0.90
  -5  -2   8    8.30    0.70
  -5  -2   8    8.70    0.80
   4   2  -8   36.50    1.50
  -4  -2   8   32.80    1.10
  -4  -2   8   33.50    1.30
   3   2  -8   31.40    1.30
  -3  -2   8   30.60    1.30
  -3  -2   8   33.60    1.00
   2   2  -8    7.20    0.70
  -2  -2   8    8.30    0.70
  -2  -2   8    9.00    0.50
   1   2  -8  111.29    2.50
  -1  -2   8  110.89    1.80
  -1  -2   8  109.79    2.60
   0   2  -8    5.10    0.60
   0  -2   8    3.80    0.50
   0  -2   8    6.30    0.30
  -1   2  -8   45.70    1.40
   1  -2   8   46.90    1.00
  -2   2  -8   59.59    1.70
  -2   2  -8   59.09    1.80
   2  -2   8   56.39    1.30
  -3   2  -8    3.90    0.60
  -3   2  -8    2.90    0.50
   3  -2   8    2.70    0.40
  -4   2  -8  149.19    3.30
  -4   2  -8  155.58    3.30
   4  -2   8  150.08    3.00
  -5   2  -8   20.60    1.10
  -5   2  -8   19.50    1.10
  -5   2  -8   20.60    1.10
  -6   2  -8    7.00    0.90
  -6   2  -8    7.90    0.90
   6  -2   8    8.90    0.90
  -7   2  -8   23.60    1.40
   7  -2   8   22.90    1.40
  -8   2  -8   -0.90    0.40
   8  -2   8    0.50    0.60
  -9   2  -8    0.70    0.60
 -10  -1   8    8.90    1.40
   9   1  -8    4.40    0.90
  -9  -1   8    2.70    0.80
   8   1  -8   -0.10    0.50
  -8  -1   8    0.10    0.50
   7   1  -8   58.09    2.30
  -7  -1   8   62.09    2.20
   6   1  -8   17.90    1.30
  -6  -1   8   20.20    1.20
   5   1  -8    6.80    0.80
  -5  -1   8    8.50    0.80
  -5  -1   8    8.90    0.70
   4   1  -8    0.90    0.40
  -4  -1   8    0.70    0.30
  -4  -1   8    0.40    0.30
   3   1  -8  145.89    3.20
  -3  -1   8  152.38    2.80
  -3  -1   8  141.79    3.00
   2   1  -8  229.28    4.20
  -2  -1   8  231.98    4.10
  -2  -1   8  226.88    3.60
   1   1  -8    0.00    0.20
  -1  -1   8    0.30    0.10
  -1  -1   8   -0.30    0.20
   0   1  -8  283.87    4.70
   0   1  -8  282.17    4.90
   0  -1   8  287.47    4.20
  -1   1  -8  173.08    3.40
  -1   1  -8  175.38    3.20
   1  -1   8  174.18    2.80
  -2   1  -8    0.90    0.30
  -2   1  -8    1.20    0.30
   2  -1   8    1.00    0.20
  -3   1  -8  228.88    4.30
  -3   1  -8  230.38    4.00
   3  -1   8  226.68    3.80
  -4   1  -8   14.70    0.80
  -4   1  -8   14.60    0.90
   4  -1   8   15.30    0.80
  -5   1  -8   85.59    2.30
  -5   1  -8   87.19    2.20
   5  -1   8   88.89    2.20
  -6   1  -8  146.29    3.30
  -6   1  -8  137.99    3.20
   6  -1   8  143.59    3.20
  -7   1  -8    2.90    0.70
  -7   1  -8    2.30    0.50
   7  -1   8    3.60    0.60
  -8   1  -8    6.80    1.00
  -9   1  -8    6.90    1.00
 -10   1  -8    8.80    1.20
   9   0  -8    6.30    1.10
  -9   0   8   11.30    1.40
   8   0  -8   24.90    1.60
  -8   0   8   24.80    1.60
   7   0  -8    8.80    1.10
  -7   0   8    9.50    1.10
   6   0  -8   21.80    1.40
  -6   0   8   26.50    1.40
   5   0  -8    0.30    0.40
  -5   0   8    0.90    0.40
   4   0  -8   35.40    1.50
  -4   0   8   37.00    1.20
  -4   0   8   38.30    1.40
   3   0  -8   74.99    2.10
  -3   0   8   71.39    1.80
  -3   0   8   70.29    1.80
   2   0  -8   24.60    1.00
  -2   0   8   21.50    0.90
  -2   0   8   23.40    0.90
   1   0  -8    1.40    0.30
   1   0  -8    1.20    0.30
  -1   0   8    1.00    0.20
   0   0  -8   53.19    1.50
   0   0  -8   51.59    1.40
   0   0   8   49.99    1.20
  -1   0  -8  274.57    4.70
  -1   0  -8  279.27    4.50
   1   0   8  287.07    4.30
  -2   0  -8   60.19    1.50
  -2   0  -8   60.99    1.70
   2   0   8   57.39    1.30
  -3   0  -8   86.49    2.20
  -3   0  -8   88.69    1.90
   3   0   8   89.49    1.90
  -4   0  -8  211.98    3.70
  -4   0  -8  212.88    4.10
   4   0   8  209.18    3.70
  -5   0  -8   84.19    2.00
  -5   0  -8   84.99    2.30
   5   0   8   85.59    2.20
  -6   0  -8    0.50    0.40
   6   0   8    0.20    0.30
   6   0   8   -0.10    0.30
  -7   0  -8   67.19    2.10
  -7   0  -8   68.19    2.20
   7   0   8   66.89    2.00
  -8   0  -8   -0.60    0.50
  -9   0  -8   14.90    1.30
 -10   0  -8    1.30    0.70
   9  -1  -8    7.10    1.10
  -9   1   8    9.10    1.30
   8  -1  -8   12.90    1.40
  -8   1   8   11.30    1.30
   7  -1  -8    4.40    0.90
  -7   1   8    5.10    0.90
   6  -1  -8   70.19    2.40
  -6   1   8   67.99    2.30
   5  -1  -8   89.79    2.60
  -5   1   8   88.79    2.50
   4  -1  -8  102.69    2.70
  -4   1   8  107.49    2.60
   3  -1  -8  196.28    3.80
  -3   1   8  194.98    3.60
  -3   1   8  176.08    3.20
   2  -1  -8  352.36    5.60
  -2   1   8  339.77    5.40
  -2   1   8  336.47    5.40
   1  -1  -8   31.20    1.10
   1  -1  -8   29.70    1.10
  -1   1   8   30.10    1.00
   0  -1  -8  384.06    5.90
   0  -1  -8  387.16    6.10
   0   1   8  395.16    5.80
  -1  -1  -8  142.69    2.50
  -1  -1  -8  147.49    2.90
   1   1   8  143.09    2.60
  -2  -1  -8    0.30    0.20
  -2  -1  -8    0.20    0.30
   2   1   8    0.50    0.20
  -3  -1  -8  247.48    4.50
  -3  -1  -8  252.87    3.90
   3   1   8  252.97    4.10
  -4  -1  -8   33.10    1.00
  -4  -1  -8   37.00    1.40
   4   1   8   34.10    1.20
  -5  -1  -8    1.90    0.40
  -5  -1  -8    1.70    0.30
   5   1   8    1.30    0.40
  -6  -1  -8   81.19    2.20
   6   1   8   79.79    1.90
   6   1   8   79.79    2.20
  -7  -1  -8   38.90    1.60
   7   1   8   39.60    1.70
  -8  -1  -8    3.30    0.60
   8   1   8    2.50    0.70
   9   1   8   20.70    1.40
  10   1   8    4.90    0.90
  -9   2   8   29.50    2.30
   8  -2  -8    4.30    0.90
  -8   2   8    3.80    0.90
   7  -2  -8   34.40    1.90
  -7   2   8   28.50    1.80
   6  -2  -8   28.30    1.60
  -6   2   8   29.70    1.70
   5  -2  -8    8.10    0.90
  -5   2   8    8.20    0.90
   4  -2  -8    0.20    0.40
  -4   2   8    0.50    0.40
   3  -2  -8   -0.10    0.30
  -3   2   8    0.00    0.20
  -3   2   8   -0.10    0.30
   2  -2  -8   44.90    1.20
   2  -2  -8   43.50    1.40
  -2   2   8   45.30    1.40
   1  -2  -8   57.49    1.50
   1  -2  -8   52.79    1.50
  -1   2   8   52.39    1.40
   0  -2  -8   49.60    1.40
   0  -2  -8   49.99    1.30
   0   2   8   49.60    1.30
  -1  -2  -8  257.77    4.40
  -1  -2  -8  258.37    4.00
   1   2   8  259.87    4.20
  -2  -2  -8   12.60    0.50
  -2  -2  -8   12.00    0.70
   2   2   8   12.30    0.60
  -3  -2  -8  123.29    2.10
  -3  -2  -8  121.89    2.70
   3   2   8  128.99    2.50
  -4  -2  -8   76.49    1.50
  -4  -2  -8   77.89    2.10
   4   2   8   76.49    1.90
  -5  -2  -8    3.20    0.60
   5   2   8    3.40    0.40
   5   2   8    2.70    0.50
  -6  -2  -8   94.09    2.50
   6   2   8   96.19    2.40
  -7  -2  -8    1.90    0.50
   7   2   8    2.20    0.50
  -8  -2  -8    2.20    0.50
   8   2   8    2.50    0.60
   9   2   8   16.10    1.30
  10   2   8    1.80    0.70
  11   2   8    1.10    0.60
   8  -3  -8   16.80    1.50
  -8   3   8   19.60    1.70
   7  -3  -8    8.70    1.20
  -7   3   8    8.80    1.20
   6  -3  -8   44.50    2.00
  -6   3   8   38.60    1.90
   5  -3  -8  126.99    3.30
  -5   3   8  128.79    3.40
   4  -3  -8   17.00    1.10
  -4   3   8   15.70    1.10
   3  -3  -8   -0.20    0.30
  -3   3   8    0.60    0.30
   2  -3  -8   85.09    2.10
   2  -3  -8   84.79    1.80
  -2   3   8   85.49    2.10
   1  -3  -8  483.65    7.30
   1  -3  -8  488.75    7.20
  -1   3   8  489.85    7.40
   0  -3  -8  288.87    4.60
   0  -3  -8  296.27    4.80
   0   3   8  294.37    4.80
  -1  -3  -8  123.19    2.60
  -1  -3  -8  122.59    2.20
   1   3   8  124.89    2.50
  -2  -3  -8   39.00    0.90
  -2  -3  -8   38.80    1.30
   2   3   8   40.30    1.20
  -3  -3  -8  181.78    2.60
  -3  -3  -8  184.88    3.60
   3   3   8  180.98    3.30
  -4  -3  -8   43.90    1.50
   4   3   8   42.90    1.40
  -5  -3  -8   40.60    1.50
   5   3   8   40.80    1.40
  -6  -3  -8   83.69    2.30
   6   3   8   85.59    2.30
  -7  -3  -8    7.50    0.80
   7   3   8    9.20    0.90
  -8  -3  -8    7.80    0.90
   8   3   8    7.90    1.00
  -9  -3  -8    1.40    0.50
   9   3   8    0.80    0.50
  10   3   8   11.70    1.30
  11   3   8    0.00    0.60
   8  -4  -8   -1.10    0.60
  -8   4   8    0.60    0.70
   7  -4  -8   10.70    1.30
  -7   4   8    9.70    1.30
   6  -4  -8    1.60    0.70
  -6   4   8    1.60    0.70
   5  -4  -8   30.90    1.70
  -5   4   8   27.00    1.60
   4  -4  -8   19.40    1.30
  -4   4   8   22.40    1.30
   3  -4  -8   -0.20    0.30
  -3   4   8   -0.10    0.30
   2  -4  -8   26.50    1.20
   2  -4  -8   25.80    0.80
  -2   4   8   24.50    1.20
   1  -4  -8   26.50    1.10
   1  -4  -8   29.10    1.00
  -1   4   8   28.70    1.20
   0  -4  -8  407.56    6.30
   0  -4  -8  411.96    6.10
   0   4   8  411.96    6.40
  -1  -4  -8   28.10    1.10
  -1  -4  -8   27.40    0.80
   1   4   8   29.20    1.10
  -2  -4  -8    0.20    0.30
  -2  -4  -8    0.30    0.10
   2   4   8   -0.10    0.20
  -3  -4  -8  206.48    3.90
   3   4   8  207.98    3.70
  -4  -4  -8   26.10    1.20
   4   4   8   23.50    1.00
   5   4   8    1.80    0.40
  -6  -4  -8  151.48    3.40
   6   4   8  158.48    3.30
  -7  -4  -8    0.50    0.40
   7   4   8    0.90    0.40
  -8  -4  -8    1.00    0.50
   8   4   8    0.20    0.40
  -9  -4  -8    1.00    0.50
   9   4   8    1.00    0.50
  10   4   8    7.80    1.00
  11   4   8   13.60    1.40
   7  -5  -8    1.50    0.80
  -7   5   8    0.70    0.70
   6  -5  -8   51.89    2.30
  -6   5   8   49.50    2.30
   5  -5  -8    0.40    0.50
  -5   5   8   -0.30    0.40
   4  -5  -8    4.10    0.80
  -4   5   8    4.60    0.80
   3  -5  -8   18.40    1.10
  -3   5   8   17.00    1.10
   2  -5  -8    4.50    0.60
  -2   5   8    3.50    0.60
   1  -5  -8  317.77    5.20
   1  -5  -8  316.17    4.90
  -1   5   8  308.87    5.40
   0  -5  -8   25.60    1.00
   0  -5  -8   27.30    1.00
   0   5   8   26.80    1.10
  -1  -5  -8    7.50    0.50
  -1  -5  -8    7.00    0.60
  -2  -5  -8  157.68    2.40
  -2  -5  -8  158.48    3.20
   2   5   8  158.68    3.10
  -3  -5  -8   11.90    0.90
   3   5   8   13.20    0.80
  -4  -5  -8   20.40    1.10
   4   5   8   19.40    1.00
  -5  -5  -8    0.20    0.30
   5   5   8    0.30    0.30
  -6  -5  -8   38.20    1.60
   6   5   8   36.70    1.40
  -7  -5  -8   85.19    2.50
   7   5   8   88.19    2.40
  -8  -5  -8   13.70    1.20
   8   5   8   11.80    1.10
  -9  -5  -8    6.60    0.90
   9   5   8    5.00    0.80
 -10  -5  -8   20.70    1.40
  10   5   8   19.90    1.40
  11   5   8    2.40    0.70
   7  -6  -8   23.90    2.90
   6  -6  -8    2.90    0.80
  -6   6   8    0.90    0.60
   5  -6  -8    0.10    0.50
  -5   6   8    0.30    0.50
   4  -6  -8   41.60    1.90
  -4   6   8   41.60    1.90
   3  -6  -8   41.30    1.70
  -3   6   8   40.70    1.80
   2  -6  -8    1.30    0.40
  -2   6   8    1.60    0.50
   1  -6  -8    4.50    0.50
   1  -6  -8    6.60    0.70
  -1   6   8    4.90    0.60
   0  -6  -8   26.60    1.00
   0  -6  -8   25.50    1.00
   0   6   8   25.30    1.20
  -1  -6  -8    8.60    0.70
  -1  -6  -8    8.90    0.60
   1   6   8    8.90    0.70
  -2  -6  -8  157.88    3.30
  -2  -6  -8  161.18    2.60
   2   6   8  169.78    3.30
  -3  -6  -8  103.09    2.50
   3   6   8  104.79    2.40
  -4  -6  -8   73.69    2.10
   4   6   8   71.29    2.00
  -5  -6  -8   19.10    1.20
   5   6   8   19.30    1.00
  -6  -6  -8   29.70    1.40
   6   6   8   28.20    1.30
  -7  -6  -8    9.00    1.00
   7   6   8    8.50    0.90
  -8  -6  -8   24.10    1.40
   8   6   8   26.80    1.40
  -9  -6  -8    4.70    0.80
   9   6   8    5.10    0.80
 -10  -6  -8    2.30    0.70
  10   6   8    1.60    0.60
  11   6   8    1.00    0.60
   6  -7  -8    3.20    0.90
  -6   7   8    5.60    1.10
   5  -7  -8    0.50    0.60
  -5   7   8   -0.30    0.50
   4  -7  -8   32.70    1.80
  -4   7   8   31.10    1.70
   3  -7  -8    1.30    0.50
  -3   7   8    1.50    0.60
   2  -7  -8    1.00    0.50
  -2   7   8    0.60    0.40
   1  -7  -8  153.78    3.30
  -1   7   8  153.68    3.50
   0  -7  -8   15.70    0.90
   0  -7  -8   15.10    0.90
   0   7   8   13.70    1.00
  -1  -7  -8   21.80    1.00
  -1  -7  -8   22.40    0.90
   1   7   8   21.70    1.10
  -2  -7  -8    1.10    0.40
  -2  -7  -8    1.10    0.30
   2   7   8    0.20    0.30
  -3  -7  -8   54.49    1.80
   3   7   8   53.39    1.70
  -4  -7  -8  278.07    5.10
   4   7   8  261.47    4.80
  -5  -7  -8   51.79    1.90
   5   7   8   47.40    1.60
  -6  -7  -8   69.49    2.30
   6   7   8   72.79    2.10
  -7  -7  -8   41.40    1.80
   7   7   8   41.80    1.60
  -8  -7  -8   10.50    1.10
   8   7   8    7.90    0.90
  -9  -7  -8   20.70    1.50
   9   7   8   18.10    1.30
 -10  -7  -8    3.00    0.80
  10   7   8    2.70    0.70
 -11  -7  -8   31.60    1.80
  11   7   8   30.90    1.80
   5  -8  -8   12.00    1.40
  -5   8   8    9.80    1.30
   4  -8  -8    0.10    0.60
  -4   8   8   -0.20    0.50
   3  -8  -8    5.20    0.90
  -3   8   8    6.20    0.90
   2  -8  -8    4.60    0.80
  -2   8   8    5.50    0.90
   1  -8  -8    2.60    0.60
  -1   8   8    3.60    0.70
   0  -8  -8    4.60    0.60
   0  -8  -8    4.50    0.60
   0   8   8    4.70    0.70
  -1  -8  -8    3.00    0.50
  -1  -8  -8    4.40    0.50
   1   8   8    2.10    0.50
  -2  -8  -8   56.09    1.80
   2   8   8   55.99    1.80
  -3  -8  -8    2.60    0.60
   3   8   8    3.10    0.50
  -4  -8  -8    4.90    0.70
   4   8   8    4.20    0.60
  -5  -8  -8    0.00    0.40
   5   8   8   -0.30    0.30
  -6  -8  -8   11.00    1.10
   6   8   8   13.10    1.00
  -7  -8  -8   50.99    2.10
   7   8   8   52.99    1.90
  -8  -8  -8   16.60    1.40
   8   8   8   18.70    1.20
  -9  -8  -8    2.00    0.70
   9   8   8    2.50    0.60
 -10  -8  -8    1.60    0.70
  10   8   8    0.90    0.60
 -11  -8  -8    1.20    0.70
  11   8   8    0.10    0.50
   4  -9  -8   13.40    1.40
  -4   9   8   11.10    1.40
   3  -9  -8    7.40    1.10
  -3   9   8    7.30    1.00
   2  -9  -8    6.30    0.90
  -2   9   8    6.30    0.90
   1  -9  -8   16.80    1.20
  -1   9   8   15.80    1.20
   0  -9  -8    7.70    0.80
   0   9   8    7.20    0.90
  -1  -9  -8   54.49    1.80
  -1  -9  -8   53.79    2.20
   1   9   8   54.59    1.90
  -2  -9  -8    1.10    0.50
   2   9   8    1.30    0.50
  -3  -9  -8    2.60    0.60
   3   9   8    1.90    0.50
  -4  -9  -8   17.50    1.20
   4   9   8   17.40    1.10
  -5  -9  -8   -0.20    0.40
   5   9   8    0.70    0.40
  -6  -9  -8    7.50    1.00
   6   9   8    5.40    0.70
  -7  -9  -8   -0.20    0.50
   7   9   8    0.50    0.40
  -8  -9  -8    6.60    1.00
   8   9   8    6.80    0.90
  -9  -9  -8   34.90    1.90
   9   9   8   35.70    1.70
 -10  -9  -8    6.50    1.00
  10   9   8    8.60    1.10
 -11  -9  -8   -0.30    0.60
  11   9   8    0.10    0.50
   4 -10  -8    0.80    0.70
   3 -10  -8    8.60    1.10
  -3  10   8   10.30    1.30
   2 -10  -8   10.90    1.20
  -2  10   8   11.50    1.30
   1 -10  -8   18.80    1.30
  -1  10   8   18.70    1.40
   0 -10  -8   16.60    1.30
   0  10   8   16.30    1.30
  -1 -10  -8   20.40    1.80
   1  10   8   22.30    1.30
  -2 -10  -8    0.80    0.50
   2  10   8    1.00    0.50
  -3 -10  -8   27.40    1.60
   3  10   8   27.60    1.40
  -4 -10  -8  105.69    3.00
   4  10   8  105.69    2.80
  -5 -10  -8    4.60    0.90
   5  10   8    2.40    0.60
  -6 -10  -8   19.30    1.40
   6  10   8   16.30    1.10
  -7 -10  -8   14.30    1.30
   7  10   8   14.00    1.10
  -8 -10  -8    3.20    0.90
   8  10   8    4.30    0.80
  -9 -10  -8    0.80    0.70
   9  10   8    1.90    0.60
 -10 -10  -8   11.00    1.30
  10  10   8   11.80    1.20
 -11 -10  -8    0.20    0.60
  11  10   8   -0.30    0.50
   3 -11  -8   28.90    1.90
   2 -11  -8   14.00    1.40
  -2  11   8   10.50    1.30
  -1  11   8   18.20    1.50
   0  11   8    2.50    0.70
   1  11   8    8.20    1.00
  -2 -11  -8   14.30    1.20
   2  11   8   12.40    1.10
  -3 -11  -8   37.70    1.90
   3  11   8   41.80    1.80
  -4 -11  -8    6.90    1.00
   4  11   8    7.80    1.00
  -5 -11  -8   15.40    1.30
   5  11   8   16.00    1.20
  -6 -11  -8    9.00    1.20
   6  11   8    8.00    0.90
  -7 -11  -8    0.50    0.70
   7  11   8    0.30    0.40
  -8 -11  -8   12.60    1.40
   8  11   8   11.40    1.10
  -9 -11  -8   24.00    1.80
   9  11   8   27.10    1.60
 -10 -11  -8   12.60    1.50
  10  11   8   13.60    1.30
  11  11   8    0.10    0.70
  -1  12   8    2.60    0.80
   0  12   8   15.10    1.30
   1  12   8   19.00    1.40
   2  12   8    2.80    0.70
  -3 -12  -8    6.30    1.00
   3  12   8    6.00    0.90
  -4 -12  -8   12.70    1.30
   4  12   8   13.60    1.10
  -5 -12  -8    1.50    0.70
   5  12   8    1.60    0.60
  -6 -12  -8    9.20    1.20
   6  12   8    7.40    0.90
  -7 -12  -8    0.70    0.70
   7  12   8    0.50    0.50
  -8 -12  -8   10.00    1.40
   8  12   8    8.30    1.00
  -9 -12  -8   17.30    1.80
   9  12   8   17.40    1.30
 -10 -12  -8    3.00    1.00
  10  12   8    2.30    0.70
   0  13   8    6.40    1.10
   1  13   8   -0.20    0.50
   2  13   8    1.10    0.60
   3  13   8    3.30    0.70
  -4 -13  -8    1.10    0.70
   4  13   8    2.60    0.70
  -5 -13  -8   -0.40    0.60
   5  13   8    1.10    0.60
  -6 -13  -8    6.30    1.10
   6  13   8    6.40    0.90
  -7 -13  -8    1.70    0.80
   7  13   8    2.20    0.60
  -8 -13  -8    4.90    1.10
   8  13   8    2.90    0.70
  -9 -13  -8   11.70    2.20
   9  13   8   11.10    1.20
   2  14   8    7.10    1.30
   3  14   8   12.50    1.30
  -4 -14  -8   -0.20    0.60
   4  14   8   -0.60    0.40
  -5 -14  -8    0.40    0.70
   5  14   8    0.60    0.70
  -6 -14  -8    9.00    1.30
  -7 -14  -8    8.70    1.50
   5  10  -9   12.20    1.40
  -5 -10   9    9.60    1.50
   4  10  -9    0.00    0.50
  -4 -10   9    1.50    0.90
   3  10  -9    0.40    0.60
  -3 -10   9    0.10    0.80
   2  10  -9   -0.40    0.60
  -2 -10   9    1.40    0.90
   1  10  -9    0.20    0.60
  -1 -10   9    0.60    0.70
   0 -10   9   13.30    1.60
   7   9  -9    8.00    1.30
  -7  -9   9    6.40    1.30
   6   9  -9   24.60    1.70
  -6  -9   9   22.40    1.90
   5   9  -9    0.80    0.60
  -5  -9   9    2.20    0.90
   4   9  -9    3.70    0.80
  -4  -9   9    3.90    1.00
   3   9  -9   21.70    1.60
  -3  -9   9   22.10    1.80
   2   9  -9    1.50    0.70
  -2  -9   9    0.30    0.80
   1   9  -9    2.40    0.80
  -1  -9   9    3.50    1.00
   0   9  -9    6.40    1.10
   0  -9   9    6.30    1.20
  -1   9  -9    5.70    1.10
   1  -9   9    4.60    1.10
  -2   9  -9   34.40    2.10
   2  -9   9   31.40    2.10
   8   8  -9   21.40    2.40
  -8  -8   9   22.70    1.80
   7   8  -9    5.50    1.00
  -7  -8   9    6.20    1.20
   6   8  -9    0.70    0.60
  -6  -8   9    0.00    0.70
   5   8  -9    0.60    0.50
  -5  -8   9    0.80    0.70
   4   8  -9    0.30    0.50
  -4  -8   9    0.90    0.70
   3   8  -9   22.30    1.50
  -3  -8   9   25.30    1.80
   2   8  -9    2.80    0.70
  -2  -8   9    3.60    0.90
   1   8  -9   12.20    1.30
  -1  -8   9   12.60    1.50
   0   8  -9    0.70    0.60
   0  -8   9    1.10    0.70
  -1   8  -9   25.80    1.80
   1  -8   9   29.40    1.90
  -2   8  -9   12.30    1.40
   2  -8   9   16.00    1.50
  -3   8  -9    3.40    0.90
   3  -8   9    3.10    0.90
   8   7  -9    0.20    0.50
   7   7  -9    2.10    0.70
  -7  -7   9    1.10    0.70
   6   7  -9    4.10    0.80
  -6  -7   9    3.70    0.90
   5   7  -9    2.10    0.70
  -5  -7   9    2.20    0.80
   4   7  -9    9.90    1.10
  -4  -7   9   10.30    1.30
   3   7  -9    5.00    0.80
  -3  -7   9    4.20    0.90
   2   7  -9   20.30    1.40
  -2  -7   9   21.70    1.60
   1   7  -9   -0.10    0.50
  -1  -7   9    0.30    0.60
   0   7  -9   13.80    1.30
   0  -7   9   11.70    1.30
  -1   7  -9   20.20    1.50
   1  -7   9   18.70    1.50
  -2   7  -9    6.30    1.00
   2  -7   9    6.50    1.00
  -3   7  -9   -0.10    0.50
   3  -7   9    0.00    0.60
  -4   7  -9   10.10    1.30
  -5   7  -9   -0.30    0.50
   9   6  -9    7.60    1.80
   8   6  -9    0.60    0.60
   7   6  -9    3.90    0.80
  -7  -6   9    4.70    0.90
   6   6  -9   15.30    1.30
  -6  -6   9   13.00    1.40
   5   6  -9   28.10    1.60
  -5  -6   9   27.80    1.70
   4   6  -9    9.50    1.10
  -4  -6   9    9.10    1.20
   3   6  -9   25.50    1.50
  -3  -6   9   25.60    1.60
   2   6  -9    0.90    0.50
  -2  -6   9   -0.50    0.40
   1   6  -9   17.60    1.20
  -1  -6   9   18.70    1.40
   0   6  -9    4.80    0.80
   0  -6   9    4.80    0.90
  -1   6  -9    2.30    0.60
   1  -6   9    2.60    0.70
  -2   6  -9   15.40    1.30
   2  -6   9   15.80    1.30
  -3   6  -9   -0.30    0.50
   3  -6   9    0.20    0.50
  -4   6  -9   21.10    1.50
   4  -6   9   22.50    1.50
  -5   6  -9    8.00    1.10
   6  -6   9    1.50    0.70
   9   5  -9    3.30    0.90
   8   5  -9    0.00    0.50
   7   5  -9   40.20    2.00
  -7  -5   9   37.10    2.70
   6   5  -9    0.50    0.50
  -6  -5   9    0.10    0.50
   5   5  -9   65.59    2.30
  -5  -5   9   62.79    2.40
   4   5  -9   33.30    1.60
  -4  -5   9   35.10    1.70
   3   5  -9   11.20    1.00
  -3  -5   9   10.20    1.10
   2   5  -9   46.30    1.80
  -2  -5   9   47.60    1.90
   1   5  -9    0.30    0.40
  -1  -5   9    0.30    0.40
   0   5  -9    1.30    0.50
   0  -5   9    1.80    0.60
  -1   5  -9   60.29    2.20
   1  -5   9   60.89    2.20
  -2   5  -9    3.20    0.70
   2  -5   9    2.60    0.70
  -3   5  -9   99.29    3.00
   3  -5   9  102.19    3.00
  -4   5  -9   44.40    2.00
   4  -5   9   45.10    2.00
  -5   5  -9  109.69    3.30
   5  -5   9  101.89    3.10
  -6   5  -9    1.50    0.60
   7  -5   9   19.30    1.60
   9   4  -9    1.20    0.60
   8   4  -9   11.50    1.30
   7   4  -9   48.20    2.20
   6   4  -9    2.10    0.60
  -6  -4   9    2.30    0.60
   5   4  -9   44.00    1.90
  -5  -4   9   43.80    1.90
   4   4  -9   22.10    1.30
  -4  -4   9   17.40    1.20
   3   4  -9    1.20    0.40
  -3  -4   9    0.70    0.40
   2   4  -9   23.60    1.30
  -2  -4   9   23.80    1.30
   1   4  -9   53.19    1.90
  -1  -4   9   55.39    2.00
   0   4  -9    3.90    0.70
   0  -4   9    4.70    0.70
  -1   4  -9    1.40    0.50
   1  -4   9    2.10    0.60
  -2   4  -9   34.80    1.60
   2  -4   9   33.70    1.60
  -3   4  -9    0.80    0.50
   3  -4   9    0.80    0.50
  -4   4  -9  306.77    5.90
   4  -4   9  312.87    5.90
  -5   4  -9    3.00    0.70
   5  -4   9    4.40    0.80
  -6   4  -9   12.40    1.30
   7  -4   9   20.60    1.50
   9   3  -9    2.40    0.80
   8   3  -9   24.10    1.60
   7   3  -9    0.30    0.50
   6   3  -9    4.30    0.80
  -6  -3   9    4.60    0.80
   5   3  -9  157.98    3.80
  -5  -3   9  159.68    3.60
   4   3  -9    2.10    0.50
  -4  -3   9    1.70    0.50
   3   3  -9    1.70    0.50
  -3  -3   9    0.90    0.40
   2   3  -9  268.97    5.00
  -2  -3   9  273.57    5.20
   1   3  -9    6.20    0.70
  -1  -3   9    5.00    0.70
   0   3  -9    1.00    0.40
   0  -3   9    0.90    0.40
  -1   3  -9   66.99    2.00
   1  -3   9   67.39    2.10
  -2   3  -9   13.80    1.00
   2  -3   9   16.30    1.10
  -3   3  -9  138.39    3.20
   3  -3   9  136.29    3.30
  -4   3  -9    8.20    0.90
   4  -3   9    8.70    1.00
  -5   3  -9   35.00    1.60
   5  -3   9   31.30    1.60
  -6   3  -9    3.00    0.70
   6  -3   9    2.40    0.70
   7  -3   9    0.70    0.60
   9   2  -9    6.10    1.00
   8   2  -9    0.40    0.60
   7   2  -9   24.80    1.60
   6   2  -9   11.70    1.20
   5   2  -9    2.40    0.60
  -5  -2   9    2.20    0.50
   4   2  -9    3.50    0.60
  -4  -2   9    4.20    0.60
   3   2  -9    1.40    0.50
  -3  -2   9    0.60    0.40
   2   2  -9  137.29    3.10
  -2  -2   9  138.29    3.10
   1   2  -9   18.70    1.00
  -1  -2   9   19.40    1.10
   0   2  -9   63.49    1.80
   0  -2   9   62.29    1.90
  -1   2  -9  146.69    3.00
   1  -2   9  133.29    2.70
  -2   2  -9    9.80    0.70
   2  -2   9    9.60    0.90
   2  -2   9    9.00    0.50
  -3   2  -9   37.80    1.50
  -3   2  -9   37.20    1.40
   3  -2   9   36.80    1.10
  -4   2  -9   68.39    2.00
  -4   2  -9   63.89    2.10
   4  -2   9   64.99    1.70
  -5   2  -9    3.10    0.60
  -5   2  -9    4.40    0.70
   5  -2   9    4.00    0.60
  -6   2  -9   28.40    1.40
   6  -2   9   25.40    1.40
   6  -2   9   26.50    1.30
   7  -2   9   15.30    1.20
   7  -2   9   18.40    1.20
   8  -2   9    0.90    0.50
   9   1  -9    3.80    0.90
   8   1  -9   21.80    1.60
  -8  -1   9   22.90    1.50
   7   1  -9    1.70    0.60
  -7  -1   9    2.70    0.70
   6   1  -9   21.60    1.40
  -6  -1   9   21.50    1.20
   5   1  -9  190.28    4.20
  -5  -1   9  196.48    3.90
   4   1  -9    1.10    0.50
  -4  -1   9    1.60    0.40
  -4  -1   9    1.70    0.40
   3   1  -9   -0.10    0.30
  -3  -1   9    0.60    0.30
  -3  -1   9    0.30    0.30
   2   1  -9    2.00    0.40
  -2  -1   9    2.00    0.40
  -2  -1   9    1.70    0.30
   1   1  -9  107.19    2.50
  -1  -1   9  109.69    2.60
  -1  -1   9  114.29    2.00
   0   1  -9  266.47    4.80
   0   1  -9  259.67    4.50
   0  -1   9  260.87    3.90
  -1   1  -9    0.20    0.30
  -1   1  -9    1.20    0.30
  -2   1  -9   45.90    1.40
  -2   1  -9   41.90    1.50
   2  -1   9   42.10    1.10
  -3   1  -9  101.49    2.60
  -3   1  -9  102.99    2.40
   3  -1   9  100.79    2.10
  -4   1  -9   -0.10    0.30
  -4   1  -9   -0.40    0.30
   4  -1   9    0.30    0.30
  -5   1  -9   35.70    1.40
  -5   1  -9   38.30    1.60
   5  -1   9   34.70    1.30
  -6   1  -9   20.90    1.20
  -6   1  -9   18.10    1.10
   6  -1   9   18.70    1.10
  -7   1  -9   41.80    1.70
   7  -1   9   42.90    1.80
   8  -1   9   39.70    1.80
   9  -1   9    6.70    1.00
  10  -1   9    3.60    1.40
   9   0  -9   10.70    1.50
  -9   0   9   14.50    1.60
   8   0  -9    4.50    0.90
  -8   0   9    4.50    0.90
   7   0  -9    0.20    0.50
  -7   0   9    0.70    0.50
   6   0  -9   27.30    1.60
  -6   0   9   26.90    1.50
   5   0  -9   38.70    1.70
  -5   0   9   37.10    1.50
   4   0  -9   15.40    1.10
  -4   0   9   14.70    0.90
  -4   0   9   14.00    0.80
   3   0  -9    9.20    0.80
  -3   0   9    9.00    0.70
  -3   0   9    9.00    0.70
   2   0  -9  211.38    4.00
  -2   0   9  202.18    3.60
  -2   0   9  212.08    3.90
   1   0  -9   73.29    1.90
   1   0  -9   73.59    1.90
  -1   0   9   71.79    1.60
   0   0  -9    0.50    0.20
   0   0  -9    0.90    0.30
   0   0   9    0.60    0.20
  -1   0  -9   32.70    1.30
  -1   0  -9   33.20    1.10
   1   0   9   31.90    0.90
  -2   0  -9    3.90    0.60
  -2   0  -9    4.40    0.50
   2   0   9    4.00    0.40
  -3   0  -9  205.68    4.10
  -3   0  -9  214.28    3.70
   3   0   9  207.68    3.60
  -4   0  -9   81.59    1.90
  -4   0  -9   79.69    2.30
   4   0   9   82.59    2.00
  -5   0  -9   23.80    1.00
  -5   0  -9   23.10    1.20
   5   0   9   23.70    1.10
  -6   0  -9   47.50    1.80
   6   0   9   50.49    1.70
  -7   0  -9    9.80    0.90
   7   0   9   11.70    1.00
  -8   0  -9    2.30    0.80
   8   0   9    1.80    0.60
   9   0   9   23.20    1.50
  10   0   9    0.10    0.50
  -9   1   9    3.30    0.90
   8  -1  -9    0.50    0.60
  -8   1   9    0.30    0.60
   7  -1  -9   10.80    1.20
  -7   1   9   10.00    1.20
   6  -1  -9   71.79    2.50
  -6   1   9   74.29    2.50
   5  -1  -9   28.30    1.50
  -5   1   9   26.70    1.40
   4  -1  -9   31.30    1.40
  -4   1   9   32.70    1.40
   3  -1  -9   62.19    1.90
  -3   1   9   61.59    1.80
  -3   1   9   62.09    1.60
   2  -1  -9   92.49    2.30
  -2   1   9   94.89    2.10
  -2   1   9   91.59    2.10
   1  -1  -9  252.67    4.30
   1  -1  -9  245.88    4.30
  -1   1   9  249.58    4.10
   0  -1  -9  480.65    7.40
   0  -1  -9  473.05    7.10
   0   1   9  473.95    7.00
  -1  -1  -9   39.50    1.20
  -1  -1  -9   42.70    1.40
   1   1   9   41.40    1.20
  -2  -1  -9  114.39    2.60
  -2  -1  -9  115.99    2.20
   2   1   9  115.39    2.30
  -3  -1  -9   83.99    1.80
  -3  -1  -9   80.39    2.20
   3   1   9   80.09    1.80
  -4  -1  -9    0.40    0.20
  -4  -1  -9    0.20    0.30
   4   1   9    0.00    0.20
  -5  -1  -9   43.40    1.60
  -5  -1  -9   43.10    1.30
   5   1   9   46.40    1.50
  -6  -1  -9   17.60    1.10
   6   1   9   18.30    1.10
  -7  -1  -9    0.30    0.40
   7   1   9    0.50    0.40
  -8  -1  -9   14.20    1.10
   8   1   9   14.90    1.20
   9   1   9    9.10    1.10
  10   1   9    0.50    0.50
   8  -2  -9   12.10    1.40
  -8   2   9   14.60    1.60
   7  -2  -9   25.20    1.70
  -7   2   9   24.40    1.70
   6  -2  -9    1.30    0.60
  -6   2   9    2.20    0.70
   5  -2  -9   85.19    2.60
  -5   2   9   83.69    2.60
   4  -2  -9   27.20    1.40
  -4   2   9   24.90    1.30
   3  -2  -9    3.60    0.60
  -3   2   9    4.40    0.50
  -3   2   9    4.70    0.60
   2  -2  -9   37.20    1.20
   2  -2  -9   36.40    1.30
  -2   2   9   36.90    1.30
   1  -2  -9    0.10    0.20
   1  -2  -9    1.30    0.30
  -1   2   9    3.10    0.40
   0  -2  -9    3.90    0.50
   0  -2  -9    3.80    0.40
   0   2   9    3.80    0.40
  -1  -2  -9    3.80    0.50
  -1  -2  -9    4.40    0.40
   1   2   9    4.20    0.40
  -2  -2  -9  164.58    3.30
  -2  -2  -9  156.58    2.70
   2   2   9  161.98    3.00
  -3  -2  -9  259.67    3.90
  -3  -2  -9  256.17    4.70
   3   2   9  261.37    4.30
  -4  -2  -9    0.00    0.30
  -4  -2  -9    0.30    0.20
   4   2   9   -0.10    0.20
  -5  -2  -9   25.60    1.30
   5   2   9   27.50    1.20
  -6  -2  -9   13.00    1.00
   6   2   9   13.20    0.90
  -7  -2  -9    5.70    0.80
   7   2   9    3.80    0.60
  -8  -2  -9   61.59    2.10
   8   2   9   59.39    2.20
  -9  -2  -9    0.80    0.50
   9   2   9    1.20    0.60
  10   2   9    1.10    0.60
   8  -3  -9    9.90    1.30
  -8   3   9   12.10    1.60
   7  -3  -9   -0.40    0.60
  -7   3   9    0.10    0.60
   6  -3  -9   69.39    2.50
  -6   3   9   69.29    2.60
   5  -3  -9    2.00    0.60
  -5   3   9    1.90    0.60
   4  -3  -9   31.70    1.50
  -4   3   9   32.10    1.50
   3  -3  -9  115.69    2.80
  -3   3   9  115.49    2.80
   2  -3  -9   20.90    0.80
   2  -3  -9   21.10    1.10
  -2   3   9   21.80    1.10
   1  -3  -9    2.90    0.40
   1  -3  -9    0.80    0.30
  -1   3   9    2.00    0.40
   0  -3  -9  170.08    3.20
   0  -3  -9  168.58    3.10
   0   3   9  170.28    3.20
  -1  -3  -9  470.35    6.80
  -1  -3  -9  467.15    7.30
   1   3   9  470.55    7.10
  -2  -3  -9  137.89    2.30
  -2  -3  -9  135.69    2.90
   2   3   9  137.09    2.70
  -3  -3  -9   80.79    1.40
  -3  -3  -9   81.59    2.20
   3   3   9   84.19    2.00
  -4  -3  -9   19.50    1.10
   4   3   9   18.10    0.90
  -5  -3  -9   23.50    1.20
   5   3   9   21.70    1.10
  -6  -3  -9   38.00    1.60
   6   3   9   34.80    1.40
  -7  -3  -9   21.30    1.20
   7   3   9   19.00    1.20
  -8  -3  -9   25.30    1.40
   8   3   9   27.30    1.50
  -9  -3  -9    1.70    0.60
   9   3   9    1.60    0.60
  10   3   9   15.30    1.30
   7  -4  -9    9.80    1.30
  -7   4   9   10.90    1.40
   6  -4  -9   -0.10    0.50
  -6   4   9   -0.10    0.50
   5  -4  -9    7.40    1.00
  -5   4   9    8.70    1.10
   4  -4  -9    7.80    0.90
  -4   4   9    7.00    0.90
   3  -4  -9   58.49    2.00
  -3   4   9   61.09    2.00
   2  -4  -9    3.30    0.50
   2  -4  -9    3.10    0.40
  -2   4   9    2.80    0.50
   1  -4  -9    2.00    0.40
   1  -4  -9    1.40    0.40
  -1   4   9    1.70    0.40
   0  -4  -9   46.00    1.30
   0  -4  -9   45.90    1.40
   0   4   9   47.50    1.50
  -1  -4  -9    3.90    0.40
  -1  -4  -9    3.60    0.50
   1   4   9    3.90    0.50
  -2  -4  -9  583.74    8.00
  -2  -4  -9  578.04    8.90
   2   4   9  599.54    8.80
  -3  -4  -9   58.09    1.80
   3   4   9   57.79    1.70
   4   4   9    5.30    0.60
  -5  -4  -9   94.69    2.50
   5   4   9   90.29    2.30
  -6  -4  -9   16.80    1.10
   6   4   9   20.10    1.10
  -7  -4  -9   30.20    1.50
   7   4   9   29.60    1.40
  -8  -4  -9   88.09    2.60
   8   4   9   83.19    2.50
  -9  -4  -9    0.50    0.50
   9   4   9   -0.50    0.40
 -10  -4  -9    0.00    0.50
  10   4   9    0.80    0.60
  11   4   9    1.10    0.60
   7  -5  -9   14.40    1.60
  -7   5   9    8.20    1.30
   6  -5  -9    4.40    0.90
  -6   5   9    1.60    0.70
   5  -5  -9    2.60    0.70
  -5   5   9    2.80    0.70
   4  -5  -9   40.10    1.80
  -4   5   9   44.00    1.90
   3  -5  -9    1.70    0.50
  -3   5   9    1.50    0.50
   2  -5  -9   22.10    1.20
  -2   5   9   24.20    1.20
   1  -5  -9   39.90    1.40
   1  -5  -9   42.70    1.30
  -1   5   9   38.60    1.50
   0  -5  -9   20.00    0.90
   0  -5  -9   19.30    0.90
   0   5   9   18.00    1.00
  -1  -5  -9  295.07    4.60
  -1  -5  -9  296.77    5.10
   1   5   9  307.57    5.20
  -2  -5  -9    1.60    0.20
  -2  -5  -9    2.10    0.50
   2   5   9    1.20    0.40
  -3  -5  -9    5.90    0.70
   3   5   9    6.10    0.60
  -4  -5  -9  132.79    3.10
   4   5   9  134.89    2.90
  -6  -5  -9    2.40    0.60
   6   5   9    3.30    0.60
   7   5   9    1.00    0.40
  -8  -5  -9   30.60    1.60
   8   5   9   28.80    1.50
  -9  -5  -9   43.70    2.00
   9   5   9   42.10    1.90
 -10  -5  -9    0.40    0.50
  10   5   9    1.40    0.60
  11   5   9   25.00    1.70
   6  -6  -9   12.70    1.40
  -6   6   9   14.70    1.60
   5  -6  -9   19.80    1.50
  -5   6   9   19.00    1.60
   4  -6  -9    5.70    0.90
  -4   6   9    8.50    1.10
   3  -6  -9    0.70    0.50
  -3   6   9    1.50    0.60
   2  -6  -9   37.30    1.60
  -2   6   9   34.20    1.60
   1  -6  -9   60.09    1.80
   1  -6  -9   60.19    1.80
  -1   6   9   56.49    1.90
   0  -6  -9   -0.10    0.30
   0  -6  -9    0.10    0.30
   0   6   9    0.20    0.30
  -1  -6  -9    3.10    0.40
  -1  -6  -9    2.20    0.40
   1   6   9    2.50    0.50
  -2  -6  -9  105.39    2.50
   2   6   9  105.79    2.50
  -3  -6  -9   -0.30    0.30
   3   6   9    0.60    0.40
  -4  -6  -9  193.58    4.00
   4   6   9  187.98    3.80
  -5  -6  -9   41.20    1.70
   5   6   9   39.40    1.50
  -6  -6  -9   70.39    2.30
   6   6   9   72.09    2.10
  -7  -6  -9   61.49    2.20
   7   6   9   61.69    2.00
  -8  -6  -9   38.70    1.80
   8   6   9   36.10    1.60
  -9  -6  -9    4.70    0.90
   9   6   9    4.40    0.80
 -10  -6  -9   21.80    1.50
  10   6   9   22.00    1.50
  11   6   9    7.80    1.10
   6  -7  -9    0.30    0.60
   5  -7  -9    0.40    0.70
  -5   7   9    1.40    0.70
   4  -7  -9    0.90    0.60
  -4   7   9   -0.40    0.40
   3  -7  -9    0.70    0.50
  -3   7   9    1.30    0.60
   2  -7  -9   60.09    2.00
  -2   7   9   58.69    2.10
   1  -7  -9    2.90    0.60
  -1   7   9    4.10    0.70
   0  -7  -9   13.60    0.90
   0  -7  -9   13.20    0.80
   0   7   9   13.70    1.00
  -1  -7  -9  183.38    3.60
  -1  -7  -9  180.68    3.20
   1   7   9  175.88    3.70
  -2  -7  -9    1.60    0.50
   2   7   9    2.10    0.50
  -3  -7  -9   22.60    1.20
   3   7   9   25.00    1.20
  -4  -7  -9    1.90    0.50
   4   7   9    2.70    0.50
  -5  -7  -9   92.69    2.60
   5   7   9   94.69    2.50
  -6  -7  -9  162.78    3.80
   6   7   9  163.28    3.60
  -7  -7  -9   26.30    1.50
   7   7   9   23.80    1.30
  -8  -7  -9   55.59    2.20
   8   7   9   56.39    2.10
  -9  -7  -9   26.70    1.60
   9   7   9   27.60    1.60
 -10  -7  -9    0.30    0.50
  10   7   9    0.50    0.50
 -11  -7  -9   40.50    2.10
  11   7   9   40.60    2.00
   5  -8  -9    1.60    0.80
  -5   8   9    0.70    0.70
   4  -8  -9    0.70    0.60
  -4   8   9    0.80    0.60
   3  -8  -9   11.80    1.20
  -3   8   9   13.50    1.20
   2  -8  -9    0.60    0.50
  -2   8   9    0.60    0.50
   1  -8  -9    6.70    0.80
  -1   8   9    5.60    0.80
   0  -8  -9   11.30    0.90
   0   8   9   11.50    1.00
  -1  -8  -9   29.00    1.30
   1   8   9   27.10    1.30
  -2  -8  -9   22.40    1.20
   2   8   9   23.40    1.20
  -3  -8  -9    8.70    0.90
   3   8   9    8.00    0.80
  -4  -8  -9   77.09    2.40
   4   8   9   84.79    2.30
  -5  -8  -9    0.70    0.50
   5   8   9    0.80    0.40
  -6  -8  -9    4.60    0.80
   6   8   9    4.90    0.70
  -7  -8  -9    9.20    1.10
   7   8   9   10.30    1.00
  -8  -8  -9    3.80    0.80
   8   8   9    3.30    0.70
  -9  -8  -9   25.90    1.70
   9   8   9   26.70    1.60
 -10  -8  -9   13.10    1.40
  10   8   9   13.70    1.20
 -11  -8  -9    5.80    1.00
  11   8   9    4.50    0.90
   4  -9  -9    2.00    0.80
  -4   9   9    2.40    0.80
   3  -9  -9   15.50    1.40
  -3   9   9   16.70    1.40
   2  -9  -9   29.10    1.60
  -2   9   9   29.30    1.70
   1  -9  -9    7.00    0.80
  -1   9   9    6.20    0.90
   0  -9  -9   23.30    1.50
   0   9   9   23.20    1.40
  -1  -9  -9   16.80    1.10
   1   9   9   19.80    1.30
  -2  -9  -9    1.10    0.50
   2   9   9    1.20    0.50
  -3  -9  -9   63.39    2.20
   3   9   9   61.79    2.10
  -4  -9  -9    2.20    0.60
   4   9   9    2.70    0.60
  -5  -9  -9    8.90    1.00
   5   9   9   10.60    0.90
  -6  -9  -9   17.10    1.40
   6   9   9   18.20    1.20
  -7  -9  -9    0.40    0.50
   7   9   9    0.50    0.50
  -8  -9  -9    0.60    0.60
   8   9   9    0.00    0.50
  -9  -9  -9    1.50    0.70
   9   9   9    0.60    0.50
 -10  -9  -9    0.10    0.60
  10   9   9    0.40    0.50
 -11  -9  -9    5.20    1.00
  11   9   9    2.20    0.70
   3 -10  -9    0.40    0.60
  -3  10   9    0.50    0.60
   2 -10  -9    3.40    0.80
  -2  10   9    1.70    0.70
  -1  10   9   23.10    1.50
   0  10   9   21.20    1.50
   1  10   9   64.99    2.30
  -2 -10  -9    4.70    0.80
   2  10   9    3.50    0.70
  -3 -10  -9   36.10    1.70
   3  10   9   35.40    1.60
  -4 -10  -9    2.60    0.70
   4  10   9    1.50    0.50
  -5 -10  -9   39.20    1.90
   5  10   9   39.20    1.70
  -6 -10  -9   95.69    3.00
   6  10   9   90.99    2.70
  -7 -10  -9   27.00    1.80
   7  10   9   24.30    1.50
  -8 -10  -9    7.80    1.10
   8  10   9    8.70    1.00
  -9 -10  -9    7.80    1.10
   9  10   9    9.10    1.10
 -10 -10  -9    0.40    0.70
  10  10   9   -0.10    0.50
 -11 -10  -9    1.10    0.70
  11  10   9    0.20    0.60
  -2  11   9    8.00    1.20
  -1  11   9   42.40    2.10
   0  11   9   35.60    1.90
   1  11   9   23.60    1.50
  -2 -11  -9    1.50    0.60
   2  11   9    0.70    0.50
  -3 -11  -9   16.10    1.30
   3  11   9   18.80    1.30
  -4 -11  -9   21.30    1.50
   4  11   9   19.00    1.30
  -5 -11  -9   15.90    1.50
   5  11   9   20.10    1.30
  -6 -11  -9    9.00    1.20
   6  11   9    7.90    1.00
  -7 -11  -9   16.20    1.50
   7  11   9   16.00    1.20
  -8 -11  -9    2.90    0.90
   8  11   9    2.50    0.70
  -9 -11  -9   -0.30    0.60
   9  11   9   -0.20    0.40
 -10 -11  -9    2.10    0.80
  10  11   9    1.20    0.60
  -1  12   9    9.80    1.30
   0  12   9   19.10    1.50
   1  12   9    9.50    1.20
   2  12   9   10.70    1.20
  -3 -12  -9   30.00    1.70
   3  12   9   32.30    1.70
  -4 -12  -9    7.70    1.10
   4  12   9    7.90    1.00
  -5 -12  -9    8.00    1.10
   5  12   9    9.30    1.10
  -6 -12  -9   15.60    1.50
   6  12   9   19.90    1.40
  -7 -12  -9    1.80    0.80
   7  12   9    1.30    0.60
  -8 -12  -9    5.40    1.10
   8  12   9    4.10    0.80
  -9 -12  -9    0.60    0.70
   9  12   9    0.60    0.50
  10  12   9    7.00    1.10
   1  13   9    0.90    0.60
   2  13   9    6.60    1.00
   3  13   9    0.50    0.50
  -4 -13  -9    2.60    0.80
   4  13   9    2.90    0.70
  -5 -13  -9    3.20    0.90
   5  13   9    3.90    0.80
  -6 -13  -9    0.10    0.60
   6  13   9   -0.20    0.50
  -7 -13  -9    0.10    0.60
   7  13   9    0.70    0.50
  -8 -13  -9    1.50    0.80
   8  13   9    1.80    0.60
   9  13   9    4.70    0.90
   3  14   9    3.20    0.80
   4  14   9    6.90    1.00
  -5 -14  -9    8.20    1.20
   5  14   9    7.00    1.00
  -6 -14  -9    2.00    0.80
   6  14   9    1.40    0.70
   7  14   9    0.40    0.60
  -6  -9  10    0.10    1.00
   5   9 -10    2.50    0.80
  -5  -9  10    3.70    1.10
   4   9 -10   31.90    1.90
  -4  -9  10   29.50    2.20
   3   9 -10    0.80    0.70
  -3  -9  10    0.40    0.80
   2   9 -10    0.50    0.70
  -2  -9  10    0.70    0.80
   1   9 -10   19.30    1.70
  -1  -9  10   19.70    1.80
   0   9 -10    2.30    0.80
   0  -9  10    4.50    1.10
  -1   9 -10    3.90    1.10
   1  -9  10    4.10    1.00
   7   8 -10   25.10    3.00
  -7  -8  10   31.90    2.20
   6   8 -10   41.80    2.20
  -6  -8  10   38.70    2.30
   5   8 -10    5.50    1.00
  -5  -8  10    6.00    1.20
   4   8 -10    3.70    0.80
  -4  -8  10    3.10    1.00
   3   8 -10    1.30    0.70
  -3  -8  10    1.90    0.80
   2   8 -10    1.70    0.70
  -2  -8  10    2.40    0.80
   1   8 -10   38.70    2.10
  -1  -8  10   35.00    2.10
   0   8 -10    0.40    0.60
   0  -8  10    0.90    0.70
  -1   8 -10    1.80    0.80
   1  -8  10    1.10    0.70
  -2   8 -10    1.20    0.70
   2  -8  10    0.70    0.70
  -3   8 -10    9.30    1.50
   3  -8  10    8.30    1.30
   7   7 -10   29.60    1.90
  -7  -7  10   25.90    1.90
   6   7 -10    2.90    0.80
  -6  -7  10    2.20    0.80
   5   7 -10   26.40    1.70
  -5  -7  10   27.40    1.90
   4   7 -10    7.30    1.00
  -4  -7  10    7.20    1.20
   3   7 -10    6.80    1.00
  -3  -7  10    5.20    1.00
   2   7 -10    5.70    0.90
  -2  -7  10    5.90    1.00
   1   7 -10    1.60    0.70
  -1  -7  10    1.60    0.70
   0   7 -10    4.60    0.90
   0  -7  10    3.40    0.90
  -1   7 -10    1.00    0.60
   1  -7  10    0.60    0.60
  -2   7 -10   16.60    1.50
   2  -7  10   13.90    1.50
  -3   7 -10    1.10    0.70
   3  -7  10    1.20    0.70
  -4   7 -10    3.70    0.90
   8   6 -10   15.00    1.60
   7   6 -10   29.00    1.80
  -7  -6  10   29.40    1.80
   6   6 -10   -0.50    0.40
  -6  -6  10    0.70    0.60
   5   6 -10    2.70    0.70
  -5  -6  10    4.60    0.90
   4   6 -10   48.30    2.10
  -4  -6  10   42.60    2.10
   3   6 -10    9.20    1.10
  -3  -6  10    9.10    1.20
   2   6 -10   32.20    1.70
  -2  -6  10   32.10    1.90
   1   6 -10   76.49    2.60
  -1  -6  10   79.09    2.80
   0   6 -10    3.70    0.80
   0  -6  10    3.00    0.80
  -1   6 -10    5.20    0.90
   1  -6  10    4.20    0.90
  -2   6 -10    0.60    0.50
   2  -6  10   -0.10    0.50
  -3   6 -10   -0.10    0.50
   3  -6  10    0.00    0.50
  -4   6 -10    6.30    1.00
   4  -6  10    8.60    1.10
  -5   6 -10    0.50    0.60
   8   5 -10   37.40    2.00
   7   5 -10    7.80    1.10
   6   5 -10    6.60    1.00
  -6  -5  10    7.00    1.00
   5   5 -10  129.39    3.50
  -5  -5  10  127.99    3.60
   4   5 -10    0.70    0.50
  -4  -5  10    0.90    0.60
   3   5 -10    9.90    1.10
  -3  -5  10    9.10    1.10
   2   5 -10   28.00    1.50
  -2  -5  10   27.50    1.60
   1   5 -10   16.00    1.20
  -1  -5  10   16.10    1.30
   0   5 -10   14.90    1.10
   0  -5  10   12.60    1.20
  -1   5 -10    0.10    0.40
   1  -5  10    0.40    0.50
  -2   5 -10    4.50    0.80
   2  -5  10    6.30    1.00
  -3   5 -10    5.10    0.90
   3  -5  10    6.30    1.00
  -4   5 -10    1.60    0.70
   4  -5  10    1.10    0.60
  -5   5 -10   40.60    2.00
   5  -5  10   40.30    2.00
  -6   5 -10    7.90    1.20
   8   4 -10   -0.30    0.50
   7   4 -10    1.90    0.70
   6   4 -10    5.30    0.90
  -6  -4  10    4.90    0.90
   5   4 -10   79.49    2.60
  -5  -4  10   78.19    2.60
   4   4 -10   26.00    1.50
  -4  -4  10   23.30    1.40
   3   4 -10   25.90    1.40
  -3  -4  10   26.90    1.50
   2   4 -10   63.39    2.20
  -2  -4  10   65.79    2.30
   1   4 -10   25.40    1.30
  -1  -4  10   22.60    1.40
   0   4 -10    0.50    0.40
   0  -4  10    0.10    0.40
  -1   4 -10   38.60    1.70
   1  -4  10   40.00    1.80
  -2   4 -10    6.90    0.90
   2  -4  10    6.60    0.90
  -3   4 -10    2.20    0.70
   3  -4  10    2.90    0.70
  -4   4 -10   20.80    1.40
   4  -4  10   20.00    1.40
  -5   4 -10    0.90    0.50
   5  -4  10    0.50    0.60
  -6   4 -10   95.79    3.10
   8   3 -10   30.90    1.90
   7   3 -10    1.80    0.70
   6   3 -10   68.79    2.50
   5   3 -10   26.80    1.50
  -5  -3  10   26.40    1.40
   4   3 -10    9.80    1.00
  -4  -3  10   12.50    1.10
   3   3 -10   66.09    2.20
  -3  -3  10   67.19    2.20
   2   3 -10    0.60    0.40
  -2  -3  10    0.40    0.40
   1   3 -10    1.60    0.50
  -1  -3  10    2.20    0.60
   0   3 -10  170.68    3.70
   0  -3  10  171.78    3.90
  -1   3 -10    3.80    0.60
   1  -3  10    5.20    0.70
  -2   3 -10   29.80    1.40
   2  -3  10   31.10    1.50
  -3   3 -10   13.10    1.00
   3  -3  10   13.80    1.20
  -4   3 -10   12.60    1.00
   4  -3  10   14.60    1.20
  -5   3 -10   23.70    1.40
   5  -3  10   23.70    1.50
  -6   3 -10    1.20    0.60
   6  -3  10    0.10    0.50
   8   2 -10   15.20    1.40
   7   2 -10    0.10    0.50
   6   2 -10   -0.80    0.40
   5   2 -10   42.00    1.90
  -5  -2  10   42.30    1.70
   4   2 -10    0.20    0.40
  -4  -2  10    0.40    0.40
   3   2 -10   24.50    1.30
  -3  -2  10   24.70    1.30
   2   2 -10   74.49    2.20
  -2  -2  10   72.99    2.20
   1   2 -10   14.80    1.00
  -1  -2  10   12.60    1.00
   0   2 -10   37.40    1.40
   0  -2  10   36.40    1.50
  -1   2 -10   26.00    1.20
   1  -2  10   25.90    1.30
  -2   2 -10    1.50    0.40
   2  -2  10    1.90    0.50
  -3   2 -10  120.39    2.90
   3  -2  10  123.29    3.10
  -4   2 -10   15.10    1.00
   4  -2  10   16.00    1.20
  -5   2 -10   15.60    1.10
   5  -2  10   16.70    1.30
  -6   2 -10    3.10    0.70
   6  -2  10    2.60    0.70
   8   1 -10   -0.50    0.50
   7   1 -10    2.60    0.70
   6   1 -10   82.99    2.70
   5   1 -10    5.60    0.90
  -5  -1  10    5.80    0.70
   4   1 -10   15.80    1.10
  -4  -1  10   13.40    0.90
  -4  -1  10   13.30    0.90
   3   1 -10  122.49    3.00
  -3  -1  10  125.59    2.90
  -3  -1  10  119.29    2.50
   2   1 -10    3.00    0.50
  -2  -1  10    2.10    0.50
  -2  -1  10    2.40    0.40
   1   1 -10    4.00    0.60
  -1  -1  10    4.40    0.40
  -1  -1  10    4.20    0.60
   0   1 -10    0.30    0.30
   0  -1  10    0.50    0.20
   0  -1  10    0.40    0.30
  -1   1 -10   76.19    2.20
  -1   1 -10   74.29    2.00
   1  -1  10   75.29    1.60
  -2   1 -10   53.89    1.80
  -2   1 -10   52.39    1.60
   2  -1  10   52.69    1.30
  -3   1 -10   16.40    1.10
  -3   1 -10   16.40    0.90
   3  -1  10   15.10    0.70
  -4   1 -10   36.10    1.40
  -4   1 -10   37.00    1.60
   4  -1  10   38.10    1.20
  -5   1 -10   14.30    0.90
  -5   1 -10   12.80    1.00
   5  -1  10   16.20    0.90
  -6   1 -10    9.00    1.00
  -6   1 -10    8.00    0.90
   6  -1  10    7.80    0.80
  -7   1 -10   22.00    1.30
   7  -1  10   21.90    1.30
   8  -1  10   13.20    1.20
   9  -1  10   17.50    1.40
   8   0 -10   27.60    1.80
  -8   0  10   28.10    1.80
   7   0 -10    3.70    0.90
  -7   0  10    3.80    0.80
   6   0 -10   25.90    1.60
  -6   0  10   24.30    1.40
   5   0 -10    1.20    0.50
  -5   0  10    1.60    0.50
   4   0 -10    7.50    0.90
  -4   0  10    7.50    0.70
  -4   0  10    8.50    0.90
   3   0 -10   94.69    2.60
  -3   0  10   98.09    2.30
  -3   0  10   97.69    2.40
   2   0 -10    2.90    0.50
  -2   0  10    2.80    0.40
  -2   0  10    1.90    0.40
   1   0 -10   42.90    1.50
  -1   0  10   43.60    1.20
  -1   0  10   40.80    1.50
   0   0 -10  109.19    2.60
   0   0 -10  104.49    2.40
   0   0  10  107.19    2.10
  -1   0 -10   47.60    1.40
  -1   0 -10   45.70    1.60
   1   0  10   47.60    1.20
  -2   0 -10   39.60    1.50
  -2   0 -10   37.70    1.20
   2   0  10   36.90    1.10
  -3   0 -10   41.30    1.30
  -3   0 -10   39.70    1.60
   3   0  10   40.70    1.20
  -4   0 -10    0.70    0.40
  -4   0 -10    0.50    0.30
   4   0  10    0.10    0.30
  -5   0 -10   90.19    2.50
  -5   0 -10   88.09    2.20
   5   0  10   88.89    2.20
  -6   0 -10    3.90    0.70
   6   0  10    2.30    0.50
  -7   0 -10   15.90    1.20
   7   0  10   14.70    1.10
  -8   0 -10   37.10    1.70
   8   0  10   39.30    1.80
   9   0  10   13.10    1.30
  10   0  10    1.40    0.60
   8  -1 -10    0.70    0.70
  -8   1  10    0.20    0.50
   7  -1 -10   11.30    1.30
  -7   1  10   10.50    1.20
   6  -1 -10   12.70    1.30
  -6   1  10   11.50    1.20
   5  -1 -10   -0.80    0.40
  -5   1  10   -0.50    0.30
   4  -1 -10   73.29    2.30
  -4   1  10   72.99    2.20
   3  -1 -10    3.10    0.60
  -3   1  10    2.80    0.50
  -3   1  10    2.60    0.50
   2  -1 -10   29.10    1.30
  -2   1  10   29.60    1.10
  -2   1  10   31.10    1.20
   1  -1 -10   49.20    1.60
   1  -1 -10   51.39    1.60
  -1   1  10   50.19    1.40
   0  -1 -10  100.89    2.20
   0  -1 -10   97.59    2.40
   0   1  10  101.09    2.10
  -1  -1 -10  177.38    3.20
  -1  -1 -10  171.78    3.60
   1   1  10  183.98    3.20
  -2  -1 -10  172.58    3.10
  -2  -1 -10  172.28    3.60
   2   1  10  178.88    3.20
  -3  -1 -10   52.59    1.40
  -3  -1 -10   53.79    1.80
   3   1  10   53.79    1.50
  -4  -1 -10   72.79    1.70
  -4  -1 -10   71.99    2.20
   4   1  10   73.99    1.90
  -5  -1 -10    2.30    0.60
   5   1  10    3.40    0.50
  -6  -1 -10   14.60    1.10
   6   1  10   14.90    1.00
  -7  -1 -10   23.70    1.40
   7   1  10   26.70    1.40
  -8  -1 -10    7.70    0.90
   8   1  10    9.90    1.00
   9   1  10    0.70    0.50
  10   1  10    7.30    1.00
   8  -2 -10   -0.90    0.60
  -8   2  10   -0.10    0.50
   7  -2 -10    1.40    0.70
  -7   2  10    0.60    0.60
   6  -2 -10   34.30    1.80
  -6   2  10   34.40    1.80
   5  -2 -10   25.10    1.50
  -5   2  10   24.20    1.40
   4  -2 -10    4.90    0.70
  -4   2  10    5.90    0.80
   3  -2 -10  205.18    4.10
  -3   2  10  199.58    3.70
  -3   2  10  204.68    4.00
   2  -2 -10    1.60    0.40
   2  -2 -10    1.50    0.40
  -2   2  10    1.40    0.40
   1  -2 -10    1.20    0.40
   1  -2 -10    1.10    0.30
  -1   2  10    0.90    0.30
   0  -2 -10   15.20    0.80
   0  -2 -10   14.40    0.90
   0   2  10   15.40    0.80
  -1  -2 -10    3.40    0.50
  -1  -2 -10    4.20    0.50
   1   2  10    4.40    0.50
  -2  -2 -10   37.40    1.10
  -2  -2 -10   35.80    1.40
   2   2  10   37.90    1.20
  -3  -2 -10    0.40    0.40
  -3  -2 -10    0.60    0.20
   3   2  10    0.40    0.30
  -4  -2 -10  168.78    3.70
   4   2  10  169.98    3.30
  -5  -2 -10  143.39    3.30
   5   2  10  140.29    3.00
  -6  -2 -10   20.40    1.30
   6   2  10   20.90    1.10
  -7  -2 -10   21.80    1.30
   7   2  10   24.60    1.30
  -8  -2 -10   14.70    1.20
   8   2  10   14.60    1.20
  -9  -2 -10   -0.20    0.40
   9   2  10    0.20    0.50
  10   2  10   31.90    1.80
   7  -3 -10   36.90    2.00
  -7   3  10   32.10    2.00
   6  -3 -10    3.60    0.80
  -6   3  10    1.20    0.60
   5  -3 -10    8.10    1.00
  -5   3  10   11.00    1.20
   4  -3 -10   62.89    2.20
  -4   3  10   59.49    2.10
   3  -3 -10   22.70    1.30
  -3   3  10   23.80    1.20
   2  -3 -10   63.09    1.70
   2  -3 -10   63.99    1.90
  -2   3  10   60.29    1.90
   1  -3 -10  129.29    2.80
   1  -3 -10  132.49    2.70
  -1   3  10  127.99    2.80
   0  -3 -10   43.60    1.40
   0  -3 -10   45.40    1.30
   0   3  10   45.90    1.40
  -1  -3 -10    2.50    0.50
  -1  -3 -10    2.30    0.30
   1   3  10    2.50    0.40
  -2  -3 -10   45.90    1.60
  -2  -3 -10   44.10    1.10
   2   3  10   42.20    1.40
  -3  -3 -10  299.77    5.40
   3   3  10  300.37    5.00
  -4  -3 -10   96.89    2.60
   4   3  10   95.19    2.30
  -5  -3 -10  141.89    3.30
   5   3  10  139.39    3.00
  -6  -3 -10    0.90    0.50
   6   3  10    0.20    0.40
  -7  -3 -10    8.50    1.00
   7   3  10   10.80    1.00
  -8  -3 -10   32.90    1.70
   8   3  10   30.70    1.60
  -9  -3 -10   19.80    1.40
   9   3  10   20.20    1.40
  10   3  10   16.90    1.40
   7  -4 -10   26.20    1.80
  -7   4  10   27.00    1.90
   6  -4 -10    1.00    0.60
  -6   4  10    0.30    0.50
   5  -4 -10   11.40    1.20
  -5   4  10   10.20    1.20
   4  -4 -10    6.20    0.90
  -4   4  10    6.70    0.90
   3  -4 -10    2.40    0.50
  -3   4  10    1.30    0.50
   2  -4 -10   48.10    1.70
  -2   4  10   49.30    1.70
   1  -4 -10  103.89    2.40
   1  -4 -10  105.69    2.40
  -1   4  10  110.99    2.60
   0  -4 -10   18.80    1.00
   0  -4 -10   18.30    0.80
   0   4  10   18.30    0.90
  -1  -4 -10   14.60    0.70
  -1  -4 -10   17.20    1.00
   1   4  10   14.70    0.90
  -2  -4 -10    0.90    0.20
  -2  -4 -10    0.90    0.40
   2   4  10    0.60    0.30
  -3  -4 -10    1.00    0.40
   3   4  10    1.60    0.40
  -4  -4 -10  473.35    7.90
   4   4  10  486.35    7.60
  -5  -4 -10   22.60    1.30
   5   4  10   22.20    1.10
  -6  -4 -10    2.30    0.60
   6   4  10    3.60    0.60
  -7  -4 -10   80.49    2.50
   7   4  10   78.99    2.40
  -8  -4 -10    1.40    0.60
   8   4  10    1.40    0.50
  -9  -4 -10    6.80    1.00
   9   4  10    7.20    1.00
 -10  -4 -10   54.89    2.30
  10   4  10   57.39    2.40
  11   4  10    0.50    0.60
   6  -5 -10    2.90    0.80
  -6   5  10    1.20    0.70
   5  -5 -10   43.40    2.10
  -5   5  10   43.90    2.10
   4  -5 -10    0.10    0.40
  -4   5  10    0.30    0.40
   3  -5 -10    1.40    0.50
  -3   5  10    2.40    0.60
   2  -5 -10   72.39    2.10
  -2   5  10   66.39    2.20
   1  -5 -10    2.60    0.50
   1  -5 -10    2.20    0.40
  -1   5  10    1.90    0.50
   0  -5 -10   23.60    1.10
   0  -5 -10   20.60    0.90
   0   5  10   21.70    1.10
  -1  -5 -10   46.80    1.20
  -1  -5 -10   43.70    1.50
   1   5  10   45.20    1.60
  -2  -5 -10   -0.20    0.30
   2   5  10    0.70    0.30
  -3  -5 -10  172.88    3.70
   3   5  10  169.48    3.40
  -4  -5 -10    1.50    0.50
   4   5  10    1.00    0.40
  -5  -5 -10   36.60    1.60
   5   5  10   38.60    1.50
  -6  -5 -10   47.10    1.90
   6   5  10   44.80    1.70
  -7  -5 -10    0.00    0.50
   7   5  10    1.20    0.50
  -8  -5 -10    0.20    0.50
   8   5  10    0.30    0.40
  -9  -5 -10    2.10    0.70
   9   5  10    1.40    0.50
 -10  -5 -10   14.30    1.40
  10   5  10   16.10    1.40
  11   5  10    1.80    0.70
   6  -6 -10   20.10    1.60
  -6   6  10   14.90    1.60
   5  -6 -10    1.70    0.70
  -5   6  10    0.50    0.50
   4  -6 -10   46.90    2.00
  -4   6  10   45.10    2.10
   3  -6 -10   12.90    1.10
  -3   6  10   13.10    1.20
   2  -6 -10   37.60    1.60
  -2   6  10   36.60    1.60
   1  -6 -10    2.40    0.50
  -1   6  10    2.60    0.60
   0  -6 -10   85.99    2.10
   0  -6 -10   81.59    2.00
   0   6  10   83.99    2.30
  -1  -6 -10  100.69    2.10
  -1  -6 -10  101.99    2.50
   1   6  10  106.99    2.60
  -2  -6 -10   23.70    1.20
   2   6  10   23.40    1.20
  -3  -6 -10    6.70    0.80
   3   6  10    8.20    0.80
  -4  -6 -10  103.59    2.80
   4   6  10  102.69    2.60
  -5  -6 -10    0.80    0.50
   5   6  10    0.90    0.40
  -6  -6 -10   89.79    2.70
   6   6  10   89.29    2.50
  -7  -6 -10   36.70    1.80
   7   6  10   37.20    1.60
  -8  -6 -10   34.40    1.80
   8   6  10   32.50    1.60
  -9  -6 -10   19.50    1.50
   9   6  10   18.00    1.30
 -10  -6 -10   39.10    2.00
  10   6  10   39.80    2.00
 -11  -6 -10    3.30    0.80
  11   6  10    3.20    0.80
   5  -7 -10   43.90    2.20
  -5   7  10   44.20    2.30
   4  -7 -10   -0.30    0.50
  -4   7  10    0.60    0.60
   3  -7 -10    0.20    0.50
  -3   7  10    0.30    0.50
   2  -7 -10    2.40    0.60
  -2   7  10    2.90    0.70
   1  -7 -10    3.50    0.60
  -1   7  10    4.00    0.70
   0  -7 -10   70.69    1.90
   0  -7 -10   69.79    1.90
   0   7  10   70.59    2.20
  -1  -7 -10    2.20    0.50
   1   7  10    2.00    0.50
  -2  -7 -10    0.40    0.40
   2   7  10   -0.10    0.30
  -3  -7 -10  148.89    3.40
   3   7  10  146.09    3.30
   4   7  10    2.50    0.60
  -5  -7 -10    0.20    0.40
   5   7  10    0.30    0.30
  -6  -7 -10   12.40    1.10
   6   7  10   12.20    1.00
  -7  -7 -10   50.79    2.10
   7   7  10   52.89    2.00
  -8  -7 -10   76.69    2.70
   8   7  10   75.99    2.50
  -9  -7 -10   15.30    1.40
   9   7  10   11.30    1.20
 -10  -7 -10   41.10    2.10
  10   7  10   45.20    2.10
 -11  -7 -10    0.40    0.60
  11   7  10    1.00    0.60
   5  -8 -10   -1.20    0.50
   4  -8 -10    6.40    1.00
  -4   8  10    4.70    0.90
   3  -8 -10    2.90    0.70
  -3   8  10    1.90    0.70
   2  -8 -10    7.60    0.90
  -2   8  10    7.40    1.00
   1  -8 -10   17.70    1.20
  -1   8  10   18.70    1.30
   0   8  10    0.50    0.40
  -1  -8 -10   30.10    1.30
   1   8  10   31.70    1.50
  -2  -8 -10    0.30    0.40
   2   8  10    0.20    0.30
  -3  -8 -10   33.40    1.50
   3   8  10   31.90    1.50
  -4  -8 -10   25.20    1.40
   4   8  10   26.20    1.30
  -5  -8 -10    2.50    0.70
   5   8  10    2.80    0.60
  -6  -8 -10   34.60    1.70
   6   8  10   36.00    1.60
  -7  -8 -10   14.00    1.30
   7   8  10   13.50    1.10
  -8  -8 -10    8.80    1.10
   8   8  10   10.60    1.10
  -9  -8 -10    3.50    0.80
   9   8  10    3.40    0.70
 -10  -8 -10   -0.60    0.50
  10   8  10    0.60    0.50
 -11  -8 -10   11.80    1.40
  11   8  10   11.70    1.30
   4  -9 -10    1.80    0.80
  -4   9  10    2.90    1.20
   3  -9 -10    0.70    0.60
  -3   9  10    1.00    0.60
   2  -9 -10    3.60    0.80
  -2   9  10    2.10    0.70
  -1   9  10   17.10    1.40
   0   9  10   47.20    2.00
  -1  -9 -10    3.60    0.60
   1   9  10    4.60    0.80
  -2  -9 -10   11.00    1.00
  -3  -9 -10   17.80    1.20
   3   9  10   16.30    1.20
  -4  -9 -10    0.20    0.40
   4   9  10    0.10    0.40
  -5  -9 -10   14.70    1.20
   5   9  10   14.80    1.10
  -6  -9 -10    4.90    0.90
   6   9  10    4.30    0.70
  -7  -9 -10    2.60    0.70
   7   9  10    2.60    0.60
  -8  -9 -10   10.90    1.30
   8   9  10    7.90    1.00
  -9  -9 -10    0.00    0.60
   9   9  10   -0.10    0.50
 -10  -9 -10    3.30    0.90
  10   9  10    3.10    0.80
 -11  -9 -10   11.30    1.40
  11   9  10   10.70    1.90
  -3  10  10    0.40    0.60
  -2  10  10   18.60    1.60
  -1  10  10    2.00    0.70
   0  10  10   10.80    1.20
   1  10  10   13.40    1.20
  -2 -10 -10   51.69    1.90
   2  10  10   49.00    2.00
  -3 -10 -10   90.29    2.70
   3  10  10   85.79    2.60
  -4 -10 -10    1.10    0.60
   4  10  10    0.00    0.50
  -5 -10 -10   24.10    1.60
   5  10  10   22.60    1.40
  -6 -10 -10   -0.20    0.50
   6  10  10   -0.10    0.40
  -7 -10 -10   15.60    1.40
   7  10  10   13.00    1.20
  -8 -10 -10   75.19    2.80
   8  10  10   74.69    2.50
  -9 -10 -10   20.20    1.70
   9  10  10   19.10    1.40
 -10 -10 -10    0.50    0.70
  10  10  10    1.10    0.60
  -1  11  10    6.30    1.00
   0  11  10   18.30    1.50
   1  11  10   50.99    2.20
   2  11  10   29.60    1.70
  -3 -11 -10   19.10    1.40
   3  11  10   18.00    1.30
  -4 -11 -10    0.60    0.60
   4  11  10    1.10    0.60
  -5 -11 -10    3.40    0.90
   5  11  10    4.60    0.80
  -6 -11 -10   16.00    1.50
   6  11  10   13.80    1.20
  -7 -11 -10   16.40    1.50
   7  11  10   17.70    1.40
  -8 -11 -10    3.00    0.90
   8  11  10    3.50    0.80
  -9 -11 -10    9.00    1.30
   9  11  10   11.50    1.20
 -10 -11 -10    0.00    0.70
  10  11  10    0.30    0.60
   0  12  10    0.60    0.60
   1  12  10    4.70    0.90
   2  12  10   26.20    1.70
  -3 -12 -10   11.60    1.20
   3  12  10   12.00    1.30
  -4 -12 -10    6.00    1.00
   4  12  10    7.20    1.00
  -5 -12 -10   23.40    1.70
   5  12  10   20.30    1.40
  -6 -12 -10    7.90    1.20
   6  12  10    4.10    0.90
  -7 -12 -10    0.10    0.60
   7  12  10    0.60    0.60
  -8 -12 -10   16.30    1.60
   8  12  10   14.60    1.30
  -9 -12 -10    2.50    0.90
   9  12  10    2.60    0.70
   1  13  10    7.20    1.50
   2  13  10    1.30    0.70
   3  13  10   -0.20    0.50
  -4 -13 -10    5.40    1.00
   4  13  10    4.50    0.90
  -5 -13 -10    2.00    0.80
   5  13  10    0.30    0.50
  -6 -13 -10   -0.40    0.60
   6  13  10    0.60    0.50
  -7 -13 -10    4.50    1.10
   7  13  10    4.40    0.80
  -8 -13 -10    0.60    0.90
   8  13  10   -0.30    0.50
   4  14  10   13.90    1.50
  -5 -14 -10    4.40    1.00
   5  14  10    3.00    0.80
  -6 -14 -10    9.00    1.80
   6  14  10    7.50    1.10
   3   9 -11    8.40    1.70
  -3  -9  11   12.10    2.10
   2   9 -11   18.70    2.20
  -2  -9  11   15.70    2.10
  -1  -9  11   -1.00    0.90
  -6  -8  11   21.30    1.90
   5   8 -11   17.70    1.60
  -5  -8  11   18.20    1.90
   4   8 -11   40.30    2.10
  -4  -8  11   41.30    2.50
   3   8 -11    1.40    0.70
  -3  -8  11    0.50    0.80
   2   8 -11    6.90    1.10
  -2  -8  11    8.00    1.30
   1   8 -11    9.70    1.30
  -1  -8  11   11.20    1.50
   0   8 -11    0.40    0.60
   0  -8  11    0.60    0.70
  -1   8 -11    4.90    1.10
   1  -8  11    6.20    1.10
  -2   8 -11    0.50    1.00
   2  -8  11    0.70    0.70
  -7  -7  11    1.00    0.80
   6   7 -11    5.40    1.00
  -6  -7  11    4.00    1.00
   5   7 -11   55.29    2.40
  -5  -7  11   52.39    2.60
   4   7 -11    8.30    1.10
  -4  -7  11    6.80    1.20
   3   7 -11    6.70    1.00
  -3  -7  11    6.50    1.20
   2   7 -11    1.10    0.60
  -2  -7  11    1.80    0.80
   1   7 -11    6.00    1.10
  -1  -7  11    6.20    1.10
   0   7 -11   -0.20    0.50
   0  -7  11   -0.10    0.60
  -1   7 -11    0.10    0.50
   1  -7  11    0.80    0.60
  -2   7 -11    2.40    0.80
   2  -7  11    0.80    0.70
  -3   7 -11    0.60    0.60
   3  -7  11    1.20    0.80
   7   6 -11    2.10    0.80
   6   6 -11    9.90    1.20
  -6  -6  11    8.70    1.20
   5   6 -11   24.30    1.60
  -5  -6  11   23.20    1.70
   4   6 -11    0.60    0.60
  -4  -6  11    0.80    0.60
   3   6 -11   13.40    1.20
  -3  -6  11   12.20    1.40
   2   6 -11   66.49    2.50
  -2  -6  11   67.39    2.70
   1   6 -11   -0.30    0.40
  -1  -6  11    0.30    0.60
   0   6 -11   20.40    1.50
   0  -6  11   23.20    1.70
  -1   6 -11   23.60    1.60
   1  -6  11   21.80    1.60
  -2   6 -11   -0.10    0.40
   2  -6  11   -0.20    0.60
  -3   6 -11    8.30    1.20
   3  -6  11    9.70    1.30
  -4   6 -11    0.40    0.50
   4  -6  11    0.10    0.60
  -5   6 -11    0.70    0.60
   7   5 -11    7.00    1.10
   6   5 -11   42.90    2.10
  -6  -5  11   42.80    2.10
   5   5 -11   -0.10    0.50
  -5  -5  11    0.10    0.50
   4   5 -11   11.20    1.20
  -4  -5  11   12.40    1.40
   3   5 -11   64.89    2.40
  -3  -5  11   66.49    2.60
   2   5 -11    4.90    0.80
  -2  -5  11    5.00    0.90
   1   5 -11    5.90    0.90
  -1  -5  11    5.40    0.90
   0   5 -11    6.10    0.90
   0  -5  11    6.40    1.10
  -1   5 -11   13.60    1.20
   1  -5  11    9.80    1.20
  -2   5 -11    4.00    0.80
   2  -5  11    5.40    1.00
  -3   5 -11    3.60    0.80
   3  -5  11    2.70    0.80
  -4   5 -11    2.90    0.80
   4  -5  11    2.80    0.80
  -5   5 -11   -0.30    0.50
   5  -5  11    0.90    0.60
  -6   5 -11   10.80    1.30
   8   4 -11   18.70    1.70
   7   4 -11    3.80    0.90
   6   4 -11    0.20    0.50
   5   4 -11    0.80    0.60
  -5  -4  11   -0.10    0.50
   4   4 -11    0.30    0.50
  -4  -4  11   -0.60    0.40
   3   4 -11  153.18    3.80
  -3  -4  11  145.79    3.80
   2   4 -11   67.49    2.30
  -2  -4  11   67.09    2.50
   1   4 -11    1.70    0.60
  -1  -4  11    0.50    0.50
   0   4 -11   32.10    1.50
   0  -4  11   28.30    1.60
  -1   4 -11    0.50    0.50
   1  -4  11    0.50    0.50
  -2   4 -11    7.20    0.90
   2  -4  11    6.70    0.90
  -3   4 -11   52.89    2.10
   3  -4  11   54.89    2.20
  -4   4 -11    9.00    1.10
   4  -4  11    8.70    1.10
  -5   4 -11    1.20    0.60
   5  -4  11    2.20    0.70
  -6   4 -11   25.70    1.70
   8   3 -11    3.60    0.90
   7   3 -11   -0.30    0.50
   6   3 -11   58.09    2.40
   5   3 -11   22.10    1.40
  -5  -3  11   21.10    1.40
   4   3 -11   93.99    2.80
  -4  -3  11   88.39    2.80
   3   3 -11    3.80    0.70
  -3  -3  11    2.60    0.60
   2   3 -11   16.90    1.10
  -2  -3  11   14.70    1.20
   1   3 -11   53.59    1.90
  -1  -3  11   54.79    2.10
   0   3 -11   10.20    0.90
   0  -3  11   11.40    1.10
  -1   3 -11    2.10    0.60
   1  -3  11    2.70    0.60
  -2   3 -11   62.99    2.10
   2  -3  11   63.49    2.30
  -3   3 -11   24.00    1.40
   3  -3  11   24.50    1.50
  -4   3 -11    8.20    1.00
   4  -3  11    8.00    1.00
  -5   3 -11    3.00    0.70
   5  -3  11    2.70    0.70
  -6   3 -11    2.00    0.70
   6  -3  11    2.20    0.70
   8   2 -11    3.30    0.80
   7   2 -11    0.50    0.60
   6   2 -11   37.90    1.90
   5   2 -11    1.10    0.60
  -5  -2  11    1.20    0.50
   4   2 -11    2.90    0.70
  -4  -2  11    2.60    0.60
   3   2 -11  102.29    2.80
  -3  -2  11  101.09    2.80
   2   2 -11   12.30    1.00
  -2  -2  11   11.80    1.00
   1   2 -11   86.09    2.40
  -1  -2  11   87.79    2.60
   0   2 -11   44.50    1.60
   0  -2  11   44.70    1.80
  -1   2 -11    3.40    0.60
   1  -2  11    2.30    0.60
  -2   2 -11   74.89    2.20
   2  -2  11   73.69    2.40
  -3   2 -11    8.30    0.90
   3  -2  11    6.20    0.90
  -4   2 -11    0.20    0.40
   4  -2  11   -0.40    0.40
  -5   2 -11   79.69    2.40
   5  -2  11   78.09    2.60
   6  -2  11    0.40    0.50
   7  -2  11    0.80    0.60
   8   1 -11    0.70    0.70
   7   1 -11   77.29    2.90
   6   1 -11    2.70    0.70
   5   1 -11    3.70    0.70
   4   1 -11  101.59    2.90
  -4  -1  11   94.39    2.60
   3   1 -11    5.80    0.80
  -3  -1  11    6.50    0.80
   2   1 -11    7.00    0.80
  -2  -1  11    7.40    0.80
   1   1 -11  116.09    2.80
  -1  -1  11  115.09    2.90
   0   1 -11    4.00    0.60
   0  -1  11    5.40    0.70
  -1   1 -11    7.90    0.70
  -1   1 -11    6.60    0.80
  -2   1 -11   17.30    1.00
  -2   1 -11   15.30    1.10
  -3   1 -11    7.90    0.80
  -3   1 -11    7.10    0.90
  -4   1 -11   41.90    1.80
  -4   1 -11   40.90    1.50
   4  -1  11   40.80    1.90
  -5   1 -11   37.10    1.70
  -5   1 -11   37.00    1.50
   5  -1  11   38.00    1.80
  -6   1 -11    0.40    0.50
  -7   1 -11    6.20    0.90
   8   0 -11   46.50    2.50
   7   0 -11   13.40    1.40
   6   0 -11   54.99    2.30
   5   0 -11   12.10    1.10
  -5   0  11   12.10    1.00
   4   0 -11   78.89    2.50
  -4   0  11   78.39    2.20
  -4   0  11   74.79    2.80
   3   0 -11   29.40    1.40
  -3   0  11   29.70    1.30
  -3   0  11   30.70    1.20
   2   0 -11    2.90    0.60
  -2   0  11    2.70    0.40
  -2   0  11    2.60    0.50
   1   0 -11  204.48    4.00
  -1   0  11  203.28    3.50
  -1   0  11  207.38    4.10
   0   0 -11    2.20    0.40
   0   0 -11    2.50    0.50
   0   0  11    2.50    0.40
  -1   0 -11   21.80    1.20
  -1   0 -11   22.10    1.00
   1   0  11   23.50    0.90
  -2   0 -11  205.68    3.80
  -2   0 -11  210.98    4.30
   2   0  11  203.58    3.50
  -3   0 -11   15.80    0.90
  -3   0 -11   12.90    1.00
   3   0  11   15.60    0.80
  -4   0 -11   35.60    1.30
  -4   0 -11   36.40    1.60
   4   0  11   35.80    1.30
  -5   0 -11   39.40    1.70
   5   0  11   39.50    1.50
  -6   0 -11   15.10    1.20
   6   0  11   15.10    1.00
  -7   0 -11   19.00    1.30
   7   0  11   17.60    1.20
  -8   0 -11    2.70    0.70
   8   0  11    4.20    0.80
   9   0  11    0.60    0.50
  -8   1  11    3.80    1.00
   7  -1 -11   48.30    2.40
  -7   1  11   47.20    2.20
   6  -1 -11   -0.20    0.50
  -6   1  11    0.30    0.50
   5  -1 -11   67.39    2.40
  -5   1  11   66.79    2.30
   4  -1 -11   20.00    1.30
  -4   1  11   17.60    1.10
   3  -1 -11   19.80    1.20
  -3   1  11   18.40    1.00
  -3   1  11   20.80    1.10
   2  -1 -11   77.49    2.20
  -2   1  11   78.29    2.00
  -2   1  11   80.39    2.20
   1  -1 -11    0.70    0.30
   1  -1 -11    1.60    0.40
  -1   1  11    1.50    0.30
   0  -1 -11    1.70    0.40
   0  -1 -11    1.10    0.40
   0   1  11    2.10    0.40
  -1  -1 -11   22.40    1.20
  -1  -1 -11   23.40    1.00
   1   1  11   23.20    0.90
  -2  -1 -11  160.88    3.50
  -2  -1 -11  153.28    3.00
   2   1  11  156.28    3.00
  -3  -1 -11   54.39    1.90
  -3  -1 -11   51.59    1.50
   3   1  11   51.89    1.50
  -4  -1 -11  124.19    3.10
   4   1  11  124.79    2.70
  -5  -1 -11   83.49    2.50
   5   1  11   83.99    2.20
  -6  -1 -11    0.50    0.50
   6   1  11    0.70    0.40
  -7  -1 -11    1.00    0.50
   7   1  11   -0.10    0.40
  -8  -1 -11   10.70    1.10
   8   1  11   10.80    1.10
   9   1  11    9.60    1.10
  10   1  11   -0.20    0.50
  -8   2  11    4.20    1.30
   7  -2 -11   38.60    2.10
  -7   2  11   33.70    2.00
   6  -2 -11    0.20    0.60
  -6   2  11   -0.20    0.50
   5  -2 -11    1.70    0.60
  -5   2  11    2.90    0.70
   4  -2 -11   97.49    2.80
  -4   2  11   92.19    2.60
   3  -2 -11    3.50    0.60
  -3   2  11    4.80    0.70
   2  -2 -11   46.80    1.70
  -2   2  11   48.10    1.60
  -2   2  11   44.50    1.60
   1  -2 -11  373.66    6.20
   1  -2 -11  382.16    6.20
  -1   2  11  370.16    6.10
   0  -2 -11   12.40    0.70
   0  -2 -11   12.10    0.90
   0   2  11   11.60    0.70
  -1  -2 -11    0.30    0.30
  -1  -2 -11    0.30    0.20
   1   2  11    0.90    0.30
  -2  -2 -11   97.29    2.00
  -2  -2 -11   97.29    2.60
   2   2  11   96.39    2.20
  -3  -2 -11   16.00    0.80
  -3  -2 -11   17.00    1.10
   3   2  11   14.40    0.80
  -4  -2 -11   22.60    1.30
   4   2  11   21.10    1.00
  -5  -2 -11   -0.20    0.40
   5   2  11   -0.20    0.30
  -6  -2 -11   37.40    1.70
   6   2  11   38.60    1.50
  -7  -2 -11   63.49    2.30
   7   2  11   64.19    2.10
  -8  -2 -11    4.10    0.80
   8   2  11    3.40    0.70
  -9  -2 -11    0.40    0.50
   9   2  11    1.20    0.50
  10   2  11    3.70    0.80
   7  -3 -11    1.20    0.70
  -7   3  11    0.00    0.50
   6  -3 -11    9.70    1.20
  -6   3  11    8.10    1.10
   5  -3 -11  113.59    3.30
  -5   3  11  122.39    3.40
   4  -3 -11    6.00    0.90
  -4   3  11    4.90    0.80
   3  -3 -11    0.60    0.40
  -3   3  11    0.40    0.40
   2  -3 -11   72.89    2.10
   2  -3 -11   75.19    1.90
  -2   3  11   73.89    2.10
   1  -3 -11   24.70    1.10
   1  -3 -11   25.50    1.10
  -1   3  11   27.90    1.20
   0  -3 -11   35.10    1.20
   0  -3 -11   37.00    1.40
   0   3  11   37.50    1.30
  -1  -3 -11  101.09    2.50
  -1  -3 -11   94.39    2.10
   1   3  11  101.59    2.30
  -2  -3 -11  104.09    2.10
  -2  -3 -11  105.69    2.70
   2   3  11  105.19    2.40
  -3  -3 -11   33.80    1.50
   3   3  11   33.80    1.30
  -4  -3 -11   17.70    1.20
   4   3  11   20.40    1.00
  -5  -3 -11   89.09    2.60
   5   3  11   89.39    2.30
  -6  -3 -11    7.80    0.90
   6   3  11    7.00    0.80
  -7  -3 -11   77.29    2.60
   7   3  11   73.89    2.30
  -8  -3 -11    0.40    0.50
   8   3  11   -0.50    0.40
  -9  -3 -11    5.10    0.90
   9   3  11    4.70    0.80
  10   3  11    6.00    1.00
  -7   4  11   -0.10    0.60
   6  -4 -11    0.20    0.60
  -6   4  11    0.50    0.60
   5  -4 -11   42.50    2.00
  -5   4  11   40.10    2.00
   4  -4 -11   14.90    1.20
  -4   4  11   14.80    1.20
   3  -4 -11    0.80    0.50
  -3   4  11    0.50    0.40
   2  -4 -11   44.40    1.60
  -2   4  11   45.50    1.70
   1  -4 -11    1.40    0.40
   1  -4 -11    3.00    0.50
  -1   4  11    2.00    0.50
   0  -4 -11   23.00    1.10
   0  -4 -11   24.80    1.00
   0   4  11   24.20    1.10
  -1  -4 -11   96.29    2.10
  -1  -4 -11   97.99    2.50
   1   4  11   99.69    2.40
  -2  -4 -11    1.70    0.50
   2   4  11    2.30    0.50
  -3  -4 -11   42.80    1.70
   3   4  11   43.00    1.50
  -4  -4 -11    0.80    0.40
   4   4  11    0.40    0.30
  -5  -4 -11    1.00    0.50
   5   4  11    0.70    0.40
  -6  -4 -11  172.28    4.00
   6   4  11  166.38    3.60
  -7  -4 -11    7.40    1.00
   7   4  11    4.30    0.70
  -8  -4 -11    0.60    0.60
   8   4  11    0.60    0.50
  -9  -4 -11   11.70    1.20
   9   4  11   14.50    1.30
 -10  -4 -11    0.20    0.50
  10   4  11    0.10    0.50
   6  -5 -11   17.30    1.50
  -6   5  11   17.10    1.60
   5  -5 -11   19.00    1.50
  -5   5  11   15.30    1.40
   4  -5 -11    3.30    0.80
  -4   5  11    4.00    0.80
   3  -5 -11   34.10    1.60
  -3   5  11   35.30    1.70
   2  -5 -11    0.30    0.40
  -2   5  11    0.00    0.30
   1  -5 -11    8.10    0.70
   1  -5 -11    8.10    0.80
  -1   5  11    8.20    0.90
   0  -5 -11   40.90    1.50
   0  -5 -11   41.50    1.30
   0   5  11   39.90    1.50
  -1  -5 -11    6.50    0.70
  -1  -5 -11    4.80    0.60
   1   5  11    6.30    0.70
  -2  -5 -11    2.70    0.50
   2   5  11    3.70    0.50
  -3  -5 -11   18.40    1.10
   3   5  11   19.20    1.00
  -4  -5 -11    0.10    0.40
   4   5  11    0.70    0.40
  -5  -5 -11   34.40    1.60
   5   5  11   33.70    1.40
  -6  -5 -11   18.30    1.30
   6   5  11   18.50    1.10
  -7  -5 -11   23.10    1.50
   7   5  11   21.00    1.30
  -8  -5 -11   19.50    1.50
   8   5  11   21.30    1.40
  -9  -5 -11   -0.10    0.50
   9   5  11    0.00    0.40
 -10  -5 -11    0.90    0.60
  10   5  11    0.60    0.50
   5  -6 -11   47.40    2.20
  -5   6  11   43.80    2.20
   4  -6 -11   10.50    1.20
  -4   6  11    9.90    1.20
   3  -6 -11    5.20    0.80
  -3   6  11    4.30    0.80
   2  -6 -11  119.29    3.00
  -2   6  11  118.79    3.20
   1  -6 -11    3.50    0.60
  -1   6  11    3.10    0.60
   0  -6 -11   23.90    1.10
   0  -6 -11   24.20    1.10
   0   6  11   26.30    1.30
  -1  -6 -11    5.20    0.70
   1   6  11    5.70    0.70
  -2  -6 -11   18.60    1.10
   2   6  11   18.80    1.10
  -3  -6 -11  122.19    3.10
   3   6  11  128.99    3.00
  -4  -6 -11   22.80    1.30
   4   6  11   21.50    1.20
  -5  -6 -11    3.20    0.70
   5   6  11    2.30    0.50
  -6  -6 -11   27.30    1.50
   6   6  11   27.50    1.40
  -7  -6 -11    1.30    0.60
   7   6  11    1.70    0.50
  -8  -6 -11   62.99    2.40
   8   6  11   63.19    2.20
  -9  -6 -11    5.50    1.00
   9   6  11    4.20    0.80
 -10  -6 -11   19.60    1.60
  10   6  11   20.10    1.50
 -11  -6 -11   15.10    1.40
   5  -7 -11    0.70    0.70
  -5   7  11    0.70    0.70
   4  -7 -11    3.50    0.80
  -4   7  11    2.80    0.80
   3  -7 -11   48.20    2.00
  -3   7  11   44.00    2.10
   2  -7 -11    0.20    0.40
  -2   7  11   -0.20    0.40
   1  -7 -11   -0.30    0.40
  -1   7  11    0.30    0.40
   0  -7 -11    0.50    0.30
   0   7  11   -0.20    0.30
  -1  -7 -11    3.40    0.60
   1   7  11    3.40    0.60
  -2  -7 -11   32.60    1.50
   2   7  11   33.30    1.50
  -3  -7 -11    0.10    0.40
   3   7  11    0.50    0.40
  -4  -7 -11    0.30    0.40
   4   7  11    0.90    0.50
  -5  -7 -11   44.10    1.90
   5   7  11   43.80    1.70
  -6  -7 -11    2.30    0.70
   6   7  11    2.30    0.60
  -7  -7 -11    1.20    0.60
   7   7  11    1.60    0.50
  -8  -7 -11    6.30    1.00
   8   7  11    6.70    0.90
  -9  -7 -11   21.50    1.60
   9   7  11   21.70    1.40
 -10  -7 -11   43.30    2.20
  10   7  11   44.60    2.10
 -11  -7 -11   -0.50    0.50
   4  -8 -11    3.90    0.90
  -4   8  11    4.10    1.00
   3  -8 -11    1.80    0.70
  -3   8  11    0.50    0.50
   2  -8 -11   24.50    1.40
  -2   8  11   20.90    1.50
  -1   8  11    6.40    0.90
   0   8  11    1.90    0.50
  -1  -8 -11   10.40    0.90
   1   8  11    9.20    1.00
  -2  -8 -11   10.00    0.90
   2   8  11    9.40    0.90
  -3  -8 -11   47.60    1.90
   3   8  11   42.90    1.70
  -4  -8 -11    1.50    0.60
   4   8  11    1.10    0.50
  -5  -8 -11   22.30    1.40
   5   8  11   23.50    1.30
  -6  -8 -11    2.00    0.70
   6   8  11    4.10    0.70
  -7  -8 -11    0.90    0.60
   7   8  11    0.90    0.50
  -8  -8 -11   27.30    1.70
   8   8  11   28.70    1.60
  -9  -8 -11    3.00    0.80
   9   8  11    2.50    0.70
 -10  -8 -11   12.70    1.50
  10   8  11    8.50    1.10
 -11  -8 -11    3.40    0.90
   4  -9 -11   10.00    1.50
   3  -9 -11    0.90    0.90
  -3   9  11    0.90    0.70
  -2   9  11    3.00    0.80
  -1   9  11    0.20    0.50
   0   9  11    7.40    1.00
   1   9  11   16.50    1.20
  -2  -9 -11   27.90    1.50
   2   9  11   25.70    1.40
  -3  -9 -11    8.20    1.00
   3   9  11    7.50    0.90
  -4  -9 -11   14.60    1.30
   4   9  11   12.50    1.10
  -5  -9 -11   -0.10    0.50
   5   9  11    0.70    0.50
  -6  -9 -11    8.00    1.10
   6   9  11    5.40    0.80
  -7  -9 -11   11.40    1.30
   7   9  11   13.30    1.20
  -8  -9 -11    2.90    0.80
   8   9  11    3.50    0.80
  -9  -9 -11    0.30    0.50
   9   9  11    0.00    0.50
 -10  -9 -11    9.20    1.30
  10   9  11    9.40    1.20
  -2  10  11   16.50    1.50
  -1  10  11    3.40    0.80
   0  10  11   26.20    1.60
   1  10  11    0.60    0.50
  -2 -10 -11    4.50    0.80
   2  10  11    4.50    0.80
  -3 -10 -11   16.40    1.30
   3  10  11   14.00    1.20
  -4 -10 -11   61.09    2.30
   4  10  11   59.29    2.20
  -5 -10 -11   80.99    2.80
   5  10  11   76.19    2.50
  -6 -10 -11    3.40    0.80
   6  10  11    4.10    0.80
  -7 -10 -11   22.60    1.60
   7  10  11   16.10    1.30
  -8 -10 -11    0.90    0.70
   8  10  11    0.50    0.50
  -9 -10 -11   18.40    1.60
   9  10  11   15.50    1.40
 -10 -10 -11   59.09    2.70
  10  10  11   56.69    2.40
  -1  11  11   20.40    1.70
   0  11  11   39.10    2.10
   1  11  11    6.80    1.00
   2  11  11   10.50    1.20
  -3 -11 -11   43.40    2.00
   3  11  11   44.10    2.00
  -4 -11 -11   21.10    1.60
   4  11  11   19.60    1.40
  -5 -11 -11   36.90    2.00
   5  11  11   37.20    1.80
  -6 -11 -11    0.20    0.60
   6  11  11    0.70    0.50
  -7 -11 -11    7.50    1.20
   7  11  11    6.60    0.90
  -8 -11 -11   10.30    1.30
   8  11  11    9.60    1.20
  -9 -11 -11    7.90    1.20
   9  11  11   10.80    1.20
   0  12  11    0.50    0.80
   1  12  11    0.00    0.50
   2  12  11    2.20    0.70
   3  12  11    5.40    0.90
  -4 -12 -11   29.40    1.80
   4  12  11   29.10    1.70
  -5 -12 -11    7.10    1.10
   5  12  11    8.80    1.10
  -6 -12 -11   13.30    1.50
   6  12  11   13.80    1.30
  -7 -12 -11   20.90    1.70
   7  12  11   20.70    1.50
  -8 -12 -11    6.50    1.10
   8  12  11    6.10    1.00
   9  12  11    1.80    0.80
   2  13  11    0.60    0.70
   3  13  11    7.30    1.10
  -4 -13 -11    0.40    0.60
   4  13  11    1.00    0.60
  -5 -13 -11    4.20    0.90
   5  13  11    3.30    0.80
  -6 -13 -11    2.30    0.80
   6  13  11    2.20    0.70
  -7 -13 -11    0.60    0.70
   7  13  11    0.40    0.50
  -4  -8  12   37.40    3.30
   3   8 -12   18.70    1.60
  -3  -8  12   14.80    1.80
   2   8 -12   41.00    2.30
  -2  -8  12   40.30    2.40
   1   8 -12    0.20    0.60
  -1  -8  12    1.80    0.90
   0   8 -12    7.70    1.40
   0  -8  12    7.60    1.80
  -6  -7  12   -0.10    0.70
   5   7 -12    0.60    0.70
  -5  -7  12    1.50    0.80
   4   7 -12    5.10    1.00
  -4  -7  12    5.90    1.20
   3   7 -12   24.00    1.70
  -3  -7  12   24.30    1.90
   2   7 -12    1.90    0.80
  -2  -7  12    1.20    0.70
   1   7 -12    9.60    1.30
  -1  -7  12   11.90    1.50
   0   7 -12    0.60    0.60
   0  -7  12    0.80    0.70
  -1   7 -12   11.10    1.40
   1  -7  12   12.50    1.50
  -2   7 -12    0.00    0.60
   2  -7  12   -0.40    0.60
   3  -7  12    0.10    1.20
   6   6 -12   35.60    2.00
  -6  -6  12   33.20    2.00
   5   6 -12    8.00    1.20
  -5  -6  12    8.70    1.30
   4   6 -12   12.70    1.40
  -4  -6  12   14.40    1.60
   3   6 -12   44.40    2.10
  -3  -6  12   46.30    2.30
   2   6 -12    1.50    0.70
  -2  -6  12    3.00    0.90
   1   6 -12   25.60    1.70
  -1  -6  12   28.10    1.90
   0   6 -12   48.00    2.20
   0  -6  12   49.90    2.40
  -1   6 -12    8.60    1.20
   1  -6  12   10.80    1.40
  -2   6 -12   10.30    1.30
   2  -6  12    8.40    1.20
  -3   6 -12   26.40    1.80
   3  -6  12   21.40    1.70
  -4   6 -12    0.30    0.60
   4  -6  12    0.30    0.70
   6   5 -12    0.80    0.60
  -6  -5  12    1.20    0.70
   5   5 -12    9.10    1.20
  -5  -5  12    8.90    1.20
   4   5 -12   63.09    2.50
  -4  -5  12   58.19    2.50
   3   5 -12    9.70    1.20
  -3  -5  12    7.40    1.10
   2   5 -12    2.10    0.70
  -2  -5  12    1.10    0.60
   1   5 -12   65.19    2.40
  -1  -5  12   69.79    2.70
   0   5 -12   20.80    1.40
   0  -5  12   21.90    1.60
  -1   5 -12   -0.60    0.40
   1  -5  12    1.00    0.60
  -2   5 -12    4.20    0.90
   2  -5  12    3.10    0.80
  -3   5 -12   15.60    1.30
   3  -5  12   12.40    1.40
  -4   5 -12    7.40    1.10
   4  -5  12    5.10    1.00
  -5   5 -12   -0.60    0.50
   5  -5  12   -0.50    0.60
   7   4 -12    7.80    1.20
   6   4 -12   62.49    2.60
   5   4 -12    0.60    0.50
  -5  -4  12    0.40    0.50
   4   4 -12    1.80    0.70
  -4  -4  12    0.80    0.60
   3   4 -12   10.60    1.20
  -3  -4  12    9.30    1.20
   2   4 -12    1.40    0.60
  -2  -4  12    2.60    0.70
   1   4 -12  227.28    4.90
  -1  -4  12  230.78    5.20
   0   4 -12   52.99    2.10
   0  -4  12   53.99    2.30
  -1   4 -12   20.80    1.40
   1  -4  12   19.50    1.50
  -2   4 -12   26.00    1.50
   2  -4  12   25.80    1.70
  -3   4 -12    2.70    0.70
   3  -4  12    2.00    0.70
  -4   4 -12    0.20    0.50
   4  -4  12    1.00    0.60
  -5   4 -12   42.00    2.10
   5  -4  12   39.70    2.10
   7   3 -12   26.10    1.80
   6   3 -12    8.70    1.10
   5   3 -12    2.50    0.70
  -5  -3  12    3.70    0.80
   4   3 -12   78.49    2.70
  -4  -3  12   76.39    2.60
   3   3 -12    0.30    0.50
  -3  -3  12    0.60    0.50
   2   3 -12   53.59    2.00
  -2  -3  12   46.90    2.10
   1   3 -12    9.90    1.10
  -1  -3  12    8.50    1.10
   0   3 -12   40.00    1.70
   0  -3  12   44.80    2.00
  -1   3 -12   18.00    1.20
   1  -3  12   18.70    1.30
   2  -3  12   15.00    1.30
  -3   3 -12   15.80    1.20
   3  -3  12   15.80    1.30
  -4   3 -12   44.90    1.90
   4  -3  12   46.10    2.10
  -5   3 -12   10.40    1.10
   5  -3  12   12.00    1.30
   6  -3  12   28.70    1.80
   7   2 -12    5.80    1.00
   6   2 -12    1.00    0.60
   5   2 -12    1.00    0.60
   4   2 -12   62.39    2.30
  -4  -2  12   57.99    2.20
   3   2 -12    2.10    0.60
  -3  -2  12    2.90    0.70
   2   2 -12   16.90    1.20
  -2  -2  12   17.80    1.30
   1   2 -12  174.28    3.90
  -1  -2  12  169.68    4.00
   0   2 -12    6.10    0.80
   0  -2  12    4.00    0.80
  -1   2 -12   12.50    1.00
   1  -2  12   13.30    1.20
  -2   2 -12   68.59    2.10
   2  -2  12   60.69    2.30
  -3   2 -12   18.10    1.20
   3  -2  12   16.90    1.30
  -4   2 -12   34.20    1.60
   4  -2  12   31.50    1.70
   5  -2  12    0.90    0.50
   6  -2  12    1.80    0.70
   7  -2  12   18.10    1.40
   7   1 -12    0.80    0.70
   6   1 -12    0.50    0.60
   5   1 -12  156.48    4.00
   4   1 -12    7.10    0.90
  -4  -1  12    8.40    0.90
   3   1 -12    4.70    0.70
  -3  -1  12    4.60    0.70
   2   1 -12   72.89    2.30
  -2  -1  12   76.59    2.40
   1   1 -12    7.20    0.80
  -1  -1  12    6.80    0.90
   0   1 -12    2.00    0.50
   0  -1  12    1.40    0.50
  -1   1 -12   61.19    1.90
   1  -1  12   57.19    2.10
  -2   1 -12    8.20    1.00
  -2   1 -12    8.60    0.80
  -3   1 -12   24.60    1.40
  -3   1 -12   24.30    1.20
  -4   1 -12    3.20    0.70
  -4   1 -12    2.70    0.60
  -5   1 -12    0.60    0.50
  -6   1 -12    0.30    0.50
   7  -1  12   37.40    1.90
   7   0 -12    9.20    1.20
   6   0 -12   53.19    2.30
   5   0 -12    4.10    0.80
   4   0 -12   81.09    2.60
   3   0 -12    0.60    0.40
  -3   0  12    0.00    0.30
   2   0 -12  170.18    3.70
  -2   0  12  171.08    3.80
   1   0 -12   97.29    2.50
  -1   0  12  101.69    2.70
   0   0 -12    0.50    0.30
   0   0 -12    0.70    0.40
  -1   0 -12   77.09    2.40
  -1   0 -12   74.29    2.00
  -2   0 -12    2.60    0.60
  -2   0 -12    3.10    0.50
   2   0  12    2.40    0.40
  -3   0 -12   42.10    1.80
  -3   0 -12   41.50    1.50
   3   0  12   42.10    1.30
  -4   0 -12  114.79    3.10
   4   0  12  114.29    2.50
  -5   0 -12    3.60    0.80
   5   0  12    3.80    0.60
  -6   0 -12    9.70    1.10
   6   0  12    7.30    0.80
  -7   0 -12    7.40    1.00
   7   0  12    7.00    1.00
  -8   0 -12    4.20    0.90
   7  -1 -12    5.60    1.00
   6  -1 -12    5.60    0.90
   5  -1 -12   88.09    2.90
  -5   1  12   90.89    2.70
   4  -1 -12    0.80    0.60
  -4   1  12    0.50    0.40
   3  -1 -12   30.50    1.50
  -3   1  12   31.20    1.30
  -3   1  12   30.40    1.30
   2  -1 -12   16.90    1.10
  -2   1  12   15.50    0.90
  -2   1  12   16.20    1.00
   1  -1 -12   18.50    1.00
  -1   1  12   18.10    1.10
  -1   1  12   17.30    0.90
   0  -1 -12   30.30    1.20
   0  -1 -12   27.70    1.40
   0   1  12   28.80    1.10
  -1  -1 -12    1.60    0.40
  -1  -1 -12    1.30    0.50
   1   1  12    2.20    0.40
  -2  -1 -12    2.60    0.60
  -2  -1 -12    3.00    0.50
   2   1  12    2.70    0.40
  -3  -1 -12    0.90    0.30
  -3  -1 -12    0.30    0.40
   3   1  12    0.60    0.30
  -4  -1 -12   77.39    2.50
   4   1  12   77.79    2.00
  -5  -1 -12   11.90    1.10
   5   1  12   10.00    0.80
  -6  -1 -12    6.50    0.90
   6   1  12    5.90    0.70
  -7  -1 -12   58.89    2.30
   7   1  12   57.79    2.00
  -8  -1 -12   -0.40    0.50
   8   1  12    0.20    0.50
   9   1  12   -0.20    0.50
   7  -2 -12    3.00    0.90
  -7   2  12    1.60    0.70
   6  -2 -12    5.50    1.00
  -6   2  12    4.10    0.90
   5  -2 -12   30.70    1.70
  -5   2  12   32.80    1.70
   4  -2 -12    2.40    0.70
  -4   2  12    2.00    0.60
   3  -2 -12    1.10    0.50
  -3   2  12    1.50    0.50
   2  -2 -12  193.18    4.00
  -2   2  12  192.48    3.90
  -2   2  12  199.18    3.90
   1  -2 -12    1.90    0.50
   1  -2 -12    2.80    0.50
  -1   2  12    2.80    0.50
   0  -2 -12   32.50    1.30
   0  -2 -12   32.90    1.40
   0   2  12   33.00    1.20
  -1  -2 -12  239.48    4.70
  -1  -2 -12  247.58    4.30
   1   2  12  241.78    4.30
  -2  -2 -12    0.50    0.40
  -2  -2 -12    0.10    0.20
   2   2  12   -0.30    0.30
  -3  -2 -12    9.70    1.00
   3   2  12   10.40    0.80
  -4  -2 -12   87.09    2.60
   4   2  12   85.69    2.20
  -5  -2 -12   17.50    1.30
   5   2  12   17.60    1.00
  -6  -2 -12    1.50    0.60
   6   2  12    0.00    0.30
  -7  -2 -12    6.50    0.90
   7   2  12    6.00    0.80
  -8  -2 -12   26.90    1.60
   8   2  12   26.20    1.50
  -9  -2 -12   14.20    1.30
   9   2  12   12.80    1.30
  10   2  12    8.90    1.20
  -7   3  12    0.40    0.60
   6  -3 -12    6.30    1.00
  -6   3  12    8.70    1.20
   5  -3 -12    1.40    0.70
  -5   3  12    2.70    0.70
   4  -3 -12   16.90    1.30
  -4   3  12   16.20    1.20
   3  -3 -12   92.89    2.70
  -3   3  12   92.19    2.60
   2  -3 -12   13.10    1.00
  -2   3  12   14.30    0.90
  -2   3  12   15.10    1.00
   1  -3 -12    1.40    0.40
   1  -3 -12    0.90    0.40
  -1   3  12    0.90    0.40
   0  -3 -12   23.20    1.00
   0  -3 -12   22.70    1.20
   0   3  12   22.00    1.10
  -1  -3 -12   48.80    1.80
  -1  -3 -12   47.60    1.40
   1   3  12   50.29    1.60
  -2  -3 -12   24.10    1.30
   2   3  12   23.90    1.10
  -3  -3 -12   43.30    1.80
   3   3  12   46.90    1.60
  -4  -3 -12   70.89    2.30
   4   3  12   69.09    2.00
  -5  -3 -12   67.29    2.40
   5   3  12   69.69    2.10
  -6  -3 -12    6.10    0.90
   6   3  12    7.10    0.80
  -7  -3 -12   41.60    1.90
   7   3  12   37.60    1.60
  -8  -3 -12    1.40    0.70
   8   3  12    1.80    0.60
  -9  -3 -12   44.00    2.10
   9   3  12   41.30    1.90
  10   3  12    2.30    0.70
   6  -4 -12    6.40    1.10
  -6   4  12    6.60    1.10
   5  -4 -12   -0.10    0.50
  -5   4  12    0.00    0.50
   4  -4 -12    2.80    0.70
  -4   4  12    2.80    0.70
   3  -4 -12  105.29    2.90
  -3   4  12  107.19    3.00
   2  -4 -12   49.99    1.80
  -2   4  12   50.99    1.90
   1  -4 -12    6.50    0.70
   1  -4 -12    7.00    0.70
  -1   4  12    8.60    0.90
   0  -4 -12   36.80    1.50
   0  -4 -12   39.50    1.30
   0   4  12   39.60    1.50
  -1  -4 -12   -0.50    0.20
   1   4  12    0.30    0.30
  -2  -4 -12   64.09    2.10
   2   4  12   65.49    1.90
  -3  -4 -12  127.89    3.20
   3   4  12  131.79    3.00
  -4  -4 -12    2.70    0.60
   4   4  12    2.70    0.50
  -5  -4 -12   39.00    1.80
   5   4  12   35.20    1.50
  -6  -4 -12    2.90    0.70
   6   4  12    3.50    0.60
  -7  -4 -12    1.60    0.60
   7   4  12    2.20    0.60
  -8  -4 -12   84.79    2.90
   8   4  12   85.49    2.70
  -9  -4 -12    1.30    0.60
   9   4  12    2.70    0.70
 -10  -4 -12    4.30    0.90
  10   4  12    5.50    1.00
   6  -5 -12   22.70    1.90
  -6   5  12   18.20    2.90
   5  -5 -12    0.50    0.60
  -5   5  12   -0.30    0.50
   4  -5 -12   24.60    1.60
  -4   5  12   22.20    1.50
   3  -5 -12   10.90    1.10
  -3   5  12    9.80    1.10
   2  -5 -12    3.50    0.70
  -2   5  12    5.30    0.80
   1  -5 -12   49.60    1.70
  -1   5  12   51.49    1.80
   0  -5 -12    7.50    0.70
   0  -5 -12    8.80    0.80
   0   5  12    9.00    0.80
  -1  -5 -12   22.80    1.20
   1   5  12   20.20    1.10
  -2  -5 -12   20.00    1.20
   2   5  12   21.90    1.20
  -3  -5 -12   21.30    1.30
   3   5  12   22.50    1.20
  -4  -5 -12    1.40    0.50
   4   5  12    3.10    0.60
  -5  -5 -12    0.40    0.50
   5   5  12    0.90    0.40
  -6  -5 -12   35.40    1.80
   6   5  12   35.30    1.60
  -7  -5 -12    8.40    1.10
   7   5  12    8.90    1.00
  -8  -5 -12    8.40    1.10
   8   5  12    8.80    1.00
  -9  -5 -12   10.60    1.20
   9   5  12   10.70    1.20
 -10  -5 -12   16.60    1.50
  10   5  12   16.80    1.40
   5  -6 -12    6.80    1.10
  -5   6  12    8.80    1.30
   4  -6 -12    0.40    0.60
  -4   6  12    0.40    0.50
   3  -6 -12  106.09    3.10
  -3   6  12  105.39    3.20
   2  -6 -12    4.00    0.70
  -2   6  12    3.80    0.80
   1  -6 -12   16.70    1.10
  -1   6  12   20.20    1.30
   0  -6 -12  119.99    2.80
   0   6  12  126.29    3.10
  -1  -6 -12    5.60    0.70
   1   6  12    5.30    0.70
  -2  -6 -12   76.09    2.30
   2   6  12   78.49    2.30
  -3  -6 -12   19.40    1.20
   3   6  12   21.90    1.20
  -4  -6 -12    8.50    1.00
   4   6  12   11.90    1.00
  -5  -6 -12   98.49    2.90
   5   6  12   94.59    2.60
  -6  -6 -12    3.10    0.80
   6   6  12    3.40    0.60
  -7  -6 -12    1.80    0.70
   7   6  12   -0.30    0.40
  -8  -6 -12   12.50    1.30
   8   6  12   12.60    1.20
  -9  -6 -12    1.00    0.60
   9   6  12    0.80    0.60
 -10  -6 -12   23.20    1.70
  10   6  12   24.00    1.60
 -11  -6 -12    4.50    1.20
   5  -7 -12    0.60    0.90
   4  -7 -12   23.60    1.60
  -4   7  12   24.10    1.80
   3  -7 -12    6.30    0.90
  -3   7  12    5.90    1.00
   2  -7 -12    3.60    0.70
  -2   7  12    4.10    0.80
  -1   7  12   56.59    2.20
   0   7  12    2.30    0.60
  -1  -7 -12    0.60    0.40
   1   7  12    0.10    0.40
  -2  -7 -12    0.70    0.50
   2   7  12    0.50    0.40
  -3  -7 -12   12.30    1.10
   3   7  12   13.40    1.00
  -4  -7 -12   24.30    1.40
   4   7  12   22.60    1.30
  -5  -7 -12   10.50    1.10
   5   7  12   15.80    1.10
  -6  -7 -12   26.40    1.60
   6   7  12   25.00    1.40
  -7  -7 -12   14.60    1.40
   7   7  12   18.00    1.30
  -8  -7 -12    0.10    0.50
   8   7  12   -0.30    0.40
  -9  -7 -12    0.10    0.60
   9   7  12    0.80    0.60
 -10  -7 -12    1.20    0.70
  10   7  12    1.10    0.60
   4  -8 -12    1.30    0.70
   3  -8 -12   25.60    2.10
  -3   8  12   26.50    1.80
  -2   8  12    0.50    0.50
  -1   8  12   11.40    1.20
   0   8  12   16.00    1.30
  -1  -8 -12    5.70    0.80
   1   8  12    5.90    0.80
  -2  -8 -12   21.90    1.30
   2   8  12   21.20    1.30
  -3  -8 -12    3.30    0.70
   3   8  12    3.30    0.70
  -4  -8 -12   12.90    1.10
   4   8  12   12.10    1.00
  -5  -8 -12   51.79    2.20
   5   8  12   50.59    2.00
  -6  -8 -12   -0.20    0.50
   6   8  12    0.00    0.40
  -7  -8 -12    2.50    0.70
   7   8  12    3.80    0.70
  -8  -8 -12    0.90    0.70
   8   8  12    1.10    0.60
  -9  -8 -12    1.30    0.70
   9   8  12    2.00    0.70
 -10  -8 -12    7.10    1.20
  10   8  12    5.70    1.00
  -2   9  12   23.10    1.70
  -1   9  12    0.30    0.60
   0   9  12   11.70    1.20
   1   9  12    1.90    0.60
  -2  -9 -12   10.40    1.10
   2   9  12   12.00    1.10
  -3  -9 -12    4.70    0.80
   3   9  12    4.20    0.70
  -4  -9 -12   17.50    1.40
   4   9  12   19.40    1.30
  -5  -9 -12   23.10    1.50
   5   9  12   25.30    1.50
  -6  -9 -12    0.50    0.50
   6   9  12   -0.10    0.50
  -7  -9 -12    0.10    0.60
   7   9  12   -0.30    0.40
  -8  -9 -12    6.00    1.10
   8   9  12    4.70    0.80
  -9  -9 -12    3.70    0.90
   9   9  12    3.90    0.90
 -10  -9 -12    1.60    0.80
  10   9  12    0.70    0.60
  -1  10  12   27.20    1.80
   0  10  12   28.70    1.70
   1  10  12    9.10    1.10
  -2 -10 -12   68.99    3.00
   2  10  12   69.39    2.50
  -3 -10 -12    0.30    0.50
   3  10  12   -0.10    0.40
  -4 -10 -12    5.00    0.90
   4  10  12    3.90    0.80
  -5 -10 -12   10.80    1.30
   5  10  12    8.30    1.00
  -6 -10 -12   30.10    1.90
   6  10  12   26.60    1.60
  -7 -10 -12   45.90    2.30
   7  10  12   46.90    2.10
  -8 -10 -12    2.50    0.80
   8  10  12    1.90    0.70
  -9 -10 -12    2.50    0.90
   9  10  12    4.70    0.90
   0  11  12    8.90    1.30
   1  11  12   21.90    1.60
   2  11  12   50.59    2.20
  -3 -11 -12   11.90    1.30
   3  11  12   11.30    1.30
  -4 -11 -12    6.20    1.00
   4  11  12    6.70    1.00
  -5 -11 -12   11.40    1.30
   5  11  12   11.20    1.20
  -6 -11 -12    3.50    0.90
   6  11  12    2.40    0.70
  -7 -11 -12   27.80    1.90
   7  11  12   24.50    1.60
  -8 -11 -12    0.00    0.60
   8  11  12    1.10    0.60
  -9 -11 -12    4.50    1.00
   9  11  12    4.90    1.00
   1  12  12    2.50    0.90
   2  12  12   -0.50    0.50
   3  12  12    0.50    0.60
  -4 -12 -12    4.70    0.90
   4  12  12    4.40    0.90
  -5 -12 -12    1.80    0.80
   5  12  12    2.70    0.70
  -6 -12 -12    9.70    1.30
   6  12  12   14.90    1.50
  -7 -12 -12    4.80    1.00
   7  12  12    6.00    0.90
  -8 -12 -12    7.80    1.30
   8  12  12    9.90    1.20
   4  13  12   -0.10    0.60
  -5 -13 -12    0.90    0.60
   5  13  12    0.50    0.50
  -6 -13 -12    0.10    0.60
   6  13  12    0.10    0.60
  -4  -7  13    0.60    0.90
   3   7 -13   10.40    1.40
  -3  -7  13    9.70    1.50
   2   7 -13    0.60    0.60
  -2  -7  13   -0.40    0.60
   1   7 -13   20.50    1.60
  -1  -7  13   21.20    1.90
   0   7 -13   -0.20    0.60
   0  -7  13    0.40    0.70
  -1   7 -13   -0.40    0.60
  -6  -6  13    8.90    1.50
   5   6 -13   -0.40    0.50
  -5  -6  13   -0.60    0.50
   4   6 -13   20.60    1.60
  -4  -6  13   20.50    1.80
   3   6 -13    1.90    0.70
  -3  -6  13    0.80    0.70
   2   6 -13    5.50    1.00
  -2  -6  13    3.10    0.90
   1   6 -13   49.40    2.30
  -1  -6  13   49.70    2.50
   0   6 -13    2.20    0.80
   0  -6  13    3.70    0.90
  -1   6 -13    1.40    0.70
   1  -6  13    3.10    0.90
  -2   6 -13   14.90    1.50
   2  -6  13   17.80    1.80
  -3   6 -13    3.80    0.90
   3  -6  13    4.20    1.00
   5   5 -13   -0.10    0.50
  -5  -5  13   -0.20    0.60
   4   5 -13    2.10    0.70
  -4  -5  13    2.20    0.80
   3   5 -13    1.40    0.60
  -3  -5  13    0.00    0.60
   2   5 -13   19.50    1.50
  -2  -5  13   18.30    1.60
   1   5 -13    5.50    1.00
  -1  -5  13    5.30    1.00
   0   5 -13    1.00    0.60
   0  -5  13   -0.40    0.50
  -1   5 -13   16.00    1.40
   1  -5  13   19.40    1.70
  -2   5 -13   20.90    1.60
   2  -5  13   22.00    1.70
  -3   5 -13    2.60    0.70
   3  -5  13    2.70    0.80
  -4   5 -13    2.10    0.70
   4  -5  13    3.30    0.90
   6   4 -13    1.50    0.70
   5   4 -13   19.70    1.60
  -5  -4  13   17.70    1.50
   4   4 -13   50.59    2.20
  -4  -4  13   49.99    2.30
   3   4 -13    3.20    0.80
  -3  -4  13    1.80    0.70
   2   4 -13    0.00    0.50
  -2  -4  13    0.10    0.50
   1   4 -13   15.40    1.30
  -1  -4  13   17.80    1.50
   0   4 -13    2.60    0.70
   0  -4  13    3.10    0.90
  -1   4 -13   76.49    2.60
   1  -4  13   75.39    2.80
  -2   4 -13   22.30    1.50
   2  -4  13   21.20    1.70
  -3   4 -13    8.50    1.10
   3  -4  13    7.30    1.10
  -4   4 -13    5.60    1.00
   4  -4  13    7.50    1.10
   5  -4  13    0.70    0.60
   6   3 -13    1.10    0.60
   5   3 -13   29.20    1.80
   4   3 -13   11.00    1.20
  -4  -3  13    8.80    1.20
   3   3 -13    3.40    0.70
  -3  -3  13    4.60    0.90
   2   3 -13   32.50    1.70
  -2  -3  13   33.80    1.80
   1   3 -13    0.80    0.50
  -1  -3  13    0.70    0.60
   0   3 -13   12.50    1.10
   0  -3  13   13.40    1.40
  -1   3 -13    1.80    0.60
   1  -3  13    1.90    0.70
  -2   3 -13   34.40    1.70
   2  -3  13   34.00    1.90
  -3   3 -13    3.60    0.80
   3  -3  13    3.90    0.80
  -4   3 -13    3.10    0.70
   4  -3  13    4.70    1.00
   5  -3  13    2.90    0.80
   6  -3  13    7.00    1.10
   6   2 -13   15.70    1.40
   5   2 -13    0.20    0.50
   4   2 -13    2.30    0.70
  -4  -2  13    3.20    0.70
   3   2 -13    3.30    0.70
  -3  -2  13    1.10    0.60
   2   2 -13  108.39    3.00
  -2  -2  13  102.09    3.10
   1   2 -13   17.50    1.20
  -1  -2  13   17.40    1.30
   0   2 -13   12.20    1.00
   0  -2  13   12.80    1.30
  -1   2 -13   44.40    1.80
   1  -2  13   40.30    1.90
  -2   2 -13    0.00    0.40
   2  -2  13    0.10    0.50
  -3   2 -13   11.70    1.00
   3  -2  13   12.80    1.30
   4  -2  13   23.60    1.60
   5  -2  13   13.70    1.40
   6  -2  13   19.40    1.50
   7  -2  13    5.20    1.00
   6   1 -13    0.60    0.50
   5   1 -13    2.90    0.70
   4   1 -13    0.60    0.50
   3   1 -13   99.99    2.90
  -3  -1  13   96.69    2.90
   2   1 -13    1.30    0.50
  -2  -1  13    0.80    0.50
   1   1 -13    2.00    0.50
  -1  -1  13    2.70    0.70
   0   1 -13   26.10    1.30
   0  -1  13   22.80    1.40
  -1   1 -13   46.60    1.70
   1  -1  13   46.50    2.00
  -2   1 -13    8.70    0.90
   2  -1  13    7.90    1.00
  -3   1 -13   20.70    1.20
  -3   1 -13   19.50    1.40
  -4   1 -13   -1.30    0.40
  -5   1 -13    4.00    0.90
   6  -1  13   18.40    1.50
   7  -1  13    1.00    0.70
   6   0 -13   36.70    2.00
   5   0 -13    4.20    0.80
   4   0 -13   78.79    2.70
   3   0 -13   25.60    1.50
  -3   0  13   24.10    1.40
   2   0 -13  123.19    3.10
  -2   0  13  125.59    3.20
   1   0 -13    4.00    0.70
  -1   0  13    3.10    0.60
   0   0 -13  153.88    3.40
   0   0  13  156.88    3.80
  -1   0 -13   24.00    1.20
  -1   0 -13   23.80    1.40
  -2   0 -13    1.00    0.50
  -2   0 -13    0.10    0.30
  -3   0 -13   68.29    2.40
  -4   0 -13    0.50    0.50
  -5   0 -13   30.60    1.70
  -6   0 -13   57.89    2.40
  -7   0 -13   10.80    1.20
  -8   0 -13    4.80    0.90
   6  -1 -13    0.90    0.70
   5  -1 -13    6.30    1.00
   4  -1 -13    4.80    0.80
   3  -1 -13   53.59    2.10
   2  -1 -13    3.50    0.60
  -2   1  13    2.80    0.60
   1  -1 -13   36.80    1.50
  -1   1  13   36.20    1.60
  -1   1  13   38.00    1.40
   0  -1 -13    0.30    0.40
   0  -1 -13    1.20    0.50
   0   1  13    0.80    0.30
  -1  -1 -13   57.99    1.80
  -1  -1 -13   63.49    2.20
   1   1  13   60.19    1.60
  -2  -1 -13   16.60    1.20
  -2  -1 -13   16.20    0.90
   2   1  13   16.20    0.80
  -3  -1 -13    4.60    0.80
   3   1  13    5.90    0.60
  -4  -1 -13   -0.10    0.40
   4   1  13    0.60    0.30
  -5  -1 -13    0.80    0.60
   5   1  13    1.30    0.50
  -6  -1 -13  107.59    3.20
   6   1  13  103.99    2.70
  -7  -1 -13    0.80    0.60
   7   1  13    0.50    0.40
  -8  -1 -13    2.50    0.80
   8   1  13    1.30    0.70
   6  -2 -13    5.20    1.00
   5  -2 -13    0.10    0.50
  -5   2  13    0.40    0.50
   4  -2 -13    6.80    1.00
  -4   2  13    7.40    1.00
   3  -2 -13   86.49    2.60
  -3   2  13   86.59    2.50
   2  -2 -13   15.90    1.10
  -2   2  13   15.90    1.00
  -2   2  13   14.20    1.00
   1  -2 -13   13.80    1.00
   1  -2 -13   15.40    1.00
  -1   2  13   15.70    0.90
   0  -2 -13  182.98    3.70
   0  -2 -13  193.98    4.10
   0   2  13  184.58    3.60
  -1  -2 -13    7.40    0.70
  -1  -2 -13    8.60    0.90
   1   2  13    6.60    0.70
  -2  -2 -13   22.40    1.30
   2   2  13   23.30    1.10
  -3  -2 -13  218.58    4.70
   3   2  13  215.58    4.10
  -4  -2 -13    2.50    0.60
   4   2  13    3.10    0.50
  -5  -2 -13   13.00    1.20
   5   2  13   12.20    0.90
  -6  -2 -13   67.09    2.50
   6   2  13   68.99    2.20
  -7  -2 -13    3.60    0.80
   7   2  13    2.60    0.60
  -8  -2 -13    1.70    0.70
   8   2  13    1.40    0.60
  -9  -2 -13   11.80    1.30
   9   2  13   10.80    1.20
   6  -3 -13    7.00    1.10
  -6   3  13    7.10    1.10
   5  -3 -13   -0.20    0.50
  -5   3  13   -0.30    0.40
   4  -3 -13   11.10    1.20
  -4   3  13   10.30    1.10
   3  -3 -13    1.50    0.50
  -3   3  13    1.10    0.50
   2  -3 -13   11.60    1.00
  -2   3  13   10.90    1.00
   1  -3 -13  115.79    2.80
   1  -3 -13  116.39    2.90
  -1   3  13  116.99    2.80
   0  -3 -13   49.40    1.60
   0  -3 -13   54.29    1.90
   0   3  13   50.69    1.70
  -1  -3 -13   26.30    1.40
   1   3  13   26.40    1.20
  -2  -3 -13    8.60    0.90
   2   3  13    9.20    0.80
  -3  -3 -13   49.10    2.00
   3   3  13   51.49    1.70
  -4  -3 -13   28.50    1.60
   4   3  13   26.70    1.30
  -5  -3 -13   33.10    1.80
   5   3  13   34.90    1.50
  -6  -3 -13  121.39    3.40
   6   3  13  126.49    3.10
  -7  -3 -13   85.59    2.80
   7   3  13   80.59    2.50
  -8  -3 -13    4.20    0.90
   8   3  13    4.00    0.80
  -9  -3 -13   11.80    1.30
   9   3  13   12.50    1.20
  -6   4  13   27.10    2.00
   5  -4 -13    1.40    0.60
  -5   4  13    0.60    0.60
   4  -4 -13    8.90    1.10
  -4   4  13    8.80    1.10
   3  -4 -13    5.20    0.80
  -3   4  13    6.10    0.90
   2  -4 -13   16.20    1.10
  -2   4  13   15.00    1.10
   1  -4 -13  156.18    3.40
   1  -4 -13  165.98    3.50
  -1   4  13  165.48    3.60
   0  -4 -13   46.20    1.70
   0  -4 -13   48.80    1.80
   0   4  13   48.30    1.70
  -1  -4 -13   -0.40    0.30
   1   4  13   -0.10    0.30
  -2  -4 -13   45.80    1.80
   2   4  13   45.10    1.60
  -3  -4 -13    3.60    0.70
   3   4  13    3.20    0.60
  -4  -4 -13   30.20    1.60
   4   4  13   31.10    1.40
  -5  -4 -13   93.29    2.90
   5   4  13   90.09    2.50
  -6  -4 -13    2.00    0.70
   6   4  13    1.50    0.50
  -7  -4 -13    5.70    1.00
   7   4  13    5.80    0.90
  -8  -4 -13    0.60    0.60
   8   4  13    1.20    0.50
  -9  -4 -13    5.20    1.00
   9   4  13    6.60    1.00
 -10  -4 -13   12.10    1.40
  10   4  13   13.60    2.10
   5  -5 -13    2.90    0.80
  -5   5  13    5.20    1.00
   4  -5 -13   34.50    1.80
  -4   5  13   31.40    1.80
   3  -5 -13   11.40    1.20
  -3   5  13   11.20    1.20
   2  -5 -13   19.60    1.20
  -2   5  13   17.80    1.30
   1  -5 -13   15.80    1.00
  -1   5  13   14.80    1.10
   0  -5 -13   27.30    1.30
   0   5  13   29.20    1.40
  -1  -5 -13   20.30    1.20
   1   5  13   23.00    1.20
  -2  -5 -13    7.60    0.90
   2   5  13    7.00    0.80
  -3  -5 -13   37.10    1.70
   3   5  13   33.30    1.50
  -4  -5 -13   12.40    1.10
   4   5  13   13.60    1.00
  -5  -5 -13   21.00    1.50
   5   5  13   20.90    1.20
  -6  -5 -13   14.50    1.30
   6   5  13   13.60    1.10
  -7  -5 -13    1.30    0.70
   7   5  13    2.00    0.60
  -8  -5 -13   20.50    1.60
   8   5  13   21.30    1.40
  -9  -5 -13    0.30    0.60
   9   5  13   -0.10    0.50
 -10  -5 -13    1.40    0.70
  10   5  13    2.00    0.70
   5  -6 -13    0.60    0.60
   4  -6 -13   34.30    1.90
  -4   6  13   32.20    1.90
   3  -6 -13    3.70    0.80
  -3   6  13    3.00    0.70
   2  -6 -13    3.80    0.70
  -2   6  13    2.90    0.70
  -1   6  13  175.18    4.10
   0  -6 -13    7.90    0.80
   0   6  13    7.40    0.90
  -1  -6 -13    3.40    0.70
   1   6  13    1.90    0.50
  -2  -6 -13  150.38    3.60
   2   6  13  153.08    3.50
  -3  -6 -13    0.20    0.40
   3   6  13   -0.60    0.40
  -4  -6 -13   49.99    2.00
   4   6  13   49.80    1.90
  -5  -6 -13   27.10    1.60
   5   6  13   28.40    1.50
  -6  -6 -13    5.60    0.90
   6   6  13    5.90    0.80
  -7  -6 -13   32.30    1.80
   7   6  13   32.90    1.70
  -8  -6 -13    0.70    0.70
   8   6  13    1.00    0.60
  -9  -6 -13    8.80    1.20
   9   6  13    8.30    1.10
 -10  -6 -13   -0.50    0.60
  10   6  13    0.80    0.60
   4  -7 -13   11.30    1.30
  -4   7  13   11.60    1.50
  -3   7  13    0.60    0.60
  -2   7  13   29.90    1.70
  -1   7  13    8.10    1.00
   0   7  13   24.00    1.50
  -1  -7 -13   36.90    1.60
   1   7  13   40.50    1.80
  -2  -7 -13    3.00    0.60
   2   7  13    1.80    0.60
  -3  -7 -13    2.50    0.60
   3   7  13    2.90    0.60
  -4  -7 -13    0.20    0.50
   4   7  13    0.30    0.40
  -5  -7 -13   17.00    1.40
   5   7  13   16.80    1.20
  -6  -7 -13    0.30    0.60
   6   7  13    0.80    0.50
  -7  -7 -13   24.10    1.70
   7   7  13   23.50    1.50
  -8  -7 -13   16.80    1.50
   8   7  13   17.30    1.30
  -9  -7 -13    1.70    0.70
   9   7  13    2.70    0.70
 -10  -7 -13    0.30    0.70
  10   7  13   -0.20    0.50
  -3   8  13    0.20    0.60
  -2   8  13    6.70    1.10
  -1   8  13   57.29    2.40
   0   8  13    1.40    0.60
   1   8  13    4.60    0.80
  -2  -8 -13   37.40    1.70
   2   8  13   39.50    1.80
  -3  -8 -13   13.10    1.20
   3   8  13   10.70    1.10
  -4  -8 -13    9.90    1.10
   4   8  13   13.40    1.10
  -5  -8 -13    0.80    0.60
   5   8  13    0.10    0.40
  -6  -8 -13    6.20    1.00
   6   8  13    9.10    1.00
  -7  -8 -13   19.60    1.60
   7   8  13   20.10    1.40
  -8  -8 -13    0.10    0.60
   8   8  13    0.40    0.50
  -9  -8 -13    0.40    0.60
   9   8  13    0.20    0.60
 -10  -8 -13   -0.20    0.70
  -2   9  13    0.00    0.60
  -1   9  13    6.50    1.00
   0   9  13   11.70    1.30
   1   9  13    0.00    0.50
  -2  -9 -13   11.70    1.10
   2   9  13   12.50    1.20
  -3  -9 -13    0.30    0.50
   3   9  13    0.30    0.50
  -4  -9 -13    7.50    1.10
   4   9  13    7.90    1.00
  -5  -9 -13   -0.20    0.50
   5   9  13    0.60    0.50
  -6  -9 -13    0.20    0.60
   6   9  13    1.10    0.50
  -7  -9 -13   23.20    1.70
   7   9  13   21.70    1.50
  -8  -9 -13    0.60    0.70
   8   9  13    0.30    0.50
  -9  -9 -13    0.60    0.70
   9   9  13   -0.60    0.50
  -1  10  13    2.30    0.80
   0  10  13   10.20    1.30
   1  10  13   19.20    1.50
   2  10  13   23.80    1.60
  -3 -10 -13   15.30    1.30
   3  10  13   15.00    1.30
  -4 -10 -13   85.99    2.90
   4  10  13   84.99    2.80
  -5 -10 -13    3.80    0.80
   5  10  13    3.20    0.80
  -6 -10 -13   10.20    1.30
   6  10  13    8.40    1.10
  -7 -10 -13   17.30    1.60
   7  10  13   15.00    1.40
  -8 -10 -13   20.10    1.60
   8  10  13   20.60    1.60
  -9 -10 -13   10.30    1.40
   9  10  13   10.20    1.30
   1  11  13    9.00    1.20
   2  11  13    7.10    1.10
  -3 -11 -13   21.20    1.70
   3  11  13   20.80    1.60
  -4 -11 -13   41.70    2.10
   4  11  13   43.80    2.10
  -5 -11 -13   20.30    1.60
   5  11  13   16.60    1.50
  -6 -11 -13   -0.80    0.60
   6  11  13   -0.30    0.50
  -7 -11 -13    4.60    1.00
   7  11  13    4.10    0.90
  -8 -11 -13    0.20    0.70
   8  11  13    0.80    0.60
   2  12  13    0.40    1.10
   3  12  13    6.00    1.00
  -4 -12 -13    1.00    0.60
   4  12  13   -0.20    0.50
  -5 -12 -13    3.00    0.90
   5  12  13    4.80    0.90
  -6 -12 -13    2.70    0.90
   6  12  13    2.90    0.80
  -7 -12 -13    3.30    1.00
   7  12  13    5.00    1.00
  -5 -13 -13    0.80    0.70
   3   6 -14   -0.70    0.50
  -3  -6  14    0.70    0.80
   2   6 -14   26.00    1.80
  -2  -6  14   25.00    1.90
   1   6 -14    0.10    0.60
  -1  -6  14    1.00    0.70
   0   6 -14    1.80    0.70
   0  -6  14   -0.40    0.60
  -1   6 -14   23.60    1.70
  -5  -5  14    0.10    0.60
   4   5 -14   19.40    1.60
  -4  -5  14   19.10    1.70
   3   5 -14    1.50    0.70
  -3  -5  14    2.50    0.90
   2   5 -14    1.20    0.60
  -2  -5  14    1.90    0.80
   1   5 -14    0.00    0.50
  -1  -5  14    0.60    0.70
   0   5 -14    7.00    1.10
   0  -5  14    7.20    1.20
  -1   5 -14   27.50    1.80
   1  -5  14   24.90    1.90
  -2   5 -14    2.80    0.80
   2  -5  14    1.30    0.80
  -3   5 -14    8.60    1.20
   3  -5  14    6.70    1.30
   5   4 -14   76.79    2.90
   4   4 -14    2.80    0.80
  -4  -4  14    2.60    0.80
   3   4 -14    8.70    1.10
  -3  -4  14    8.80    1.30
   2   4 -14   80.59    2.80
  -2  -4  14   80.69    3.00
   1   4 -14    5.10    0.90
  -1  -4  14    4.40    1.00
   0   4 -14    1.10    0.50
   0  -4  14   -0.90    0.50
  -1   4 -14    1.40    0.70
   1  -4  14    1.00    0.70
  -2   4 -14    2.70    0.80
   2  -4  14    0.40    0.60
  -3   4 -14   53.09    2.30
   3  -4  14   51.59    2.40
   4  -4  14    3.20    0.90
   5   3 -14    1.30    0.60
   4   3 -14    1.40    0.70
  -4  -3  14    2.40    0.80
   3   3 -14    6.00    1.00
  -3  -3  14    7.50    1.10
   2   3 -14   33.60    1.80
  -2  -3  14   34.50    1.90
   1   3 -14    1.70    0.60
  -1  -3  14    1.40    0.70
   0   3 -14   15.90    1.30
   0  -3  14   14.90    1.40
  -1   3 -14   15.50    1.30
   1  -3  14   16.00    1.50
  -2   3 -14    0.70    0.50
   2  -3  14    0.50    0.60
  -3   3 -14    4.10    0.80
   3  -3  14    3.70    0.90
   4  -3  14   16.90    1.60
   5  -3  14   12.50    1.40
   6   2 -14    7.20    1.40
   5   2 -14   32.60    1.80
   4   2 -14    5.70    1.00
  -4  -2  14    5.60    1.00
   3   2 -14    3.80    0.80
  -3  -2  14    5.00    0.90
   2   2 -14    0.10    0.40
  -2  -2  14    0.50    0.50
   1   2 -14    7.10    1.00
  -1  -2  14    9.00    1.20
   0   2 -14  104.29    3.00
   0  -2  14  115.59    3.40
  -1   2 -14    0.90    0.50
   1  -2  14   -0.10    0.50
  -2   2 -14   -0.20    0.40
   2  -2  14    0.00    0.50
   3  -2  14   28.30    1.80
   4  -2  14    5.80    1.00
   5  -2  14    0.60    0.60
   6  -2  14   20.00    1.60
   6   1 -14    6.40    1.10
   5   1 -14    1.10    0.60
   4   1 -14    0.40    0.50
   3   1 -14   20.40    1.40
  -3  -1  14   21.40    1.40
   2   1 -14   14.40    1.20
  -2  -1  14   15.60    1.20
   1   1 -14   95.39    2.80
  -1  -1  14   98.49    3.00
   0   1 -14    2.30    0.60
   0  -1  14    1.60    0.60
   1  -1  14   42.60    2.00
  -2   1 -14    6.90    0.90
   2  -1  14    6.80    1.00
   3  -1  14   52.89    2.30
   4  -1  14    8.30    1.10
   5  -1  14   37.60    2.00
   6  -1  14    2.30    0.80
   7  -1  14   12.80    1.40
   6   0 -14   28.90    1.80
   5   0 -14   19.00    1.50
   4   0 -14   25.50    1.60
   3   0 -14   29.50    1.60
  -3   0  14   27.30    1.50
   2   0 -14   42.10    1.80
  -2   0  14   42.30    1.80
   1   0 -14   36.10    1.60
  -1   0  14   36.10    1.80
   0   0 -14  120.79    3.00
   0   0  14  117.19    3.30
  -1   0 -14    4.80    0.70
   1   0  14    5.10    0.90
  -2   0 -14   66.79    2.40
  -3   0 -14   23.00    1.50
  -4   0 -14    6.40    1.00
  -5   0 -14   18.70    1.50
  -6   0 -14    0.00    0.50
  -7   0 -14    7.80    1.10
   6  -1 -14    6.50    1.10
   5  -1 -14    9.50    1.20
   4  -1 -14    1.50    0.60
   3  -1 -14   22.70    1.40
   2  -1 -14    1.10    0.50
  -2   1  14    0.60    0.50
   1  -1 -14   51.69    1.90
  -1   1  14   55.79    2.10
   0  -1 -14   19.00    1.10
   0   1  14   19.30    1.30
  -1  -1 -14    0.10    0.30
  -1  -1 -14    0.80    0.50
  -2  -1 -14    3.10    0.70
  -3  -1 -14   60.59    2.30
  -4  -1 -14   13.80    1.30
  -5  -1 -14    0.50    0.50
  -6  -1 -14    6.20    1.00
  -7  -1 -14    1.10    0.70
  -8  -1 -14   33.50    1.90
   5  -2 -14    1.70    0.70
   4  -2 -14    2.10    0.70
   3  -2 -14   10.50    1.10
   2  -2 -14    0.00    0.40
  -2   2  14   -0.20    0.30
  -2   2  14    0.10    0.40
   1  -2 -14  114.69    2.90
  -1   2  14  112.49    3.00
  -1   2  14  113.49    2.70
   0  -2 -14   19.10    1.20
   0  -2 -14   18.00    1.00
   0   2  14   18.00    1.00
  -1  -2 -14    0.60    0.40
   1   2  14    0.40    0.30
  -2  -2 -14  103.29    3.00
   2   2  14  100.69    2.40
  -3  -2 -14    3.10    0.80
   3   2  14    2.50    0.50
  -4  -2 -14    1.20    0.60
   4   2  14    0.90    0.40
  -5  -2 -14   91.39    3.00
   5   2  14   93.99    2.50
  -6  -2 -14    0.60    0.60
   6   2  14    1.20    0.50
  -7  -2 -14    1.90    0.70
   7   2  14    2.00    0.60
  -8  -2 -14   44.00    2.20
   8   2  14   46.60    2.00
  -9  -2 -14    1.60    0.80
   5  -3 -14    1.20    0.60
  -5   3  14    0.10    0.50
   4  -3 -14    6.30    1.00
  -4   3  14    8.50    1.10
   3  -3 -14    6.40    0.90
  -3   3  14    7.40    1.00
   2  -3 -14    0.00    0.40
  -2   3  14    0.80    0.40
   1  -3 -14    0.00    0.30
   1  -3 -14    0.80    0.40
  -1   3  14    0.30    0.40
   0  -3 -14    1.40    0.50
   0   3  14    1.40    0.40
  -1  -3 -14   28.70    1.50
   1   3  14   31.70    1.30
  -2  -3 -14   68.39    2.40
   2   3  14   69.79    2.00
  -3  -3 -14   34.20    1.70
   3   3  14   31.50    1.40
  -4  -3 -14    5.50    0.90
   4   3  14    5.50    0.70
  -5  -3 -14   13.00    1.30
   5   3  14   16.10    1.10
  -6  -3 -14    4.30    0.90
   6   3  14    3.80    0.70
  -7  -3 -14    7.30    1.10
   7   3  14    5.20    0.80
  -8  -3 -14   51.59    2.30
   8   3  14   51.69    2.10
  -9  -3 -14   61.89    2.60
   9   3  14   65.09    2.40
   5  -4 -14    1.70    0.70
  -5   4  14    2.10    0.70
   4  -4 -14   42.30    2.00
  -4   4  14   37.40    1.90
   3  -4 -14    3.70    0.70
  -3   4  14    2.80    0.70
   2  -4 -14    2.80    0.60
  -2   4  14    3.10    0.60
   1  -4 -14   11.50    1.60
   1  -4 -14   13.50    1.20
  -1   4  14   15.70    1.10
   0  -4 -14   17.10    1.10
   0   4  14   18.60    1.10
  -1  -4 -14   75.19    2.40
   1   4  14   73.69    2.20
  -2  -4 -14   21.20    1.40
   2   4  14   22.30    1.20
  -3  -4 -14    1.00    0.60
   3   4  14    1.20    0.40
  -4  -4 -14   15.30    1.30
   4   4  14   15.60    1.10
  -5  -4 -14    0.20    0.50
   5   4  14    0.50    0.40
  -6  -4 -14   23.60    1.60
   6   4  14   25.90    1.40
  -7  -4 -14   38.60    2.00
   7   4  14   34.70    1.70
  -8  -4 -14    0.10    0.60
   8   4  14    1.10    0.60
  -9  -4 -14    1.40    0.70
   9   4  14    1.20    0.60
   5  -5 -14    0.70    1.00
   4  -5 -14    6.00    1.00
  -4   5  14    5.80    1.00
   3  -5 -14    1.40    0.60
  -3   5  14    0.60    0.50
  -2   5  14   26.30    1.50
  -1   5  14   14.00    1.10
   0  -5 -14    1.60    0.50
   0   5  14    1.80    0.50
  -1  -5 -14    1.20    0.50
   1   5  14    0.20    0.40
  -2  -5 -14   32.30    1.60
   2   5  14   34.80    1.50
  -3  -5 -14   17.70    1.30
   3   5  14   14.20    1.00
  -4  -5 -14    3.40    0.80
   4   5  14    3.10    0.60
  -5  -5 -14   15.60    1.40
   5   5  14   12.50    1.10
  -6  -5 -14   -0.10    0.50
   6   5  14    0.40    0.50
  -7  -5 -14   37.20    2.00
   7   5  14   38.70    1.80
  -8  -5 -14    5.80    1.10
   8   5  14    6.70    1.00
  -9  -5 -14    3.10    0.90
   9   5  14    4.30    0.90
   4  -6 -14    1.40    0.70
  -4   6  14    1.40    0.70
  -3   6  14    0.20    0.50
  -2   6  14   57.19    2.30
  -1   6  14    0.80    0.50
   0   6  14    4.70    0.80
  -1  -6 -14  125.09    3.20
   1   6  14  120.69    3.20
  -2  -6 -14   13.50    1.10
   2   6  14   11.80    1.10
  -3  -6 -14    2.40    0.60
   3   6  14    1.50    0.50
  -4  -6 -14   75.09    2.60
   4   6  14   70.19    2.30
  -5  -6 -14   -0.70    0.50
   5   6  14    0.60    0.50
  -6  -6 -14   43.50    2.10
   6   6  14   44.80    1.90
  -7  -6 -14   10.20    1.20
   7   6  14   10.30    1.10
  -8  -6 -14    2.50    0.80
   8   6  14    2.90    0.70
  -9  -6 -14    8.00    1.20
   9   6  14    8.70    1.10
  -3   7  14   11.40    1.30
  -2   7  14   14.80    1.40
  -1   7  14    1.90    0.60
   0   7  14   12.50    1.20
  -1  -7 -14   31.30    1.50
   1   7  14   31.70    1.60
  -2  -7 -14   27.80    1.50
   2   7  14   30.40    1.60
  -3  -7 -14   22.80    1.50
   3   7  14   22.40    1.40
  -4  -7 -14    0.80    0.60
   4   7  14    0.20    0.40
  -5  -7 -14    1.50    0.60
   5   7  14    0.80    0.50
  -6  -7 -14   10.40    1.30
   6   7  14   10.10    1.10
  -7  -7 -14   27.20    1.80
   7   7  14   28.00    1.60
  -8  -7 -14    1.20    0.70
   8   7  14   -0.20    0.50
  -9  -7 -14   19.60    1.70
   9   7  14   18.80    1.50
  -2   8  14   52.19    2.40
  -1   8  14   -0.10    0.50
   0   8  14    4.80    0.90
   1   8  14   31.00    1.70
  -2  -8 -14    1.10    0.60
   2   8  14    0.60    0.50
  -3  -8 -14    9.10    1.10
   3   8  14    7.20    1.00
  -4  -8 -14   19.30    1.40
   4   8  14   18.60    1.30
  -5  -8 -14   14.40    1.30
   5   8  14   15.70    1.20
  -6  -8 -14   13.40    1.40
   6   8  14   14.90    1.30
  -7  -8 -14    1.10    0.70
   7   8  14    2.40    0.70
  -8  -8 -14    3.30    0.90
   8   8  14    4.10    0.80
  -9  -8 -14    4.30    1.00
   9   8  14    4.30    0.90
  -1   9  14    8.20    1.20
   0   9  14    1.80    0.70
   1   9  14   15.40    1.30
  -2  -9 -14   14.00    1.30
   2   9  14   14.80    1.30
  -3  -9 -14    0.10    0.50
   3   9  14    0.30    0.50
  -4  -9 -14    5.90    1.00
   4   9  14    6.00    0.90
  -5  -9 -14    1.10    0.60
   5   9  14    0.10    0.50
  -6  -9 -14   25.10    1.80
   6   9  14   23.20    1.60
  -7  -9 -14    8.00    1.20
   7   9  14    6.40    1.00
  -8  -9 -14    2.20    0.80
   8   9  14    1.80    0.70
  -9  -9 -14   15.90    2.50
   0  10  14   20.10    1.70
   1  10  14    4.60    0.90
   2  10  14   13.80    1.40
  -3 -10 -14   17.60    1.40
   3  10  14   17.80    1.40
  -4 -10 -14   28.00    1.80
   4  10  14   30.70    1.80
  -5 -10 -14   25.20    1.70
   5  10  14   22.40    1.60
  -6 -10 -14  100.39    3.40
   6  10  14   95.29    3.10
  -7 -10 -14    1.50    0.80
   7  10  14    0.90    0.70
  -8 -10 -14   10.90    1.40
   8  10  14    7.90    1.10
   2  11  14    3.80    0.90
   3  11  14   12.30    1.40
  -4 -11 -14   10.70    1.20
   4  11  14   10.50    1.20
  -5 -11 -14   14.60    1.50
   5  11  14   16.00    1.60
  -6 -11 -14   57.49    2.60
   6  11  14   61.19    2.50
  -7 -11 -14   21.60    1.80
   7  11  14   23.10    1.70
  -5 -12 -14    9.00    1.20
  -6 -12 -14   -0.30    0.70
   2   5 -15   33.10    2.00
  -2  -5  15   36.90    2.60
   1   5 -15    1.10    0.70
  -1  -5  15    0.60    0.80
   0   5 -15    0.30    0.50
   0  -5  15   -0.70    1.00
  -1   5 -15    4.30    0.90
  -2   5 -15    0.40    0.60
   4   4 -15   -0.10    0.80
  -4  -4  15    0.60    0.60
   3   4 -15   74.09    2.80
  -3  -4  15   72.19    3.00
   2   4 -15    0.30    0.50
  -2  -4  15    0.60    0.60
   1   4 -15    6.10    1.00
  -1  -4  15    6.00    1.10
   0   4 -15   85.09    2.90
   0  -4  15   85.19    3.20
  -1   4 -15    2.40    0.80
   1  -4  15    1.40    0.80
  -2   4 -15    5.70    1.00
   2  -4  15    6.10    1.20
   4   3 -15    0.30    0.50
  -4  -3  15    0.60    0.70
   3   3 -15    3.80    0.90
  -3  -3  15    5.00    1.00
   2   3 -15   15.20    1.30
  -2  -3  15   16.30    1.50
   1   3 -15    6.50    1.00
  -1  -3  15    7.20    1.10
   0   3 -15   24.30    1.50
   0  -3  15   21.40    1.70
  -1   3 -15   19.90    1.40
   1  -3  15   22.70    1.70
  -2   3 -15    0.20    0.50
   2  -3  15    0.40    0.60
   3  -3  15   17.00    1.50
   4  -3  15   -0.80    0.50
   5   2 -15   14.20    1.80
   4   2 -15   -0.30    0.40
   3   2 -15   39.50    2.00
  -3  -2  15   38.00    2.00
   2   2 -15   19.30    1.40
  -2  -2  15   18.50    1.50
   1   2 -15    6.80    0.90
  -1  -2  15    4.10    0.90
   0   2 -15    0.60    0.50
   0  -2  15    1.00    0.60
  -1   2 -15    0.50    0.50
   1  -2  15    0.90    0.60
   2  -2  15   42.90    2.20
   3  -2  15    1.10    0.70
   4  -2  15    2.50    0.90
   5  -2  15    0.60    0.70
   5   1 -15    7.50    1.10
   4   1 -15    3.10    0.80
   3   1 -15    5.50    0.90
  -3  -1  15    5.10    0.90
   2   1 -15    5.70    0.90
  -2  -1  15    5.30    0.90
   1   1 -15   22.80    1.40
  -1  -1  15   21.20    1.50
   0   1 -15   20.90    1.30
   0  -1  15   19.80    1.50
  -1   1 -15   15.60    1.10
   1  -1  15   18.10    1.50
   2  -1  15   13.70    1.40
   3  -1  15   39.00    2.10
   4  -1  15    1.60    0.70
   5  -1  15   11.40    1.30
   6  -1  15    4.30    0.90
   5   0 -15    2.30    0.70
   4   0 -15    9.10    1.10
   3   0 -15   33.60    1.80
   2   0 -15   53.39    2.10
  -2   0  15   50.49    2.10
   1   0 -15   38.20    1.70
  -1   0  15   38.40    1.90
   0   0 -15   27.40    1.40
   0   0  15   27.90    1.60
   1   0  15   12.60    1.30
   2   0  15   38.00    2.00
  -3   0 -15    4.80    0.90
  -4   0 -15   15.30    1.40
  -5   0 -15    0.60    0.50
  -6   0 -15    5.00    1.00
   5  -1 -15    4.40    0.90
   4  -1 -15    2.40    0.70
   3  -1 -15   29.80    1.60
   2  -1 -15    0.30    0.40
  -2   1  15    0.20    0.40
   1  -1 -15   16.40    1.20
  -1   1  15   17.90    1.30
   0  -1 -15    3.40    0.70
   0   1  15    4.20    0.80
  -1  -1 -15    1.20    0.60
  -2  -1 -15   52.69    2.20
  -3  -1 -15    3.80    0.80
  -4  -1 -15    3.20    0.80
  -5  -1 -15   16.30    1.40
  -6  -1 -15    7.50    1.10
  -7  -1 -15   -0.20    0.50
   5  -2 -15    4.20    0.90
   4  -2 -15   36.40    1.90
   3  -2 -15   -0.50    0.40
   2  -2 -15   10.20    1.00
   1  -2 -15   20.20    1.20
  -1   2  15   21.50    1.40
   0  -2 -15    0.60    0.50
  -1  -2 -15   59.09    2.20
  -2  -2 -15    1.70    0.60
  -3  -2 -15   -0.60    0.40
  -4  -2 -15   37.10    1.90
  -5  -2 -15   18.50    1.50
  -6  -2 -15    1.40    0.70
  -7  -2 -15   30.40    1.90
  -8  -2 -15    2.00    0.80
   5  -3 -15   -0.10    0.70
   4  -3 -15   20.50    1.50
   3  -3 -15    4.30    0.80
   2  -3 -15    0.90    0.50
  -2   3  15    0.30    0.40
  -1   3  15    8.70    0.90
  -1   3  15    9.30    1.00
   0  -3 -15    1.30    0.50
   0   3  15    2.20    0.50
  -1  -3 -15   33.90    1.70
   1   3  15   36.70    1.50
  -2  -3 -15    1.90    0.60
   2   3  15    3.80    0.60
  -3  -3 -15   17.10    1.40
   3   3  15   16.00    1.00
  -4  -3 -15   55.59    2.30
   4   3  15   54.79    1.90
  -5  -3 -15    8.70    1.10
   5   3  15   10.20    0.90
  -6  -3 -15    1.30    0.70
   6   3  15    1.30    0.50
  -7  -3 -15   23.20    1.70
   7   3  15   21.50    1.40
  -8  -3 -15    5.80    1.10
   8   3  15    5.40    0.90
   4  -4 -15    0.10    0.50
  -4   4  15    0.00    0.50
   3  -4 -15   -0.50    0.40
  -3   4  15    0.20    0.40
  -2   4  15   78.29    2.50
  -1   4  15    5.90    0.80
   0  -4 -15    0.00    0.40
   0   4  15    1.00    0.40
  -1  -4 -15    4.30    0.80
   1   4  15    5.60    0.80
  -2  -4 -15    2.20    0.60
   2   4  15    2.60    0.60
  -3  -4 -15   48.30    2.10
   3   4  15   45.40    1.70
  -4  -4 -15    2.00    0.70
   4   4  15    2.60    0.60
  -5  -4 -15    3.20    0.80
   5   4  15    3.50    0.70
  -6  -4 -15   11.10    1.30
   6   4  15   14.20    1.10
  -7  -4 -15    1.10    0.60
   7   4  15    0.50    0.50
  -8  -4 -15    8.50    1.20
   8   4  15    6.90    1.00
   9   4  15   16.40    2.20
  -4   5  15    5.10    1.00
  -3   5  15    0.20    0.50
  -2   5  15   20.80    1.40
  -1   5  15    2.10    0.60
   0  -5 -15   14.90    1.10
   0   5  15   13.30    1.10
  -1  -5 -15   78.19    2.50
   1   5  15   81.99    2.50
  -2  -5 -15    2.50    0.70
   2   5  15    1.00    0.50
  -3  -5 -15    1.80    0.60
   3   5  15    1.80    0.50
  -4  -5 -15   31.70    1.80
   4   5  15   29.80    1.50
  -5  -5 -15   24.80    1.60
   5   5  15   26.30    1.40
  -6  -5 -15    2.30    0.80
   6   5  15    1.10    0.60
  -7  -5 -15   25.50    1.80
   7   5  15   23.70    1.50
  -8  -5 -15    0.00    0.60
   8   5  15    0.30    0.50
   9   5  15   17.10    2.00
  -3   6  15    0.80    0.60
  -2   6  15    0.60    0.50
  -1   6  15    0.70    0.50
   0   6  15   74.59    2.50
  -1  -6 -15    4.80    0.80
   1   6  15    3.30    0.70
  -2  -6 -15    0.80    0.60
   2   6  15    1.20    0.50
  -3  -6 -15  114.59    3.30
   3   6  15  111.59    3.10
  -4  -6 -15   33.40    1.80
   4   6  15   31.60    1.60
  -5  -6 -15    3.20    0.80
   5   6  15    2.50    0.70
  -6  -6 -15   59.79    2.50
   6   6  15   59.29    2.20
  -7  -6 -15    0.50    0.60
   7   6  15   -0.30    0.50
  -8  -6 -15   15.10    1.60
   8   6  15   16.90    1.40
   9   6  15    4.40    1.20
  -2   7  15   31.50    1.90
  -1   7  15   15.50    1.40
   0   7  15    6.80    1.00
   1   7  15   18.00    1.30
  -2  -7 -15    4.20    0.80
   2   7  15    4.10    0.80
  -3  -7 -15   32.20    1.80
   3   7  15   33.40    1.70
  -4  -7 -15   30.50    1.80
   4   7  15   30.10    1.60
  -5  -7 -15   31.20    1.80
   5   7  15   33.00    1.70
  -6  -7 -15    1.70    0.80
   6   7  15    0.60    0.50
  -7  -7 -15    7.80    1.20
   7   7  15    9.30    1.10
  -8  -7 -15    5.10    1.00
   8   7  15    2.90    0.80
  -1   8  15    0.10    0.50
   0   8  15   64.59    2.50
   1   8  15    2.10    0.70
  -2  -8 -15    0.60    0.50
   2   8  15    0.50    0.50
  -3  -8 -15   29.00    1.70
   3   8  15   27.00    1.60
  -4  -8 -15    8.80    1.20
   4   8  15   10.50    1.20
  -5  -8 -15    1.60    0.70
   5   8  15    1.90    0.60
  -6  -8 -15   24.40    1.70
   6   8  15   24.80    1.50
  -7  -8 -15    6.60    1.10
   7   8  15    6.90    1.00
  -8  -8 -15    4.20    1.00
   8   8  15    7.00    1.10
   0   9  15    3.90    0.90
   1   9  15    0.20    0.60
   2   9  15    2.50    0.70
  -3  -9 -15   19.10    1.50
   3   9  15   17.40    1.40
  -4  -9 -15   13.40    1.40
   4   9  15   12.50    1.30
  -5  -9 -15    0.30    0.60
   5   9  15   -0.20    0.50
  -6  -9 -15   12.60    1.50
   6   9  15   10.50    1.20
  -7  -9 -15    0.90    0.70
   7   9  15   -0.10    0.50
  -8  -9 -15   10.50    1.90
   8   9  15    9.00    1.40
   1  10  15    4.90    1.10
   2  10  15   21.40    1.60
  -3 -10 -15    4.20    0.90
   3  10  15    5.30    0.90
  -4 -10 -15    2.50    0.80
   4  10  15    3.10    0.70
  -5 -10 -15    9.30    1.20
   5  10  15   10.30    1.20
  -6 -10 -15   19.00    1.70
   6  10  15   18.50    1.50
  -7 -10 -15   11.90    1.50
   7  10  15   13.40    1.60
  -4 -11 -15    3.50    0.90
   4  11  15    3.20    1.20
  -5 -11 -15    4.40    1.00
   5  11  15    6.10    1.60
  -6 -11 -15    1.80    0.90
   1   4 -16   43.00    2.10
   0   4 -16    0.10    0.60
  -1   4 -16    2.60    0.80
   3   3 -16   15.30    1.70
  -3  -3  16   11.70    1.40
   2   3 -16   -0.10    0.50
  -2  -3  16    0.40    0.60
   1   3 -16    0.50    0.60
  -1  -3  16    1.50    0.70
   0   3 -16    1.90    0.70
   0  -3  16    1.50    0.80
  -1   3 -16   -0.50    0.80
   1  -3  16    0.60    0.60
   2  -3  16   38.50    2.40
   3   2 -16    9.40    1.20
  -3  -2  16    9.80    1.30
   2   2 -16    0.60    0.60
  -2  -2  16    0.50    0.60
   1   2 -16   32.90    1.80
  -1  -2  16   34.90    2.00
   0   2 -16   15.60    1.30
   0  -2  16   19.50    1.60
   1  -2  16    1.50    0.70
   2  -2  16    3.00    0.90
   3  -2  16    0.50    0.70
   4  -2  16   21.70    3.00
   4   1 -16    3.80    0.90
   3   1 -16   20.20    1.50
   2   1 -16    0.50    0.50
  -2  -1  16    0.10    0.50
   1   1 -16    1.60    0.60
  -1  -1  16    2.70    0.80
   0   1 -16    0.60    0.60
   0  -1  16    0.90    0.60
   1  -1  16   57.49    2.50
   2  -1  16   57.29    2.60
   3  -1  16    6.80    1.10
   4  -1  16   16.90    1.60
   5  -1  16   12.10    1.90
   4   0 -16    7.10    1.00
   3   0 -16   10.60    1.20
   2   0 -16   20.80    1.40
  -2   0  16   21.20    1.50
   1   0 -16   24.50    1.50
  -1   0  16   24.70    1.60
   0   0  16   53.19    2.30
   1   0  16   34.40    1.90
   2   0  16   36.00    2.00
   3   0  16    6.30    1.10
   4   0  16   15.30    1.60
   5   0  16   25.40    1.80
   4  -1 -16   32.00    1.80
   3  -1 -16    0.60    0.50
   2  -1 -16    0.70    0.50
  -2   1  16    0.80    0.60
  -1   1  16   26.50    1.60
   0   1  16    0.60    0.50
   1   1  16   51.89    2.30
  -2  -1 -16   30.70    1.80
  -3  -1 -16    0.80    0.60
  -4  -1 -16   47.60    2.30
  -5  -1 -16    0.90    0.70
  -6  -1 -16    0.30    0.60
   4  -2 -16    3.60    0.80
   3  -2 -16    3.40    0.80
  -1   2  16   -0.30    0.40
   0   2  16   13.70    1.20
  -1  -2 -16   16.90    1.40
  -2  -2 -16    2.30    0.70
  -3  -2 -16   28.90    1.70
  -4  -2 -16    2.70    0.80
  -5  -2 -16   12.60    1.40
  -6  -2 -16   16.10    1.50
  -7  -2 -16    6.90    1.40
   4  -3 -16    0.10    0.50
  -1   3  16    1.80    1.00
   0  -3 -16    2.60    0.70
  -1  -3 -16   51.59    2.20
  -2  -3 -16   28.60    1.70
  -3  -3 -16   34.70    1.80
  -4  -3 -16    3.40    0.90
  -5  -3 -16   15.90    1.50
  -6  -3 -16   21.90    1.70
  -7  -3 -16   15.00    1.60
  -2   4  16    0.90    0.70
  -1   4  16   -0.40    0.40
   0  -4 -16   92.99    2.80
   0   4  16   93.19    2.70
  -1  -4 -16    5.40    0.90
   1   4  16    5.60    0.80
  -2  -4 -16    4.80    0.80
   2   4  16    5.30    0.80
  -3  -4 -16    2.80    0.80
   3   4  16    5.80    0.80
  -4  -4 -16   -0.50    0.50
   4   4  16   -0.20    0.40
  -5  -4 -16    1.40    0.70
   5   4  16    2.30    0.60
  -6  -4 -16    0.40    0.60
   6   4  16    0.30    0.40
  -7  -4 -16    2.20    0.80
   7   4  16    1.40    0.60
   8   4  16    1.60    0.60
  -3   5  16    0.40    0.60
  -2   5  16   20.10    1.40
  -1   5  16   -0.20    0.40
   0   5  16   20.40    1.30
  -1  -5 -16    6.00    0.90
   1   5  16    4.90    0.80
  -2  -5 -16    0.40    0.50
   2   5  16    0.40    0.40
  -3  -5 -16   83.19    2.80
   3   5  16   76.89    2.50
  -4  -5 -16    7.10    1.10
   4   5  16    4.50    0.80
  -5  -5 -16    0.50    0.60
   5   5  16   -0.20    0.40
  -6  -5 -16   18.10    1.50
   6   5  16   15.90    1.30
  -7  -5 -16    4.20    0.90
   7   5  16    5.00    0.90
   8   5  16    0.30    0.50
  -2   6  16    5.30    0.90
  -1   6  16    1.60    0.60
   0   6  16    1.40    0.60
  -1  -6 -16   -0.20    0.40
   1   6  16    0.30    0.50
  -2  -6 -16   36.20    1.80
   2   6  16   36.80    1.70
  -3  -6 -16    3.90    0.80
   3   6  16    3.00    0.70
  -4  -6 -16    1.30    0.70
   4   6  16    0.30    0.50
  -5  -6 -16   33.10    1.90
   5   6  16   37.70    1.80
  -6  -6 -16   20.60    1.60
   6   6  16   19.90    1.40
  -7  -6 -16    2.60    0.90
   7   6  16    3.30    0.80
   8   6  16   18.60    1.50
  -1   7  16    3.90    0.90
   0   7  16   45.90    2.10
   1   7  16    1.30    0.60
  -2  -7 -16    0.50    0.50
   2   7  16    0.80    0.50
  -3  -7 -16   25.90    1.70
   3   7  16   27.50    1.60
  -4  -7 -16    0.00    0.60
   4   7  16    0.10    0.50
  -5  -7 -16   15.30    1.40
   5   7  16   15.00    1.20
  -6  -7 -16   17.90    1.60
   6   7  16   20.60    1.50
  -7  -7 -16    5.40    1.10
   7   7  16    7.20    1.10
   8   7  16    0.80    0.70
   0   8  16    9.50    1.20
   1   8  16    0.40    0.60
  -2  -8 -16   38.40    2.30
   2   8  16   43.20    2.00
  -3  -8 -16    3.40    0.80
   3   8  16    1.80    0.70
  -4  -8 -16    0.80    0.70
   4   8  16    1.20    0.60
  -5  -8 -16    4.20    0.90
   5   8  16    4.30    0.80
  -6  -8 -16    4.70    1.00
   6   8  16    4.40    0.90
  -7  -8 -16    0.30    0.60
   7   8  16    0.20    0.50
   1   9  16    4.10    0.90
   2   9  16    9.00    1.20
  -3  -9 -16    0.40    0.60
   3   9  16   -0.40    0.40
  -4  -9 -16    7.60    1.10
   4   9  16    6.00    1.00
  -5  -9 -16    8.90    1.20
   5   9  16   11.60    1.30
  -6  -9 -16    7.20    1.20
   6   9  16    7.80    1.10
  -4 -10 -16    4.10    0.90
   4  10  16    6.70    1.20
  -5 -10 -16    6.90    1.20
   5  10  16    6.20    1.40
   2   2 -17   13.40    1.40
   1   2 -17    2.00    0.80
  -1  -2  17    2.40    0.90
   0  -2  17    1.10    0.90
   2   1 -17   19.10    1.40
  -2  -1  17   15.20    1.60
  -1  -1  17   17.40    1.50
   0  -1  17   10.90    1.40
   1  -1  17    1.40    0.70
   2  -1  17    9.20    1.30
   3   0 -17   29.40    1.70
  -2   0  17   10.90    1.30
  -1   0  17   21.70    1.60
   0   0  17    7.80    1.10
   1   0  17   18.30    1.60
   2   0  17   20.30    1.60
   3   0  17   21.00    1.70
   4   0  17   23.00    2.00
  -1   1  17    0.60    0.50
   0   1  17    4.90    1.00
   1   1  17   42.30    2.10
   2   1  17    5.80    1.00
  -4  -1 -17   24.00    1.80
  -5  -1 -17   -0.30    0.70
  -1   2  17    0.40    0.50
   0   2  17   40.10    2.00
   1   2  17   -0.30    0.40
  -2  -2 -17    2.70    0.80
  -3  -2 -17   11.90    1.40
  -4  -2 -17    1.80    0.70
  -5  -2 -17    1.00    0.70
   0   3  17   16.30    1.30
  -1  -3 -17    7.70    1.10
  -2  -3 -17    2.50    0.80
  -3  -3 -17   42.10    2.10
  -4  -3 -17   39.00    2.10
  -5  -3 -17   24.00    1.70
  -6  -3 -17   -0.70    0.60
   0  -4 -17   -0.20    0.60
  -1  -4 -17    0.50    0.50
  -2  -4 -17   60.89    2.50
  -3  -4 -17    2.50    0.70
  -4  -4 -17    5.50    1.00
  -5  -4 -17    3.50    0.90
  -6  -4 -17    2.60    0.80
  -1   5  17   -0.30    0.50
   0   5  17   13.30    1.30
  -1  -5 -17    3.50    0.80
   1   5  17    3.50    0.70
  -2  -5 -17   49.10    2.20
   2   5  17   48.20    1.90
  -3  -5 -17    2.50    0.80
   3   5  17    4.70    0.80
  -4  -5 -17   -0.30    0.50
   4   5  17    0.50    0.40
  -5  -5 -17   54.79    2.40
   5   5  17   49.10    2.00
  -6  -5 -17    0.80    0.70
   6   5  17    0.30    0.50
   7   5  17    2.00    0.70
  -1   6  17   29.90    1.70
   0   6  17    9.80    1.20
   1   6  17    2.40    0.70
  -2  -6 -17    0.30    0.50
   2   6  17    0.70    0.50
  -3  -6 -17    0.60    0.50
   3   6  17   -0.20    0.40
  -4  -6 -17   13.20    1.50
   4   6  17   13.20    1.20
  -5  -6 -17   24.80    1.80
   5   6  17   28.70    1.60
  -6  -6 -17    1.00    0.70
   6   6  17    2.40    0.70
   7   6  17   31.50    1.80
   0   7  17    1.20    0.60
   1   7  17   17.90    1.40
  -2  -7 -17   77.29    2.70
   2   7  17   72.49    2.60
  -3  -7 -17    0.20    0.60
   3   7  17    0.40    0.50
  -4  -7 -17    0.60    0.60
   4   7  17    0.30    0.50
  -5  -7 -17   17.00    1.60
   5   7  17   16.70    1.40
  -6  -7 -17    2.60    0.90
   6   7  17    1.00    0.60
   1   8  17    6.40    1.10
   2   8  17    8.70    1.10
  -3  -8 -17    0.70    0.60
   3   8  17    2.10    0.70
  -4  -8 -17   23.00    1.70
   4   8  17   21.50    1.50
  -5  -8 -17   16.00    1.50
   5   8  17   16.40    1.40
   6   8  17    1.30    0.80
  -4  -9 -17   12.60    1.40
  -5  -9 -17   -0.20    0.80
  -1   1  18    0.00    0.50
   0   1  18   22.60    1.70
   1   1  18    1.50    0.70
   2   1  18    0.90    0.70
   0   2  18   -0.10    0.50
   1   2  18    0.30    0.50
   2   2  18   24.00    1.70
  -3  -2 -18    0.90    0.70
   0   3  18    0.30    0.50
   1   3  18    0.60    0.50
  -2  -3 -18   30.70    1.90
  -3  -3 -18    3.80    0.90
  -4  -3 -18    0.40    0.70
  -1  -4 -18   14.30    1.40
  -2  -4 -18    1.10    0.70
  -3  -4 -18   -0.30    0.50
  -4  -4 -18   39.30    2.20
  -1  -5 -18    0.10    0.60
  -2  -5 -18   27.90    1.70
  -3  -5 -18    6.30    1.10
  -4  -5 -18   34.00    2.00
   0   6  18   10.80    1.40
   1   6  18   29.50    1.70
  -2  -6 -18    5.70    1.00
   2   6  18    6.40    1.00
  -3  -6 -18    1.30    0.70
   3   6  18    3.70    0.80
  -4  -6 -18    0.10    0.60
   4   6  18    0.30    0.50
   5   6  18    5.50    0.90
   2   7  18    6.90    1.10
  -3  -7 -18   14.30    1.40
   3   7  18   13.00    1.30
  -4  -7 -18   68.59    3.40
   4   7  18   64.69    2.50
   5   7  18   -0.50    0.70
  -3  -8 -18    4.00    1.10
   0   0   0    0.00    0.00

_computing_structure_solution     'SHELXT 2014/5 (Sheldrick, 2014)'
;
_shelx_hkl_checksum              86130
loop_
_space_group_symop_operation_xyz
'x, y, z'
'-x, -y, -z'
loop_
_atom_site_label
_atom_site_type_symbol
_atom_site_fract_x
_atom_site_fract_y
_atom_site_fract_z
_atom_site_U_iso_or_equiv
_atom_site_adp_type
_atom_site_occupancy
_atom_site_site_symmetry_order
_atom_site_calc_flag
_atom_site_refinement_flags_posn
_atom_site_refinement_flags_adp
_atom_site_refinement_flags_occupancy
_atom_site_disorder_assembly
_atom_site_disorder_group
S1 S 0.86888(5) 0.33610(5) 0.25914(3) 0.02237(11) Uani 1 1 d . . . . .
S2 S 0.51640(7) 0.24738(6) 1.03912(4) 0.03163(13) Uani 0.9607(12) 1 d D . P A 1
S2' S 0.8046(14) 0.3313(14) 0.9352(10) 0.03163(13) Uani 0.0393(12) 1 d D . P A
2
O1 O 0.73577(15) 0.68438(12) 0.54300(10) 0.0206(2) Uani 1 1 d . . . . .
O2 O 0.83165(15) 0.68049(13) 0.34357(10) 0.0236(2) Uani 1 1 d . . . . .
C1 C 0.79624(18) 0.33170(16) 0.41326(12) 0.0159(2) Uani 1 1 d . . . . .
C2 C 0.76154(19) 0.18707(16) 0.47172(13) 0.0165(3) Uani 1 1 d . . . . .
C3 C 0.8022(2) 0.07793(18) 0.38752(14) 0.0224(3) Uani 1 1 d . . . . .
H3A H 0.7897 -0.0268 0.4100 0.027 Uiso 1 1 calc R U . . .
C4 C 0.8600(2) 0.1419(2) 0.27292(15) 0.0256(3) Uani 1 1 d . . . . .
H4A H 0.8926 0.0861 0.2065 0.031 Uiso 1 1 calc R U . . .
C5 C 0.76664(18) 0.45074(16) 0.48152(12) 0.0149(2) Uani 1 1 d . . . . .
C6 C 0.78433(19) 0.61244(17) 0.44323(13) 0.0178(3) Uani 1 1 d . . . . .
C7 C 0.6849(2) 0.57622(17) 0.65060(13) 0.0184(3) Uani 1 1 d . . . . .
H7A H 0.5502 0.6320 0.6854 0.022 Uiso 1 1 calc R U . . .
H7B H 0.7750 0.5438 0.7140 0.022 Uiso 1 1 calc R U . . .
C8 C 0.70382(18) 0.42672(16) 0.60427(12) 0.0150(2) Uani 1 1 d . . . . .
C9 C 0.66077(19) 0.28617(16) 0.66466(12) 0.0159(2) Uani 1 1 d . . . . .
C10 C 0.68940(19) 0.16616(16) 0.59665(13) 0.0167(3) Uani 1 1 d . . . . .
C11 C 0.5679(2) 0.27109(18) 0.79165(13) 0.0192(3) Uani 1 1 d . . . . .
H11A H 0.4428 0.2655 0.8026 0.023 Uiso 1 1 d R U . . .
C12 C 0.6410(2) 0.2644(2) 0.89233(13) 0.0231(3) Uani 1 1 d D . . . .
C13 C 0.8392(3) 0.2647(3) 0.89695(16) 0.0323(4) Uani 0.9607(12) 1 d D . P A 1
H13A H 0.9106 0.2612 0.8158 0.048 Uiso 0.9607(12) 1 calc R U P A 1
H13B H 0.9114 0.1671 0.9556 0.048 Uiso 0.9607(12) 1 calc R U P A 1
H13C H 0.8241 0.3659 0.9224 0.048 Uiso 0.9607(12) 1 calc R U P A 1
C14 C 0.2938(3) 0.2383(3) 1.01226(17) 0.0374(4) Uani 0.9607(12) 1 d D . P A 1
H14A H 0.2123 0.2312 1.0896 0.056 Uiso 0.9607(12) 1 calc R U P A 1
H14B H 0.3240 0.1401 0.9778 0.056 Uiso 0.9607(12) 1 calc R U P A 1
H14C H 0.2239 0.3386 0.9548 0.056 Uiso 0.9607(12) 1 calc R U P A 1
C15 C 0.6420(2) 0.01460(18) 0.65321(15) 0.0245(3) Uani 1 1 d . . . . .
H15A H 0.6063 0.0110 0.7410 0.037 Uiso 1 1 calc R U . . .
H15B H 0.7560 -0.0855 0.6404 0.037 Uiso 1 1 calc R U . . .
H15D H 0.5329 0.0197 0.6150 0.037 Uiso 1 1 calc R U . . .
C13' C 0.450(2) 0.311(5) 0.971(3) 0.0323(4) Uani 0.0393(12) 1 d D . P A 2
H13D H 0.4735 0.3134 1.0528 0.048 Uiso 0.0393(12) 1 calc R U P A 2
H13G H 0.3613 0.4213 0.9343 0.048 Uiso 0.0393(12) 1 calc R U P A 2
H13E H 0.3927 0.2292 0.9777 0.048 Uiso 0.0393(12) 1 calc R U P A 2
C14' C 1.0374(10) 0.166(3) 0.916(4) 0.0374(4) Uani 0.0393(12) 1 d D . P A 2
H14D H 1.1389 0.1926 0.9384 0.056 Uiso 0.0393(12) 1 calc R U P A 2
H14E H 1.0349 0.0620 0.9693 0.056 Uiso 0.0393(12) 1 calc R U P A 2
H14F H 1.0650 0.1527 0.8309 0.056 Uiso 0.0393(12) 1 calc R U P A 2
loop_
_atom_site_aniso_label
_atom_site_aniso_U_11
_atom_site_aniso_U_22
_atom_site_aniso_U_33
_atom_site_aniso_U_23
_atom_site_aniso_U_13
_atom_site_aniso_U_12
S1 0.02072(18) 0.02732(19) 0.01683(17) -0.00597(13) 0.00037(12) -0.00680(14)
S2 0.0367(2) 0.0463(3) 0.01403(19) -0.00571(17) 0.00244(16) -0.0199(2)
S2' 0.0367(2) 0.0463(3) 0.01403(19) -0.00571(17) 0.00244(16) -0.0199(2)
O1 0.0221(5) 0.0177(5) 0.0247(5) -0.0043(4) -0.0019(4) -0.0104(4)
O2 0.0217(5) 0.0237(5) 0.0252(5) 0.0021(4) -0.0017(4) -0.0125(4)
C1 0.0127(5) 0.0178(6) 0.0157(6) -0.0028(5) -0.0026(4) -0.0040(5)
C2 0.0143(6) 0.0146(6) 0.0200(6) -0.0039(5) -0.0050(5) -0.0032(5)
C3 0.0194(6) 0.0197(6) 0.0288(7) -0.0100(6) -0.0070(5) -0.0032(5)
C4 0.0235(7) 0.0283(7) 0.0259(7) -0.0137(6) -0.0035(6) -0.0052(6)
C5 0.0120(5) 0.0150(6) 0.0170(6) -0.0013(4) -0.0028(4) -0.0048(4)
C6 0.0130(6) 0.0171(6) 0.0237(7) -0.0016(5) -0.0041(5) -0.0065(5)
C7 0.0185(6) 0.0187(6) 0.0204(6) -0.0054(5) -0.0028(5) -0.0080(5)
C8 0.0123(5) 0.0160(6) 0.0174(6) -0.0030(5) -0.0039(4) -0.0051(4)
C9 0.0143(6) 0.0170(6) 0.0158(6) -0.0003(5) -0.0040(4) -0.0058(5)
C10 0.0156(6) 0.0144(6) 0.0192(6) 0.0002(5) -0.0055(5) -0.0052(5)
C11 0.0193(6) 0.0219(6) 0.0161(6) 0.0003(5) -0.0015(5) -0.0102(5)
C12 0.0251(7) 0.0286(7) 0.0164(6) -0.0016(5) -0.0019(5) -0.0126(6)
C13 0.0276(8) 0.0533(12) 0.0195(8) 0.0023(8) -0.0082(6) -0.0218(8)
C14 0.0267(8) 0.0546(12) 0.0246(8) -0.0008(8) 0.0061(7) -0.0165(8)
C15 0.0284(7) 0.0170(6) 0.0287(7) 0.0010(5) -0.0054(6) -0.0113(6)
C13' 0.0276(8) 0.0533(12) 0.0195(8) 0.0023(8) -0.0082(6) -0.0218(8)
C14' 0.0267(8) 0.0546(12) 0.0246(8) -0.0008(8) 0.0061(7) -0.0165(8)
loop_
_atom_type_symbol
_atom_type_description
_atom_type_scat_dispersion_real
_atom_type_scat_dispersion_imag
_atom_type_scat_source
C C 0.0033 0.0016 'International Tables Vol C Tables 4.2.6.8 and 6.1.1.4'
H H 0.0000 0.0000 'International Tables Vol C Tables 4.2.6.8 and 6.1.1.4'
O O 0.0106 0.0060 'International Tables Vol C Tables 4.2.6.8 and 6.1.1.4'
S S 0.1246 0.1234 'International Tables Vol C Tables 4.2.6.8 and 6.1.1.4'
loop_
_geom_angle_atom_site_label_1
_geom_angle_atom_site_label_2
_geom_angle_atom_site_label_3
_geom_angle
C1 S1 C4 90.67(7)
C12 S2 C14 103.51(8)
C12 S2' C14' 103.7(2)
C6 O1 C7 110.69(10)
C5 C1 C2 118.95(12)
C5 C1 S1 128.76(11)
C2 C1 S1 112.28(10)
C1 C2 C10 120.37(12)
C1 C2 C3 111.14(12)
C10 C2 C3 128.46(13)
C4 C3 C2 112.36(13)
C4 C3 H3A 123.8
C2 C3 H3A 123.8
C3 C4 S1 113.52(11)
C3 C4 H4A 123.2
S1 C4 H4A 123.2
C8 C5 C1 120.43(12)
C8 C5 C6 109.44(12)
C1 C5 C6 130.09(13)
O2 C6 O1 122.03(13)
O2 C6 C5 129.99(14)
O1 C6 C5 107.98(12)
O1 C7 C8 104.41(11)
O1 C7 H7A 110.9
C8 C7 H7A 110.9
O1 C7 H7B 110.9
C8 C7 H7B 110.9
H7A C7 H7B 108.9
C5 C8 C9 122.08(12)
C5 C8 C7 107.45(11)
C9 C8 C7 130.41(12)
C10 C9 C8 117.86(12)
C10 C9 C11 119.66(12)
C8 C9 C11 122.14(12)
C9 C10 C2 120.22(12)
C9 C10 C15 121.28(13)
C2 C10 C15 118.50(12)
C12 C11 C9 127.03(13)
C12 C11 H11A 116.5
C9 C11 H11A 116.5
C11 C12 C13 125.47(14)
C11 C12 C13' 96.5(9)
C11 C12 S2' 139.2(4)
C13' C12 S2' 111.4(3)
C11 C12 S2 123.10(12)
C13 C12 S2 111.41(11)
C12 C13 H13A 109.5
C12 C13 H13B 109.5
H13A C13 H13B 109.5
C12 C13 H13C 109.5
H13A C13 H13C 109.5
H13B C13 H13C 109.5
S2 C14 H14A 109.5
S2 C14 H14B 109.5
H14A C14 H14B 109.5
S2 C14 H14C 109.5
H14A C14 H14C 109.5
H14B C14 H14C 109.5
C10 C15 H15A 109.5
C10 C15 H15B 109.5
H15A C15 H15B 109.5
C10 C15 H15D 109.5
H15A C15 H15D 109.5
H15B C15 H15D 109.5
C12 C13' H13D 109.5
C12 C13' H13G 109.5
H13D C13' H13G 109.5
C12 C13' H13E 109.5
H13D C13' H13E 109.5
H13G C13' H13E 109.5
S2' C14' H14D 109.5
S2' C14' H14E 109.5
H14D C14' H14E 109.5
S2' C14' H14F 109.5
H14D C14' H14F 109.5
H14E C14' H14F 109.5
loop_
_geom_bond_atom_site_label_1
_geom_bond_atom_site_label_2
_geom_bond_distance
S1 C1 1.7313(14)
S1 C4 1.7398(17)
S2 C12 1.7618(15)
S2 C14 1.800(2)
S2' C12 1.760(3)
S2' C14' 1.800(4)
O1 C6 1.3634(17)
O1 C7 1.4564(17)
O2 C6 1.2103(18)
C1 C5 1.3975(18)
C1 C2 1.4067(18)
C2 C10 1.4184(19)
C2 C3 1.4452(19)
C3 C4 1.355(2)
C3 H3A 0.9500
C4 H4A 0.9500
C5 C8 1.3803(18)
C5 C6 1.4620(18)
C7 C8 1.5076(18)
C7 H7A 0.9900
C7 H7B 0.9900
C8 C9 1.4102(18)
C9 C10 1.4047(19)
C9 C11 1.4832(18)
C10 C15 1.5063(19)
C11 C12 1.336(2)
C11 H11A 0.9500
C12 C13 1.508(2)
C12 C13' 1.509(4)
C13 H13A 0.9800
C13 H13B 0.9800
C13 H13C 0.9800
C14 H14A 0.9800
C14 H14B 0.9800
C14 H14C 0.9800
C15 H15A 0.9800
C15 H15B 0.9800
C15 H15D 0.9800
C13' H13D 0.9800
C13' H13G 0.9800
C13' H13E 0.9800
C14' H14D 0.9800
C14' H14E 0.9800
C14' H14F 0.9800
loop_
_geom_torsion_atom_site_label_1
_geom_torsion_atom_site_label_2
_geom_torsion_atom_site_label_3
_geom_torsion_atom_site_label_4
_geom_torsion
C4 S1 C1 C5 179.61(13)
C4 S1 C1 C2 -1.60(10)
C5 C1 C2 C10 2.77(19)
S1 C1 C2 C10 -176.15(10)
C5 C1 C2 C3 -179.24(12)
S1 C1 C2 C3 1.84(14)
C1 C2 C3 C4 -1.12(17)
C10 C2 C3 C4 176.66(13)
C2 C3 C4 S1 -0.09(17)
C1 S1 C4 C3 0.97(12)
C2 C1 C5 C8 -0.18(19)
S1 C1 C5 C8 178.54(10)
C2 C1 C5 C6 -177.42(13)
S1 C1 C5 C6 1.3(2)
C7 O1 C6 O2 179.98(12)
C7 O1 C6 C5 0.16(14)
C8 C5 C6 O2 -178.72(14)
C1 C5 C6 O2 -1.2(2)
C8 C5 C6 O1 1.08(15)
C1 C5 C6 O1 178.56(13)
C6 O1 C7 C8 -1.21(14)
C1 C5 C8 C9 -2.21(19)
C6 C5 C8 C9 175.55(11)
C1 C5 C8 C7 -179.58(11)
C6 C5 C8 C7 -1.82(14)
O1 C7 C8 C5 1.85(14)
O1 C7 C8 C9 -175.22(12)
C5 C8 C9 C10 1.92(19)
C7 C8 C9 C10 178.62(13)
C5 C8 C9 C11 -171.41(12)
C7 C8 C9 C11 5.3(2)
C8 C9 C10 C2 0.71(19)
C11 C9 C10 C2 174.21(12)
C8 C9 C10 C15 -178.35(12)
C11 C9 C10 C15 -4.85(19)
C1 C2 C10 C9 -3.05(19)
C3 C2 C10 C9 179.35(13)
C1 C2 C10 C15 176.04(12)
C3 C2 C10 C15 -1.6(2)
C10 C9 C11 C12 123.46(17)
C8 C9 C11 C12 -63.3(2)
C9 C11 C12 C13 -2.4(3)
C9 C11 C12 C13' 161.0(14)
C9 C11 C12 S2' 26.9(7)
C9 C11 C12 S2 179.68(11)
C14' S2' C12 C11 -87.3(15)
C14' S2' C12 C13' 143(2)
C14 S2 C12 C11 1.18(17)
C14 S2 C12 C13 -177.02(14)
