#------------------------------------------------------------------------------
#$Date: 2019-11-08 03:48:54 +0200 (Fri, 08 Nov 2019) $
#$Revision: 225190 $
#$URL: file:///home/coder/svn-repositories/cod/cif/7/15/67/7156762.cif $
#------------------------------------------------------------------------------
#
# This file is available in the Crystallography Open Database (COD),
# http://www.crystallography.net/
#
# All data on this site have been placed in the public domain by the
# contributors.
#
data_7156762
loop_
_publ_author_name
'Lvov, Andrey G.'
'Kavun, Alexey M.'
'Kachala, Vadim V.'
'Lyssenko, Konstantin A.'
'Shirinian, Valerii Z.'
_publ_section_title
;
 Photorearrangement of dihetarylethenes as a tool for the benzannulation
 of heterocycles.
;
_journal_issue                   20
_journal_name_full               'Organic &amp; biomolecular chemistry'
_journal_page_first              4990
_journal_page_last               5000
_journal_paper_doi               10.1039/c9ob00690g
_journal_volume                  17
_journal_year                    2019
_chemical_formula_moiety         'C12 H9 Cl O2 S2'
_chemical_formula_sum            'C12 H9 Cl O2 S2'
_chemical_formula_weight         284.76
_space_group_crystal_system      triclinic
_space_group_IT_number           2
_space_group_name_Hall           '-P 1'
_space_group_name_H-M_alt        'P -1'
_symmetry_space_group_name_Hall  '-P 1'
_symmetry_space_group_name_H-M   'P -1'
_atom_sites_solution_hydrogens   geom
_audit_creation_method           SHELXL-2014/6
_audit_update_record
;
2018-08-01 deposited with the CCDC.    2019-04-01 downloaded from the CCDC.
;
_cell_angle_alpha                72.745(2)
_cell_angle_beta                 86.410(3)
_cell_angle_gamma                77.000(2)
_cell_formula_units_Z            2
_cell_length_a                   7.2227(9)
_cell_length_b                   8.8688(11)
_cell_length_c                   9.7985(13)
_cell_measurement_reflns_used    896
_cell_measurement_temperature    120(2)
_cell_measurement_theta_max      25
_cell_measurement_theta_min      3
_cell_volume                     584.04(13)
_computing_cell_refinement       'Bruker SAINT'
_computing_data_collection       'Bruker APEX II'
_computing_data_reduction        'Bruker SAINT'
_computing_molecular_graphics    'Bruker SHELXTL'
_computing_publication_material  'Bruker SHELXTL'
_computing_structure_refinement  'SHELXL-97 (Sheldrick, 1997)'
_computing_structure_solution    'SHELXS-97 (Sheldrick, 1997)'
_diffrn_ambient_temperature      120(2)
_diffrn_measured_fraction_theta_full 1.000
_diffrn_measured_fraction_theta_max 0.903
_diffrn_measurement_device_type  'Bruker APEX II CCD area detector''
_diffrn_measurement_method       'omega scans'
_diffrn_radiation_type           MoK\a
_diffrn_radiation_wavelength     0.71073
_diffrn_reflns_av_R_equivalents  0.0281
_diffrn_reflns_av_unetI/netI     0.0443
_diffrn_reflns_Laue_measured_fraction_full 1.000
_diffrn_reflns_Laue_measured_fraction_max 0.903
_diffrn_reflns_limit_h_max       10
_diffrn_reflns_limit_h_min       -10
_diffrn_reflns_limit_k_max       13
_diffrn_reflns_limit_k_min       -13
_diffrn_reflns_limit_l_max       14
_diffrn_reflns_limit_l_min       -14
_diffrn_reflns_number            8655
_diffrn_reflns_point_group_measured_fraction_full 1.000
_diffrn_reflns_point_group_measured_fraction_max 0.903
_diffrn_reflns_theta_full        25.242
_diffrn_reflns_theta_max         33.646
_diffrn_reflns_theta_min         2.176
_exptl_absorpt_coefficient_mu    0.668
_exptl_absorpt_correction_type   multi-scan
_exptl_absorpt_process_details   SADABS
_exptl_crystal_colour            colorless
_exptl_crystal_density_diffrn    1.619
_exptl_crystal_description       plate
_exptl_crystal_F_000             292
_exptl_crystal_size_max          0.400
_exptl_crystal_size_mid          0.200
_exptl_crystal_size_min          0.200
_exptl_transmission_factor_max   0.878
_exptl_transmission_factor_min   0.776
_refine_diff_density_max         0.688
_refine_diff_density_min         -0.406
_refine_diff_density_rms         0.084
_refine_ls_extinction_method     none
_refine_ls_goodness_of_fit_ref   0.948
_refine_ls_hydrogen_treatment    constr
_refine_ls_matrix_type           full
_refine_ls_number_parameters     155
_refine_ls_number_reflns         4201
_refine_ls_number_restraints     0
_refine_ls_restrained_S_all      0.948
_refine_ls_R_factor_all          0.0539
_refine_ls_R_factor_gt           0.0422
_refine_ls_shift/su_max          0.001
_refine_ls_shift/su_mean         0.000
_refine_ls_structure_factor_coef Fsqd
_refine_ls_weighting_details
'w=1/[\s^2^(Fo^2^)+(0.1000P)^2^] where P=(Fo^2^+2Fc^2^)/3'
_refine_ls_weighting_scheme      calc
_refine_ls_wR_factor_gt          0.1267
_refine_ls_wR_factor_ref         0.1387
_reflns_Friedel_coverage         0.000
_reflns_number_gt                3496
_reflns_number_total             4201
_reflns_threshold_expression     I>2\s(I)
_cod_data_source_file            c9ob00690g2.cif
_cod_data_source_block           a_a
_cod_depositor_comments
'Adding full bibliography for 7156762--7156768.cif.'
_cod_database_code               7156762
_shelx_space_group_comment
;
The symmetry employed for this shelxl refinement is uniquely defined
by the following loop, which should always be used as a source of
symmetry information in preference to the above space-group names.
They are only intended as comments.
;
_shelx_estimated_absorpt_t_min   0.776
_shelx_estimated_absorpt_t_max   0.878
_shelxl_version_number           2014/6
_shelx_res_file
;
TITL a_a.res in P-1
REM Old TITL a in P-1

REM SHELXT solution in P-1
REM R1 0.077,  Rweak 0.004,  Alpha 0.027,  Orientation as input
REM Formula found by SHELXT:  C12 O2 S2 Cl

CELL  0.71073   7.2227   8.8688   9.7985   72.745   86.410   77.000
ZERR    2.000   0.0009   0.0011   0.0013    0.002    0.003    0.002
LATT  1
SFAC C H O S CL
UNIT 24 18 4 4 2
TEMP -153
L.S. 10
BOND $H
LIST 2

size 0.40 0.20 0.20
bond $h
acta
FMAP 2
PLAN 20
WGHT    0.100000
FVAR       0.56017
S1    4    0.839546    0.426812    0.712917    11.00000    0.01518    0.01275 =
         0.01128   -0.00223   -0.00188   -0.00303
S2    4    0.557169    0.729675    0.073199    11.00000    0.02091    0.01968 =
         0.01192   -0.00327   -0.00407   -0.00296
CL1   5    0.929522    0.829637   -0.021238    11.00000    0.02842    0.03069 =
         0.01789   -0.00257    0.00117   -0.01057
O1    3    0.680536    0.966976    0.409151    11.00000    0.03076    0.00872 =
         0.01480   -0.00451    0.00014   -0.00430
O2    3    0.777146    0.833599    0.634956    11.00000    0.03029    0.01658 =
         0.01459   -0.00851   -0.00031   -0.00747
C1    1    0.763610    0.525449    0.540227    11.00000    0.01134    0.01048 =
         0.01083   -0.00319   -0.00065   -0.00252
C2    1    0.722028    0.691668    0.470000    11.00000    0.01471    0.00843 =
         0.01042   -0.00400    0.00035   -0.00271
C3    1    0.732416    0.829745    0.519558    11.00000    0.01813    0.01074 =
         0.01317   -0.00504    0.00187   -0.00377
C4    1    0.629390    0.928129    0.284669    11.00000    0.02494    0.00893 =
         0.01295   -0.00392   -0.00140   -0.00013
AFIX  23
H4A   2    0.710667    0.966401    0.202217    11.00000   -1.20000
H4B   2    0.494735    0.978107    0.257922    11.00000   -1.20000
AFIX   0
C5    1    0.661667    0.747396    0.330216    11.00000    0.01360    0.00865 =
         0.01124   -0.00354    0.00121   -0.00121
C6    1    0.640894    0.643288    0.252097    11.00000    0.01406    0.01145 =
         0.00981   -0.00309   -0.00081   -0.00207
C7    1    0.682571    0.475341    0.319404    11.00000    0.01231    0.01151 =
         0.01242   -0.00528    0.00040   -0.00367
C8    1    0.744384    0.417669    0.463382    11.00000    0.01074    0.00973 =
         0.01339   -0.00406    0.00021   -0.00221
C9    1    0.794400    0.252750    0.552174    11.00000    0.01436    0.00801 =
         0.01847   -0.00291   -0.00053   -0.00231
AFIX  43
H9A   2    0.791567    0.162030    0.520308    11.00000   -1.20000
AFIX   0
C10   1    0.845958    0.241098    0.686171    11.00000    0.01738    0.01060 =
         0.01808   -0.00053   -0.00231   -0.00255
AFIX  43
H10A  2    0.882055    0.141004    0.758326    11.00000   -1.20000
AFIX   0
C11   1    0.773794    0.696645   -0.023278    11.00000    0.03243    0.01989 =
         0.01288   -0.00544    0.00306   -0.00652
AFIX  23
H11A  2    0.742381    0.710510   -0.123787    11.00000   -1.20000
H11B  2    0.842994    0.583388    0.017752    11.00000   -1.20000
AFIX   0
C12   1    0.666071    0.354946    0.242926    11.00000    0.02452    0.01356 =
         0.01857   -0.00849   -0.00083   -0.00733
AFIX 137
H12A  2    0.606130    0.412236    0.149368    11.00000   -1.50000
H12B  2    0.588346    0.281363    0.299630    11.00000   -1.50000
H12C  2    0.792979    0.292739    0.229915    11.00000   -1.50000

AFIX   0
HKLF 4

REM  a_a.res in P-1
REM R1 =  0.0422 for    3496 Fo > 4sig(Fo)  and  0.0539 for all    4201 data
REM    155 parameters refined using      0 restraints

END

WGHT      0.0460      0.2432

REM Highest difference peak  0.688,  deepest hole -0.406,  1-sigma level  0.084
Q1    1   0.7493  0.6052  0.5007  11.00000  0.05    0.69
Q2    1   0.6774  0.5635  0.2809  11.00000  0.05    0.62
Q3    1   0.7406  0.4417  0.3827  11.00000  0.05    0.59
Q4    1   0.7452  0.4746  0.5024  11.00000  0.05    0.56
Q5    1   0.6882  0.7207  0.3960  11.00000  0.05    0.56
Q6    1   0.7736  0.3245  0.5178  11.00000  0.05    0.54
Q7    1   0.7813  0.4825  0.6237  11.00000  0.05    0.51
Q8    1   0.7032  0.7526  0.5001  11.00000  0.05    0.49
Q9    1   0.8445  0.3545  0.7442  11.00000  0.05    0.45
Q10   1   0.6111  0.6897  0.1566  11.00000  0.05    0.44
Q11   1   0.6697  0.4100  0.2884  11.00000  0.05    0.44
Q12   1   0.7016  0.9052  0.4559  11.00000  0.05    0.42
Q13   1   0.7454  0.7977  0.5938  11.00000  0.05    0.42
Q14   1   0.6765  0.7089  0.2841  11.00000  0.05    0.42
Q15   1   0.8466  0.1990  0.7184  11.00000  0.05    0.41
Q16   1   0.8546  0.2673  0.6057  11.00000  0.05    0.41
Q17   1   0.6365  0.8561  0.2843  11.00000  0.05    0.41
Q18   1   0.7857  0.6396 -0.0586  11.00000  0.05    0.38
Q19   1   1.0349  0.8447 -0.0252  11.00000  0.05    0.35
Q20   1   0.8652  0.8758 -0.0995  11.00000  0.05    0.34
;
_shelx_res_checksum              13141
_shelx_hkl_file
;
  -1   0   0   35.10    1.10
   1   0   0   34.10    1.00
  -2   0   0 1564.64   30.80
   2   0   0 1559.64   31.10
  -3   0   0    1.90    0.40
  -3   0   0    1.10    0.60
   3   0   0    1.40    0.30
  -4   0   0    1.50    0.80
  -4   0   0    2.10    0.70
   4   0   0    1.20    0.30
  -5   0   0    3.20    0.80
  -5   0   0    0.00    0.70
   5   0   0    0.90    0.40
  -6   0   0    0.80    0.50
  -6   0   0    2.80    1.20
   6   0   0    0.00    0.40
  -7   0   0    1.20    0.50
  -7   0   0   -0.70    1.00
   7   0   0    0.40    0.30
  -8   0   0   49.20    3.10
  -9   0   0   -0.30    0.90
   9   0   0    0.80    2.20
  10   0   0   76.49    7.10
  10  -1   0   16.70    3.30
   9  -1   0   -0.20    2.00
  -9   1   0   -0.20    1.00
   8  -1   0   41.20    4.50
  -8   1   0   48.70    3.20
   7  -1   0   48.90    4.60
  -7   1   0   54.09    3.30
   6  -1   0   52.69    4.10
   6  -1   0   48.00    2.00
  -6   1   0   51.49    2.90
   5  -1   0  199.28    5.00
   5  -1   0  192.48    8.10
  -5   1   0  208.58    6.50
   4  -1   0   68.69    2.10
  -4   1   0   69.99    3.00
   3  -1   0  417.26    8.90
   3  -1   0  438.46   12.40
  -3   1   0  444.46   10.20
   2  -1   0    6.50    0.40
   2  -1   0    8.70    1.20
  -2   1   0    5.90    0.80
   1  -1   0  551.64   10.90
   1  -1   0  571.14   13.80
  -1   1   0  573.44   11.00
  -1   1   0  554.04   11.70
   0  -1   0  304.17    6.00
   0  -1   0  261.17    6.00
   0   1   0  291.17    7.30
   0   1   0  298.87    6.00
  -1  -1   0  465.45    9.40
  -1  -1   0  475.35   11.70
   1   1   0  490.75    9.80
   1   1   0  471.65    9.30
  -2  -1   0 1244.08   30.20
  -2  -1   0 1242.78   24.70
   2   1   0 1284.07   25.20
  -3  -1   0    0.50    0.30
  -3  -1   0    0.10    0.40
   3   1   0    0.80    0.30
  -4  -1   0   59.99    3.50
  -4  -1   0   59.89    2.30
   4   1   0   58.79    2.30
  -5  -1   0  595.04   13.20
  -5  -1   0  585.34   17.50
   5   1   0  591.14   13.30
  -6  -1   0   36.50    2.00
  -6  -1   0   36.70    3.30
   6   1   0   35.80    2.00
  -7  -1   0   22.30    3.40
  -7  -1   0   24.90    1.80
   7   1   0   24.00    1.80
  -8  -1   0   25.50    4.00
  -8  -1   0   25.70    2.10
  -9  -1   0    6.40    2.60
  10   1   0   27.70    4.80
 -10   2   0    2.60    1.50
   9  -2   0   16.40    4.20
  -9   2   0   14.90    2.40
   8  -2   0   52.99    4.90
  -8   2   0   56.19    3.70
   7  -2   0   13.20    3.30
  -7   2   0   13.20    2.10
   6  -2   0  113.59    6.30
  -6   2   0  114.29    5.00
   5  -2   0   19.30    2.80
  -5   2   0   18.00    1.80
   4  -2   0    2.20    0.30
   4  -2   0    1.90    1.10
  -4   2   0    3.10    0.70
   3  -2   0   51.89    1.30
   3  -2   0   53.19    2.90
  -3   2   0   53.59    1.40
  -3   2   0   51.69    2.60
   2  -2   0    8.40    1.20
   2  -2   0    8.20    0.40
  -2   2   0    9.40    1.00
  -2   2   0    8.40    0.40
   1  -2   0  815.62   16.60
   1  -2   0  900.61   20.90
  -1   2   0  819.72   17.50
  -1   2   0  838.22   16.60
   0  -2   0  596.94   12.30
   0  -2   0  577.84   15.20
   0   2   0  622.24   12.40
  -1  -2   0  719.33   14.10
  -1  -2   0  734.93   17.70
   1   2   0  720.33   14.90
   1   2   0  708.33   14.20
  -2  -2   0  544.45   14.30
   2   2   0  540.15   10.60
   2   2   0  547.65   11.80
  -3  -2   0   23.00    0.90
  -3  -2   0   23.20    2.00
   3   2   0   24.90    1.50
  -4  -2   0  145.79    3.70
  -4  -2   0  147.69    6.20
   4   2   0  152.58    4.60
  -5  -2   0    1.50    1.10
  -5  -2   0    1.60    0.40
   5   2   0    0.90    0.50
  -6  -2   0   64.89    2.50
  -6  -2   0   58.19    4.40
   6   2   0   71.99    3.20
  -7  -2   0    0.50    0.80
  -7  -2   0   -0.60    0.40
   7   2   0   -0.30    0.30
  -8  -2   0   11.60    2.70
   8   2   0    8.70    1.40
  -9  -2   0   12.40    3.40
 -10  -2   0   25.00    4.40
 -10   3   0    2.90    1.70
   9  -3   0    3.40    2.70
  -9   3   0    2.40    1.40
   8  -3   0    6.90    2.00
  -8   3   0    3.80    1.40
   7  -3   0    5.40    2.20
  -7   3   0    5.00    1.40
   6  -3   0  192.48    8.60
  -6   3   0  198.78    7.30
   5  -3   0    2.40    1.30
  -5   3   0    5.40    1.40
   4  -3   0   14.80    2.20
  -4   3   0   16.60    1.60
   3  -3   0    2.70    1.00
  -3   3   0    1.00    0.60
   2  -3   0    0.60    0.80
   2  -3   0    0.20    0.20
  -2   3   0    2.10    0.30
  -2   3   0    0.90    0.50
   1  -3   0 1411.86   33.10
   1  -3   0 1314.57   26.80
  -1   3   0 1340.47   27.80
   0  -3   0   48.30    2.80
   0   3   0   51.09    2.00
  -1  -3   0  202.98    6.40
   1   3   0  197.88    5.20
   1   3   0  206.98    4.70
  -2  -3   0    1.50    0.70
   2   3   0    1.60    0.40
   2   3   0    1.40    0.10
   2   3   0    1.30    0.20
  -3  -3   0  173.68    6.50
   3   3   0  170.08    5.10
  -4  -3   0  127.49    3.00
  -4  -3   0  125.49    5.90
   4   3   0  132.39    4.50
  -5  -3   0   36.60    1.40
  -5  -3   0   38.70    3.40
   5   3   0   36.20    2.30
  -6  -3   0    6.00    0.70
  -6  -3   0    5.90    1.90
   6   3   0    3.80    1.00
  -7  -3   0  133.19    7.50
   7   3   0  131.79    5.10
  -8  -3   0   32.70    5.20
   8   3   0   30.20    2.40
  -9  -3   0   24.50    4.00
   9   3   0   24.60    2.30
 -10  -3   0   -1.80    1.00
   9  -4   0   69.49    6.30
  -9   4   0   57.89    4.50
   8  -4   0    2.20    1.50
  -8   4   0   -2.10    0.60
   7  -4   0   71.69    5.90
  -7   4   0   70.39    4.50
   6  -4   0   32.70    3.50
  -6   4   0   31.00    2.90
   5  -4   0   61.99    4.50
  -5   4   0   67.69    4.00
   4  -4   0   45.10    3.50
  -4   4   0   45.20    2.90
   3  -4   0   22.80    2.50
  -3   4   0   21.50    2.00
   2  -4   0   77.49    4.30
   1  -4   0   11.70    2.20
  -1   4   0    8.00    1.10
  -1   4   0    6.70    0.70
   0  -4   0   97.39    4.60
   0   4   0  104.49    3.20
   0   4   0  100.59    3.40
  -1  -4   0  862.81   21.80
   1   4   0  830.52   17.80
   1   4   0  814.32   17.20
  -2  -4   0   94.19    4.40
   2   4   0   95.39    2.40
   2   4   0   91.19    3.40
  -3  -4   0    1.40    0.70
   3   4   0    1.20    0.60
  -4  -4   0  229.88    8.80
   4   4   0  226.98    6.80
  -5  -4   0  188.28    8.30
   5   4   0  180.78    6.10
  -6  -4   0   89.49    5.80
   6   4   0   92.69    4.20
  -7  -4   0    2.60    1.60
   7   4   0    1.20    0.90
  -8  -4   0  139.39    8.50
   8   4   0  145.89    5.90
  -9  -4   0    6.30    2.40
   9   4   0    9.40    1.90
 -10  -4   0    2.10    1.90
   8  -5   0   23.70    5.30
  -8   5   0   14.40    2.60
   7  -5   0   -1.60    2.10
  -7   5   0    0.60    0.90
   6  -5   0   -1.70    0.80
  -6   5   0    1.30    1.10
   5  -5   0    0.30    1.60
  -5   5   0    1.90    1.30
   4  -5   0   14.20    2.70
  -4   5   0   15.60    2.20
   3  -5   0    0.50    1.20
  -3   5   0    1.00    0.60
   2  -5   0  550.54   16.50
  -2   5   0  531.75   13.50
  -2   5   0  543.05   11.50
   1  -5   0   13.50    2.60
  -1   5   0   10.30    1.30
  -1   5   0    8.60    0.80
   0  -5   0   24.40    2.60
   0   5   0   27.00    1.60
   0   5   0   26.70    1.70
  -1  -5   0  650.43   17.90
   1   5   0  613.44   13.60
   1   5   0  614.64   14.10
  -2  -5   0  529.65   15.20
   2   5   0  503.95   12.30
   2   5   0  511.05   10.90
  -3  -5   0   58.49    3.80
   3   5   0   62.79    3.10
  -4  -5   0   29.70    3.00
   4   5   0   33.20    2.30
  -5  -5   0   15.30    2.70
   5   5   0   15.30    1.90
  -6  -5   0   77.69    5.50
   6   5   0   79.59    4.10
  -7  -5   0   11.00    2.70
   7   5   0    7.70    1.50
  -8  -5   0   27.70    5.00
   8   5   0   29.20    2.70
  -9  -5   0   51.19    5.50
   9   5   0   50.89    3.70
 -10  -5   0   62.29    6.60
  10   5   0   64.99    4.20
   8  -6   0    2.90    2.80
  -8   6   0    3.90    1.20
   7  -6   0   22.70    4.20
  -7   6   0   22.10    3.20
   6  -6   0   20.90    4.20
  -6   6   0   20.30    3.00
   5  -6   0  214.38   10.10
  -5   6   0  217.78    8.50
   4  -6   0  144.79    7.80
  -4   6   0  133.19    6.10
   3  -6   0  158.98    7.80
  -3   6   0  139.69    5.80
   2  -6   0    0.70    1.80
  -2   6   0    2.00    0.50
  -2   6   0    2.10    0.70
   1  -6   0   43.80    4.20
  -1   6   0   44.40    2.70
  -1   6   0   43.90    2.10
   0  -6   0    8.10    2.00
   0   6   0    6.80    1.10
   0   6   0    6.00    1.00
  -1  -6   0   22.50    2.60
   1   6   0   23.00    1.50
   1   6   0   19.30    1.50
  -2  -6   0    9.90    2.00
   2   6   0    7.50    1.20
   2   6   0    7.60    0.90
  -3  -6   0  199.38    8.20
   3   6   0  188.48    6.30
   3   6   0  190.18    4.30
  -4  -6   0    0.90    1.10
   4   6   0    2.10    0.70
  -5  -6   0    0.40    1.00
   5   6   0    2.00    0.90
  -6  -6   0  180.98    9.30
   6   6   0  174.68    6.80
  -7  -6   0  155.88    9.10
   7   6   0  173.68    6.90
  -8  -6   0    2.80    2.30
   8   6   0    1.50    1.30
  -9  -6   0    3.60    1.50
   9   6   0    1.50    1.10
 -10  -6   0   38.40    6.00
  10   6   0   37.60    3.50
   7  -7   0    6.30    4.10
  -7   7   0    5.50    1.60
   6  -7   0   -1.20    2.60
  -6   7   0    0.60    1.30
   5  -7   0   20.60    4.20
  -5   7   0   29.80    3.80
   4  -7   0   34.60    5.10
  -4   7   0   29.30    3.50
   3  -7   0  291.57   12.30
  -3   7   0  278.57    9.40
   2  -7   0   74.89    6.10
  -2   7   0   67.99    3.80
   1  -7   0  228.18   10.00
  -1   7   0  214.08    7.10
  -1   7   0  220.58    6.20
   0  -7   0  181.48    8.50
   0   7   0  194.28    6.20
   0   7   0  194.88    5.90
  -1  -7   0   79.89    5.10
   1   7   0   80.39    3.50
   1   7   0   73.59    3.20
  -2  -7   0  147.09    7.10
   2   7   0  138.39    5.20
   2   7   0  146.19    4.30
  -3  -7   0   38.90    3.60
   3   7   0   37.00    2.60
  -4  -7   0    2.00    1.60
   4   7   0    1.20    0.50
  -5  -7   0   25.30    3.90
   5   7   0   18.40    2.40
  -6  -7   0   71.19    5.70
   6   7   0   76.49    4.40
  -7  -7   0  134.69    8.70
   7   7   0  139.49    6.40
  -8  -7   0   22.10    5.10
   8   7   0   23.30    3.00
  -9  -7   0    4.60    2.40
   9   7   0    5.10    1.70
  10   7   0    1.60    1.40
   6  -8   0    0.10    3.00
  -6   8   0    6.90    2.40
   5  -8   0   30.50    5.50
  -5   8   0   28.60    3.70
   4  -8   0    4.90    3.40
  -4   8   0    6.00    1.60
   3  -8   0   45.20    5.90
  -3   8   0   35.40    3.20
   2  -8   0   -0.20    2.10
  -2   8   0   -0.90    0.80
   1  -8   0    8.10    2.40
  -1   8   0    8.50    1.40
   0  -8   0   26.80    4.00
   0   8   0   31.90    2.30
   0   8   0   31.60    2.20
  -1  -8   0  175.88    8.70
   1   8   0  187.28    5.90
   1   8   0  187.38    6.30
  -2  -8   0   84.79    5.60
   2   8   0   85.29    3.30
   2   8   0   77.79    3.90
  -3  -8   0    4.80    2.00
   3   8   0    2.90    1.10
  -4  -8   0   40.90    4.10
   4   8   0   41.60    3.10
  -5  -8   0   35.60    4.00
   5   8   0   34.00    3.00
  -6  -8   0   53.79    5.10
   6   8   0   47.30    3.70
  -7  -8   0   35.20    5.90
   7   8   0   34.10    3.20
  -8  -8   0    3.10    2.70
   8   8   0    5.40    1.80
  -9  -8   0  180.68   11.60
   9   8   0  184.28    8.30
   5  -9   0   -2.70    2.90
  -5   9   0    1.40    1.40
   4  -9   0   35.20    6.40
  -4   9   0   37.40    3.60
  -3   9   0    1.50    0.90
   2  -9   0   12.00    3.60
  -2   9   0   11.10    2.30
   1  -9   0   35.10    4.20
  -1   9   0   32.10    2.90
   0  -9   0   69.39    5.80
   0   9   0   82.59    4.10
   0   9   0   77.29    3.80
  -1  -9   0    0.80    1.20
   1   9   0   -1.60    0.50
   1   9   0    0.10    0.70
  -2  -9   0   19.60    3.60
   2   9   0   12.20    2.00
  -3  -9   0   25.10    4.10
   3   9   0   20.20    2.50
  -4  -9   0    0.90    1.70
   4   9   0    0.80    0.70
  -5  -9   0   16.10    3.60
   5   9   0   14.90    2.20
  -6  -9   0  116.79    8.20
   6   9   0  119.79    6.10
  -7  -9   0    8.80    3.00
  -8  -9   0    9.40    3.20
   8   9   0    5.80    1.90
  -9  -9   0   40.50   10.40
   9   9   0   47.10    4.70
   4 -10   0   87.69    8.20
  -4  10   0   96.29    5.90
   3 -10   0   21.10    4.90
  -3  10   0   17.50    2.90
   2 -10   0   19.40    4.10
  -2  10   0   16.00    2.50
   1 -10   0   59.39    5.80
  -1  10   0   63.19    3.90
   0 -10   0   61.49    5.50
   0  10   0   63.69    3.70
  -1 -10   0  117.69    7.90
   1  10   0  124.89    5.30
  -2 -10   0   35.40    4.20
   2  10   0   43.40    3.10
  -3 -10   0   21.10    4.00
   3  10   0   23.80    2.90
  -4 -10   0    7.70    3.00
   4  10   0   13.30    2.20
  -5 -10   0   10.70    3.30
   5  10   0   15.60    2.60
  -6 -10   0   15.20    3.70
   6  10   0   11.90    2.50
  -7 -10   0    6.40    2.00
   7  10   0    6.50    2.00
  -8 -10   0   15.10    3.70
   8  10   0   16.00    3.10
   3 -11   0    9.70    3.70
  -3  11   0    8.70    2.20
   2 -11   0   99.69    7.80
  -2  11   0   92.89    5.40
   1 -11   0    3.20    1.10
  -1  11   0    1.20    0.90
   0 -11   0   16.10    4.10
  -1 -11   0   50.59    5.10
  -2 -11   0    3.80    2.30
   2  11   0    3.20    1.20
  -3 -11   0   47.20    5.30
   3  11   0   45.90    3.60
  -4 -11   0   36.40    5.40
   4  11   0   35.70    3.20
  -5 -11   0   11.70    3.60
   5  11   0    9.70    2.40
  -6 -11   0   -0.50    1.90
   6  11   0    2.80    1.60
  -7 -11   0   20.90    5.20
   7  11   0   21.40    3.50
   0 -12   0   64.99    6.40
  -1 -12   0   26.00    5.20
  -2 -12   0   13.80    2.90
  -3 -12   0   65.89    6.30
   3  12   0   61.39    4.40
  -4 -12   0    4.80    3.20
   4  12   0    4.00    1.50
  -5 -12   0    4.90    3.10
   5  12   0    2.80    1.20
   4  13   0    1.10    2.00
   5  12  -1   79.19    5.30
   4  12  -1    0.20    1.00
  -4 -12   1    4.70    2.30
  -3 -12   1   12.80    3.40
  -2 -12   1   81.89    7.40
  -1 -12   1   10.60    2.10
   0 -12   1   36.00    6.70
   6  11  -1   12.90    2.40
  -6 -11   1   19.80    4.10
   5  11  -1   24.30    3.50
  -5 -11   1   21.80    4.30
   4  11  -1    7.10    1.90
  -4 -11   1    7.60    3.40
   3  11  -1   25.00    3.20
  -3 -11   1   28.60    5.50
  -2 -11   1   21.80    3.90
  -1 -11   1    2.10    2.20
   0 -11   1  157.18    9.60
   1 -11   1    7.80    3.10
  -2  11  -1   14.00    2.40
   2 -11   1   16.50    3.50
  -3  11  -1    0.20    1.00
   7  10  -1   -1.50    1.10
  -7 -10   1    1.60    2.60
   6  10  -1   14.60    2.70
  -6 -10   1   17.70    4.70
   5  10  -1   13.80    2.30
  -5 -10   1   16.40    3.80
   4  10  -1   52.79    3.80
  -4 -10   1   53.19    5.40
   3  10  -1  160.58    6.80
  -3 -10   1  166.88    9.80
   2  10  -1   34.60    2.90
  -2 -10   1   34.30    5.30
  -1 -10   1   26.60    4.50
   0 -10   1   12.70    3.50
  -1  10  -1   19.60    2.60
   1 -10   1   18.70    3.50
  -2  10  -1   77.89    4.70
   2 -10   1   78.79    7.10
  -3  10  -1   28.30    3.50
   3 -10   1   24.80    4.90
  -4  10  -1    8.70    2.10
   4 -10   1   13.10    4.40
   8   9  -1   35.10    3.50
  -8  -9   1   33.40    5.80
   7   9  -1    9.90    2.10
  -7  -9   1   14.10    3.90
   6   9  -1   33.40    3.20
  -6  -9   1   28.90    5.60
   5   9  -1    5.00    1.40
  -5  -9   1    3.30    1.90
   4   9  -1    0.90    0.80
  -4  -9   1    0.50    0.90
   3   9  -1    0.30    0.80
  -3  -9   1    0.60    1.60
   2   9  -1   58.39    3.40
  -2  -9   1   50.09    5.00
   1   9  -1   44.10    2.80
  -1  -9   1   41.00    4.00
   0   9  -1   13.50    1.90
   0  -9   1   10.50    3.10
  -1   9  -1    8.20    1.70
   1  -9   1    6.90    2.50
  -2   9  -1   91.19    4.80
   2  -9   1   87.09    7.00
  -3   9  -1    1.70    1.00
   3  -9   1    1.40    2.70
  -4   9  -1    2.20    1.10
   4  -9   1    3.70    3.50
  -5   9  -1    9.90    2.30
   5  -9   1   14.60    4.90
   9   8  -1    7.00    1.90
  -9  -8   1   11.00    3.80
   8   8  -1   60.39    4.50
  -8  -8   1   70.59    6.40
  -7  -8   1    2.30    2.10
   6   8  -1   12.20    2.20
  -6  -8   1   18.00    4.40
   5   8  -1    2.90    1.20
  -5  -8   1    9.00    3.00
   4   8  -1   75.99    4.20
  -4  -8   1   74.79    5.70
   3   8  -1   71.29    3.90
  -3  -8   1   64.69    5.30
   2   8  -1   27.30    2.20
  -2  -8   1   27.50    4.40
   1   8  -1  131.39    5.00
   1   8  -1  134.19    4.60
  -1  -8   1  114.29    7.00
   0   8  -1   18.10    1.80
   0   8  -1   17.90    1.60
   0  -8   1   20.20    3.70
  -1   8  -1   17.20    2.20
   1  -8   1   14.80    3.40
  -2   8  -1    7.80    1.60
   2  -8   1   10.40    3.20
  -3   8  -1   48.00    3.70
   3  -8   1   53.19    7.40
  -4   8  -1    8.50    2.00
   4  -8   1    9.30    3.70
  -5   8  -1   10.20    2.10
   5  -8   1    3.50    3.70
  -6   8  -1   15.10    2.70
   6  -8   1   10.60    4.50
  10   7  -1    5.10    1.50
   9   7  -1   92.09    5.60
  -9  -7   1   88.09    8.10
   8   7  -1    3.60    1.50
  -8  -7   1    5.50    2.20
   7   7  -1   -1.00    0.90
  -7  -7   1    3.00    1.70
   6   7  -1   13.90    2.20
  -6  -7   1   15.20    3.90
   5   7  -1   33.50    2.80
  -5  -7   1   32.90    3.90
   4   7  -1  109.49    5.00
  -4  -7   1  118.09    6.80
   3   7  -1  125.19    5.10
  -3  -7   1  120.59    6.90
   2   7  -1    7.00    0.90
   2   7  -1    5.60    1.20
  -2  -7   1    6.60    2.00
   1   7  -1  188.58    5.60
   1   7  -1  187.78    6.00
  -1  -7   1  173.18    8.30
   0   7  -1  121.49    4.40
   0   7  -1  131.99    4.80
   0  -7   1  134.49    7.20
  -1   7  -1  329.17    9.50
  -1   7  -1  331.27    8.30
   1  -7   1  338.77   13.10
  -2   7  -1   43.30    3.00
   2  -7   1   49.80    5.30
  -3   7  -1   10.40    1.80
   3  -7   1   10.90    3.80
  -4   7  -1   26.00    3.30
   4  -7   1   25.80    4.60
  -5   7  -1   48.90    3.90
   5  -7   1   44.30    6.00
  -6   7  -1   -0.10    1.20
   6  -7   1   -2.00    2.20
  -7   7  -1    3.40    1.60
   7  -7   1    1.00    3.80
  10   6  -1    3.70    1.70
 -10  -6   1    6.60    3.20
   9   6  -1   38.90    3.40
  -9  -6   1   38.10    6.50
   8   6  -1  120.39    5.80
  -8  -6   1  107.69    7.80
   7   6  -1   35.70    3.10
  -7  -6   1   34.10    5.20
   6   6  -1   -0.70    0.60
  -6  -6   1   -0.40    1.20
   5   6  -1  126.69    5.40
  -5  -6   1  126.89    7.30
   4   6  -1   42.50    2.80
  -4  -6   1   39.60    3.60
   3   6  -1    3.50    0.80
  -3  -6   1    3.20    1.50
   2   6  -1   72.29    2.30
   2   6  -1   68.49    3.20
  -2  -6   1   65.39    4.50
   1   6  -1  173.38    4.90
   1   6  -1  169.88    5.40
  -1  -6   1  153.28    7.30
   0   6  -1    9.80    1.00
   0   6  -1    6.00    1.10
   0  -6   1    7.00    2.00
  -1   6  -1  172.58    5.90
  -1   6  -1  173.18    4.90
   1  -6   1  178.38    8.60
  -2   6  -1  229.28    7.60
   2  -6   1  248.78   10.60
  -3   6  -1   77.09    4.10
   3  -6   1   74.19    5.70
  -4   6  -1    9.20    1.80
   4  -6   1   11.80    3.20
  -5   6  -1   68.99    4.40
   5  -6   1   65.99    5.80
  -6   6  -1    1.80    1.40
   6  -6   1    1.80    2.50
  -7   6  -1    3.40    1.20
   7  -6   1    0.80    2.90
  10   5  -1    7.00    1.90
 -10  -5   1   10.20    3.90
   9   5  -1   13.40    2.30
  -9  -5   1   15.20    3.30
   8   5  -1   10.00    2.10
  -8  -5   1    7.60    2.20
   7   5  -1   24.60    2.30
  -7  -5   1   25.60    4.40
   6   5  -1   14.30    2.10
  -6  -5   1   14.10    3.30
   5   5  -1  152.78    5.80
  -5  -5   1  153.28    7.80
   4   5  -1  121.39    4.80
  -4  -5   1  127.49    6.50
   3   5  -1  445.86   11.30
  -3  -5   1  444.16   14.20
   2   5  -1  243.68    7.10
   2   5  -1  255.67    5.60
  -2  -5   1  251.77    9.20
   1   5  -1  105.49    3.30
   1   5  -1  101.79    3.60
  -1  -5   1   95.99    5.10
   0   5  -1  552.24   12.40
   0   5  -1  545.75   12.60
   0  -5   1  557.54   16.50
  -1   5  -1    9.40    0.80
  -1   5  -1    8.30    1.30
   1  -5   1    9.60    2.50
  -2   5  -1    1.40    0.60
  -2   5  -1    1.30    0.40
   2  -5   1    1.50    1.50
  -3   5  -1   20.30    2.10
   3  -5   1   19.20    3.30
  -4   5  -1   18.70    2.40
   4  -5   1   21.80    3.60
  -5   5  -1    0.40    1.00
   5  -5   1   -0.20    1.30
  -6   5  -1   53.29    3.90
   6  -5   1   52.69    5.20
  -7   5  -1   58.29    4.10
   7  -5   1   53.19    5.40
  -8   5  -1    1.60    1.30
   8  -5   1    4.30    3.00
  10   4  -1   93.59    5.00
 -10  -4   1   96.99    8.10
   9   4  -1   11.00    2.10
  -9  -4   1   15.90    3.50
   8   4  -1    3.80    1.10
  -8  -4   1    6.30    2.70
   7   4  -1  119.49    5.20
  -7  -4   1  113.39    7.30
   6   4  -1   72.99    3.80
  -6  -4   1   71.69    5.10
   5   4  -1    0.70    0.50
  -5  -4   1    1.70    1.10
   4   4  -1  186.88    6.10
  -4  -4   1  190.28    8.00
   3   4  -1  140.39    4.80
  -3  -4   1  142.19    6.20
   2   4  -1  194.58    5.70
   2   4  -1  193.28    4.20
  -2  -4   1  196.98    7.20
   1   4  -1    5.60    0.90
   1   4  -1    5.70    0.60
  -1  -4   1   10.50    2.00
   0   4  -1   61.59    2.30
   0   4  -1   63.39    2.50
   0  -4   1   60.79    3.90
  -1   4  -1    0.40    0.40
  -1   4  -1    0.50    0.30
   1  -4   1    0.90    1.00
  -2   4  -1    5.10    0.40
  -2   4  -1    4.70    1.00
   2  -4   1    4.80    1.60
  -3   4  -1  394.96   10.70
   3  -4   1  387.56   12.70
  -4   4  -1  190.68    6.80
   4  -4   1  196.88    8.30
  -5   4  -1   88.39    4.50
   5  -4   1   79.79    5.30
  -6   4  -1    0.20    1.00
   6  -4   1    0.40    1.50
  -7   4  -1  138.29    6.30
   7  -4   1  123.19    7.50
  -8   4  -1    6.70    1.70
   8  -4   1    6.40    3.30
  -9   4  -1   12.10    2.60
   9  -4   1    9.40    3.40
 -10  -3   1    6.00    3.00
   9   3  -1   51.39    3.40
  -9  -3   1   49.90    5.20
   8   3  -1    0.50    0.60
  -8  -3   1    0.00    1.40
   7   3  -1   24.60    2.10
  -7  -3   1   27.70    4.10
   6   3  -1   50.39    2.90
  -6  -3   1   53.19    4.40
   5   3  -1  178.88    5.90
  -5  -3   1  188.58    8.20
  -5  -3   1  183.08    4.10
   4   3  -1   45.00    2.40
  -4  -3   1   49.70    3.50
   3   3  -1    2.80    0.70
  -3  -3   1    2.30    0.70
   2   3  -1  145.69    4.40
  -2  -3   1  153.68    5.70
   1   3  -1  981.90   20.40
   1   3  -1 1004.60   19.60
  -1  -3   1  973.00   24.80
   0   3  -1    3.10    0.50
   0   3  -1    2.50    0.60
   0  -3   1    3.10    1.30
  -1   3  -1   39.90    1.40
  -1   3  -1   38.50    1.90
   1  -3   1   44.90    2.90
  -2   3  -1   32.50    2.00
   2  -3   1   33.70    2.60
  -3   3  -1   79.09    3.50
   3  -3   1   80.69    4.30
  -4   3  -1  349.27    9.80
   4  -3   1  359.66   11.80
  -5   3  -1    7.20    1.40
   5  -3   1    7.80    2.00
  -6   3  -1    8.30    1.80
   6  -3   1    6.00    2.00
  -7   3  -1    1.50    0.70
   7  -3   1    3.10    1.30
  -8   3  -1   10.30    2.00
   8  -3   1    7.70    3.20
  -9   3  -1  154.18    7.10
   9  -3   1  150.18    9.80
 -10  -2   1    7.10    3.30
  -9  -2   1    2.10    1.50
   8   2  -1   43.30    2.80
  -8  -2   1   39.90    4.40
   7   2  -1   20.90    1.90
  -7  -2   1   27.80    4.10
   6   2  -1    8.40    1.30
  -6  -2   1    8.60    1.10
  -6  -2   1    7.60    2.00
   5   2  -1   17.20    1.50
  -5  -2   1   17.90    1.10
  -5  -2   1   20.90    3.00
   4   2  -1  439.26   10.50
  -4  -2   1  443.96   13.50
  -4  -2   1  422.86    9.20
   3   2  -1  455.15   10.40
   3   2  -1  456.25    9.10
  -3  -2   1  435.56    9.00
  -3  -2   1  443.36   13.00
   2   2  -1  471.95   10.50
  -2  -2   1  470.65   12.90
   1   2  -1  588.84   12.30
   1   2  -1  576.84   11.40
  -1  -2   1  584.74   14.90
  -1  -2   1  580.34   11.60
   0   2  -1  197.38    4.60
   0   2  -1  195.68    4.60
   0  -2   1  202.38    6.40
  -1   2  -1   54.39    1.50
  -1   2  -1   51.99    1.40
  -1   2  -1   50.19    2.10
   1  -2   1   56.89    2.70
  -2   2  -1   17.10    1.30
   2  -2   1   18.50    1.70
  -3   2  -1   48.70    2.50
   3  -2   1   47.10    2.90
  -4   2  -1  191.38    6.10
   4  -2   1  189.28    7.30
  -5   2  -1   48.90    2.90
   5  -2   1   46.60    3.60
  -6   2  -1  159.18    6.10
   6  -2   1  153.48    7.60
  -7   2  -1    1.50    0.70
   7  -2   1    0.40    0.90
  -8   2  -1    1.10    0.80
   8  -2   1    1.50    2.00
  -9   2  -1   98.89    5.30
   9  -2   1   95.69    7.20
 -10   2  -1   -1.50    1.00
  -9  -1   1   -2.40    1.00
   8   1  -1    1.50    0.60
  -8  -1   1    1.10    1.50
   7   1  -1  140.19    4.90
  -7  -1   1  136.29    4.80
  -7  -1   1  134.29    7.30
   6   1  -1  102.89    3.80
  -6  -1   1   95.99    3.70
  -6  -1   1  100.39    5.90
   5   1  -1   44.30    2.20
  -5  -1   1   44.70    3.40
  -5  -1   1   46.00    2.20
   4   1  -1  778.72   16.80
  -4  -1   1  792.22   21.30
  -4  -1   1  768.32   16.30
   3   1  -1  381.46    8.70
  -3  -1   1  377.06   11.10
  -3  -1   1  371.66    8.20
   2   1  -1  784.12   15.60
   2   1  -1  781.82   16.20
  -2  -1   1  782.52   19.70
  -2  -1   1  783.02   15.60
   1   1  -1   18.90    0.90
  -1  -1   1   19.90    1.20
  -1  -1   1   20.50    0.60
   0   1  -1  122.09    2.80
   0   1  -1  121.99    2.80
   0  -1   1  126.19    4.00
  -1   1  -1  981.90   19.80
  -1   1  -1  998.20   19.00
   1  -1   1  999.30   23.50
   1  -1   1  950.80   19.30
  -2   1  -1  403.96    9.20
   2  -1   1  407.36   11.00
  -3   1  -1  562.04   12.60
   3  -1   1  554.74   15.10
   3  -1   1  553.04   11.20
   3  -1   1  551.44   11.10
  -4   1  -1   19.70    1.60
   4  -1   1   23.20    2.20
   4  -1   1   21.70    0.90
  -5   1  -1    0.70    0.50
   5  -1   1   -0.30    1.00
   5  -1   1    0.80    0.20
  -6   1  -1   86.59    3.90
   6  -1   1   85.09    5.40
  -7   1  -1    0.70    0.70
   7  -1   1   -0.90    0.80
  -8   1  -1   14.20    2.20
   8  -1   1   10.90    3.40
  -9   1  -1    3.90    1.20
   9  -1   1    7.00    2.10
  10  -1   1   -0.60    3.00
  10   0  -1   17.20    4.80
   9   0  -1   13.50    3.30
  -8   0   1    1.40    0.70
  -8   0   1    1.10    1.50
   7   0  -1    6.60    1.10
  -7   0   1    9.30    1.60
  -7   0   1    6.90    2.00
   6   0  -1   49.30    2.30
  -6   0   1   54.39    4.20
  -6   0   1   50.19    2.80
   5   0  -1    4.50    0.80
  -5   0   1    7.50    1.00
  -5   0   1    6.30    1.60
   4   0  -1  648.94   13.90
  -4   0   1  639.44   14.30
  -4   0   1  652.53   18.00
   3   0  -1  183.98    4.70
  -3   0   1  184.28    5.00
  -3   0   1  187.58    6.50
   2   0  -1 9431.66  189.48
  -2   0   1 9999.00  189.88
  -2   0   1 9389.16  225.98
   1   0  -1    1.60    0.30
   1   0  -1    1.80    0.30
  -1   0   1    2.00    0.30
  -1   0   1    1.80    0.40
   0   0  -1  260.57    5.30
   0   0  -1  259.47    5.20
   0   0   1  266.07    6.20
   0   0   1  239.68    5.30
  -1   0  -1   71.09    1.70
  -1   0  -1   69.19    1.90
   1   0   1   66.79    2.30
   1   0   1   68.59    1.70
  -2   0  -1    4.10    0.50
  -2   0  -1    3.50    0.60
  -3   0  -1    5.80    0.70
  -3   0  -1    5.10    1.10
   3   0   1    5.90    0.60
  -4   0  -1   82.59    3.00
  -4   0  -1   74.39    3.90
   4   0   1   77.19    2.50
  -5   0  -1   -0.30    0.40
  -5   0  -1    0.60    0.60
   5   0   1    0.90    0.30
  -6   0  -1   82.09    5.00
  -6   0  -1   81.49    3.50
   6   0   1   78.09    2.80
  -7   0  -1    3.90    1.10
   7   0   1    1.10    1.60
  -8   0  -1  270.37    8.40
   8   0   1  268.37   12.40
  -9   0  -1    2.60    1.30
   9   0   1    0.90    1.70
  10   0   1    3.70    2.90
  10  -1  -1   10.20    3.40
   9  -1  -1   51.29    5.30
  -9   1   1   52.59    3.60
   8  -1  -1   82.39    6.40
  -8   1   1   82.59    4.30
   7  -1  -1   24.50    3.70
  -7   1   1   20.40    2.00
   6  -1  -1   11.00    1.00
  -6   1   1   10.70    1.60
   5  -1  -1  263.67    6.50
  -5   1   1  271.97    7.80
  -5   1   1  269.57    9.60
   4  -1  -1   63.09    2.10
  -4   1   1   65.29    2.90
  -4   1   1   55.39    3.40
   3  -1  -1  111.69    3.00
  -3   1   1  108.59    3.70
  -3   1   1  108.99    4.40
   2  -1  -1   22.10    0.90
  -2   1   1   21.50    1.50
  -2   1   1   20.30    1.30
   1  -1  -1  153.28    3.30
   1  -1  -1  143.89    4.20
  -1   1   1  144.49    3.80
   0  -1  -1  788.02   16.40
   0  -1  -1  826.22   16.30
   0  -1  -1  811.12   18.90
   0   1   1  864.31   18.90
  -1  -1  -1    1.20    0.20
  -1  -1  -1    0.80    0.30
  -1  -1  -1    1.00    0.30
   1   1   1    1.60    0.30
  -2  -1  -1    3.10    0.40
  -2  -1  -1    3.20    0.70
  -2  -1  -1    3.70    0.50
  -3  -1  -1  737.93   15.20
  -3  -1  -1  745.53   19.20
   3   1   1  731.93   15.40
  -4  -1  -1   60.19    3.50
  -4  -1  -1   61.19    2.30
   4   1   1   60.89    2.30
  -5  -1  -1  266.57    9.80
  -5  -1  -1  278.37    7.10
   5   1   1  283.47    7.10
  -6  -1  -1    0.20    0.50
  -6  -1  -1    0.10    0.90
   6   1   1    0.80    0.50
  -7  -1  -1    1.50    0.60
  -7  -1  -1    1.90    1.20
   7   1   1    0.20    0.40
  -8  -1  -1   65.19    3.30
  -8  -1  -1   61.99    5.00
   9   1   1    4.60    1.50
  10   1   1   65.79    6.50
  10  -2  -1   18.00    4.90
   9  -2  -1    6.00    2.00
  -9   2   1    1.70    1.10
   8  -2  -1   21.90    4.30
  -8   2   1   25.60    2.60
   7  -2  -1    2.20    1.30
  -7   2   1    0.30    1.00
   6  -2  -1   11.70    2.80
  -6   2   1   11.00    1.70
   5  -2  -1    1.50    0.40
   5  -2  -1    1.00    0.80
  -5   2   1    1.70    0.90
   4  -2  -1   17.70    2.10
   4  -2  -1   15.90    0.90
  -4   2   1   16.20    1.60
   3  -2  -1  923.61   18.30
   3  -2  -1  895.01   23.30
  -3   2   1  924.21   20.10
   2  -2  -1    0.10    0.20
   2  -2  -1    0.40    0.30
  -2   2   1    0.00    0.30
   1  -2  -1  324.77    7.00
   1  -2  -1  337.47    8.70
  -1   2   1  319.47    7.70
   0  -2  -1 1126.39   28.20
   0  -2  -1 1238.78   23.90
   0   2   1 1228.98   24.00
  -1  -2  -1  150.38    4.00
  -1  -2  -1  151.38    4.50
   1   2   1  148.19    3.40
  -2  -2  -1  291.77    6.30
  -2  -2  -1  309.97    8.70
  -2  -2  -1  307.57    7.30
  -3  -2  -1   77.49    2.10
  -3  -2  -1   73.09    3.60
   3   2   1   76.69    2.80
  -4  -2  -1    4.30    0.60
  -4  -2  -1    3.70    1.10
   4   2   1    3.00    0.60
  -5  -2  -1   15.00    1.10
  -5  -2  -1   12.60    2.10
   5   2   1   13.30    1.30
  -6  -2  -1    9.70    1.00
  -6  -2  -1   13.30    2.70
   6   2   1   12.50    1.30
  -7  -2  -1   36.30    3.60
  -7  -2  -1   33.80    2.00
   7   2   1   34.90    2.30
  -8  -2  -1   30.20    4.60
   8   2   1   31.30    2.30
  -9  -2  -1    2.80    2.10
 -10   3   1    7.60    2.20
   9  -3  -1    5.50    2.40
  -9   3   1    2.10    1.30
   8  -3  -1   88.49    6.70
  -8   3   1   90.09    5.20
   7  -3  -1    2.10    1.10
  -7   3   1    1.40    1.30
   6  -3  -1   14.50    2.90
  -6   3   1   15.70    2.20
   5  -3  -1   31.20    2.90
  -5   3   1   27.60    2.40
   4  -3  -1   99.09    2.70
   4  -3  -1   97.79    4.90
  -4   3   1   92.69    4.20
   3  -3  -1  475.65   10.20
   3  -3  -1  486.75   13.80
  -3   3   1  495.35   12.30
   2  -3  -1   77.09    2.30
   2  -3  -1   80.49    3.60
  -2   3   1   78.89    3.30
   1  -3  -1  746.53   18.30
   1  -3  -1  719.73   14.80
  -1   3   1  679.13   15.70
   0  -3  -1   26.90    1.40
   0  -3  -1   25.20    1.90
  -1  -3  -1  445.56   11.60
  -1  -3  -1  437.96   10.00
   1   3   1  438.66    9.40
  -2  -3  -1  747.13   16.30
  -2  -3  -1  743.83   19.10
   2   3   1  760.82   14.90
  -3  -3  -1   60.09    3.40
   3   3   1   61.89    1.70
   3   3   1   62.99    2.60
  -4  -3  -1   68.69    3.90
  -4  -3  -1   68.29    2.00
   4   3   1   73.59    3.10
  -5  -3  -1  358.06   12.30
  -5  -3  -1  366.26    8.00
   5   3   1  345.87    9.30
  -6  -3  -1   60.39    4.50
  -6  -3  -1   63.89    2.30
   6   3   1   61.69    3.10
  -7  -3  -1   81.99    4.10
  -7  -3  -1   76.09    5.50
   7   3   1   76.49    3.70
  -8  -3  -1    3.10    1.50
  -9  -3  -1    3.30    2.30
 -10  -3  -1    4.50    2.50
   9  -4  -1   49.50    6.00
  -9   4   1   53.39    4.30
   8  -4  -1    0.60    2.10
  -8   4   1    2.80    1.70
   7  -4  -1    6.20    2.00
  -7   4   1   12.70    2.50
   6  -4  -1   36.70    3.90
  -6   4   1   39.00    3.20
   5  -4  -1   -1.10    0.60
  -5   4   1    0.00    0.70
   4  -4  -1   17.80    2.70
   4  -4  -1   16.10    1.00
  -4   4   1   19.40    2.30
   3  -4  -1    0.40    0.20
   3  -4  -1    1.10    0.70
  -3   4   1    0.70    0.50
   2  -4  -1    6.80    0.80
   2  -4  -1   10.20    1.70
  -2   4   1    6.40    1.20
   1  -4  -1  787.72   16.80
   1  -4  -1  823.62   21.00
  -1   4   1  782.32   17.70
   0  -4  -1    1.90    1.10
   0  -4  -1    1.00    0.40
   0   4   1    0.90    0.50
  -1  -4  -1  186.18    5.40
  -1  -4  -1  190.08    6.40
   1   4   1  192.68    5.00
  -2  -4  -1  131.59    4.40
  -2  -4  -1  137.19    5.30
   2   4   1  136.59    3.60
  -3  -4  -1  262.47    8.90
   3   4   1  263.97    5.80
   3   4   1  270.07    7.30
  -4  -4  -1  605.34   17.50
   4   4   1  590.04   12.00
   4   4   1  601.14   14.20
  -5  -4  -1    2.00    0.40
  -5  -4  -1    1.40    1.00
   5   4   1    1.00    0.60
  -6  -4  -1  244.68   10.40
   6   4   1  251.97    7.80
  -7  -4  -1   46.30    4.30
   7   4   1   49.10    3.10
  -8  -4  -1   11.50    3.00
   8   4   1   11.00    1.90
  -9  -4  -1    1.80    2.30
   9   4   1    1.70    1.00
 -10  -4  -1   15.20    3.90
   8  -5  -1    3.50    2.10
  -8   5   1    3.00    1.70
   7  -5  -1    6.70    2.30
  -7   5   1    7.90    2.10
   6  -5  -1    1.80    2.10
  -6   5   1    1.10    1.00
   5  -5  -1    1.80    1.30
  -5   5   1    2.00    1.20
   4  -5  -1  545.35   17.00
  -4   5   1  532.35   14.60
   3  -5  -1    9.00    2.10
   3  -5  -1    5.60    0.70
  -3   5   1    6.20    1.40
   2  -5  -1    1.00    1.00
   2  -5  -1    0.40    0.30
  -2   5   1    0.20    0.50
   1  -5  -1  439.76   10.30
   1  -5  -1  458.95   14.00
  -1   5   1  434.86   11.20
   0  -5  -1  261.57    9.20
   0  -5  -1  275.17    7.20
   0   5   1  283.87    7.50
  -1  -5  -1   26.20    2.20
  -1  -5  -1   29.00    1.90
   1   5   1   27.70    1.70
  -2  -5  -1    7.50    1.60
   2   5   1    6.50    1.10
   2   5   1    7.60    0.90
  -3  -5  -1    1.40    0.70
   3   5   1    0.60    0.30
   3   5   1    1.40    0.70
  -4  -5  -1  186.18    7.90
   4   5   1  195.58    6.40
   4   5   1  191.48    4.30
  -5  -5  -1    1.40    1.20
   5   5   1    1.80    0.70
  -6  -5  -1  152.08    7.90
   6   5   1  150.88    5.90
  -7  -5  -1   50.09    4.70
   7   5   1   57.39    3.50
  -8  -5  -1   98.39    7.20
   8   5   1  110.19    5.20
  -9  -5  -1   38.00    6.00
   9   5   1   36.20    3.00
 -10  -5  -1    1.10    2.50
  10   5   1    0.80    1.20
   8  -6  -1    3.00    3.30
  -8   6   1    7.80    2.20
   7  -6  -1  193.98   10.50
  -7   6   1  199.88    8.70
  -6   6   1   34.80    4.10
   5  -6  -1   44.80    4.30
  -5   6   1   37.90    3.30
   4  -6  -1    1.80    1.90
  -4   6   1    1.80    1.20
   3  -6  -1   10.40    2.50
  -3   6   1    8.90    1.80
   2  -6  -1   17.90    1.30
   2  -6  -1   22.40    3.70
  -2   6   1   19.60    2.30
   1  -6  -1    4.70    0.90
   1  -6  -1    4.20    2.00
  -1   6   1    5.60    1.20
   0  -6  -1    5.60    1.50
   0  -6  -1    6.70    1.10
   0   6   1    6.80    1.20
  -1  -6  -1  429.86   13.30
   1   6   1  418.46   10.60
   1   6   1  424.06   10.40
  -2  -6  -1    7.50    1.80
   2   6   1    4.70    1.00
   2   6   1    5.20    0.80
  -3  -6  -1   85.59    4.80
   3   6   1   86.69    2.70
   3   6   1   84.49    3.90
  -4  -6  -1  150.38    7.10
   4   6   1  143.09    5.50
  -5  -6  -1  192.98    9.10
   5   6   1  215.98    7.30
  -6  -6  -1   24.30    3.70
   6   6   1   25.70    2.40
  -7  -6  -1    0.60    1.00
   7   6   1    2.30    0.90
  -8  -6  -1   22.00    4.40
   8   6   1   28.00    2.80
  -9  -6  -1   12.00    3.70
   9   6   1   11.40    2.40
 -10  -6  -1    2.50    2.90
  10   6   1    1.40    1.40
   7  -7  -1    2.60    2.70
  -7   7   1    6.40    2.00
   6  -7  -1    8.30    3.20
  -6   7   1    5.90    2.10
   5  -7  -1  115.89    7.60
  -5   7   1  120.99    6.40
   4  -7  -1   35.90    4.90
  -4   7   1   29.60    3.00
   3  -7  -1   60.09    5.40
  -3   7   1   65.89    4.10
   2  -7  -1  262.37   11.30
  -2   7   1  251.57    8.50
   1  -7  -1    0.80    1.70
  -1   7   1    1.80    0.80
  -1   7   1    1.10    0.50
   0  -7  -1   23.00    2.80
   0   7   1   23.40    1.70
   0   7   1   22.50    2.00
  -1  -7  -1   26.50    2.80
   1   7   1   25.70    1.90
   1   7   1   28.40    2.10
  -2  -7  -1    1.60    1.10
   2   7   1    1.50    0.60
   2   7   1    0.70    0.50
  -3  -7  -1   61.19    4.30
   3   7   1   66.79    3.50
   3   7   1   63.39    2.40
  -4  -7  -1   84.89    5.40
   4   7   1   85.19    4.30
  -5  -7  -1  172.58    8.60
   5   7   1  163.88    6.60
  -6  -7  -1  141.59    8.20
   6   7   1  147.39    6.30
  -7  -7  -1   25.70    4.20
   7   7   1   18.60    2.60
  -8  -7  -1    3.50    1.70
   8   7   1    3.80    1.40
  -9  -7  -1    8.10    3.20
 -10  -7  -1   23.90    5.10
  10   7   1   26.90    3.50
   6  -8  -1    5.60    3.50
  -6   8   1    7.50    2.10
   5  -8  -1   37.60    5.70
  -5   8   1   38.70    3.90
   4  -8  -1    3.30    2.70
  -4   8   1    2.20    1.10
   3  -8  -1    5.70    3.10
  -3   8   1    7.10    1.50
   2  -8  -1    0.10    1.80
  -2   8   1   -1.80    0.60
   1  -8  -1   96.89    6.50
  -1   8   1  107.89    4.00
  -1   8   1  101.19    4.80
   0  -8  -1   29.40    3.30
   0   8   1   31.30    2.20
   0   8   1   36.40    2.60
  -1  -8  -1   18.90    3.10
   1   8   1   16.80    1.60
   1   8   1   16.30    1.90
  -2  -8  -1   13.80    3.00
   2   8   1   13.90    2.00
   2   8   1   12.30    1.40
  -3  -8  -1   54.49    4.20
   3   8   1   49.99    3.30
  -4  -8  -1    8.00    2.30
   4   8   1    6.10    1.60
  -5  -8  -1  224.78   10.60
   5   8   1  224.08    8.30
  -6  -8  -1    4.40    2.00
   6   8   1    7.30    1.80
  -7  -8  -1  288.47   13.50
   7   8   1  293.97   10.30
  -8  -8  -1    0.10    1.10
   8   8   1   -0.50    0.90
  -9  -8  -1    0.20    1.30
   9   8   1   -0.60    1.10
  10   8   1    4.40    2.00
   6  -9  -1    8.40    4.50
   5  -9  -1    1.90    3.60
  -5   9   1    2.30    1.30
   4  -9  -1   -0.10    3.00
  -4   9   1    3.80    1.50
   3  -9  -1   89.19    7.50
  -3   9   1   82.89    5.00
   2  -9  -1   33.40    5.20
  -2   9   1   34.40    3.00
   1  -9  -1    6.60    2.70
  -1   9   1    7.90    1.70
   0  -9  -1   48.20    4.60
   0   9   1   53.49    3.10
   0   9   1   55.29    3.40
  -1  -9  -1   14.30    3.00
   1   9   1   11.70    1.70
   1   9   1   11.10    1.80
  -2  -9  -1   28.40    4.30
   2   9   1   21.80    2.20
  -3  -9  -1    2.60    1.30
   3   9   1    2.80    0.80
  -4  -9  -1  126.29    7.50
   4   9   1  124.79    5.80
  -5  -9  -1   17.80    3.90
   5   9   1   17.00    2.50
  -6  -9  -1   23.80    4.40
   6   9   1   33.80    3.20
  -7  -9  -1   43.50    6.50
   7   9   1   45.80    3.80
  -8  -9  -1    4.10    1.70
   8   9   1    3.50    1.60
  -9  -9  -1   16.90    4.30
   9   9   1   15.00    2.80
   5 -10  -1    5.50    4.20
   4 -10  -1   -1.30    2.40
  -4  10   1   -0.50    1.00
   3 -10  -1   86.09    7.30
  -3  10   1   82.29    5.50
   2 -10  -1  115.09    8.00
  -2  10   1  112.29    5.90
   1 -10  -1   48.90    5.00
  -1  10   1   68.69    4.10
   0 -10  -1   48.30    4.90
   0  10   1   49.80    3.20
  -1 -10  -1   18.90    3.70
   1  10   1   10.50    1.90
  -2 -10  -1   32.70    4.00
   2  10   1   36.80    3.00
  -3 -10  -1    6.00    2.50
   3  10   1    4.20    1.30
  -4 -10  -1    6.60    1.90
   4  10   1    6.10    1.80
  -5 -10  -1   50.39    5.10
   5  10   1   50.79    4.10
  -6 -10  -1   25.60    4.90
   6  10   1   27.60    3.60
  -7 -10  -1   13.80    3.80
   7  10   1   11.00    2.40
  -8 -10  -1    1.40    2.20
   3 -11  -1    1.90    2.20
  -3  11   1    3.80    1.50
   2 -11  -1   10.10    3.30
  -2  11   1    8.30    2.30
   1 -11  -1   56.59    5.70
  -1  11   1   52.99    4.20
   0 -11  -1    5.40    1.70
  -1 -11  -1   14.30    3.60
  -2 -11  -1   55.79    5.10
   2  11   1   41.30    3.30
  -3 -11  -1   57.89    5.40
   3  11   1   49.30    3.80
  -4 -11  -1    9.70    3.20
   4  11   1    9.60    2.20
  -5 -11  -1   32.40    5.90
   5  11   1   22.90    3.20
  -6 -11  -1   63.89    6.50
   6  11   1   68.89    4.90
  -7 -11  -1   11.80    3.80
   7  11   1    8.50    2.20
   2 -12  -1   38.20    6.30
  -2  12   1   41.90    4.70
   1 -12  -1   35.90    4.30
  -1 -12  -1   27.10    5.10
  -3 -12  -1    1.90    2.40
   3  12   1    1.70    0.90
  -4 -12  -1    7.70    2.40
   4  12   1    5.90    1.60
  -5 -12  -1   26.40    5.00
   5  12   1   21.90    3.60
  -6 -12  -1   11.90    2.90
   6  12   1   14.70    2.70
  -1 -13  -1   26.10    5.90
  -2 -13  -1    8.10    1.90
  -3 -13  -1    6.90    3.40
   4  13   1   12.60    2.70
   4  12  -2   45.70    4.10
   6  11  -2   28.00    3.90
   5  11  -2   25.60    3.40
  -5 -11   2   29.70    6.30
   4  11  -2    5.80    1.80
  -4 -11   2    7.80    2.70
   3  11  -2    1.40    1.20
  -3 -11   2    6.20    2.40
  -2 -11   2  176.28   10.70
  -1 -11   2    8.50    2.10
   0 -11   2    7.20    2.60
   1 -11   2   14.20    3.20
  -3  11  -2   45.00    4.50
   7  10  -2   -1.70    0.70
  -7 -10   2    2.10    1.80
   6  10  -2   12.20    2.40
  -6 -10   2   19.10    4.20
   5  10  -2  166.88    7.50
  -5 -10   2  155.08   10.30
   4  10  -2   -0.50    0.70
  -4 -10   2   -0.10    1.80
   3  10  -2    3.30    1.30
  -3 -10   2    3.50    1.10
   2  10  -2   33.60    2.80
  -2 -10   2   31.60    5.90
  -1 -10   2    9.40    2.90
   0 -10   2  126.39    8.30
  -1  10  -2   23.30    2.40
   1 -10   2   28.20    5.30
  -2  10  -2   24.30    3.00
   2 -10   2   17.80    3.60
  -3  10  -2    0.10    1.00
   3 -10   2    3.60    3.00
  -4  10  -2    0.20    1.00
   8   9  -2   18.60    3.20
  -8  -9   2   24.80    6.10
   7   9  -2    2.10    1.40
  -7  -9   2    1.20    2.20
   6   9  -2   16.30    2.80
  -6  -9   2   13.70    3.00
   5   9  -2    8.80    2.10
  -5  -9   2   11.60    3.40
   4   9  -2   29.50    2.80
  -4  -9   2   30.30    5.00
   3   9  -2   26.40    2.50
  -3  -9   2   22.50    4.40
   2   9  -2    1.30    0.70
  -2  -9   2    2.30    1.70
   1   9  -2    0.40    0.60
  -1  -9   2   -1.80    0.90
   0   9  -2  122.69    4.90
   0  -9   2  126.99    8.00
  -1   9  -2   19.40    2.30
   1  -9   2   19.20    3.90
  -2   9  -2   15.00    2.20
   2  -9   2   20.40    4.20
  -3   9  -2   21.80    3.00
   3  -9   2   28.50    5.30
  -4   9  -2   25.00    3.40
   4  -9   2   24.00    5.60
  -5   9  -2    3.10    1.60
   5  -9   2    3.90    5.60
   9   8  -2    0.80    1.00
  -9  -8   2    0.00    1.50
   8   8  -2    4.30    1.50
  -8  -8   2    5.70    3.60
   7   8  -2    0.10    0.70
  -7  -8   2    2.20    2.40
   6   8  -2   88.89    5.00
  -6  -8   2   87.89    7.10
   5   8  -2   11.00    1.90
  -5  -8   2   10.40    3.20
   4   8  -2   11.20    1.90
  -4  -8   2    9.40    2.90
   3   8  -2  182.18    6.70
  -3  -8   2  173.98    9.20
   2   8  -2    8.90    1.60
  -2  -8   2    8.70    2.80
   1   8  -2    2.40    1.00
   1   8  -2    3.90    0.90
  -1  -8   2    5.20    2.30
   0   8  -2    1.60    0.70
   0   8  -2    2.00    0.70
   0  -8   2    1.90    1.10
  -1   8  -2   40.50    2.70
   1  -8   2   40.70    5.60
  -2   8  -2    2.00    1.00
   2  -8   2    2.60    2.50
  -3   8  -2   12.90    2.10
   3  -8   2   15.50    4.20
  -4   8  -2   39.60    3.40
   4  -8   2   47.30    7.30
  -5   8  -2   42.70    3.70
   5  -8   2   28.60    5.50
  -6   8  -2   26.60    3.70
   6  -8   2   11.30    5.60
   9   7  -2   19.40    2.90
  -9  -7   2   21.20    5.10
   8   7  -2   -0.60    1.00
  -8  -7   2   -0.30    1.10
   7   7  -2   11.30    2.20
  -7  -7   2   10.40    3.30
   6   7  -2  103.29    5.40
  -6  -7   2  125.09    8.00
   5   7  -2  104.99    5.20
  -5  -7   2  106.99    7.20
   4   7  -2    2.00    1.00
  -4  -7   2    3.70    1.80
   3   7  -2  101.39    4.60
  -3  -7   2   99.79    6.30
   2   7  -2   34.30    2.40
   2   7  -2   42.30    2.40
  -2  -7   2   30.70    3.70
   1   7  -2  473.65   11.10
   1   7  -2  467.85   11.80
  -1  -7   2  462.25   16.10
   0   7  -2   46.70    2.50
   0   7  -2   45.50    2.50
   0  -7   2   41.20    4.00
  -1   7  -2    4.50    1.10
   1  -7   2    4.80    2.50
  -2   7  -2   52.49    3.30
   2  -7   2   60.99    6.00
  -3   7  -2   68.49    4.00
   3  -7   2   70.89    6.50
  -4   7  -2   15.90    2.30
   4  -7   2   13.70    4.20
  -5   7  -2    2.10    0.80
   5  -7   2   -2.00    2.30
  -6   7  -2   32.00    4.00
   6  -7   2   28.60    5.80
  10   6  -2   21.50    3.20
   9   6  -2   19.40    2.70
  -9  -6   2   18.50    4.50
   8   6  -2    0.90    0.80
  -8  -6   2   -0.80    1.40
   7   6  -2   30.30    2.90
  -7  -6   2   35.00    5.10
   6   6  -2   31.80    2.80
  -6  -6   2   34.00    5.30
   5   6  -2    6.90    1.40
  -5  -6   2   10.10    2.40
   4   6  -2  221.58    7.40
  -4  -6   2  215.78    9.70
   3   6  -2   42.50    2.70
  -3  -6   2   42.90    3.80
   2   6  -2    3.70    0.60
   2   6  -2    4.40    0.90
  -2  -6   2    2.40    1.50
   1   6  -2  245.68    6.30
   1   6  -2  250.97    7.10
  -1  -6   2  233.48    9.80
   0   6  -2  311.77    8.20
   0   6  -2  316.37    8.20
   0  -6   2  324.27   11.90
  -1   6  -2   11.00    1.20
  -1   6  -2   10.00    1.50
   1  -6   2    9.90    2.90
  -2   6  -2    6.40    1.30
   2  -6   2    8.80    3.00
  -3   6  -2   47.10    3.10
   3  -6   2   46.00    4.90
  -4   6  -2   17.00    2.30
   4  -6   2   19.40    4.20
  -5   6  -2   13.50    2.30
   5  -6   2    8.60    3.10
  -6   6  -2   27.60    3.60
   6  -6   2   26.70    5.10
  -7   6  -2    6.50    2.00
   7  -6   2    1.10    3.10
  10   5  -2    0.50    1.20
 -10  -5   2    5.50    2.30
   9   5  -2   39.70    3.50
  -9  -5   2   34.90    5.80
   8   5  -2   22.80    3.00
  -8  -5   2   18.70    3.90
   7   5  -2  143.49    6.10
  -7  -5   2  140.39    8.60
   6   5  -2   41.50    3.00
  -6  -5   2   39.40    4.40
   5   5  -2   99.19    4.60
  -5  -5   2   96.29    6.20
   4   5  -2   99.09    4.30
  -4  -5   2   95.09    5.80
   3   5  -2  161.98    5.60
  -3  -5   2  164.08    7.40
   2   5  -2   96.19    3.80
   2   5  -2   97.99    2.60
  -2  -5   2   94.79    5.20
   1   5  -2    8.20    0.80
   1   5  -2    7.70    1.10
  -1  -5   2    7.60    1.70
   0   5  -2    0.70    0.40
   0   5  -2    1.50    0.60
   0  -5   2   -0.70    0.90
  -1   5  -2  115.79    4.30
  -1   5  -2  125.79    3.60
   1  -5   2  129.19    6.90
  -2   5  -2    6.80    0.60
  -2   5  -2    5.80    1.10
   2  -5   2    5.60    2.20
  -3   5  -2   25.90    2.20
   3  -5   2   27.30    4.00
  -4   5  -2  178.38    6.70
   4  -5   2  166.68    8.50
  -5   5  -2  150.38    6.40
   5  -5   2  145.99    8.00
  -6   5  -2   -0.10    0.90
   6  -5   2   -0.30    1.80
  -7   5  -2    2.40    1.10
   7  -5   2    4.20    2.90
  -8   5  -2   37.20    3.80
   8  -5   2   36.40    5.70
  10   4  -2   10.00    2.10
 -10  -4   2   11.60    3.40
   9   4  -2   25.00    2.60
  -9  -4   2   25.40    4.80
   8   4  -2   22.50    2.30
  -8  -4   2   26.10    4.50
   7   4  -2    0.70    0.70
  -7  -4   2   -0.10    1.30
   6   4  -2   40.70    2.80
  -6  -4   2   40.00    4.00
   5   4  -2   79.79    3.80
  -5  -4   2   80.59    5.30
   4   4  -2  334.97    9.20
  -4  -4   2  328.77   11.90
   3   4  -2   92.89    3.70
  -3  -4   2   89.99    4.90
   2   4  -2   20.20    0.80
   2   4  -2   20.40    1.60
  -2  -4   2   19.70    2.10
   1   4  -2    3.00    0.70
   1   4  -2    2.70    0.50
  -1  -4   2    3.00    1.30
   0   4  -2  118.89    3.70
   0   4  -2  120.79    3.70
   0  -4   2  123.69    5.70
  -1   4  -2  409.86   10.10
  -1   4  -2  416.96    9.20
   1  -4   2  437.96   13.70
  -2   4  -2  465.95   11.90
  -2   4  -2  502.15    9.90
   2  -4   2  485.65   14.90
  -3   4  -2    3.10    0.90
   3  -4   2    4.50    1.70
  -4   4  -2   34.00    2.60
   4  -4   2   34.90    3.60
  -5   4  -2  245.78    8.30
   5  -4   2  257.07   10.60
  -6   4  -2   20.90    2.70
   6  -4   2   33.40    4.90
  -7   4  -2   31.10    2.90
   7  -4   2   34.60    5.50
  -8   4  -2    0.60    1.10
   8  -4   2   -0.70    1.50
  -9   4  -2   18.50    2.90
 -10  -3   2    1.40    1.40
   9   3  -2   25.20    2.40
  -9  -3   2   24.00    4.60
   8   3  -2   25.30    2.40
  -8  -3   2   26.50    4.30
   7   3  -2   35.90    2.60
  -7  -3   2   38.40    4.30
   6   3  -2   39.40    2.60
  -6  -3   2   40.60    3.80
   5   3  -2  252.07    7.60
  -5  -3   2  256.27   10.30
   4   3  -2    4.70    1.00
  -4  -3   2    4.30    1.50
   3   3  -2  353.36    9.10
  -3  -3   2  358.46   11.40
   2   3  -2   43.80    2.20
  -2  -3   2   54.89    1.90
  -2  -3   2   47.40    3.00
   1   3  -2   68.19    2.50
   1   3  -2   66.09    1.90
  -1  -3   2   59.59    3.40
   0   3  -2   27.70    1.40
   0   3  -2   28.80    1.40
   0  -3   2   28.90    2.60
  -1   3  -2  421.16    9.00
  -1   3  -2  411.16    9.80
   1  -3   2  440.56   12.80
  -2   3  -2  188.88    5.70
   2  -3   2  197.18    7.30
  -3   3  -2   25.80    1.90
   3  -3   2   21.60    2.40
  -4   3  -2    0.50    0.40
   4  -3   2    0.90    0.70
  -5   3  -2   25.20    2.10
   5  -3   2   24.30    2.70
  -6   3  -2   13.70    2.20
   6  -3   2   16.20    3.20
  -7   3  -2  319.07   10.20
   7  -3   2  309.07   13.00
  -8   3  -2    3.80    1.40
   8  -3   2    5.70    2.10
  -9   3  -2    4.30    1.40
   9  -3   2    1.40    2.90
 -10  -2   2   23.90    4.80
   9   2  -2   13.00    2.00
  -9  -2   2   10.90    3.30
   8   2  -2   40.80    2.80
  -8  -2   2   40.90    4.50
   7   2  -2   28.70    2.20
  -7  -2   2   26.50    4.10
   6   2  -2   52.59    2.90
  -6  -2   2   51.89    2.30
  -6  -2   2   50.99    4.20
   5   2  -2   93.09    3.80
  -5  -2   2   95.69    5.50
  -5  -2   2   90.49    2.90
   4   2  -2  480.75   11.40
  -4  -2   2  472.85   14.60
  -4  -2   2  464.25   10.00
   3   2  -2   99.79    3.50
  -3  -2   2  101.79    2.60
  -3  -2   2  101.79    4.70
   2   2  -2   46.20    2.10
  -2  -2   2   48.60    2.80
  -2  -2   2   48.70    1.30
   1   2  -2  104.19    3.10
   1   2  -2  107.59    2.50
  -1  -2   2  104.09    4.10
   0   2  -2  576.64   11.90
   0   2  -2  567.54   12.00
   0  -2   2  583.74   15.30
  -1   2  -2  495.85    9.90
  -1   2  -2  471.35   10.60
   1  -2   2  472.05   13.10
  -2   2  -2  166.48    4.90
   2  -2   2  181.18    6.40
  -3   2  -2  221.68    6.40
   3  -2   2  234.68    8.00
  -4   2  -2  267.47    7.50
   4  -2   2  249.28    9.00
  -5   2  -2    0.50    0.40
   5  -2   2   -0.10    0.80
  -6   2  -2   40.90    2.90
   6  -2   2   50.19    4.10
  -7   2  -2  110.49    5.10
   7  -2   2  112.39    6.70
  -8   2  -2    8.90    1.70
   8  -2   2   12.50    2.60
  -9   2  -2   14.40    2.40
   9  -2   2   15.30    4.30
 -10   2  -2    6.20    2.10
 -10  -1   2    1.40    2.00
  -9  -1   2   25.20    4.40
   8   1  -2   44.80    2.80
  -8  -1   2   48.10    4.60
   7   1  -2    9.20    1.30
  -7  -1   2   12.20    3.00
  -7  -1   2   10.70    1.40
   6   1  -2  462.55   11.40
  -6  -1   2  462.05   15.60
  -6  -1   2  461.95   11.10
   5   1  -2  386.06    9.70
  -5  -1   2  390.26    9.40
   4   1  -2  442.66   10.50
  -4  -1   2  445.16   10.10
  -4  -1   2  452.25   13.70
   3   1  -2    8.10    0.80
  -3  -1   2   10.10    1.70
  -3  -1   2    8.40    0.80
   2   1  -2  301.17    7.20
  -2  -1   2  305.87    9.00
  -2  -1   2  313.87    6.70
   1   1  -2   41.00    1.60
  -1  -1   2   40.40    1.30
  -1  -1   2   42.40    2.00
   0   1  -2  331.57    7.00
   0   1  -2  316.77    6.90
   0  -1   2  328.67    8.90
  -1   1  -2 1311.07   27.30
  -1   1  -2 1411.46   27.70
   1  -1   2 1464.65   33.20
  -2   1  -2   14.30    1.00
  -2   1  -2   14.20    0.60
   2  -1   2   13.70    1.40
  -3   1  -2   54.59    2.40
   3  -1   2   59.69    3.20
  -4   1  -2  241.88    6.80
   4  -1   2  236.78    5.20
   4  -1   2  242.38    8.60
  -5   1  -2   38.50    2.30
   5  -1   2   36.20    3.20
   5  -1   2   37.10    1.30
  -6   1  -2   81.59    3.80
   6  -1   2   80.39    5.20
  -7   1  -2    0.60    0.60
   7  -1   2    0.50    1.10
  -8   1  -2    4.20    1.10
   8  -1   2    2.30    2.10
  -9   1  -2   80.29    4.60
   9  -1   2   83.99    6.90
 -10   1  -2    0.90    1.10
  10  -1   2    9.00    2.50
  10   0  -2    2.70    2.80
  -8   0   2   23.30    2.20
  -8   0   2   28.50    4.20
   7   0  -2   25.30    1.80
  -7   0   2   28.40    4.10
  -7   0   2   24.10    2.10
   6   0  -2  436.76   10.80
  -6   0   2  448.06   11.40
  -6   0   2  460.35   15.10
   5   0  -2  105.29    3.60
  -5   0   2  104.69    3.90
  -5   0   2  104.49    5.50
   4   0  -2 2393.96   48.30
  -4   0   2 2460.55   58.49
  -4   0   2 2432.36   48.60
   3   0  -2    3.30    0.60
  -3   0   2    3.80    0.80
  -3   0   2    3.70    0.90
   2   0  -2  175.78    4.40
  -2   0   2  178.38    4.50
  -2   0   2  175.68    5.70
   1   0  -2   17.10    0.90
  -1   0   2   19.00    0.80
  -1   0   2   18.20    1.10
   0   0  -2  180.88    5.30
   0   0  -2  209.98    4.70
   0   0  -2  208.68    4.50
   0   0   2  211.78    5.40
  -1   0  -2  196.18    4.50
  -1   0  -2  191.18    4.40
   1   0   2  198.38    5.40
  -2   0  -2  283.87    6.60
  -2   0  -2  290.17    6.30
   2   0   2  289.77    8.20
  -3   0  -2    6.90    0.70
  -3   0  -2    5.00    0.70
   3   0   2    5.50    1.20
  -4   0  -2    5.40    0.90
   4   0   2    5.40    0.60
   4   0   2    5.20    1.50
  -5   0  -2    0.10    0.40
   5   0   2    0.90    0.30
   5   0   2   -0.40    0.80
  -6   0  -2  643.64   15.00
   6   0   2  623.94   13.70
   6   0   2  631.64   19.60
  -7   0  -2    2.20    0.80
   7   0   2   -0.10    1.10
  -8   0  -2    1.70    1.00
   8   0   2    2.70    2.30
  -9   0  -2   17.60    2.30
   9   0   2   19.70    4.00
  10   0   2    5.60    1.90
  10  -1  -2   23.50    5.10
   9  -1  -2    0.20    2.00
   8  -1  -2    6.10    2.10
  -8   1   2    6.40    1.40
   7  -1  -2   97.09    3.80
  -7   1   2   94.29    4.50
   6  -1  -2   24.40    1.60
  -6   1   2   23.20    3.20
  -6   1   2   23.30    2.10
   5  -1  -2   14.00    1.20
  -5   1   2   16.60    1.60
  -5   1   2   12.70    2.10
   4  -1  -2   13.20    1.00
  -4   1   2   13.80    2.00
  -4   1   2   13.80    1.60
   3  -1  -2  134.69    3.80
  -3   1   2  135.99    5.10
  -3   1   2  137.69    4.50
   2  -1  -2  530.15   11.10
  -2   1   2  520.55   13.40
  -2   1   2  502.35   11.60
   1  -1  -2  530.35   11.40
  -1   1   2  555.64   13.30
  -1   1   2  565.94   11.70
   0  -1  -2  124.09    3.20
   0   1   2  130.99    3.10
  -1  -1  -2 1033.20   21.20
  -1  -1  -2 1021.60   22.20
  -1  -1  -2 1043.80   24.50
   1   1   2 1129.89   25.30
  -2  -1  -2   10.20    1.00
  -2  -1  -2   11.20    0.90
  -2  -1  -2   11.40    0.70
  -3  -1  -2  449.56    9.90
  -3  -1  -2  463.55   10.20
  -4  -1  -2   13.70    1.00
  -4  -1  -2   15.40    1.80
   4   1   2   16.60    1.10
  -5  -1  -2   32.80    2.80
  -5  -1  -2   34.60    1.90
   5   1   2   33.70    1.80
  -6  -1  -2   82.99    3.30
  -6  -1  -2   82.69    5.00
   6   1   2   79.49    3.10
  -7  -1  -2    1.40    1.60
  -7  -1  -2    1.00    0.70
   7   1   2    0.40    0.40
  -8  -1  -2  134.59    5.10
   8   1   2  135.89    8.40
   9   1   2    6.80    2.40
  10   1   2    0.40    1.60
  10  -2  -2    3.40    2.70
   9  -2  -2    3.70    2.20
  -9   2   2    4.30    1.40
   8  -2  -2    5.50    1.70
  -8   2   2    3.00    1.20
   7  -2  -2    8.30    2.30
  -7   2   2    7.60    1.50
   6  -2  -2   12.10    2.50
   6  -2  -2    9.90    1.10
  -6   2   2   10.00    1.80
   5  -2  -2  252.47    9.50
   5  -2  -2  246.98    6.30
  -5   2   2  252.17    7.90
   4  -2  -2   66.49    3.70
   4  -2  -2   63.49    2.30
  -4   2   2   64.59    3.30
   3  -2  -2   57.09    3.10
   3  -2  -2   56.09    2.00
  -3   2   2   61.29    2.90
   2  -2  -2  395.46    8.40
   2  -2  -2  390.96   10.60
  -2   2   2  388.16    9.60
   1  -2  -2   36.80    1.70
   1  -2  -2   38.20    1.50
  -1   2   2   37.50    1.80
   0  -2  -2  582.74   12.60
   0  -2  -2  604.84   14.20
   0   2   2  616.34   14.10
   0   2   2  592.04   12.60
  -1  -2  -2    0.90    0.30
  -1  -2  -2    0.60    0.30
   1   2   2    0.10    0.20
  -2  -2  -2   58.49    1.80
  -2  -2  -2   60.09    2.70
  -2  -2  -2   61.69    2.30
  -3  -2  -2  102.19    4.30
  -3  -2  -2  105.89    2.90
  -3  -2  -2  103.19    3.50
  -4  -2  -2   50.19    3.20
  -4  -2  -2   48.00    1.90
   4   2   2   49.99    2.20
  -5  -2  -2  122.49    5.90
  -5  -2  -2  126.79    3.80
   5   2   2  129.49    4.30
  -6  -2  -2   45.30    2.20
  -6  -2  -2   45.80    3.70
   6   2   2   49.80    2.50
  -7  -2  -2    0.80    1.40
  -7  -2  -2    0.30    0.50
   7   2   2   -0.10    0.30
  -8  -2  -2  169.38    5.50
  -8  -2  -2  165.78    8.70
  -9  -2  -2   14.30    3.10
  10   2   2    5.60    1.90
   9  -3  -2    5.10    1.90
  -9   3   2    1.30    1.30
   8  -3  -2   14.20    3.10
  -8   3   2   16.50    2.70
   7  -3  -2   27.70    4.10
  -7   3   2   29.20    2.70
   6  -3  -2   63.69    4.50
  -6   3   2   57.69    3.70
   5  -3  -2  117.99    5.90
   5  -3  -2  114.29    3.40
  -5   3   2  112.29    5.10
   4  -3  -2   12.60    2.00
   4  -3  -2    8.40    0.70
  -4   3   2    7.50    1.40
   3  -3  -2  294.67    6.80
   3  -3  -2  294.37    9.20
  -3   3   2  291.37    8.40
   2  -3  -2    3.90    0.60
   2  -3  -2    6.40    1.30
  -2   3   2    3.10    0.80
   1  -3  -2  236.68    5.90
   1  -3  -2  248.28    7.20
  -1   3   2  239.48    6.60
   0  -3  -2  312.07    8.60
   0  -3  -2  320.37    7.50
  -1  -3  -2  202.78    5.90
  -1  -3  -2  210.68    5.50
   1   3   2  197.18    4.90
  -2  -3  -2 1148.29   24.10
  -2  -3  -2 1135.89   27.90
   2   3   2 1157.78   22.80
  -3  -3  -2  211.08    4.90
  -3  -3  -2  213.68    7.30
  -3  -3  -2  215.78    6.20
  -4  -3  -2   91.79    2.70
  -4  -3  -2   90.69    4.60
   4   3   2   87.79    3.50
  -5  -3  -2  238.08    5.80
  -5  -3  -2  224.68    8.90
   5   3   2  228.08    6.70
  -6  -3  -2    2.00    0.60
  -6  -3  -2    2.00    1.30
   6   3   2    3.20    0.80
  -7  -3  -2   -0.20    1.00
  -7  -3  -2    0.50    0.50
   7   3   2    0.60    0.50
  -8  -3  -2    1.10    1.30
   8   3   2    1.80    0.80
  -9  -3  -2   -1.10    0.70
 -10  -3  -2   10.70    2.80
   9  -4  -2    0.70    3.00
  -9   4   2   -1.20    1.10
   8  -4  -2   34.90    5.40
  -8   4   2   34.40    3.50
   7  -4  -2    3.30    2.10
  -7   4   2    3.30    1.40
   6  -4  -2    1.60    1.10
  -6   4   2    1.70    0.90
   5  -4  -2   42.10    3.50
  -5   4   2   32.00    2.90
   4  -4  -2    0.80    0.40
   4  -4  -2    1.00    0.80
  -4   4   2    1.90    0.90
   3  -4  -2  686.83   14.40
   3  -4  -2  666.13   18.40
  -3   4   2  663.73   16.50
   2  -4  -2   35.60    1.70
   2  -4  -2   43.60    2.90
  -2   4   2   35.60    2.40
   1  -4  -2  123.89    5.00
   1  -4  -2  126.79    3.90
   0  -4  -2   12.00    1.10
   0  -4  -2   12.90    1.40
   0   4   2   11.30    1.10
  -1  -4  -2    1.50    0.60
  -1  -4  -2    2.30    0.70
   1   4   2    1.60    0.50
  -2  -4  -2 1153.98   24.20
  -2  -4  -2 1114.59   27.80
   2   4   2 1117.29   22.80
  -3  -4  -2   68.89    3.70
  -3  -4  -2   74.69    3.30
   3   4   2   70.29    2.20
  -4  -4  -2  255.67    9.20
   4   4   2  252.47    7.30
   4   4   2  250.27    5.90
  -5  -4  -2   80.09    2.50
  -5  -4  -2   78.49    4.80
   5   4   2   80.79    3.60
  -6  -4  -2   27.70    1.50
  -6  -4  -2   28.80    3.20
   6   4   2   26.30    2.10
  -7  -4  -2   38.40    4.00
   7   4   2   37.50    2.70
  -8  -4  -2   -0.80    1.00
   8   4   2    2.00    0.70
  -9  -4  -2    6.40    2.00
   9   4   2    6.20    1.40
 -10  -4  -2   77.19    6.80
  -9   5   2   10.20    3.20
   8  -5  -2   -3.00    1.20
  -8   5   2    0.60    1.30
   7  -5  -2    1.30    1.30
  -7   5   2    0.70    1.60
   6  -5  -2  216.28    9.60
  -6   5   2  204.68    8.30
   5  -5  -2   38.70    3.70
  -5   5   2   29.40    2.90
   4  -5  -2   76.19    4.80
  -4   5   2   71.69    4.20
   3  -5  -2  233.58    6.10
   3  -5  -2  239.08    8.90
  -3   5   2  225.98    7.90
   2  -5  -2  129.09    5.90
   2  -5  -2  129.19    4.10
  -2   5   2  126.09    5.20
   1  -5  -2   16.40    2.50
   1  -5  -2   17.20    1.40
  -1   5   2   17.70    1.70
   0  -5  -2  128.29    5.20
   0  -5  -2  126.59    4.40
   0   5   2  128.29    4.50
  -1  -5  -2    1.10    0.60
  -1  -5  -2    1.50    0.80
   1   5   2    2.10    0.60
  -2  -5  -2  507.15   12.40
  -2  -5  -2  489.95   14.00
   2   5   2  496.05   11.20
  -3  -5  -2   43.80    2.60
  -3  -5  -2   39.20    2.90
   3   5   2   38.30    1.70
  -4  -5  -2  324.07   11.10
   4   5   2  319.27    8.90
   4   5   2  305.67    7.00
  -5  -5  -2   47.60    3.80
   5   5   2   44.10    2.80
   5   5   2   43.70    1.60
  -6  -5  -2   29.00    3.30
   6   5   2   28.40    2.30
  -7  -5  -2   63.49    5.20
   7   5   2   65.29    3.80
  -8  -5  -2   18.60    3.90
   8   5   2   13.20    2.10
  -9  -5  -2    0.60    1.20
   9   5   2    0.60    0.90
 -10  -5  -2    4.80    1.90
   8  -6  -2   13.40    4.30
  -8   6   2   14.30    3.00
   7  -6  -2   13.90    3.80
  -7   6   2   16.70    3.20
   6  -6  -2    1.90    2.00
  -6   6   2    4.40    1.10
   5  -6  -2    8.60    2.60
  -5   6   2    7.10    2.10
   4  -6  -2   12.60    2.60
  -4   6   2   16.00    2.40
   3  -6  -2    3.90    0.80
   3  -6  -2    3.90    1.90
  -3   6   2    4.80    1.40
   2  -6  -2    0.90    0.50
   2  -6  -2    0.10    1.30
  -2   6   2   -0.10    0.60
   1  -6  -2  178.88    5.50
   1  -6  -2  162.88    7.60
  -1   6   2  180.48    6.30
   0  -6  -2   21.50    1.70
   0  -6  -2   21.60    2.40
   0   6   2   21.90    1.90
  -1  -6  -2  677.63   16.00
  -1  -6  -2  669.83   18.50
   1   6   2  674.03   15.50
  -2  -6  -2   92.89    4.10
  -2  -6  -2   88.79    4.50
   2   6   2   91.09    3.40
  -3  -6  -2  235.78    8.80
   3   6   2  241.58    6.20
  -4  -6  -2   44.90    3.50
   4   6   2   43.40    1.80
   4   6   2   46.30    2.90
  -5  -6  -2    3.40    1.30
   5   6   2    3.20    1.10
  -6  -6  -2   21.80    3.50
   6   6   2   25.70    2.40
  -7  -6  -2   53.09    5.00
   7   6   2   57.99    3.70
  -8  -6  -2   -0.70    0.90
   8   6   2   -0.40    0.70
  -9  -6  -2   63.29    6.10
   9   6   2   57.69    4.10
 -10  -6  -2    2.90    2.10
  10   6   2    2.50    1.10
   7  -7  -2   59.49    6.30
  -7   7   2   74.09    5.80
   6  -7  -2   -0.20    1.90
  -6   7   2    6.60    1.60
   5  -7  -2   15.90    3.50
  -5   7   2   12.80    2.30
   4  -7  -2  207.48    9.90
  -4   7   2  222.38    8.70
   3  -7  -2    0.20    1.70
  -3   7   2    0.60    1.00
   2  -7  -2    9.10    1.30
   2  -7  -2    9.70    2.90
  -2   7   2    8.30    1.60
   1  -7  -2    2.60    1.60
   1  -7  -2    1.60    0.70
  -1   7   2    2.80    0.90
   0  -7  -2   73.69    3.50
   0  -7  -2   71.69    4.60
   0   7   2   71.89    3.70
  -1  -7  -2  131.19    6.00
  -1  -7  -2  128.69    5.10
   1   7   2  128.99    4.80
  -2  -7  -2   83.39    4.60
  -2  -7  -2   84.59    4.10
   2   7   2   84.29    3.50
  -3  -7  -2  282.87   10.50
   3   7   2  292.87    8.90
   3   7   2  294.17    7.50
  -4  -7  -2  226.98    9.30
   4   7   2  216.08    7.60
  -5  -7  -2   40.60    3.80
   5   7   2   40.50    3.10
  -6  -7  -2   80.79    5.90
   6   7   2   76.89    4.40
  -7  -7  -2    1.40    1.70
   7   7   2   -0.10    0.80
  -8  -7  -2   33.20    5.10
   8   7   2   36.80    3.10
  -9  -7  -2   34.50    5.60
   9   7   2   35.20    3.30
 -10  -7  -2    5.40    3.20
  10   7   2    1.50    1.40
   7  -8  -2   23.70    5.50
   6  -8  -2   -3.60    2.50
  -6   8   2    0.90    1.00
   5  -8  -2   17.60    4.30
  -5   8   2   14.00    2.60
   4  -8  -2   -0.50    2.30
  -4   8   2    2.20    1.50
   3  -8  -2   33.60    5.00
  -3   8   2   37.60    3.30
   2  -8  -2   43.30    4.90
  -2   8   2   63.89    4.00
   1  -8  -2    0.90    1.10
   1  -8  -2    0.60    0.50
  -1   8   2    0.70    0.80
   0  -8  -2    2.20    1.30
   0  -8  -2    2.20    0.90
   0   8   2    0.90    0.70
  -1  -8  -2   84.49    5.00
   1   8   2   68.89    3.60
   1   8   2   74.99    3.70
  -2  -8  -2    1.90    0.90
   2   8   2    1.40    0.60
   2   8   2    0.10    0.60
  -3  -8  -2  413.76   14.30
   3   8   2  415.46   10.30
   3   8   2  430.16   12.00
  -4  -8  -2    2.30    1.20
   4   8   2    1.80    1.00
  -5  -8  -2  204.98    9.70
   5   8   2  201.28    7.80
  -6  -8  -2    1.20    1.10
   6   8   2   -0.50    0.50
  -7  -8  -2    8.00    2.60
   7   8   2    6.40    1.70
  -8  -8  -2    5.30    2.50
   8   8   2    6.40    1.60
  -9  -8  -2    5.00    2.80
   9   8   2    1.90    1.40
  10   8   2    5.20    2.20
   6  -9  -2    4.70    4.10
   5  -9  -2   55.89    6.90
  -5   9   2   76.69    5.50
   4  -9  -2   -1.30    2.50
  -4   9   2    3.00    0.90
   3  -9  -2    0.40    2.40
   2  -9  -2   54.59    5.30
  -2   9   2   62.49    4.20
   1  -9  -2   24.60    4.20
  -1   9   2   26.40    2.50
   0  -9  -2   88.69    5.90
   0   9   2   88.29    4.10
   0   9   2   92.39    4.60
  -1  -9  -2    3.10    1.60
   1   9   2    0.80    0.80
   1   9   2    0.90    0.80
  -2  -9  -2   90.49    5.70
   2   9   2   96.09    4.70
   2   9   2   97.29    4.10
  -3  -9  -2    1.80    1.50
   3   9   2    1.70    0.90
  -4  -9  -2   11.10    2.60
   4   9   2    9.70    2.10
  -5  -9  -2   43.10    4.30
   5   9   2   44.60    3.60
  -6  -9  -2   11.10    2.50
   6   9   2   13.60    2.50
  -7  -9  -2   14.70    3.40
   7   9   2   12.60    2.50
  -8  -9  -2   60.89    6.10
   8   9   2   61.09    4.60
  -9  -9  -2    0.40    1.30
   9   9   2    1.70    1.50
   5 -10  -2   51.69    8.30
  -5  10   2   45.40    6.80
   4 -10  -2   47.00    6.80
  -4  10   2   52.99    4.60
   3 -10  -2   12.60    3.60
  -3  10   2   17.60    2.90
   2 -10  -2    9.70    3.20
  -2  10   2   12.10    2.40
   1 -10  -2   12.30    3.20
  -1  10   2   11.40    2.40
   0 -10  -2   30.00    3.50
   0  10   2   25.00    2.60
   0  10   2   25.80    3.30
  -1 -10  -2    3.20    1.50
   1  10   2    3.10    1.00
   1  10   2    3.10    1.00
  -2 -10  -2   43.90    4.20
   2  10   2   46.50    3.30
  -3 -10  -2   75.29    5.60
   3  10   2   76.49    4.60
  -4 -10  -2   46.10    4.60
   4  10   2   49.80    3.80
  -5 -10  -2   70.99    6.00
   5  10   2   71.09    4.70
  -6 -10  -2    1.10    1.80
   6  10   2    2.10    0.80
  -7 -10  -2   33.90    5.80
   7  10   2   34.20    3.40
  -8 -10  -2    1.50    2.10
   8  10   2   -0.40    0.80
   4 -11  -2    1.50    2.50
   3 -11  -2   75.09    6.60
  -3  11   2   66.69    5.10
   2 -11  -2    4.90    2.20
  -2  11   2    0.60    1.00
   1 -11  -2    9.60    3.10
  -1  11   2    7.60    1.70
   0 -11  -2   31.00    3.60
   0  11   2   24.30    3.00
  -1 -11  -2   34.60    5.40
   1  11   2   24.90    2.50
  -2 -11  -2   50.99    4.80
   2  11   2   46.30    3.60
  -3 -11  -2    6.20    2.60
   3  11   2    3.70    1.50
  -4 -11  -2   64.99    5.70
   4  11   2   56.39    4.20
  -5 -11  -2   16.30    3.60
   5  11   2    9.70    2.10
  -6 -11  -2   13.00    2.80
   6  11   2   13.80    2.80
  -7 -11  -2   24.20    4.60
   7  11   2   18.60    3.40
  -8 -11  -2    4.40    2.30
   2 -12  -2   10.00    3.00
  -2  12   2    4.80    2.60
   1 -12  -2   19.40    4.00
   0 -12  -2    1.00    1.20
  -1 -12  -2    8.40    2.20
  -2 -12  -2   42.00    4.70
   2  12   2   39.50    3.40
  -3 -12  -2   39.80    6.10
   3  12   2   33.60    3.30
  -4 -12  -2   18.80    3.90
   4  12   2   17.90    3.10
  -5 -12  -2    5.40    1.70
   5  12   2   -1.00    0.90
  -6 -12  -2   52.49    6.00
   6  12   2   50.89    4.50
   0 -13  -2   13.70    3.60
  -2 -13  -2   19.50    3.80
  -3 -13  -2   46.70    5.30
   3  13   2   34.80    4.10
  -4 -13  -2    1.10    2.10
   4  13   2   -0.60    1.10
  -5 -13  -2   12.40    4.60
   5  11  -3    1.10    1.60
   4  11  -3  160.48    7.30
  -4 -11   3  160.48   11.00
  -3 -11   3    0.00    2.60
  -2 -11   3   12.40    2.00
  -1 -11   3   24.50    5.10
   0 -11   3   15.90    3.40
   6  10  -3    0.30    1.40
  -6 -10   3   -0.60    2.70
   5  10  -3    5.60    1.70
  -5 -10   3    7.40    2.20
   4  10  -3   11.30    2.30
  -4 -10   3    9.50    3.00
   3  10  -3    0.00    0.70
  -3 -10   3    0.90    2.60
   2  10  -3   63.49    5.60
  -2 -10   3   66.59    6.10
  -1 -10   3    6.90    3.00
   0 -10   3    2.30    2.10
   1 -10   3    2.00    1.30
  -2  10  -3    6.10    1.60
   2 -10   3    8.60    3.70
  -3  10  -3  145.89    6.60
   3 -10   3  136.79   12.70
   7   9  -3    4.30    2.10
  -7  -9   3    6.60    3.50
   6   9  -3    0.50    1.10
  -6  -9   3    4.10    1.40
   5   9  -3   42.60    3.50
  -5  -9   3   46.60    4.90
   4   9  -3   -0.20    0.70
  -4  -9   3    1.80    1.90
   3   9  -3    1.70    1.10
  -3  -9   3    7.30    3.10
   2   9  -3   60.29    3.70
  -2  -9   3   65.99    5.60
  -1  -9   3   11.90    2.90
   0  -9   3  109.19    7.90
  -1   9  -3    8.00    1.50
   1  -9   3    7.80    2.60
  -2   9  -3   21.70    2.70
   2  -9   3   18.10    4.30
  -3   9  -3    3.30    1.50
   3  -9   3    4.00    3.00
  -4   9  -3    3.10    1.50
   4  -9   3    1.40    2.60
   8   8  -3   64.49    4.60
  -8  -8   3   65.49    7.00
   7   8  -3   21.60    3.00
  -7  -8   3   20.60    5.10
   6   8  -3    0.80    0.70
  -6  -8   3    3.00    1.10
   5   8  -3  225.98    8.40
  -5  -8   3  209.08   11.40
   4   8  -3    4.70    1.40
  -4  -8   3    2.30    2.00
   3   8  -3    4.70    1.40
  -3  -8   3    5.70    1.90
   2   8  -3    5.60    1.20
  -2  -8   3    6.20    1.90
   1   8  -3    5.40    1.20
  -1  -8   3    4.80    1.90
   0   8  -3   24.20    2.00
   0  -8   3   27.20    4.70
  -1   8  -3    5.30    1.30
   1  -8   3    5.50    2.00
  -2   8  -3   41.90    3.00
   2  -8   3   47.00    5.30
  -3   8  -3   42.20    3.20
   3  -8   3   41.30    6.30
  -4   8  -3   11.80    2.20
   4  -8   3   12.00    4.10
  -5   8  -3   14.30    2.50
   5  -8   3    7.60    4.90
   9   7  -3   -0.90    1.00
  -9  -7   3   -1.90    2.00
   8   7  -3   18.80    2.80
  -8  -7   3   32.10    5.40
   7   7  -3   44.30    3.60
  -7  -7   3   41.50    6.30
   6   7  -3   22.30    2.90
  -6  -7   3   27.30    4.70
   5   7  -3   49.70    3.60
  -5  -7   3   58.99    5.50
   4   7  -3   30.80    2.70
  -4  -7   3   30.10    4.50
   3   7  -3  431.46   11.80
  -3  -7   3  411.96   15.50
   2   7  -3    0.60    0.50
  -2  -7   3    2.10    1.80
   1   7  -3   16.20    1.60
   1   7  -3   17.60    1.40
  -1  -7   3   24.10    4.00
   0   7  -3   86.39    3.60
   0   7  -3   93.09    3.70
   0  -7   3   90.59    6.00
  -1   7  -3  102.59    4.40
   1  -7   3  102.09    6.70
  -2   7  -3   54.79    3.30
   2  -7   3   52.49    5.70
  -3   7  -3    0.10    0.70
   3  -7   3   -1.50    2.60
  -4   7  -3   14.80    2.50
   4  -7   3    7.50    3.50
  -5   7  -3    6.90    1.80
   5  -7   3    3.40    3.90
  -6   7  -3    5.80    1.60
   6  -7   3    5.30    4.00
   9   6  -3   24.80    3.30
  -9  -6   3   31.50    5.60
   8   6  -3   13.20    2.30
  -8  -6   3   23.90    5.10
   7   6  -3   27.90    2.80
  -7  -6   3   23.70    4.40
   6   6  -3  212.08    7.90
  -6  -6   3  205.28   10.80
   5   6  -3    7.30    1.60
  -5  -6   3    8.80    2.70
   4   6  -3    8.60    1.60
  -4  -6   3    8.60    2.20
   3   6  -3   56.59    3.20
  -3  -6   3   48.90    4.30
   2   6  -3  211.48    6.80
   2   6  -3  213.28    5.10
  -2  -6   3  206.28    9.20
   1   6  -3   39.50    2.30
   1   6  -3   38.70    1.90
  -1  -6   3   41.40    3.70
   0   6  -3    0.60    0.40
   0   6  -3    0.10    0.40
   0  -6   3   -0.30    1.20
  -1   6  -3   51.39    2.20
  -1   6  -3   45.80    2.60
   1  -6   3   49.80    4.80
  -2   6  -3   42.40    2.70
   2  -6   3   45.10    5.30
  -3   6  -3    4.20    1.20
   3  -6   3    5.70    2.80
  -4   6  -3  109.79    5.20
   4  -6   3  114.69    7.60
  -5   6  -3    9.90    1.90
   5  -6   3   10.20    3.80
  -6   6  -3   35.80    3.40
   6  -6   3   30.10    5.50
  -7   6  -3   31.90    4.00
   7  -6   3   30.50    6.00
  10   5  -3    8.90    1.80
 -10  -5   3   11.50    4.90
   9   5  -3  121.09    6.00
  -9  -5   3  120.29    9.00
   8   5  -3    0.60    1.00
  -8  -5   3    2.30    2.40
   7   5  -3   15.70    2.20
  -7  -5   3   17.00    3.30
   6   5  -3   30.20    2.70
  -6  -5   3   34.80    4.10
   5   5  -3   44.50    3.00
  -5  -5   3   44.90    4.30
   4   5  -3   21.60    2.00
  -4  -5   3   20.50    3.20
   3   5  -3    5.80    1.10
  -3  -5   3    4.90    1.70
   2   5  -3   19.40    1.00
   2   5  -3   22.00    1.70
  -2  -5   3   17.60    2.80
   1   5  -3  236.48    6.70
   1   5  -3  234.38    5.90
  -1  -5   3  236.88    9.30
   0   5  -3    4.80    0.80
   0   5  -3    3.70    0.70
   0  -5   3    4.40    1.80
  -1   5  -3  154.58    4.30
  -1   5  -3  148.99    5.00
   1  -5   3  150.18    7.70
  -2   5  -3  122.99    4.70
   2  -5   3  124.69    7.30
  -3   5  -3  198.98    6.70
   3  -5   3  182.98    8.90
  -4   5  -3   18.60    2.30
   4  -5   3   24.40    4.20
  -5   5  -3   24.30    2.40
   5  -5   3   25.90    4.50
  -6   5  -3   36.00    3.20
   6  -5   3   37.80    4.50
  -7   5  -3    0.90    1.00
   7  -5   3    0.00    2.20
  -8   5  -3    7.40    2.40
   8  -5   3    2.40    4.40
  10   4  -3    0.50    0.90
 -10  -4   3   -2.70    1.40
   9   4  -3   -0.20    0.70
  -9  -4   3    1.70    1.50
   8   4  -3   10.50    1.90
  -8  -4   3   10.00    3.40
   7   4  -3   42.50    3.10
  -7  -4   3   49.10    4.90
   6   4  -3  111.99    4.90
  -6  -4   3  111.59    7.10
   5   4  -3   40.70    2.80
  -5  -4   3   42.50    4.00
   4   4  -3   26.40    2.10
  -4  -4   3   27.60    2.90
   3   4  -3   21.20    1.80
  -3  -4   3   20.70    2.50
  -3  -4   3   22.50    0.80
   2   4  -3  293.97    6.40
   2   4  -3  307.67    8.00
  -2  -4   3  272.77   10.10
   1   4  -3  325.37    8.20
   1   4  -3  311.47    7.20
  -1  -4   3  322.07   10.80
   0   4  -3  374.96    8.70
   0   4  -3  362.76    8.60
   0  -4   3  359.56   11.90
  -1   4  -3    1.90    0.60
  -1   4  -3    3.20    0.50
   1  -4   3    4.80    2.00
  -2   4  -3  100.89    4.00
  -2   4  -3  104.59    2.80
   2  -4   3  102.19    5.70
  -3   4  -3  214.18    6.80
   3  -4   3  203.98    8.80
  -4   4  -3   93.39    4.30
   4  -4   3   91.19    5.80
  -5   4  -3   49.40    3.20
   5  -4   3   39.70    4.10
  -6   4  -3    7.40    1.80
   6  -4   3    4.80    2.50
  -7   4  -3   14.00    2.40
   7  -4   3   13.10    3.90
  -8   4  -3    8.00    2.20
   8  -4   3    8.70    3.30
  10   3  -3   16.10    2.90
 -10  -3   3   17.80    4.10
   9   3  -3    7.70    1.70
  -9  -3   3    5.40    2.30
   8   3  -3    4.70    1.20
  -8  -3   3    9.80    3.00
   7   3  -3  180.08    6.60
  -7  -3   3  174.18    9.20
   6   3  -3   11.60    1.80
  -6  -3   3   14.50    2.90
   5   3  -3    1.50    0.50
  -5  -3   3    1.30    1.00
   4   3  -3    6.40    1.10
  -4  -3   3    7.00    1.90
  -4  -3   3    7.40    0.60
   3   3  -3  160.18    5.20
  -3  -3   3  162.18    3.80
  -3  -3   3  154.28    6.70
   2   3  -3    1.50    0.60
  -2  -3   3   -0.10    0.50
  -2  -3   3    1.20    0.30
   1   3  -3  232.68    6.10
   1   3  -3  233.78    5.40
  -1  -3   3  230.28    8.10
   0   3  -3   90.39    2.90
   0   3  -3   93.89    2.90
   0  -3   3   94.29    4.70
  -1   3  -3  178.58    4.40
  -1   3  -3  172.08    5.00
   1  -3   3  180.78    7.30
  -2   3  -3   22.50    1.60
  -2   3  -3   22.50    0.90
   2  -3   3   22.10    2.60
  -3   3  -3  193.98    6.10
   3  -3   3  194.18    7.80
  -4   3  -3   35.20    2.40
   4  -3   3   35.70    3.40
  -5   3  -3  430.06   11.70
   5  -3   3  411.16   14.40
  -6   3  -3   10.60    1.90
   6  -3   3    6.90    2.30
  -7   3  -3    3.40    1.10
   7  -3   3    2.10    2.10
  -8   3  -3    8.20    2.10
   8  -3   3   11.40    3.30
  -9   3  -3   -0.40    0.90
   9  -3   3   -1.70    1.70
 -10  -2   3   60.29    6.30
   9   2  -3    5.80    1.30
  -9  -2   3    7.70    2.20
   8   2  -3   13.50    1.90
  -8  -2   3   14.50    3.50
   7   2  -3    1.00    0.60
  -7  -2   3   -0.20    0.90
   6   2  -3   73.49    3.60
  -6  -2   3   76.09    5.30
   5   2  -3   34.20    2.20
  -5  -2   3   37.50    3.30
  -5  -2   3   33.00    1.60
   4   2  -3   62.09    2.90
  -4  -2   3   60.99    4.10
  -4  -2   3   64.09    2.30
   3   2  -3   39.70    2.10
  -3  -2   3   44.70    3.00
  -3  -2   3   38.00    1.50
   2   2  -3  368.56    8.90
  -2  -2   3  374.76    7.90
  -2  -2   3  375.66   11.10
   1   2  -3  638.94   13.40
   1   2  -3  628.24   12.70
  -1  -2   3  588.34   16.30
   0   2  -3   35.20    1.40
   0   2  -3   37.00    1.60
   0  -2   3   35.60    2.60
  -1   2  -3  146.29    3.70
  -1   2  -3  142.99    4.10
   1  -2   3  147.39    5.70
  -2   2  -3  472.85    9.60
  -2   2  -3  466.15   10.80
   2  -2   3  460.65   13.40
  -3   2  -3   16.80    1.40
   3  -2   3   17.30    2.10
  -4   2  -3   98.59    4.00
   4  -2   3   98.39    5.10
  -5   2  -3  152.68    5.60
   5  -2   3  160.18    7.40
  -6   2  -3   56.19    3.30
   6  -2   3   53.79    4.50
  -7   2  -3   28.10    2.50
   7  -2   3   31.30    4.60
  -8   2  -3   -0.60    0.80
   8  -2   3    3.10    1.70
  -9   2  -3    1.20    1.10
   9  -2   3    0.70    2.30
 -10  -1   3   35.20    5.50
  -9  -1   3    1.00    1.70
   8   1  -3  417.66   11.30
  -8  -1   3  410.86   16.00
   7   1  -3  123.09    4.80
  -7  -1   3  121.09    7.30
   6   1  -3  257.27    7.50
  -6  -1   3  253.07    7.20
  -6  -1   3  257.97   10.60
   5   1  -3   60.59    2.80
  -5  -1   3   57.39    2.60
  -5  -1   3   59.99    4.20
   4   1  -3  147.49    4.80
  -4  -1   3  152.28    4.50
  -4  -1   3  156.38    6.60
   3   1  -3    8.20    1.10
  -3  -1   3    6.00    1.40
  -3  -1   3    7.70    0.80
   2   1  -3   36.60    1.70
  -2  -1   3   36.80    2.30
  -2  -1   3   35.10    1.40
   1   1  -3  157.38    4.10
  -1  -1   3  146.29    3.80
  -1  -1   3  153.78    5.10
   0   1  -3   24.80    1.10
   0   1  -3   21.90    1.10
   0  -1   3   22.20    1.80
  -1   1  -3  566.24   11.90
  -1   1  -3  549.74   11.60
   1  -1   3  558.14   14.50
  -2   1  -3  316.57    7.10
  -2   1  -3  334.47    7.80
   2  -1   3  327.17    9.60
  -3   1  -3   76.69    3.00
  -3   1  -3   73.09    2.10
   3  -1   3   81.39    3.90
  -4   1  -3  179.58    5.50
   4  -1   3  167.78    6.80
   4  -1   3  171.88    4.00
  -5   1  -3   40.30    2.40
   5  -1   3   37.40    3.20
  -6   1  -3    5.50    1.20
   6  -1   3    4.10    1.80
  -7   1  -3  110.19    4.80
   7  -1   3  111.89    6.80
  -8   1  -3   23.50    2.40
   8  -1   3   27.50    4.10
  -9   1  -3   65.89    4.10
   9  -1   3   66.59    6.00
 -10   1  -3   20.90    3.00
  10   0  -3    6.00    2.80
  -9   0   3    2.40    1.80
   8   0  -3  206.28    6.80
  -8   0   3  208.28   10.30
   7   0  -3  106.79    4.30
  -7   0   3  110.59    4.60
  -7   0   3  109.59    6.70
   6   0  -3  439.56   10.80
  -6   0   3  431.86   11.20
  -6   0   3  432.76   14.90
   5   0  -3    0.10    0.40
  -5   0   3   -0.60    0.50
  -5   0   3    0.00    0.50
   4   0  -3    6.10    0.90
  -4   0   3    5.70    1.40
  -4   0   3    4.40    0.80
   3   0  -3  136.39    4.10
  -3   0   3  146.39    5.60
  -3   0   3  135.49    4.30
   2   0  -3   40.40    1.70
  -2   0   3   37.80    2.20
  -2   0   3   38.50    1.70
   1   0  -3  216.78    5.40
  -1   0   3  217.98    6.10
  -1   0   3  214.28    5.10
   0   0  -3 1041.60   21.10
   0   0  -3 1038.90   22.50
   0   0   3 1044.50   24.50
  -1   0  -3   80.19    2.40
  -1   0  -3   81.69    2.40
   1   0   3   82.89    3.00
  -2   0  -3   68.99    2.40
  -2   0  -3   67.69    2.20
   2   0   3   71.39    3.00
  -3   0  -3   12.70    1.00
  -3   0  -3   13.00    1.10
   3   0   3   13.40    1.50
  -4   0  -3  721.93   15.70
   4   0   3  700.73   19.50
  -5   0  -3   -0.30    0.20
   5   0   3   -0.60    0.90
   5   0   3    0.10    0.30
  -6   0  -3   66.99    3.20
   6   0   3   62.89    4.70
  -7   0  -3   12.80    1.80
   7   0   3   14.00    2.70
  -8   0  -3    0.60    0.50
   8   0   3    2.90    1.40
  -9   0  -3    0.60    0.90
   9   0   3    3.10    1.70
 -10   0  -3   12.80    3.00
  10   0   3   12.20    3.80
  10  -1  -3    2.00    2.90
   9  -1  -3   25.90    5.20
  -8   1   3   36.70    3.00
   7  -1  -3   -0.10    0.40
  -7   1   3    2.40    0.80
  -7   1   3    0.80    1.20
   6  -1  -3   15.10    1.50
  -6   1   3   19.30    3.00
  -6   1   3   14.00    1.80
   5  -1  -3   54.79    2.50
  -5   1   3   52.59    3.00
  -5   1   3   54.89    3.80
   4  -1  -3   22.90    1.50
  -4   1   3   22.70    2.20
  -4   1   3   19.00    1.70
   3  -1  -3  232.48    5.90
  -3   1   3  218.48    6.40
  -3   1   3  224.58    7.50
   2  -1  -3  695.93   14.40
  -2   1   3  622.54   14.40
  -2   1   3  675.23   16.80
   1  -1  -3   36.90    1.50
  -1   1   3   35.70    1.50
   0  -1  -3   11.60    0.80
   0   1   3   13.00    0.80
  -1  -1  -3  938.41   19.20
  -1  -1  -3  925.41   18.90
   1   1   3  947.91   21.90
  -2  -1  -3   13.70    1.00
  -2  -1  -3   16.80    1.00
  -3  -1  -3   40.70    1.90
  -3  -1  -3   40.60    2.40
  -3  -1  -3   39.90    1.70
  -4  -1  -3  203.38    5.60
  -4  -1  -3  196.58    5.40
  -4  -1  -3  208.38    7.30
  -5  -1  -3   69.69    4.20
  -5  -1  -3   69.19    2.90
   5   1   3   72.79    2.80
  -6  -1  -3  345.67    8.90
   6   1   3  336.07    8.40
  -7  -1  -3    2.40    0.80
   7   1   3    3.70    1.50
  -8  -1  -3    0.80    0.80
   8   1   3    0.80    1.20
  -9  -1  -3   73.69    3.90
   9   1   3   81.49    6.80
  10   1   3   11.00    3.50
  10  -2  -3    6.00    2.40
   9  -2  -3   34.30    5.70
  -9   2   3   33.00    3.20
   8  -2  -3    2.40    2.00
  -8   2   3    3.70    1.50
   7  -2  -3   75.79    5.60
  -7   2   3   75.49    4.30
   6  -2  -3   58.79    2.60
   6  -2  -3   56.39    4.40
  -6   2   3   57.99    3.50
   5  -2  -3   81.19    3.10
  -5   2   3   79.89    4.00
   4  -2  -3   62.99    2.50
  -4   2   3   66.69    3.40
   3  -2  -3  154.38    4.30
  -3   2   3  159.38    5.30
   2  -2  -3  125.79    3.50
  -2   2   3  122.99    4.20
   1  -2  -3    1.70    0.40
   1  -2  -3    1.60    0.50
  -1   2   3    1.40    0.50
   0   2   3  155.28    4.10
  -1  -2  -3    4.30    0.60
   1   2   3    3.80    0.60
  -2  -2  -3  131.69    3.50
  -2  -2  -3  132.69    4.40
  -2  -2  -3  132.79    4.00
  -3  -2  -3  511.05   11.80
  -3  -2  -3  522.65   11.20
  -3  -2  -3  512.95   14.00
  -4  -2  -3   -0.80    0.20
  -4  -2  -3    1.10    0.50
  -4  -2  -3    0.10    0.20
  -5  -2  -3   36.90    3.00
  -5  -2  -3   39.60    1.90
   5   2   3   36.80    2.10
  -6  -2  -3  258.77    6.90
  -6  -2  -3  253.97    9.90
   6   2   3  258.47    7.20
  -7  -2  -3   27.80    3.20
  -7  -2  -3   28.80    1.90
   7   2   3   29.10    2.00
  -8  -2  -3   10.90    1.60
  -8  -2  -3    9.00    2.70
   9   2   3   21.60    4.30
  10   2   3    4.80    3.00
   9  -3  -3   33.70    5.10
  -9   3   3   29.90    3.10
   8  -3  -3   52.09    5.00
  -8   3   3   51.59    4.00
   7  -3  -3   44.30    4.10
  -7   3   3   46.30    3.50
   6  -3  -3   12.30    2.60
  -6   3   3   10.80    1.90
   5  -3  -3   61.49    4.00
   5  -3  -3   58.19    2.30
  -5   3   3   56.79    3.60
   4  -3  -3   38.50    3.00
   4  -3  -3   38.80    1.80
  -4   3   3   41.80    2.90
   3  -3  -3   92.19    3.00
   3  -3  -3   87.19    4.00
  -3   3   3   90.89    4.10
   2  -3  -3   74.29    2.60
   2  -3  -3   76.69    3.20
  -2   3   3   71.19    3.30
   1  -3  -3  306.47    7.30
   1  -3  -3  294.47    8.20
  -1   3   3  296.17    7.80
   0  -3  -3 1663.93   33.10
   0  -3  -3 1623.74   37.80
   0   3   3 1615.04   33.00
  -1  -3  -3   82.49    2.80
  -1  -3  -3   73.29    2.90
   1   3   3   82.39    2.60
  -2  -3  -3    0.30    0.50
  -2  -3  -3   -0.20    0.30
   2   3   3    0.40    0.30
  -3  -3  -3   96.19    2.90
  -3  -3  -3   95.29    3.70
  -3  -3  -3   97.49    4.20
  -4  -3  -3    6.50    1.20
  -4  -3  -3    5.50    1.30
  -4  -3  -3    4.90    0.70
  -5  -3  -3   27.70    1.50
  -5  -3  -3   27.90    2.70
   5   3   3   26.20    1.90
  -6  -3  -3    0.30    0.50
  -6  -3  -3    0.10    0.50
   6   3   3    0.10    0.60
  -7  -3  -3   14.30    2.70
  -7  -3  -3   16.10    1.40
   7   3   3   19.00    1.80
  -8  -3  -3   35.70    2.60
  -8  -3  -3   35.60    4.10
   8   3   3   34.60    2.50
  -9  -3  -3    0.20    1.40
   9  -4  -3    0.50    2.30
  -9   4   3    4.90    1.60
   8  -4  -3   -0.60    1.90
  -8   4   3   -0.50    1.00
   7  -4  -3   52.79    4.60
  -7   4   3   53.09    3.90
   6  -4  -3   25.50    3.00
  -6   4   3   25.80    2.70
   5  -4  -3  209.08    5.70
   5  -4  -3  198.28    8.30
  -5   4   3  210.88    7.90
   4  -4  -3   82.09    3.00
   4  -4  -3   84.69    4.50
  -4   4   3   75.99    4.30
   3  -4  -3  216.98    7.80
   3  -4  -3  229.08    6.00
  -3   4   3  218.58    7.50
   2  -4  -3    3.50    0.70
   2  -4  -3    5.90    1.20
  -2   4   3    3.60    0.90
   1  -4  -3   40.20    2.40
   1  -4  -3   42.20    2.00
  -1   4   3   40.00    2.40
   0  -4  -3  807.12   20.00
   0  -4  -3  814.92   17.70
  -1  -4  -3   11.10    1.40
  -1  -4  -3    8.30    1.00
   1   4   3    8.90    0.90
  -2  -4  -3  372.26   10.70
  -2  -4  -3  388.56    9.80
   2   4   3  379.46    8.60
  -3  -4  -3  208.28    6.40
  -3  -4  -3  209.38    7.30
   3   4   3  208.18    5.20
  -4  -4  -3  105.89    4.40
  -4  -4  -3  100.09    5.00
   4   4   3  110.39    3.40
  -5  -4  -3   71.49    2.50
  -5  -4  -3   69.19    4.40
   5   4   3   71.39    3.40
  -6  -4  -3    9.40    2.00
  -6  -4  -3   10.80    1.10
   6   4   3   10.40    1.50
  -7  -4  -3   90.39    3.30
  -7  -4  -3   89.79    6.00
   7   4   3   91.69    4.30
  -8  -4  -3  111.19    7.10
   8   4   3  107.59    4.90
  -9  -4  -3    9.20    3.00
   9  -5  -3    1.70    3.70
  -9   5   3    6.70    2.90
   8  -5  -3   56.29    5.40
  -8   5   3   61.99    4.80
   7  -5  -3   14.00    3.30
  -7   5   3    9.50    2.00
   6  -5  -3   50.19    4.20
  -6   5   3   42.90    3.70
   5  -5  -3   44.80    3.70
  -5   5   3   46.30    3.70
   4  -5  -3    2.90    0.70
   4  -5  -3    2.90    1.50
  -4   5   3    4.40    1.40
   3  -5  -3    0.00    0.80
   3  -5  -3    0.20    0.40
  -3   5   3    1.40    0.70
   2  -5  -3  119.69    5.50
   2  -5  -3  122.79    4.10
  -2   5   3  127.99    5.30
   1  -5  -3   76.39    3.20
   1  -5  -3   80.09    4.20
  -1   5   3   77.79    3.70
   0  -5  -3  194.88    6.00
   0  -5  -3  199.48    6.60
   0   5   3  190.68    6.10
  -1  -5  -3  245.88    7.60
  -1  -5  -3  254.27    7.30
   1   5   3  240.98    6.80
  -2  -5  -3  766.52   17.80
  -2  -5  -3  760.22   19.90
   2   5   3  768.82   16.60
  -3  -5  -3   22.30    2.10
  -3  -5  -3   20.70    1.80
   3   5   3   22.40    1.30
  -4  -5  -3   -1.10    0.40
  -4  -5  -3    0.00    0.50
   4   5   3    0.40    0.30
  -5  -5  -3  104.49    5.70
   5   5   3  106.89    4.50
   5   5   3  105.59    3.30
  -6  -5  -3    2.90    1.30
   6   5   3    3.40    1.10
   6   5   3    4.30    0.80
  -7  -5  -3    0.90    0.90
   7   5   3    0.50    0.70
  -8  -5  -3   13.20    3.40
   8   5   3   12.40    2.10
  -9  -5  -3    4.70    2.30
   9   5   3    4.50    1.30
 -10  -5  -3    0.40    2.10
   8  -6  -3    1.20    2.40
  -8   6   3   -3.20    1.20
   7  -6  -3   13.70    3.40
  -7   6   3   12.40    2.40
   6  -6  -3   42.40    4.40
  -6   6   3   42.60    4.00
   5  -6  -3    4.70    2.20
  -5   6   3    3.80    1.40
   4  -6  -3    5.20    1.80
  -4   6   3    4.40    1.60
   3  -6  -3   51.39    2.50
   3  -6  -3   50.39    4.10
  -3   6   3   49.00    3.60
   2  -6  -3    0.00    0.40
   2  -6  -3    0.90    1.00
  -2   6   3    0.10    0.60
   1  -6  -3  695.53   16.00
   1  -6  -3  693.93   19.80
  -1   6   3  680.83   17.00
   0  -6  -3    9.30    1.70
   0  -6  -3    5.90    1.20
   0   6   3    9.30    1.50
  -1  -6  -3   23.60    2.00
  -1  -6  -3   20.90    1.90
   1   6   3   23.80    1.90
  -2  -6  -3   54.09    3.10
  -2  -6  -3   45.80    3.00
   2   6   3   51.69    2.50
  -3  -6  -3    2.00    0.90
  -3  -6  -3    0.60    0.70
   3   6   3    1.70    0.60
  -4  -6  -3   63.19    4.20
  -4  -6  -3   67.39    3.80
   4   6   3   63.89    2.50
  -5  -6  -3   22.60    3.40
   5   6   3   22.10    1.30
   5   6   3   23.40    2.10
  -6  -6  -3   -0.90    0.70
   6   6   3    1.40    0.70
  -7  -6  -3  243.08   11.10
   7   6   3  242.28    8.50
  -8  -6  -3   21.30    4.00
   8   6   3   20.40    2.70
  -9  -6  -3   -2.20    1.30
   9   6   3    0.00    1.10
 -10  -6  -3   39.90    5.60
  10   6   3   30.40    3.10
   7  -7  -3    0.80    2.40
  -7   7   3    1.00    1.40
   6  -7  -3   90.89    6.80
  -6   7   3  107.19    6.20
   5  -7  -3    1.90    2.10
  -5   7   3    0.90    1.10
   4  -7  -3   -0.30    1.40
  -4   7   3   -0.90    0.80
   3  -7  -3   -0.60    1.60
  -3   7   3    0.20    1.00
   2  -7  -3  104.39    4.10
   2  -7  -3   89.99    6.00
  -2   7   3   98.79    5.10
   1  -7  -3   62.39    4.50
   1  -7  -3   68.89    3.40
  -1   7   3   70.59    3.90
   0  -7  -3    1.90    1.10
   0  -7  -3    0.40    0.60
   0   7   3    0.60    0.70
  -1  -7  -3  312.27    9.30
  -1  -7  -3  309.97   10.40
   1   7   3  322.27    9.10
  -2  -7  -3  328.97    9.80
  -2  -7  -3  319.17   10.70
   2   7   3  320.77    8.80
  -3  -7  -3    7.40    1.60
  -3  -7  -3    5.20    1.20
   3   7   3    7.70    1.10
  -4  -7  -3  130.69    6.50
   4   7   3  130.99    5.50
   4   7   3  128.59    4.10
  -5  -7  -3   54.39    4.40
   5   7   3   51.19    3.50
  -6  -7  -3    1.40    1.00
   6   7   3    0.20    0.70
  -7  -7  -3   42.90    4.40
   7   7   3   41.70    3.30
  -8  -7  -3    0.90    1.10
   8   7   3    1.50    1.10
  -9  -7  -3    3.50    1.70
   9   7   3    3.60    1.50
 -10  -7  -3   -1.70    1.70
  10   7   3   -1.10    0.80
   7  -8  -3    5.20    3.90
   6  -8  -3   -3.50    2.50
  -6   8   3    4.40    1.10
   5  -8  -3    7.80    3.40
  -5   8   3    8.60    2.60
   4  -8  -3    7.50    3.20
  -4   8   3   11.70    2.50
   3  -8  -3    4.00    2.40
  -3   8   3    6.10    1.90
   2  -8  -3   43.30    4.60
   2  -8  -3   47.00    2.90
  -2   8   3   47.30    3.70
   1  -8  -3   21.80    3.30
   1  -8  -3   19.00    2.00
  -1   8   3   22.60    2.90
   0  -8  -3    3.80    1.60
   0  -8  -3    2.40    0.90
   0   8   3    3.20    1.10
  -1  -8  -3  588.14   17.90
  -1  -8  -3  619.24   15.80
   1   8   3  599.44   15.30
  -2  -8  -3    5.80    1.80
  -2  -8  -3    4.90    1.40
   2   8   3    6.00    1.30
  -3  -8  -3  134.89    6.60
   3   8   3  128.09    4.70
  -4  -8  -3    1.60    0.80
   4   8   3    1.20    0.80
  -5  -8  -3    2.80    1.70
   5   8   3    2.00    1.10
  -6  -8  -3   19.40    3.80
   6   8   3   15.40    2.60
  -7  -8  -3   20.30    3.90
   7   8   3   20.00    2.90
  -8  -8  -3    6.40    2.70
   8   8   3    6.30    1.70
  -9  -8  -3   39.40    6.30
   9   8   3   39.70    3.50
 -10  -8  -3    4.20    3.60
  10   8   3    3.30    1.50
   6  -9  -3   -5.00    2.70
  -6   9   3    6.00    2.50
   5  -9  -3   -1.40    3.00
  -5   9   3    1.80    1.50
   4  -9  -3   17.10    4.60
  -4   9   3   15.50    3.00
   3  -9  -3    0.90    2.20
  -3   9   3    3.00    1.00
   2  -9  -3  119.49    7.40
  -2   9   3  121.79    6.30
   1  -9  -3   17.70    3.20
   1  -9  -3   11.60    1.90
  -1   9   3   18.40    2.80
   0  -9  -3   43.60    3.90
   0  -9  -3   40.70    3.00
   0   9   3   37.60    3.10
  -1  -9  -3    2.10    1.10
  -1  -9  -3    1.90    1.10
   1   9   3    1.30    0.80
  -2  -9  -3    0.90    0.80
   2   9   3    1.50    0.90
  -3  -9  -3  105.79    6.10
   3   9   3  108.09    5.30
  -4  -9  -3    3.10    1.40
   4   9   3    2.70    1.40
  -5  -9  -3    4.20    1.90
   5   9   3    7.30    1.90
  -6  -9  -3  183.88    9.90
   6   9   3  196.48    8.10
  -7  -9  -3    5.50    2.00
   7   9   3    7.70    2.00
  -8  -9  -3    2.40    1.90
   8   9   3    3.10    1.70
  -9  -9  -3    4.20    2.10
   9   9   3   -0.30    1.20
   5 -10  -3    5.20    3.80
  -5  10   3   12.00    2.60
   4 -10  -3    7.00    3.60
  -4  10   3    9.00    2.30
   3 -10  -3    2.20    2.00
  -3  10   3    3.40    2.00
   2 -10  -3   32.20    4.80
  -2  10   3   29.20    3.50
   1 -10  -3   16.70    3.30
  -1  10   3   20.20    3.10
   0 -10  -3   58.99    4.70
   0  10   3   53.99    3.40
   0  10   3   50.09    3.70
  -1 -10  -3   47.40    4.20
   1  10   3   47.60    3.40
   1  10   3   47.00    3.30
  -2 -10  -3    7.20    2.20
   2  10   3    4.40    1.40
  -3 -10  -3  147.69    7.80
   3  10   3  141.89    6.50
  -4 -10  -3   11.50    2.90
   4  10   3   13.10    2.30
  -5 -10  -3    9.90    2.80
   5  10   3   10.50    2.20
  -6 -10  -3    2.60    1.60
   6  10   3    1.40    0.70
  -7 -10  -3   33.10    5.10
   7  10   3   33.20    3.40
  -8 -10  -3    6.20    2.90
   8  10   3    9.00    2.50
  -9 -10  -3    3.40    2.90
   4 -11  -3    5.80    2.80
  -4  11   3    5.30    2.40
   3 -11  -3    5.60    2.70
  -3  11   3    1.60    1.20
   2 -11  -3   21.20    4.00
  -2  11   3   12.30    2.80
   1 -11  -3   13.70    3.30
  -1  11   3    8.10    2.20
   0 -11  -3   60.49    4.90
   0  11   3   54.39    3.90
  -1 -11  -3    2.80    1.60
   1  11   3    0.40    0.70
  -2 -11  -3   40.50    4.10
   2  11   3   32.60    3.10
  -3 -11  -3   34.90    3.90
   3  11   3   34.80    3.30
  -4 -11  -3    7.40    2.20
   4  11   3    5.70    1.80
  -5 -11  -3   33.90    5.00
   5  11   3   33.70    3.50
  -6 -11  -3    3.30    1.50
   6  11   3   -0.10    1.20
  -7 -11  -3    1.80    1.60
   7  11   3    4.00    1.70
  -8 -11  -3   40.20    6.70
   2 -12  -3    8.00    2.20
  -1  12   3    2.10    1.20
   0 -12  -3   48.60    5.10
  -1 -12  -3   19.90    4.20
  -2 -12  -3   65.09    5.60
   2  12   3   55.99    4.20
  -3 -12  -3    3.40    2.00
   3  12   3    0.20    1.10
  -4 -12  -3   62.59    5.70
   4  12   3   66.99    4.80
  -5 -12  -3   14.50    3.10
   5  12   3   15.40    3.00
  -6 -12  -3    3.00    1.70
   6  12   3    0.80    1.30
  -7 -12  -3    7.00    3.00
  -1 -13  -3   45.40    4.60
  -2 -13  -3   12.10    3.30
  -3 -13  -3    7.60    2.20
   3  13   3    3.90    1.40
  -4 -13  -3    7.00    2.90
   4  13   3    7.10    2.00
  -5 -13  -3    4.40    2.30
   4  11  -4    4.40    1.90
  -2 -11   4    7.50    4.70
   6  10  -4    7.70    2.20
   5  10  -4    3.40    1.70
  -5 -10   4    3.10    3.20
   4  10  -4   51.59    4.00
  -4 -10   4   48.20    5.80
   3  10  -4    2.70    1.40
  -3 -10   4   -0.30    2.20
  -2 -10   4    4.10    2.10
   1 -10   4  174.98   10.90
   2 -10   4    3.50    2.40
  -3  10  -4    5.00    1.80
   7   9  -4   27.30    3.60
  -7  -9   4   37.40    6.60
   6   9  -4   15.00    2.60
  -6  -9   4    8.60    3.20
   5   9  -4   18.80    2.80
  -5  -9   4   23.00    4.90
   4   9  -4   21.50    2.90
  -4  -9   4   24.80    4.90
   3   9  -4    7.00    1.70
  -3  -9   4    5.30    2.90
   2   9  -4  113.89    5.30
  -2  -9   4  120.89    8.20
  -1  -9   4   13.50    3.30
   0  -9   4    4.50    2.30
  -1   9  -4   23.80    2.80
   1  -9   4   24.50    4.40
  -2   9  -4   -0.20    0.70
  -3   9  -4   14.00    2.50
   3  -9   4   20.50    4.10
  -4   9  -4   -1.70    0.90
   8   8  -4   14.00    2.50
  -8  -8   4   14.00    4.60
   7   8  -4   83.39    5.30
  -7  -8   4   79.99    7.50
   6   8  -4    1.80    1.30
  -6  -8   4   -0.60    1.70
   5   8  -4   10.80    2.10
  -5  -8   4   13.30    3.30
   4   8  -4    5.70    1.50
  -4  -8   4    3.40    2.00
   3   8  -4    6.50    1.40
  -3  -8   4    9.20    3.20
   2   8  -4   23.10    2.30
  -2  -8   4   32.00    4.60
   1   8  -4    9.80    1.60
  -1  -8   4    7.10    2.00
   0   8  -4   94.49    4.10
   0  -8   4  107.99    7.40
  -1   8  -4   33.20    2.50
   1  -8   4   35.80    4.30
  -2   8  -4    5.20    1.50
   2  -8   4    8.30    2.80
  -3   8  -4   30.10    2.80
   3  -8   4   27.70    5.60
  -4   8  -4    3.10    1.30
   4  -8   4   -3.30    2.80
  -5   8  -4   10.50    2.40
   5  -8   4    5.00    3.90
   8   7  -4    3.40    1.60
  -8  -7   4    2.20    2.30
   7   7  -4   28.20    2.90
  -7  -7   4   25.90    4.80
   6   7  -4    6.30    1.60
  -6  -7   4    6.50    3.20
   5   7  -4  236.48    8.30
  -5  -7   4  211.18   11.10
   4   7  -4   11.40    1.90
  -4  -7   4    7.90    2.80
   3   7  -4   76.89    4.00
  -3  -7   4   81.29    6.10
   2   7  -4   11.20    1.80
  -2  -7   4   10.10    2.50
   1   7  -4   40.00    2.10
   1   7  -4   39.60    2.60
  -1  -7   4   36.60    4.00
   0   7  -4  143.59    5.00
   0   7  -4  148.69    5.00
   0  -7   4  138.59    7.90
  -1   7  -4    4.30    1.10
   1  -7   4    5.20    2.10
  -2   7  -4   10.70    1.80
   2  -7   4    9.70    3.40
  -3   7  -4    4.20    1.20
   3  -7   4    1.60    3.30
  -4   7  -4   -0.40    0.50
   4  -7   4   -1.80    2.70
  -5   7  -4   13.90    2.50
   5  -7   4   15.60    4.90
  -6   7  -4    1.50    1.40
   6  -7   4   -5.00    3.70
   9   6  -4    6.40    2.10
  -9  -6   4    5.70    2.80
   8   6  -4  143.29    6.70
  -8  -6   4  131.79    9.60
   7   6  -4    4.90    1.60
  -7  -6   4    2.00    1.80
   6   6  -4   24.30    3.10
  -6  -6   4   26.00    5.00
   5   6  -4   16.20    2.30
  -5  -6   4   14.90    3.30
   4   6  -4   40.80    2.90
  -4  -6   4   39.30    4.20
   3   6  -4   24.20    2.20
  -3  -6   4   25.90    3.80
   2   6  -4    0.50    0.60
  -2  -6   4    0.70    1.00
   1   6  -4    2.90    0.70
   1   6  -4    1.80    0.70
  -1  -6   4    2.10    1.70
   0   6  -4   73.39    3.10
   0   6  -4   74.29    3.10
   0  -6   4   68.89    5.10
  -1   6  -4    6.50    1.20
   1  -6   4    6.00    2.30
  -2   6  -4  238.28    7.60
   2  -6   4  248.08   11.50
  -3   6  -4    0.60    0.70
   3  -6   4    1.30    2.90
  -4   6  -4   11.90    2.00
   4  -6   4   12.00    3.70
  -5   6  -4   91.99    4.90
   5  -6   4   78.09    7.40
  -6   6  -4   32.10    3.10
   6  -6   4   22.70    5.50
  -7   6  -4    0.70    1.70
   7  -6   4   -3.00    5.20
   9   5  -4    4.30    1.20
  -9  -5   4    1.60    1.70
   8   5  -4    0.80    0.70
  -8  -5   4    1.10    1.60
   7   5  -4   17.60    2.50
  -7  -5   4   10.60    3.30
   6   5  -4    2.50    1.20
  -6  -5   4    4.50    1.90
   5   5  -4    8.10    1.50
  -5  -5   4   11.80    3.00
   4   5  -4    0.50    0.40
  -4  -5   4    0.40    1.10
   3   5  -4  287.27    8.30
  -3  -5   4  253.97   10.50
   2   5  -4   18.80    1.70
   2   5  -4   17.70    1.00
  -2  -5   4   16.40    2.80
   1   5  -4  351.26    9.10
   1   5  -4  333.07    8.10
  -1  -5   4  349.07   12.40
   0   5  -4   90.29    3.40
   0   5  -4   92.19    3.40
   0  -5   4   86.89    5.40
  -1   5  -4  125.29    4.40
  -1   5  -4  124.89    3.80
   1  -5   4  122.19    7.00
  -2   5  -4   10.00    1.50
   2  -5   4   10.10    3.40
  -3   5  -4   24.00    2.10
   3  -5   4   20.30    3.80
  -4   5  -4    6.50    1.40
   4  -5   4    4.30    2.70
  -5   5  -4   12.50    2.00
   5  -5   4   10.60    3.80
  -6   5  -4   13.80    2.50
   6  -5   4   13.90    4.10
  -7   5  -4   44.40    3.90
   7  -5   4   39.80    6.50
  10   4  -4    0.10    0.90
 -10  -4   4   -1.40    2.40
   9   4  -4   31.40    3.10
  -9  -4   4   32.50    5.10
   8   4  -4   43.00    3.40
  -8  -4   4   33.30    5.00
   7   4  -4    8.50    1.70
  -7  -4   4    7.50    2.70
   6   4  -4    7.70    1.50
  -6  -4   4   10.30    2.80
   5   4  -4   26.90    2.30
  -5  -4   4   28.20    4.40
   4   4  -4  475.75   12.40
  -4  -4   4  465.55   15.80
   3   4  -4   48.20    2.80
  -3  -4   4   41.20    3.50
  -3  -4   4   47.20    1.60
   2   4  -4  148.49    3.80
   2   4  -4  150.98    5.10
  -2  -4   4  144.39    6.70
   1   4  -4   34.80    1.60
   1   4  -4   34.30    2.00
  -1  -4   4   41.80    3.30
   0   4  -4   42.70    2.00
   0   4  -4   42.80    2.10
   0  -4   4   37.50    3.30
  -1   4  -4  330.27    8.40
  -1   4  -4  329.87    7.70
   1  -4   4  321.07   11.90
  -2   4  -4  218.18    6.70
  -2   4  -4  234.68    5.40
   2  -4   4  218.88    9.50
  -3   4  -4  144.49    5.20
   3  -4   4  135.39    7.20
  -4   4  -4   49.40    3.00
   4  -4   4   45.70    4.70
  -5   4  -4   11.30    1.90
   5  -4   4   11.30    3.30
  -6   4  -4    3.60    1.30
   6  -4   4    2.00    2.20
  -7   4  -4   41.50    3.60
   7  -4   4   35.80    5.60
  -8   4  -4   15.10    2.90
   8  -4   4    9.90    3.70
  10   3  -4    0.20    0.90
 -10  -3   4    3.90    1.70
   9   3  -4   99.79    5.10
  -9  -3   4   93.99    7.60
   8   3  -4    9.70    1.70
  -8  -3   4    9.80    2.70
   7   3  -4    7.50    1.60
  -7  -3   4    8.00    2.80
   6   3  -4    0.70    0.50
  -6  -3   4    1.90    1.10
   5   3  -4   13.90    1.80
  -5  -3   4   12.80    2.80
   4   3  -4   23.30    1.80
  -4  -3   4   24.30    2.70
  -4  -3   4   24.80    1.30
   3   3  -4  109.99    4.20
  -3  -3   4  106.19    5.50
  -3  -3   4  111.59    3.10
   2   3  -4   17.20    1.50
  -2  -3   4   17.90    2.10
  -2  -3   4   17.60    1.00
   1   3  -4  103.09    3.00
   1   3  -4  101.89    3.60
  -1  -3   4  103.59    4.90
   0   3  -4   17.40    1.10
   0   3  -4   16.90    1.20
   0  -3   4   17.90    2.50
  -1   3  -4  795.92   16.70
  -1   3  -4  795.82   17.20
   1  -3   4  792.02   22.20
  -2   3  -4    0.50    0.50
  -2   3  -4    1.40    0.30
   2  -3   4    2.70    1.70
  -3   3  -4  356.96    9.50
   3  -3   4  355.06   12.30
  -4   3  -4   10.30    1.60
   4  -3   4    9.60    2.50
  -5   3  -4   15.00    2.00
   5  -3   4   14.70    3.00
  -6   3  -4   22.20    2.70
   6  -3   4   19.40    3.50
  -7   3  -4    4.40    1.40
   7  -3   4    3.70    2.10
  -8   3  -4   31.40    3.70
   8  -3   4   23.10    4.80
  -9   3  -4   48.20    4.50
 -10  -2   4    0.80    1.70
   9   2  -4    0.20    0.90
  -9  -2   4    1.50    1.40
   8   2  -4   13.10    2.00
  -8  -2   4   13.50    3.00
   7   2  -4   56.39    3.30
  -7  -2   4   53.69    5.10
   6   2  -4   -0.20    0.50
  -6  -2   4    1.40    1.10
   5   2  -4   29.30    2.10
  -5  -2   4   34.20    3.30
  -5  -2   4   28.00    1.70
   4   2  -4  303.47    8.50
  -4  -2   4  307.37   11.00
  -4  -2   4  316.57    7.50
   3   2  -4  314.07    8.50
  -3  -2   4  322.37   10.80
  -3  -2   4  341.17    7.70
   2   2  -4  171.78    5.10
  -2  -2   4  171.88    6.50
  -2  -2   4  167.48    4.30
   1   2  -4   14.70    0.90
   1   2  -4   15.10    1.10
  -1  -2   4   15.80    1.70
   0   2  -4  146.59    4.20
   0   2  -4  147.19    4.00
   0  -2   4  148.29    5.70
  -1   2  -4    0.80    0.40
  -1   2  -4    0.20    0.20
   1  -2   4    2.00    1.50
  -2   2  -4  163.58    4.40
  -2   2  -4  180.58    5.20
   2  -2   4  191.48    7.10
  -3   2  -4  128.99    3.20
  -3   2  -4  122.29    4.30
   3  -2   4  118.69    5.70
  -4   2  -4   91.79    3.90
   4  -2   4   88.99    5.20
  -5   2  -4   18.00    1.80
   5  -2   4   19.60    2.90
  -6   2  -4   36.30    2.70
   6  -2   4   35.50    3.60
  -7   2  -4   -0.30    0.70
   7  -2   4    1.90    1.90
  -8   2  -4    3.20    1.40
   8  -2   4    5.50    2.60
  -9   2  -4    0.10    0.90
   9  -2   4   -2.40    1.80
 -10  -1   4  194.78   11.50
   9   1  -4   19.60    2.40
  -9  -1   4   19.20    3.90
   8   1  -4   37.10    2.70
  -8  -1   4   36.10    4.10
   7   1  -4   33.00    2.50
  -7  -1   4   39.90    4.30
   6   1  -4  130.79    5.00
  -6  -1   4  131.89    4.80
  -6  -1   4  140.49    7.40
   5   1  -4   22.40    1.80
  -5  -1   4   21.50    3.10
  -5  -1   4   23.00    1.70
   4   1  -4    5.60    1.10
  -4  -1   4    6.70    1.50
  -4  -1   4    5.70    0.90
   3   1  -4   20.00    1.50
  -3  -1   4   21.20    1.40
  -3  -1   4   21.80    2.10
   2   1  -4    1.40    0.50
  -2  -1   4    1.20    0.70
  -2  -1   4    1.20    0.40
   1   1  -4  204.98    5.40
  -1  -1   4  207.68    5.10
  -1  -1   4  194.88    6.50
   0   1  -4  484.15   11.00
   0   1  -4  489.15   10.60
   0  -1   4  494.25   13.10
  -1   1  -4  206.28    5.40
  -1   1  -4  210.38    5.20
   1  -1   4  221.88    7.10
  -2   1  -4  345.77    8.40
  -2   1  -4  365.16    8.00
   2  -1   4  343.57   10.40
  -3   1  -4  169.98    5.20
  -3   1  -4  171.38    4.40
   3  -1   4  172.48    6.50
  -4   1  -4   48.50    1.80
  -4   1  -4   49.10    2.60
   4  -1   4   52.19    3.70
  -5   1  -4   31.20    2.20
   5  -1   4   29.70    2.90
  -6   1  -4   32.10    2.40
   6  -1   4   39.60    3.60
  -7   1  -4  206.78    7.20
   7  -1   4  206.78    9.70
  -8   1  -4   31.70    2.80
   8  -1   4   32.00    5.00
  -9   1  -4   -0.80    0.50
   9  -1   4   -1.50    2.10
 -10   1  -4    0.80    1.00
  -9   0   4   26.50    4.60
   8   0  -4   78.99    4.00
  -8   0   4   78.39    6.20
   7   0  -4   15.00    1.90
  -7   0   4   12.60    2.00
  -7   0   4   11.30    2.60
   6   0  -4    1.60    0.80
  -6   0   4    0.70    1.30
  -6   0   4    2.60    0.80
   5   0  -4   95.09    3.70
  -5   0   4   91.19    3.90
  -5   0   4   97.39    5.40
   4   0  -4    7.30    1.10
  -4   0   4    5.00    1.10
  -4   0   4    7.00    1.60
   3   0  -4   13.40    1.10
  -3   0   4   11.40    1.10
  -3   0   4   12.30    1.50
   2   0  -4  312.67    7.80
  -2   0   4  313.67    9.30
  -2   0   4  322.57    7.60
   1   0  -4  335.97    8.20
  -1   0   4  344.77    7.70
  -1   0   4  326.67    9.10
   0   0  -4  832.92   17.40
   0   0  -4  828.32   17.10
   0   0   4  841.52   20.20
  -1   0  -4   28.20    1.40
  -1   0  -4   32.10    1.50
   1   0   4   35.00    2.10
  -2   0  -4  851.01   17.70
  -2   0  -4  827.22   17.60
   2   0   4  846.92   21.00
  -3   0  -4   24.00    1.40
  -3   0  -4   24.60    1.50
   3   0   4   25.30    2.00
  -4   0  -4   85.79    3.30
  -4   0  -4   83.59    2.90
   4   0   4   81.39    4.40
  -5   0  -4   34.30    2.10
   5   0   4   35.70    3.00
   5   0   4   32.90    1.60
  -6   0  -4    6.20    1.20
   6   0   4    6.50    1.80
  -7   0  -4    5.50    1.20
   7   0   4    5.30    2.10
  -8   0  -4   46.40    3.00
   8   0   4   38.00    5.40
  -9   0  -4   60.49    3.70
   9   0   4   56.09    5.90
 -10   0  -4    3.10    1.20
  10   0   4    4.70    4.00
  10  -1  -4   10.30    3.50
   9  -1  -4    4.40    2.70
  -8   1   4   50.69    4.10
   7  -1  -4    8.80    1.60
  -7   1   4    8.50    2.50
  -7   1   4    6.60    1.60
   6  -1  -4   -0.70    0.40
  -6   1   4    0.20    1.00
  -6   1   4   -0.90    0.50
   5  -1  -4   91.39    3.70
  -5   1   4   87.19    4.10
  -5   1   4   89.89    5.10
   4  -1  -4  194.38    5.70
  -4   1   4  182.98    6.10
  -4   1   4  192.38    7.40
   3  -1  -4    6.30    1.00
  -3   1   4    8.90    1.50
  -3   1   4    4.70    1.00
   2  -1  -4  246.58    6.40
  -2   1   4  241.28    7.20
  -2   1   4  237.38    6.50
   1  -1  -4  197.28    5.20
  -1   1   4  197.38    5.20
  -1   1   4  194.38    5.50
   0  -1  -4    2.90    0.60
   0   1   4    4.70    0.70
  -1  -1  -4  131.69    3.60
  -1  -1  -4  132.09    4.00
   1   1   4  137.89    4.00
  -2  -1  -4  666.73   14.10
  -2  -1  -4  631.74   14.30
   2   1   4  682.03   16.60
  -3  -1  -4   72.09    2.70
  -3  -1  -4   66.79    2.60
   3   1   4   74.49    3.60
  -4  -1  -4  644.34   14.20
  -4  -1  -4  646.34   14.30
   4   1   4  635.24   17.90
  -5  -1  -4  124.29    4.10
  -5  -1  -4  123.29    4.20
   5   1   4  120.39    5.90
  -6  -1  -4   18.70    1.60
   6   1   4   19.30    1.50
   6   1   4   23.00    3.60
  -7  -1  -4  105.89    4.20
   7   1   4   95.39    6.40
  -8  -1  -4    6.70    1.30
   8   1   4    8.50    2.90
  -9  -1  -4   35.70    2.70
   9   1   4   38.40    5.80
  10   1   4   17.90    4.60
   9  -2  -4    4.00    2.40
   8  -2  -4   35.60    5.30
  -8   2   4   36.70    3.10
   7  -2  -4   83.89    5.90
   7  -2  -4   75.99    3.50
  -7   2   4   76.69    4.40
   6  -2  -4   15.30    1.40
  -6   2   4   18.10    2.40
   5  -2  -4   37.50    2.10
  -5   2   4   36.90    2.70
  -5   2   4   32.60    3.00
   4  -2  -4   23.40    1.50
  -4   2   4   20.90    2.10
  -4   2   4   22.10    2.10
   3  -2  -4  162.98    4.70
  -3   2   4  159.18    5.60
  -3   2   4  162.48    5.80
   2  -2  -4    0.60    0.40
  -2   2   4    0.50    0.40
  -2   2   4    0.80    0.40
   1  -2  -4    8.40    1.00
  -1   2   4    7.30    1.00
   0  -2  -4  295.27    7.50
   0   2   4  316.37    7.40
  -1  -2  -4  371.96    9.20
   1   2   4  399.46    8.90
  -2  -2  -4    0.30    0.40
  -2  -2  -4    0.80    0.30
  -2  -2  -4    0.50    0.30
  -3  -2  -4  328.37    8.40
  -3  -2  -4  321.87    9.50
  -3  -2  -4  337.67    7.90
  -4  -2  -4   56.99    2.70
  -4  -2  -4   57.39    2.40
  -4  -2  -4   60.59    3.40
  -5  -2  -4   16.10    1.30
  -5  -2  -4   15.70    1.40
  -5  -2  -4   15.00    2.20
  -6  -2  -4   76.99    3.30
  -6  -2  -4   83.49    5.00
   6   2   4   78.49    3.40
  -7  -2  -4   40.70    2.40
   7   2   4   38.80    2.40
  -8  -2  -4    2.50    0.90
   8   2   4    6.00    2.60
  -9  -2  -4   10.90    1.70
   9   2   4   12.90    3.60
  10   2   4   10.60    3.80
   9  -3  -4    6.20    2.90
  -9   3   4    6.00    2.10
   8  -3  -4   12.30    2.60
  -8   3   4   13.90    2.30
   7  -3  -4   35.90    4.80
  -7   3   4   22.00    3.00
   6  -3  -4   33.80    2.00
   6  -3  -4   41.10    3.60
  -6   3   4   38.00    3.10
   5  -3  -4   80.49    3.10
   5  -3  -4   90.79    5.00
  -5   3   4   80.89    4.40
   4  -3  -4   31.70    1.80
   4  -3  -4   30.60    2.60
  -4   3   4   35.40    2.80
   3  -3  -4  182.08    6.40
   3  -3  -4  179.88    5.10
  -3   3   4  181.28    6.30
   2  -3  -4 1332.57   27.20
   2  -3  -4 1342.27   31.60
  -2   3   4 1282.17   28.20
   1  -3  -4   20.70    1.40
  -1   3   4   20.40    1.60
   0  -3  -4   -0.20    0.30
   0   3   4   -0.30    0.30
  -1  -3  -4    2.60    0.70
   1   3   4    3.40    0.70
  -2  -3  -4   33.40    2.00
  -2  -3  -4   34.20    1.90
   2   3   4   32.60    1.70
  -3  -3  -4    9.00    0.90
  -3  -3  -4    7.10    1.20
  -3  -3  -4   10.30    1.20
  -4  -3  -4   10.80    1.50
  -4  -3  -4   10.40    1.80
  -4  -3  -4   10.30    0.90
  -5  -3  -4  114.89    4.50
  -5  -3  -4  121.69    3.90
  -5  -3  -4  118.69    5.70
  -6  -3  -4   41.80    3.60
  -6  -3  -4   43.60    2.20
   6   3   4   44.10    2.60
  -7  -3  -4    0.60    1.00
  -7  -3  -4    1.60    0.60
   7   3   4    0.60    0.50
  -8  -3  -4  184.58    9.20
  -8  -3  -4  181.68    5.90
  10   3   4    8.60    3.90
   9  -4  -4   50.89    5.60
  -9   4   4   49.10    4.70
   8  -4  -4   19.00    3.70
  -8   4   4   14.40    2.70
   7  -4  -4   45.50    4.30
  -7   4   4   53.99    4.20
   6  -4  -4   15.40    2.80
  -6   4   4   18.50    2.90
   5  -4  -4   82.39    3.30
   5  -4  -4   71.19    4.50
  -5   4   4   76.59    4.50
   4  -4  -4    1.30    0.60
   4  -4  -4    2.00    1.10
  -4   4   4    1.30    1.00
   3  -4  -4  130.49    4.20
   3  -4  -4  125.59    5.20
  -3   4   4  118.79    5.20
   2  -4  -4  365.16   10.90
   2  -4  -4  391.46    9.40
  -2   4   4  382.96   10.60
   1  -4  -4   37.70    2.10
   1  -4  -4   42.00    2.30
  -1   4   4   38.70    2.40
   0  -4  -4  421.56   10.20
   0  -4  -4  409.46   10.60
   0   4   4  415.26   10.30
  -1  -4  -4    7.30    1.00
  -1  -4  -4    7.00    1.10
   1   4   4    5.40    0.90
  -2  -4  -4   80.49    3.60
  -2  -4  -4   86.59    3.50
   2   4   4   87.49    3.00
  -3  -4  -4  154.08    5.40
  -3  -4  -4  153.98    5.70
   3   4   4  156.38    4.50
  -4  -4  -4  123.69    5.40
  -4  -4  -4  115.29    4.70
   4   4   4  115.49    3.80
  -5  -4  -4  300.57    8.90
  -5  -4  -4  289.27   10.50
  -5  -4  -4  306.37    7.50
  -6  -4  -4  114.49    3.90
  -6  -4  -4  120.19    6.40
   6   4   4  111.09    4.60
  -7  -4  -4    0.00    0.30
  -7  -4  -4    0.10    0.90
   7   4   4    0.00    0.60
  -8  -4  -4   89.49    6.40
   8   4   4   91.99    4.40
  -9  -4  -4    0.20    1.80
   9  -5  -4    9.20    3.80
   8  -5  -4   14.70    3.50
  -8   5   4   11.00    2.50
   7  -5  -4   25.40    4.00
  -7   5   4   22.70    3.40
   6  -5  -4    1.70    1.40
  -6   5   4    0.80    1.00
   5  -5  -4    2.50    0.90
  -5   5   4   -1.50    0.50
   4  -5  -4  159.48    5.10
   4  -5  -4  157.58    6.90
  -4   5   4  144.49    6.50
   3  -5  -4  100.39    3.70
   3  -5  -4   87.89    4.70
  -3   5   4   91.69    4.80
   2  -5  -4   44.70    2.40
   2  -5  -4   42.40    3.00
  -2   5   4   46.40    3.10
   1  -5  -4   82.49    3.40
   1  -5  -4   88.39    4.10
  -1   5   4   86.19    4.00
   0  -5  -4  458.75   12.20
   0  -5  -4  463.85   11.40
   0   5   4  456.25   11.60
  -1  -5  -4    0.50    0.50
  -1  -5  -4    0.00    0.30
   1   5   4    0.00    0.40
  -2  -5  -4  208.78    6.70
  -2  -5  -4  204.78    6.80
   2   5   4  197.48    5.70
  -3  -5  -4  143.19    5.80
  -3  -5  -4  144.99    5.40
   3   5   4  139.89    4.20
  -4  -5  -4    0.20    0.80
  -4  -5  -4   -0.40    0.20
   4   5   4    0.10    0.30
  -5  -5  -4    1.90    1.00
  -5  -5  -4    2.00    0.70
   5   5   4    3.20    0.70
  -6  -5  -4    0.70    1.00
   6   5   4    0.20    0.80
   6   5   4    1.50    0.60
  -7  -5  -4    9.60    2.70
   7   5   4   10.60    1.80
  -8  -5  -4    7.20    2.50
   8   5   4    5.40    1.40
  -9  -5  -4   19.70    4.00
   9   5   4   24.70    2.40
 -10  -5  -4  185.48   10.70
   8  -6  -4   14.50    3.70
  -8   6   4   20.80    3.50
   7  -6  -4    7.20    3.10
  -7   6   4    2.30    1.70
   6  -6  -4   -0.50    1.30
  -6   6   4    0.20    1.00
   5  -6  -4    0.70    1.60
  -5   6   4    2.80    1.10
   4  -6  -4    0.60    1.10
  -4   6   4    1.20    1.30
   3  -6  -4  507.35   12.00
   3  -6  -4  439.86   14.90
  -3   6   4  493.35   14.00
   2  -6  -4   19.10    1.70
   2  -6  -4   21.40    2.60
  -2   6   4   19.60    2.60
   1  -6  -4    0.20    0.40
   1  -6  -4    0.90    1.10
  -1   6   4    0.10    0.60
   0  -6  -4    6.30    1.30
   0  -6  -4    4.80    1.10
   0   6   4    5.00    1.20
  -1  -6  -4   29.40    2.30
  -1  -6  -4   27.40    2.00
   1   6   4   26.00    2.00
  -2  -6  -4  113.99    4.90
  -2  -6  -4  112.29    4.80
   2   6   4  116.69    4.20
  -3  -6  -4    3.70    0.90
  -3  -6  -4    3.00    0.90
   3   6   4    2.30    0.60
  -4  -6  -4    2.50    1.10
  -4  -6  -4    3.60    1.50
   4   6   4    3.00    0.70
  -5  -6  -4  266.27    9.00
  -5  -6  -4  273.37   10.50
   5   6   4  272.17    6.90
  -6  -6  -4   73.29    5.10
   6   6   4   72.99    4.00
  -7  -6  -4   58.19    5.00
   7   6   4   57.59    3.70
  -8  -6  -4   56.29    5.30
   8   6   4   57.19    3.90
  -9  -6  -4    5.10    2.40
   9   6   4    5.70    1.40
 -10  -6  -4    7.10    2.50
   7  -7  -4   -3.70    2.10
  -7   7   4    4.50    1.20
   6  -7  -4   -1.00    1.40
  -6   7   4    0.90    1.10
   5  -7  -4    4.40    2.20
  -5   7   4    5.90    1.80
   4  -7  -4   51.29    4.60
  -4   7   4   66.89    4.70
   3  -7  -4  111.19    6.50
   3  -7  -4  122.99    4.70
  -3   7   4  126.49    6.20
   2  -7  -4   26.10    3.80
   2  -7  -4   23.50    2.10
  -2   7   4   22.00    2.90
   1  -7  -4  491.55   12.70
   1  -7  -4  494.35   15.00
  -1   7   4  488.25   13.70
   0  -7  -4  127.49    5.60
   0  -7  -4  133.09    5.30
   0   7   4  131.29    5.50
  -1  -7  -4    1.80    0.60
  -1  -7  -4    0.70    0.60
   1   7   4    1.90    0.90
  -2  -7  -4  185.88    6.80
  -2  -7  -4  169.58    6.80
   2   7   4  185.68    6.10
  -3  -7  -4   72.59    4.10
  -3  -7  -4   67.49    4.10
   3   7   4   67.69    3.10
  -4  -7  -4    4.00    1.50
  -4  -7  -4    2.00    1.20
   4   7   4    3.60    0.90
  -5  -7  -4   11.40    2.40
   5   7   4   12.80    1.80
  -6  -7  -4   20.70    3.40
   6   7   4   17.30    2.50
  -7  -7  -4   16.40    3.50
   7   7   4   12.80    2.20
  -8  -7  -4   -0.20    1.30
   8   7   4    2.10    1.00
  -9  -7  -4   49.40    5.60
   9   7   4   51.29    4.00
 -10  -7  -4   73.59    6.70
  10   7   4   66.29    4.60
   6  -8  -4   -1.60    2.50
  -6   8   4    0.00    1.40
   5  -8  -4   -1.80    1.90
  -5   8   4    7.00    1.70
   4  -8  -4   47.20    5.80
  -4   8   4   50.59    4.20
   3  -8  -4   -0.40    1.70
  -3   8   4    1.50    1.40
   2  -8  -4   15.30    3.30
   2  -8  -4   12.30    1.80
  -2   8   4    8.90    2.00
   1  -8  -4  428.06   12.00
   1  -8  -4  439.16   14.20
  -1   8   4  443.56   13.10
   0  -8  -4   34.30    2.70
   0  -8  -4   31.70    2.90
   0   8   4   30.30    2.70
  -1  -8  -4   34.50    2.80
  -1  -8  -4   36.00    2.90
   1   8   4   34.10    2.70
  -2  -8  -4   11.80    2.00
  -2  -8  -4   13.40    2.30
   2   8   4   12.80    1.90
  -3  -8  -4   29.80    2.90
  -3  -8  -4   29.20    2.70
   3   8   4   27.90    2.10
  -4  -8  -4   79.69    5.10
  -4  -8  -4   84.19    4.80
   4   8   4   83.09    3.60
  -5  -8  -4    3.90    1.70
   5   8   4    6.40    1.80
  -6  -8  -4    1.20    0.90
   6   8   4    2.20    1.30
  -7  -8  -4   80.59    6.20
   7   8   4   92.29    5.30
  -8  -8  -4    2.10    1.50
   8   8   4    3.30    1.60
  -9  -8  -4   38.50    6.00
   9   8   4   38.00    3.70
 -10  -8  -4    8.00    3.10
  10   8   4    2.90    1.40
   5  -9  -4   -4.10    2.20
  -5   9   4   -1.60    1.70
   4  -9  -4   47.30    6.40
  -4   9   4   55.59    4.60
   3  -9  -4    2.30    2.40
  -3   9   4    2.20    1.10
   2  -9  -4    7.10    2.20
  -2   9   4   10.50    2.20
   1  -9  -4    2.00    1.20
   1  -9  -4    1.80    0.90
  -1   9   4    1.90    1.30
   0  -9  -4    3.00    1.00
   0  -9  -4    2.00    1.10
   0   9   4    2.30    1.00
  -1  -9  -4   89.79    5.20
  -1  -9  -4   89.09    4.80
   1   9   4   86.59    4.70
  -2  -9  -4    1.30    0.90
  -2  -9  -4    0.50    0.80
   2   9   4    1.00    0.90
  -3  -9  -4   21.70    2.90
  -3  -9  -4   24.50    2.70
   3   9   4   19.80    2.00
  -4  -9  -4  207.08    9.30
   4   9   4  223.28    8.40
  -5  -9  -4   32.10    3.60
   5   9   4   32.90    3.20
  -6  -9  -4   17.20    3.60
   6   9   4   18.90    2.90
  -7  -9  -4    0.50    1.70
   7   9   4   -0.30    1.00
  -8  -9  -4   16.20    3.70
   8   9   4   14.60    2.50
  -9  -9  -4    2.80    1.90
   9   9   4   -1.20    0.90
  -5  10   4    7.10    3.40
  -4  10   4    1.70    1.50
   3 -10  -4   36.00    5.30
  -3  10   4   44.30    4.10
   2 -10  -4   91.69    6.30
  -2  10   4   83.49    5.50
   1 -10  -4   28.10    3.30
  -1  10   4   26.80    3.40
   0 -10  -4    0.90    0.90
   0 -10  -4    1.30    0.80
   0  10   4   -0.40    1.10
  -1 -10  -4  137.19    6.40
  -1 -10  -4  138.89    7.10
   1  10   4  132.79    6.00
  -2 -10  -4    0.30    1.00
  -2 -10  -4    1.50    1.20
   2  10   4    1.30    0.90
  -3 -10  -4    4.10    1.30
   3  10   4    3.20    1.10
  -4 -10  -4   22.10    3.80
   4  10   4   25.90    2.70
  -5 -10  -4   28.10    4.30
   5  10   4   25.30    3.30
  -6 -10  -4   13.30    3.40
   6  10   4    8.70    2.30
  -7 -10  -4    8.40    2.50
   7  10   4    6.00    1.60
  -8 -10  -4   13.90    3.70
   8  10   4   12.90    2.70
  -9 -10  -4   13.40    3.70
  -3  11   4    0.40    1.80
  -2  11   4   72.19    5.10
  -1  11   4    0.00    1.20
   0 -11  -4   46.40    4.30
   0  11   4   50.09    3.90
  -1 -11  -4   25.10    4.10
   1  11   4   17.80    2.60
   1  11   4   14.30    2.50
  -2 -11  -4    2.10    1.00
   2  11   4   -1.00    0.90
  -3 -11  -4   72.59    5.40
   3  11   4   67.09    4.50
  -4 -11  -4    4.90    2.30
   4  11   4    4.60    1.90
  -5 -11  -4    8.50    2.70
   5  11   4   12.60    2.70
  -6 -11  -4   88.89    6.90
   6  11   4   87.09    5.70
  -7 -11  -4   60.59    6.00
   7  11   4   61.89    4.80
  -8 -11  -4    6.00    2.90
  -2  12   4   21.70    3.80
  -1  12   4   24.30    3.40
   0  12   4   63.39    4.50
  -2 -12  -4   31.50    5.40
   2  12   4   25.00    3.30
  -3 -12  -4   21.40    3.70
   3  12   4   17.40    3.00
  -4 -12  -4    3.30    2.00
   4  12   4    0.70    1.40
  -5 -12  -4   13.00    3.60
   5  12   4   12.50    2.80
  -6 -12  -4    2.90    2.00
   6  12   4    2.60    1.00
  -7 -12  -4   50.09    5.80
   3  13   4    1.30    1.30
   4  13   4    6.20    2.10
   5  10  -5   22.80    3.20
   4  10  -5   18.00    2.70
  -4 -10   5   15.70    4.10
  -3 -10   5    2.30    2.30
  -1 -10   5  124.79    9.00
   0 -10   5   10.10    2.90
   6   9  -5    0.60    1.30
  -6  -9   5   -1.90    2.50
   5   9  -5   -1.00    0.70
  -5  -9   5    1.90    1.40
   4   9  -5   87.09    5.00
  -4  -9   5  100.39    8.10
   3   9  -5   12.90    2.10
  -3  -9   5   11.50    3.30
   2   9  -5    6.40    2.20
  -2  -9   5   10.80    3.00
  -1  -9   5   16.30    4.10
   1  -9   5   44.90    5.00
  -2   9  -5    4.40    1.30
   2  -9   5    6.60    3.10
  -3   9  -5    0.10    1.10
   3  -9   5    4.00    3.00
   7   8  -5   -0.30    1.20
  -7  -8   5    2.50    1.60
   6   8  -5   -0.90    1.00
  -6  -8   5    3.40    2.50
   5   8  -5    1.50    0.90
  -5  -8   5    0.90    1.60
   4   8  -5    9.60    1.80
  -4  -8   5   12.80    3.60
   3   8  -5    7.90    1.80
  -3  -8   5    9.60    2.80
   2   8  -5  106.29    4.90
  -2  -8   5  107.29    7.60
  -1  -8   5   -0.90    1.20
   0  -8   5   10.20    2.50
  -1   8  -5   41.10    2.80
   1  -8   5   47.10    5.10
  -2   8  -5    2.20    1.10
   2  -8   5    5.90    3.00
  -3   8  -5   30.50    2.70
   3  -8   5   39.10    5.80
  -4   8  -5    2.20    1.20
   4  -8   5    6.00    3.40
   8   7  -5   14.90    2.60
  -8  -7   5    8.10    3.20
   7   7  -5   90.89    5.20
  -7  -7   5   80.89    7.50
   6   7  -5   28.40    2.80
  -6  -7   5   28.80    5.10
   5   7  -5   79.99    4.60
  -5  -7   5   87.29    7.10
   4   7  -5    0.40    0.60
  -4  -7   5    1.80    1.30
   3   7  -5   -0.20    0.80
  -3  -7   5   -0.60    1.30
   2   7  -5   75.29    3.90
  -2  -7   5   77.59    6.00
   1   7  -5    1.60    0.60
  -1  -7   5    3.30    1.00
   0   7  -5    0.90    0.50
   0  -7   5    1.90    1.70
  -1   7  -5   10.20    1.60
   1  -7   5    7.30    2.70
  -2   7  -5    0.70    0.50
   2  -7   5    0.20    1.60
  -3   7  -5   27.30    2.50
   3  -7   5   24.70    4.80
  -4   7  -5    3.90    1.50
   4  -7   5    0.10    3.30
  -5   7  -5   74.09    4.60
   5  -7   5   73.89    8.40
   8   6  -5   37.70    3.60
  -8  -6   5   37.70    6.80
   7   6  -5   -0.90    0.70
  -7  -6   5   -0.80    1.90
   6   6  -5    3.40    1.50
  -6  -6   5    4.80    2.10
   5   6  -5   18.50    2.60
  -5  -6   5   26.30    4.80
   4   6  -5   29.20    2.60
  -4  -6   5   29.10    4.40
   3   6  -5   16.90    2.20
  -3  -6   5   16.80    3.60
   2   6  -5   55.69    3.20
  -2  -6   5   58.59    4.80
   1   6  -5    1.40    0.70
   1   6  -5    1.20    0.50
  -1  -6   5    3.80    1.40
   0   6  -5  335.37    8.80
   0   6  -5  336.57    8.90
   0  -6   5  339.47   13.10
  -1   6  -5    7.40    1.30
   1  -6   5    4.10    2.10
   2  -6   5    5.70    2.70
  -3   6  -5   76.09    4.00
   3  -6   5   68.89    7.00
  -4   6  -5   31.30    2.80
   4  -6   5   35.80    6.40
  -5   6  -5   11.70    2.30
   5  -6   5    6.50    4.10
  -6   6  -5    6.80    1.70
   6  -6   5    6.80    4.20
   9   5  -5   -0.60    0.80
  -9  -5   5   -1.80    1.20
   8   5  -5    1.80    0.80
  -8  -5   5    1.80    1.60
   7   5  -5   18.90    2.70
  -7  -5   5   16.80    4.20
   6   5  -5    6.90    1.70
  -6  -5   5    9.70    3.20
   5   5  -5   72.99    4.00
  -5  -5   5   64.79    5.50
   4   5  -5   10.50    1.70
  -4  -5   5   11.20    2.70
   3   5  -5  538.45   13.80
  -3  -5   5  536.05   17.70
   2   5  -5    7.30    0.70
   2   5  -5    5.60    1.20
  -2  -5   5    7.00    2.00
   1   5  -5   56.59    2.30
   1   5  -5   56.29    2.90
  -1  -5   5   56.09    4.30
   0   5  -5   13.10    1.30
   0   5  -5   13.50    1.20
   0  -5   5   11.10    2.60
  -1   5  -5    0.10    0.40
  -1   5  -5    0.50    0.50
   1  -5   5    0.70    1.60
  -2   5  -5   10.50    1.60
   2  -5   5   11.10    3.30
  -3   5  -5   15.50    2.10
   3  -5   5   16.00    4.30
  -4   5  -5    2.60    1.00
   4  -5   5    5.00    3.30
  -5   5  -5  105.29    5.20
   5  -5   5  102.19    7.80
  -6   5  -5   10.30    2.10
   6  -5   5    4.30    3.70
  -7   5  -5   10.80    2.40
   7  -5   5    9.80    4.50
   9   4  -5    0.60    1.10
  -9  -4   5   -0.20    1.20
   8   4  -5    7.20    1.90
  -8  -4   5    1.90    1.30
   7   4  -5   10.80    1.80
  -7  -4   5   10.90    3.20
   6   4  -5  237.48    8.10
  -6  -4   5  209.08   10.80
  -5  -4   5    4.50    1.60
   4   4  -5    0.40    0.50
  -4  -4   5    0.70    1.20
   3   4  -5   15.30    1.60
  -3  -4   5   15.50    2.80
   2   4  -5   13.30    1.40
  -2  -4   5   15.70    2.50
   1   4  -5  305.67    8.20
   1   4  -5  301.97    7.40
  -1  -4   5  305.67   10.80
   0   4  -5  158.58    4.90
   0   4  -5  157.58    4.80
   0  -4   5  156.68    7.10
  -1   4  -5   89.79    3.50
  -1   4  -5   86.49    3.20
   1  -4   5   89.59    5.60
  -2   4  -5  155.48    5.40
   2  -4   5  159.08    8.30
  -3   4  -5    8.20    1.40
   3  -4   5    6.30    2.80
  -4   4  -5    6.70    1.40
   4  -4   5    6.00    2.70
  -5   4  -5   85.99    4.40
   5  -4   5   79.59    6.40
  -6   4  -5    6.50    1.60
   6  -4   5    4.60    3.00
  -7   4  -5    3.30    1.50
   7  -4   5    2.70    3.40
  -8   4  -5    7.70    2.30
   8  -4   5    7.00    5.30
  10   3  -5    4.70    1.50
   9   3  -5   16.00    2.50
  -9  -3   5   22.60    4.60
   8   3  -5    0.00    0.50
  -8  -3   5    2.30    1.40
   7   3  -5    4.20    1.40
  -7  -3   5    7.00    2.30
   6   3  -5   39.20    2.80
  -6  -3   5   39.00    4.10
   5   3  -5    2.00    0.70
  -5  -3   5    2.40    1.10
   4   3  -5   38.00    2.50
  -4  -3   5   33.60    3.40
   3   3  -5   64.89    3.20
  -3  -3   5   70.19    2.50
  -3  -3   5   58.59    4.10
   2   3  -5   21.30    1.70
  -2  -3   5   19.70    1.20
  -2  -3   5   18.50    2.20
   1   3  -5  714.73   15.30
   1   3  -5  718.53   16.20
  -1  -3   5  741.83   20.10
   0   3  -5    0.70    0.30
   0   3  -5   -0.30    0.20
   0  -3   5    0.20    1.00
  -1   3  -5   62.79    2.70
  -1   3  -5   66.69    2.60
   1  -3   5   69.19    4.70
  -2   3  -5   84.39    3.50
  -2   3  -5   86.19    2.70
   2  -3   5   86.99    5.50
  -3   3  -5   28.50    2.10
   3  -3   5   31.20    3.70
  -4   3  -5   64.99    3.40
   4  -3   5   69.59    5.20
  -5   3  -5    6.80    1.30
   5  -3   5    7.30    2.60
  -6   3  -5   71.89    4.10
   6  -3   5   69.49    5.90
  -7   3  -5  115.09    5.60
   7  -3   5   99.79    7.70
  -8   3  -5    8.50    2.00
   8  -3   5    3.40    3.70
 -10  -2   5    1.40    2.30
   9   2  -5   17.50    2.60
  -9  -2   5   20.40    4.40
   8   2  -5    6.50    1.60
  -8  -2   5    7.80    2.40
   7   2  -5   74.19    4.00
  -7  -2   5   78.39    6.00
   6   2  -5   57.49    3.30
  -6  -2   5   57.99    5.00
   5   2  -5  119.89    4.80
  -5  -2   5  110.79    6.40
   4   2  -5  338.07    9.40
  -4  -2   5  354.46    8.60
  -4  -2   5  343.17   12.20
   3   2  -5    0.20    0.50
  -3  -2   5    0.60    0.80
  -3  -2   5    1.10    0.50
   2   2  -5   54.79    2.60
  -2  -2   5   57.79    2.20
  -2  -2   5   59.79    3.50
   1   2  -5    5.70    0.90
   1   2  -5    6.70    0.80
  -1  -2   5    6.80    1.50
   0   2  -5   18.70    1.20
   0   2  -5   17.30    1.40
   0  -2   5   18.00    2.10
  -1   2  -5  189.68    5.10
  -1   2  -5  185.08    5.30
   1  -2   5  190.58    7.60
  -2   2  -5  102.19    3.70
  -2   2  -5  100.29    3.20
   2  -2   5   99.29    5.20
  -3   2  -5   17.10    1.20
  -3   2  -5   16.10    1.50
   3  -2   5   19.10    2.90
  -4   2  -5  150.38    5.30
   4  -2   5  145.79    7.10
  -5   2  -5    3.10    0.90
   5  -2   5    2.50    2.10
  -6   2  -5   38.30    2.80
   6  -2   5   37.40    5.00
  -7   2  -5   11.00    2.00
   7  -2   5    9.20    3.20
  -8   2  -5  100.09    5.20
   8  -2   5   88.29    7.40
  -9   2  -5   12.00    2.20
   9  -2   5    7.20    4.20
 -10  -1   5    5.20    3.20
   9   1  -5    8.40    1.80
  -9  -1   5   10.50    3.10
   8   1  -5   18.10    2.50
  -8  -1   5   17.60    3.50
   7   1  -5   15.30    2.00
  -7  -1   5   14.60    3.00
   6   1  -5    5.30    1.20
  -6  -1   5    3.90    1.90
   5   1  -5    3.00    0.90
  -5  -1   5    4.30    1.20
  -5  -1   5    4.50    1.40
   4   1  -5    1.90    0.70
  -4  -1   5    2.40    1.20
  -4  -1   5    2.90    0.80
   3   1  -5   60.09    2.80
  -3  -1   5   62.19    2.70
  -3  -1   5   63.19    3.80
   2   1  -5  658.33   14.70
  -2  -1   5  631.34   17.60
  -2  -1   5  666.93   14.10
   1   1  -5   49.20    2.30
  -1  -1   5   53.79    2.20
  -1  -1   5   49.80    2.80
   0   1  -5  163.58    4.50
   0   1  -5  160.68    4.80
   0  -1   5  167.38    5.80
  -1   1  -5  539.85   11.90
  -1   1  -5  533.35   11.80
   1  -1   5  525.65   14.90
  -2   1  -5  179.08    5.10
  -2   1  -5  182.98    5.30
   2  -1   5  187.58    6.90
  -3   1  -5    0.50    0.30
  -3   1  -5    1.10    0.40
   3  -1   5   -0.80    0.90
  -4   1  -5   37.30    2.30
  -4   1  -5   37.50    1.80
   4  -1   5   38.80    3.20
  -5   1  -5  231.38    7.30
   5  -1   5  245.68    9.70
  -6   1  -5   87.09    4.10
   6  -1   5   90.69    6.00
  -7   1  -5    0.50    0.70
   7  -1   5   -0.60    1.70
  -8   1  -5    1.20    1.10
   8  -1   5    0.30    2.20
  -9   1  -5   22.40    2.80
   9  -1   5   21.30    4.80
  -9   0   5   -0.40    2.00
   8   0  -5    2.40    1.20
  -8   0   5    1.00    1.50
   7   0  -5  116.49    5.00
  -7   0   5  112.79    7.00
   6   0  -5    5.70    1.20
  -6   0   5    5.50    2.10
  -6   0   5    2.10    1.00
   5   0  -5   34.70    2.30
  -5   0   5   36.90    2.50
  -5   0   5   35.30    3.20
   4   0  -5   74.39    3.30
  -4   0   5   70.29    3.30
  -4   0   5   76.69    4.50
   3   0  -5   73.59    3.10
  -3   0   5   72.89    3.90
  -3   0   5   70.89    3.10
   2   0  -5  513.55   12.10
  -2   0   5  503.75   14.10
  -2   0   5  523.75   11.70
   1   0  -5   92.99    3.30
  -1   0   5   86.19    3.50
  -1   0   5   85.39    3.00
   0   0  -5  207.98    5.70
   0   0   5  222.58    6.60
   0   0   5  221.58    5.70
  -1   0  -5  124.79    3.90
  -1   0  -5  127.39    3.90
   1   0   5  136.79    4.90
  -2   0  -5  126.99    4.00
  -2   0  -5  124.89    4.00
   2   0   5  126.89    4.90
  -3   0  -5  136.49    4.40
  -3   0  -5  135.79    4.20
   3   0   5  134.69    5.40
  -4   0  -5    0.60    0.40
  -4   0  -5    0.50    0.50
   4   0   5    0.30    0.80
  -5   0  -5    4.80    1.00
   5   0   5    1.80    1.40
  -6   0  -5  143.99    5.30
   6   0   5  143.79    7.20
  -7   0  -5  133.79    5.30
   7   0   5  140.39    7.70
  -8   0  -5    0.90    0.90
   8   0   5    4.00    1.50
  -9   0  -5   18.60    2.60
   9   0   5   24.10    4.50
 -10   0  -5   25.80    3.10
  10  -1  -5   22.70    5.50
   9  -1  -5    4.20    2.20
   8  -1  -5   18.10    2.30
  -8   1   5   22.90    4.10
   7  -1  -5   31.80    2.50
  -7   1   5   32.70    3.70
  -7   1   5   28.40    2.70
   6  -1  -5   72.59    3.60
  -6   1   5   70.29    3.90
  -6   1   5   73.99    5.10
   5  -1  -5   11.10    1.60
  -5   1   5    9.00    1.90
  -5   1   5   11.50    1.80
   4  -1  -5   51.99    2.80
  -4   1   5   56.49    3.60
  -4   1   5   55.89    3.10
   3  -1  -5   27.40    1.90
  -3   1   5   27.30    2.00
  -3   1   5   30.20    2.30
   2  -1  -5   90.09    3.30
  -2   1   5   91.99    3.70
  -2   1   5   89.59    3.40
   1  -1  -5   11.50    1.10
  -1   1   5   11.10    1.00
  -1   1   5    8.30    0.90
   0  -1  -5  637.94   13.90
   0   1   5  628.94   13.90
  -1  -1  -5   43.70    1.90
  -1  -1  -5   38.60    2.10
   1   1   5   44.50    2.20
  -2  -1  -5  531.35   11.90
  -2  -1  -5  529.35   12.30
   2   1   5  531.05   13.70
  -3  -1  -5  255.57    6.70
  -3  -1  -5  240.68    6.80
   3   1   5  268.27    8.20
  -4  -1  -5   90.29    3.40
  -4  -1  -5   86.49    3.40
   4   1   5   91.99    4.50
  -5  -1  -5   18.20    1.60
  -5  -1  -5   19.70    1.60
   5   1   5   20.30    2.90
  -6  -1  -5    0.00    0.50
   6   1   5    0.10    0.60
   6   1   5    0.70    1.10
  -7  -1  -5   73.39    3.60
   7   1   5   72.09    5.30
  -8  -1  -5   47.50    3.00
   8   1   5   47.90    4.70
  -9  -1  -5    1.90    1.20
   9   1   5    0.70    1.90
  10   1   5    0.80    2.90
   9  -2  -5   16.50    3.60
   8  -2  -5    0.80    1.50
  -8   2   5   -1.60    1.40
   7  -2  -5   17.20    1.80
   7  -2  -5   17.10    3.30
  -7   2   5   17.20    2.70
   6  -2  -5   33.40    2.20
  -6   2   5   30.10    2.80
   5  -2  -5  114.69    4.20
  -5   2   5  111.29    5.70
  -5   2   5  109.69    5.10
   4  -2  -5   37.40    2.10
  -4   2   5   35.90    2.70
  -4   2   5   35.10    2.60
   3  -2  -5  103.99    3.60
  -3   2   5   98.79    4.20
  -3   2   5   94.99    4.20
   2  -2  -5  102.29    3.50
  -2   2   5   99.49    3.90
  -2   2   5   96.19    3.60
   1  -2  -5  248.58    6.70
  -1   2   5  269.27    7.00
   0  -2  -5   12.60    1.10
   0   2   5   17.90    1.30
  -1  -2  -5  275.97    7.40
   1   2   5  272.57    7.00
  -2  -2  -5    1.40    0.40
  -2  -2  -5   -0.10    0.20
   2   2   5   -0.20    0.50
  -3  -2  -5   13.20    1.10
  -3  -2  -5   11.70    1.20
   3   2   5   13.90    1.60
  -4  -2  -5   73.19    3.30
  -4  -2  -5   73.39    3.00
   4   2   5   76.29    4.00
  -5  -2  -5  111.39    4.00
  -5  -2  -5  108.99    4.20
   5   2   5  109.39    5.60
  -6  -2  -5   14.30    1.50
   6   2   5   17.50    3.00
  -7  -2  -5    2.40    0.80
   7   2   5    3.50    1.30
  -8  -2  -5   19.70    1.90
   8   2   5   22.20    3.70
  -9  -2  -5   95.69    4.40
   9   2   5   90.79    7.10
  10   2   5    6.30    3.30
   9  -3  -5    2.30    2.20
   8  -3  -5   29.50    4.60
  -8   3   5   27.80    3.80
   7  -3  -5   31.70    3.60
  -7   3   5   32.80    3.20
   6  -3  -5   77.49    5.10
   6  -3  -5   79.89    3.40
  -6   3   5   75.49    4.50
   5  -3  -5   17.10    2.70
   5  -3  -5   13.70    1.60
  -5   3   5   13.70    2.10
   4  -3  -5  369.56    9.50
   4  -3  -5  394.06   12.00
  -4   3   5  390.16   11.30
   3  -3  -5    0.90    0.30
   3  -3  -5    0.30    0.30
  -3   3   5    0.40    0.60
   2  -3  -5   73.79    3.00
   2  -3  -5   72.59    3.00
  -2   3   5   72.09    3.50
   1  -3  -5    0.10    0.40
  -1   3   5   -0.90    0.30
   0  -3  -5    5.90    1.00
   0   3   5    7.30    1.10
  -1  -3  -5    0.50    0.40
   1   3   5    0.10    0.30
  -2  -3  -5  372.86   10.00
  -2  -3  -5  423.26   10.30
   2   3   5  386.96    9.50
  -3  -3  -5  120.69    3.80
  -3  -3  -5  126.29    4.70
  -3  -3  -5  113.39    4.40
  -4  -3  -5   33.30    1.90
  -4  -3  -5   31.80    2.40
  -4  -3  -5   37.10    2.30
  -5  -3  -5    4.00    0.80
  -5  -3  -5    3.00    1.00
  -5  -3  -5    3.30    1.30
  -6  -3  -5  447.36   11.80
  -6  -3  -5  439.96   14.50
  -6  -3  -5  446.36   11.00
  -7  -3  -5   14.10    1.70
   7   3   5   16.70    2.00
  -8  -3  -5   -0.20    0.50
   8   3   5    3.10    1.20
   9   3   5   12.00    3.10
  10   3   5    3.90    3.40
   9  -4  -5    5.50    3.10
  -9   4   5    6.20    2.30
   8  -4  -5    8.80    2.40
  -8   4   5    6.80    2.30
   7  -4  -5   21.40    3.70
  -7   4   5   24.40    3.50
   6  -4  -5    1.60    1.50
  -6   4   5    0.70    1.20
   5  -4  -5   28.90    2.00
   5  -4  -5   27.80    2.70
  -5   4   5   27.10    2.70
   4  -4  -5   98.89    3.80
   4  -4  -5   91.29    4.70
  -4   4   5  104.29    5.10
   3  -4  -5  126.29    4.50
   3  -4  -5  119.69    5.00
  -3   4   5  131.99    5.60
   2  -4  -5  172.28    5.40
   2  -4  -5  161.98    5.60
  -2   4   5  161.58    6.00
   1  -4  -5   15.40    1.40
  -1   4   5   14.60    1.50
   0  -4  -5   -0.20    0.30
   0   4   5    0.00    0.30
  -1  -4  -5   10.40    1.40
   1   4   5   12.10    1.20
  -2  -4  -5  144.79    5.30
  -2  -4  -5  157.08    5.00
   2   4   5  154.68    4.60
  -3  -4  -5  838.32   19.20
  -3  -4  -5  832.82   21.10
   3   4   5  814.62   18.00
  -4  -4  -5   30.00    2.40
  -4  -4  -5   28.80    2.40
   4   4   5   30.20    1.90
  -5  -4  -5    0.80    1.00
  -5  -4  -5   -0.80    0.60
  -5  -4  -5   -0.40    0.40
  -6  -4  -5  176.38    6.50
  -6  -4  -5  185.38    8.10
  -6  -4  -5  187.38    5.60
  -7  -4  -5   34.20    3.60
  -7  -4  -5   31.70    2.10
   7   4   5   30.80    2.50
  -8  -4  -5  136.49    7.90
  -8  -4  -5  138.49    5.50
   8   4   5  132.69    5.50
  10   4   5   43.80    6.40
   8  -5  -5    0.70    2.00
  -8   5   5   -0.20    1.20
   7  -5  -5   14.10    3.10
  -7   5   5   17.30    3.10
   6  -5  -5   84.69    5.70
  -6   5   5   97.09    5.70
   5  -5  -5  116.49    6.20
   5  -5  -5  140.59    5.00
  -5   5   5  132.89    6.50
   4  -5  -5    4.90    1.60
   4  -5  -5    8.10    1.30
  -4   5   5    5.50    1.70
   3  -5  -5   29.40    2.10
   3  -5  -5   29.80    2.60
  -3   5   5   29.70    2.70
   2  -5  -5  237.38    7.90
   2  -5  -5  243.08    7.10
  -2   5   5  241.98    8.20
   1  -5  -5    2.70    0.90
   1  -5  -5    3.10    0.90
  -1   5   5    3.70    1.20
   0  -5  -5  189.08    6.00
   0   5   5  178.98    6.10
  -1  -5  -5  111.79    4.40
   1   5   5  102.49    4.00
  -2  -5  -5   73.89    3.70
  -2  -5  -5   77.79    3.40
   2   5   5   76.19    3.10
  -3  -5  -5   39.10    2.60
  -3  -5  -5   40.40    2.80
   3   5   5   39.30    2.10
  -4  -5  -5   -0.80    0.70
  -4  -5  -5    0.50    0.60
   4   5   5    0.10    0.40
  -5  -5  -5   20.80    2.40
  -5  -5  -5   20.40    2.50
   5   5   5   20.60    1.60
  -6  -5  -5    9.30    2.30
  -6  -5  -5    4.50    1.40
   6   5   5    9.60    1.40
  -7  -5  -5   42.70    4.00
   7   5   5   38.30    3.00
  -8  -5  -5  479.95   17.30
   8   5   5  472.55   13.30
  -9  -5  -5    7.50    2.60
  -8   6   5    4.60    1.60
   7  -6  -5   22.80    4.60
  -7   6   5   32.60    4.30
   6  -6  -5    6.70    2.50
  -6   6   5    7.60    2.50
   5  -6  -5  219.68    9.60
  -5   6   5  254.97    9.70
   4  -6  -5   17.60    2.80
   4  -6  -5   17.40    2.00
  -4   6   5   14.40    2.70
   3  -6  -5    6.30    1.20
   3  -6  -5    5.60    1.90
  -3   6   5    3.40    1.40
   2  -6  -5   22.70    1.90
   2  -6  -5   24.70    2.70
  -2   6   5   24.30    2.50
   1  -6  -5   18.70    1.80
   1  -6  -5   21.40    2.00
  -1   6   5   20.60    2.60
   0  -6  -5  237.78    7.50
   0  -6  -5  244.68    7.40
   0   6   5  239.58    7.70
  -1  -6  -5   56.99    3.30
  -1  -6  -5   56.99    2.80
   1   6   5   55.79    3.10
  -2  -6  -5    9.20    1.50
  -2  -6  -5    9.20    1.70
   2   6   5    8.20    1.30
  -3  -6  -5  197.08    7.30
  -3  -6  -5  207.18    7.20
   3   6   5  196.48    5.90
  -4  -6  -5   88.19    4.50
  -4  -6  -5   94.59    4.90
   4   6   5   93.19    3.50
  -5  -6  -5  133.19    5.90
  -5  -6  -5  137.09    6.60
   5   6   5  134.69    4.40
  -6  -6  -5   74.49    5.10
   6   6   5   74.89    3.10
  -7  -6  -5    6.00    2.30
   7   6   5    6.20    1.60
  -8  -6  -5    0.30    1.40
   8   6   5    1.60    0.90
  -9  -6  -5    1.70    1.90
   9   6   5    3.10    1.20
 -10  -6  -5   23.40    4.70
  -7   7   5    1.60    2.30
  -6   7   5   39.70    4.90
   5  -7  -5   61.59    5.20
  -5   7   5   76.79    5.30
   4  -7  -5   23.40    3.80
  -4   7   5   26.90    3.60
   3  -7  -5  290.27   10.80
   3  -7  -5  283.57    8.50
  -3   7   5  281.17   10.30
   2  -7  -5   18.40    3.10
   2  -7  -5   21.40    2.00
  -2   7   5   22.40    3.10
   1  -7  -5   26.90    2.30
   1  -7  -5   32.70    2.60
  -1   7   5   28.90    2.70
   0  -7  -5   88.39    4.10
   0  -7  -5   88.09    4.30
   0   7   5   86.89    4.50
  -1  -7  -5   62.59    3.70
  -1  -7  -5   61.99    3.30
   1   7   5   60.99    3.50
  -2  -7  -5   23.70    2.30
  -2  -7  -5   22.30    2.10
   2   7   5   22.10    1.90
  -3  -7  -5   15.50    2.30
  -3  -7  -5   12.40    1.90
   3   7   5   12.70    1.70
  -4  -7  -5   74.39    4.60
  -4  -7  -5   69.09    4.30
   4   7   5   68.29    3.10
  -5  -7  -5    8.60    2.00
  -5  -7  -5    7.50    1.90
   5   7   5   10.70    1.40
  -6  -7  -5   10.30    2.40
   6   7   5   10.60    2.00
  -7  -7  -5  135.19    7.80
   7   7   5  144.09    6.50
  -8  -7  -5   91.39    6.80
   8   7   5   93.09    5.20
  -9  -7  -5   21.40    4.10
   9   7   5   20.90    2.90
 -10  -7  -5   22.10    4.90
  -6   8   5   39.90    5.10
  -5   8   5   -1.00    0.90
   4  -8  -5    9.90    3.80
  -4   8   5    9.50    2.30
   3  -8  -5  157.58    8.20
  -3   8   5  161.18    7.60
   2  -8  -5    4.00    1.80
   2  -8  -5    3.50    1.30
  -2   8   5    3.70    1.60
   1  -8  -5    9.70    1.90
   1  -8  -5    6.30    1.40
  -1   8   5    5.50    1.60
   0  -8  -5   20.40    2.00
   0  -8  -5   16.40    2.30
   0   8   5   19.20    2.60
  -1  -8  -5   58.19    3.50
  -1  -8  -5   63.89    3.90
   1   8   5   62.99    3.80
  -2  -8  -5   76.39    4.20
  -2  -8  -5   71.49    4.20
   2   8   5   72.79    3.80
  -3  -8  -5   -0.60    0.60
  -3  -8  -5    0.20    0.90
   3   8   5    0.90    0.70
  -4  -8  -5   32.10    3.10
  -4  -8  -5   35.80    3.20
   4   8   5   34.90    2.40
  -5  -8  -5   64.89    4.80
  -5  -8  -5   56.39    4.10
  -6  -8  -5    0.10    1.00
   6   8   5    1.40    1.00
  -7  -8  -5  100.79    6.90
   7   8   5   98.79    5.50
  -8  -8  -5    7.10    2.50
   8   8   5    5.90    1.80
  -9  -8  -5    0.10    2.00
   9   8   5    0.80    0.90
 -10  -8  -5    4.10    2.60
  10   8   5    3.40    1.50
  -5   9   5    5.70    1.50
  -4   9   5   13.40    2.90
  -3   9   5    2.20    1.60
   2  -9  -5   13.90    2.40
  -2   9   5   13.30    2.40
   1  -9  -5  115.09    5.90
   1  -9  -5  106.79    5.20
  -1   9   5  111.29    6.00
   0  -9  -5    6.30    1.40
   0  -9  -5    4.70    1.40
   0   9   5    6.20    1.70
  -1  -9  -5   69.79    4.20
  -1  -9  -5   71.89    4.30
   1   9   5   68.89    4.20
  -2  -9  -5  122.69    5.90
  -2  -9  -5  120.69    6.00
   2   9   5  122.49    5.50
  -3  -9  -5    9.90    2.10
  -3  -9  -5   12.70    2.50
   3   9   5   12.50    1.90
  -4  -9  -5   46.10    3.90
  -4  -9  -5   46.40    4.00
  -5  -9  -5    2.20    1.10
  -6  -9  -5    7.70    2.40
   6   9   5    7.90    2.10
  -7  -9  -5   -0.80    1.10
   7   9   5    0.00    1.00
  -8  -9  -5    4.20    1.60
   8   9   5    0.30    1.00
  -9  -9  -5   34.10    5.50
   9   9   5   39.10    3.80
  -4  10   5   58.59    5.00
  -3  10   5    3.10    1.20
  -2  10   5   15.60    3.00
   1 -10  -5  125.29    5.90
  -1  10   5  115.89    6.30
   0 -10  -5    0.80    0.80
   0  10   5    1.30    1.00
  -1 -10  -5    5.10    1.70
  -1 -10  -5    1.40    1.10
   1  10   5    1.00    1.10
  -2 -10  -5    5.10    1.50
  -2 -10  -5    3.80    1.60
   2  10   5    4.70    1.40
  -3 -10  -5   19.60    3.00
  -3 -10  -5   19.70    3.10
  -4 -10  -5   49.30    4.30
  -5 -10  -5   29.40    4.50
   5  10   5   30.70    3.70
  -6 -10  -5   35.10    5.20
   6  10   5   36.00    4.20
  -7 -10  -5   14.30    3.40
   7  10   5   15.80    3.00
  -8 -10  -5    4.10    2.30
   8  10   5    4.20    1.20
  -9 -10  -5   71.99    6.70
  -3  11   5    0.70    1.10
  -2  11   5   26.20    3.80
  -1  11   5    8.00    2.30
   0 -11  -5    1.70    1.10
   0  11   5    1.20    1.50
  -1 -11  -5   31.30    3.80
   1  11   5   30.90    3.10
  -2 -11  -5   41.30    3.80
   4  11   5  119.79    6.40
   5  11   5   84.19    5.60
   6  11   5    3.60    1.30
   7  11   5    9.40    2.30
  -2  12   5   51.59    4.50
  -1  12   5    6.40    2.30
   0  12   5    6.30    2.00
   1  12   5    4.60    1.40
   2  12   5    5.50    1.70
   3  12   5   26.60    3.50
   4  12   5   -0.10    1.40
   5  12   5   58.89    4.70
   6  12   5   40.70    4.20
  -1  13   5    6.40    2.10
   2  13   5   19.20    3.10
   3  13   5   94.59    5.90
   4  13   5    4.60    1.60
   4  10  -6    4.60    1.70
   5   9  -6   19.90    2.90
  -5  -9   6   14.60    3.60
   4   9  -6    0.10    1.00
  -4  -9   6    2.90    2.90
  -3  -9   6   10.00    2.30
  -2  -9   6    5.00    2.60
  -1  -9   6   28.30    5.20
   0  -9   6   45.80    4.50
   1  -9   6   26.20    5.00
  -3   9  -6    1.60    0.90
   6   8  -6    2.50    1.00
  -6  -8   6    3.90    2.80
   5   8  -6   14.90    2.50
  -5  -8   6   15.60    4.10
   4   8  -6   69.79    4.30
  -4  -8   6   68.49    6.30
   3   8  -6    0.90    1.00
  -3  -8   6    0.60    1.90
   2   8  -6   23.20    2.40
  -2  -8   6   24.60    4.50
  -1  -8   6    7.30    1.90
   0  -8   6    1.80    1.80
   1  -8   6   73.19    6.50
  -2   8  -6    2.70    1.10
  -3   8  -6   16.30    2.40
   3  -8   6   15.40    3.60
  -4   8  -6    1.60    1.10
   7   7  -6   66.89    4.60
  -7  -7   6   56.59    6.50
   6   7  -6    3.30    1.40
  -6  -7   6    6.70    2.30
   5   7  -6    8.50    2.00
  -5  -7   6    8.20    3.10
   4   7  -6   59.89    3.90
  -4  -7   6   67.99    5.80
   3   7  -6    6.60    1.40
  -3  -7   6    5.40    2.40
   2   7  -6   18.30    2.30
  -2  -7   6   31.30    4.80
   1   7  -6    0.00    0.60
  -1  -7   6    1.00    2.00
   0   7  -6    3.10    0.80
   0  -7   6    5.90    2.00
  -1   7  -6   36.30    2.60
   1  -7   6   41.50    4.50
  -2   7  -6   21.80    2.10
   2  -7   6   20.00    4.10
  -3   7  -6  133.79    5.80
   3  -7   6  134.79    9.20
  -4   7  -6   45.00    3.40
   4  -7   6   43.00    6.90
   5  -7   6   12.40    7.30
   8   6  -6    2.70    1.60
  -8  -6   6    3.70    3.50
   7   6  -6    6.30    1.60
  -7  -6   6    7.30    3.20
   6   6  -6   32.90    3.00
  -6  -6   6   28.60    5.40
   5   6  -6   29.60    2.70
  -5  -6   6   29.10    4.70
   4   6  -6    3.10    0.90
  -4  -6   6    1.90    1.80
   3   6  -6    2.00    0.70
  -3  -6   6    4.50    1.60
   2   6  -6  303.07    9.20
  -2  -6   6  303.37   12.40
   1   6  -6   53.09    2.50
   1   6  -6   50.29    2.90
  -1  -6   6   50.19    4.80
   0   6  -6   44.00    2.50
   0   6  -6   43.40    2.60
   0  -6   6   45.80    4.40
  -1   6  -6   79.69    3.70
   1  -6   6   80.19    6.00
  -2   6  -6   24.30    2.10
   2  -6   6   23.10    4.50
  -3   6  -6    5.90    1.40
   3  -6   6   -0.50    2.90
  -4   6  -6   23.70    2.40
   4  -6   6   27.50    5.80
  -5   6  -6   30.90    2.90
   5  -6   6   27.40    6.20
  -6   6  -6   63.59    4.90
   6  -6   6   46.40    8.70
  -9  -5   6   28.70    7.30
   8   5  -6   19.90    2.80
  -8  -5   6   13.70    3.80
   7   5  -6    9.50    2.20
  -7  -5   6    8.70    3.30
   6   5  -6    1.00    1.00
  -6  -5   6    1.50    2.00
   5   5  -6  329.07   10.30
  -5  -5   6  317.57   13.70
   4   5  -6    1.60    1.00
  -4  -5   6    1.70    1.60
   3   5  -6    2.70    1.00
  -3  -5   6    2.90    1.50
   2   5  -6    0.30    0.60
  -2  -5   6    0.20    1.30
   1   5  -6   10.50    1.10
   1   5  -6    9.60    1.40
  -1  -5   6   12.70    2.70
   0   5  -6    1.10    0.50
   0   5  -6    2.50    0.80
   0  -5   6    2.30    1.40
  -1   5  -6    0.30    0.50
   1  -5   6    1.10    1.80
  -2   5  -6   19.90    1.80
   2  -5   6   19.30    4.10
  -3   5  -6  162.98    6.10
   3  -5   6  164.28    9.80
  -4   5  -6   37.30    2.90
   4  -5   6   36.30    6.00
  -5   5  -6   65.49    4.10
   5  -5   6   60.69    7.10
  -6   5  -6   28.80    2.90
   6  -5   6   22.10    5.60
   9   4  -6    2.50    1.30
  -9  -4   6    2.50    2.90
   8   4  -6  101.69    5.50
  -8  -4   6   95.19    7.80
   7   4  -6    1.40    0.80
  -7  -4   6   -0.40    1.50
   6   4  -6    1.90    1.10
  -6  -4   6    0.00    1.70
   5   4  -6   11.70    1.90
  -5  -4   6   13.40    3.00
   4   4  -6   21.30    2.00
  -4  -4   6   20.20    3.50
   3   4  -6  350.86   10.00
  -3  -4   6  358.26   13.00
   2   4  -6  108.69    4.40
  -2  -4   6  107.49    3.60
  -2  -4   6  105.59    5.90
   1   4  -6   35.10    1.80
   1   4  -6   28.90    2.00
  -1  -4   6   36.80    3.30
   0   4  -6   84.49    3.30
   0   4  -6   86.59    3.50
   0  -4   6   82.19    5.10
  -1   4  -6   29.80    1.80
  -1   4  -6   31.20    2.00
   1  -4   6   29.70    4.10
  -2   4  -6  105.19    4.30
   2  -4   6  113.79    7.30
  -3   4  -6   53.09    3.10
   3  -4   6   53.19    5.60
  -4   4  -6    0.30    0.50
   4  -4   6   -0.20    2.60
  -5   4  -6    0.30    0.50
   5  -4   6   -3.40    2.60
  -6   4  -6   14.10    2.30
   6  -4   6   12.90    4.70
  -7   4  -6   34.70    3.30
   7  -4   6   30.10    6.10
   9   3  -6   -0.80    1.10
  -9  -3   6   -0.30    2.30
   8   3  -6   10.90    1.80
  -8  -3   6   11.70    2.90
   7   3  -6    7.80    1.60
  -7  -3   6    8.40    2.30
   6   3  -6   91.19    4.60
  -6  -3   6   77.59    6.00
   5   3  -6    0.10    0.40
  -5  -3   6   -0.50    0.80
   4   3  -6    0.70    0.60
  -4  -3   6    1.50    1.30
   3   3  -6  586.24   14.40
  -3  -3   6  585.94   18.00
  -3  -3   6  584.34   13.10
   2   3  -6    0.20    0.50
  -2  -3   6    1.10    0.50
  -2  -3   6   -0.20    0.90
   1   3  -6    7.30    1.10
   1   3  -6    5.30    0.80
  -1  -3   6    4.00    1.40
   0   3  -6  121.39    4.30
   0   3  -6  114.79    3.90
   0  -3   6  120.59    5.80
  -1   3  -6    2.10    0.60
  -1   3  -6    1.20    0.40
   1  -3   6    1.10    1.70
  -2   3  -6   41.30    2.00
  -2   3  -6   40.00    2.40
   2  -3   6   39.60    4.40
  -3   3  -6    7.00    1.30
   3  -3   6    4.60    2.50
  -4   3  -6  111.19    4.70
   4  -3   6  110.39    7.10
  -5   3  -6  124.79    5.30
   5  -3   6  122.09    7.90
  -6   3  -6    3.90    1.00
   6  -3   6   -1.30    2.40
  -7   3  -6   88.49    5.00
   7  -3   6   81.99    7.30
  -8   3  -6    1.60    1.00
   8  -3   6   -3.10    3.20
  10   2  -6    4.40    2.30
   9   2  -6   37.90    3.40
  -9  -2   6   28.50    5.10
   8   2  -6    3.60    1.40
  -8  -2   6    6.50    2.40
   7   2  -6    2.50    1.10
  -7  -2   6    2.10    1.60
   6   2  -6  167.08    6.30
  -6  -2   6  157.28    8.60
   5   2  -6    9.70    1.50
  -5  -2   6    8.20    2.10
   4   2  -6    0.30    0.40
  -4  -2   6   -0.70    0.50
  -4  -2   6   -0.20    1.00
   3   2  -6    4.70    1.00
  -3  -2   6    5.90    1.00
  -3  -2   6    4.70    1.40
   2   2  -6    3.80    1.00
  -2  -2   6    5.20    1.60
  -2  -2   6    3.90    0.80
   1   2  -6  211.18    6.40
  -1  -2   6  222.68    6.00
  -1  -2   6  223.38    8.00
   0   2  -6    1.00    0.60
   0   2  -6    1.70    0.50
   0  -2   6    1.40    0.90
  -1   2  -6    7.90    1.10
  -1   2  -6    8.30    1.00
   1  -2   6    9.30    2.30
  -2   2  -6  409.66    9.60
  -2   2  -6  401.16   10.20
   2  -2   6  410.76   13.40
  -3   2  -6   20.80    1.50
  -3   2  -6   18.60    1.70
   3  -2   6   20.80    3.50
  -4   2  -6   67.19    3.40
   4  -2   6   65.39    5.10
  -5   2  -6   32.80    2.50
   5  -2   6   31.60    4.40
  -6   2  -6   58.39    3.50
   6  -2   6   54.29    5.20
  -7   2  -6   11.10    2.10
   7  -2   6   17.50    3.80
  -8   2  -6    2.00    1.20
   8  -2   6    4.70    3.20
   9   1  -6    2.90    1.40
  -9  -1   6    0.20    1.90
   8   1  -6   -0.10    0.90
  -8  -1   6    0.10    1.40
   7   1  -6    3.50    1.10
  -7  -1   6    3.10    1.50
   6   1  -6    7.50    1.50
  -6  -1   6    7.10    2.50
   5   1  -6   -0.20    0.50
  -5  -1   6    2.70    1.20
  -5  -1   6    1.10    0.70
   4   1  -6  446.66   11.60
  -4  -1   6  454.95   11.20
  -4  -1   6  426.16   14.40
   3   1  -6   18.50    1.60
  -3  -1   6   19.60    1.60
  -3  -1   6   19.10    2.10
   2   1  -6    0.90    0.40
  -2  -1   6    0.80    0.70
  -2  -1   6    0.20    0.30
   1   1  -6  252.37    7.40
  -1  -1   6  272.17    8.60
  -1  -1   6  269.47    7.00
   0   1  -6  236.68    6.20
   0   1  -6  242.28    6.50
   0  -1   6  239.28    7.90
  -1   1  -6  141.19    4.30
  -1   1  -6  137.19    4.40
   1  -1   6  137.89    5.90
  -2   1  -6   11.20    1.40
  -2   1  -6   10.00    1.20
   2  -1   6   11.40    2.20
  -3   1  -6  309.27    8.50
  -3   1  -6  322.47    8.10
   3  -1   6  318.07   10.80
  -4   1  -6  146.09    5.20
   4  -1   6  147.79    7.00
  -5   1  -6   31.20    2.30
   5  -1   6   30.00    4.00
  -6   1  -6   13.50    1.80
   6  -1   6   12.50    2.70
  -7   1  -6   76.29    4.20
   7  -1   6   70.19    5.70
  -8   1  -6   12.20    2.20
   8  -1   6   15.50    3.80
  -9   1  -6   46.90    3.70
   9  -1   6   46.20    7.00
  -9   0   6   22.80    4.40
   8   0  -6   10.00    1.90
  -8   0   6    7.20    2.90
   7   0  -6   98.09    4.70
  -7   0   6   81.39    6.10
   6   0  -6    1.80    0.80
  -6   0   6    1.90    1.10
  -6   0   6    2.40    1.60
   5   0  -6   16.70    1.70
  -5   0   6   15.00    1.90
  -5   0   6   15.50    2.60
   4   0  -6  319.37    9.00
  -4   0   6  314.17    8.90
  -4   0   6  305.27   10.90
   3   0  -6    9.90    1.40
  -3   0   6   11.80    1.60
  -3   0   6    9.10    1.80
   2   0  -6  113.99    4.40
  -2   0   6  120.09    4.10
  -2   0   6  123.99    5.00
   1   0  -6  169.48    5.20
  -1   0   6  171.28    5.80
  -1   0   6  168.18    5.00
   0   0  -6    0.80    0.40
   0   0   6    2.40    0.80
   0   0   6    1.40    0.50
  -1   0  -6  311.97    7.90
  -1   0  -6  323.97    8.20
   1   0   6  320.37    9.60
  -2   0  -6    0.40    0.40
  -2   0  -6    0.50    0.60
   2   0   6    3.20    1.40
  -3   0  -6    3.20    0.80
  -3   0  -6    3.80    0.70
   3   0   6    3.10    1.40
  -4   0  -6  125.29    4.20
  -4   0  -6  121.29    4.50
   4   0   6  122.99    5.80
  -5   0  -6  153.98    5.50
   5   0   6  163.18    7.50
  -6   0  -6   66.39    3.50
   6   0   6   62.99    4.90
  -7   0  -6    4.20    1.20
   7   0   6    1.50    1.50
  -8   0  -6   42.70    3.20
   8   0   6   40.10    5.40
  -9   0  -6    6.60    1.50
   9   0   6    5.10    3.50
   9  -1  -6    1.70    2.10
   8  -1  -6    2.70    1.10
  -8   1   6    3.70    2.10
   7  -1  -6   11.90    1.90
  -7   1   6    7.20    2.50
  -7   1   6   11.40    2.20
   6  -1  -6   24.20    2.10
  -6   1   6   18.00    3.20
  -6   1   6   16.40    2.30
   5  -1  -6   18.10    1.80
  -5   1   6   20.30    2.90
  -5   1   6   18.20    2.30
   4  -1  -6   34.30    2.20
  -4   1   6   35.00    2.60
  -4   1   6   35.90    2.90
   3  -1  -6    0.10    0.30
  -3   1   6    0.80    0.70
  -3   1   6    2.20    0.80
   2  -1  -6  776.82   17.60
  -2   1   6  783.72   20.10
  -2   1   6  809.42   17.80
   1  -1  -6   30.60    1.90
  -1   1   6   28.50    1.70
  -1   1   6   30.90    1.80
   0  -1  -6  190.28    5.60
   0   1   6  191.58    5.50
  -1  -1  -6  396.06   10.40
   1   1   6  429.26   10.30
   1   1   6  448.56   11.50
  -2  -1  -6   69.19    2.80
  -2  -1  -6   65.09    3.10
   2   1   6   64.09    3.10
  -3  -1  -6    5.00    0.90
  -3  -1  -6    3.50    0.80
   3   1   6    5.60    1.20
  -4  -1  -6   13.70    1.40
  -4  -1  -6   17.10    1.50
   4   1   6   15.40    2.30
  -5  -1  -6   35.20    2.20
  -5  -1  -6   32.70    2.20
   5   1   6   38.00    3.20
  -6  -1  -6  160.28    5.60
   6   1   6  156.48    7.50
  -7  -1  -6    9.80    1.60
   7   1   6    6.80    2.10
  -8  -1  -6    2.70    0.90
   8   1   6    1.40    1.30
  -9  -1  -6    5.70    1.60
   9   1   6   11.20    3.30
 -10  -1  -6   -1.30    0.90
   9  -2  -6   -0.10    1.60
   8  -2  -6   19.90    3.70
   7  -2  -6   77.79    3.70
  -7   2   6   66.99    4.40
   6  -2  -6   24.70    2.10
  -6   2   6   23.20    2.80
  -6   2   6   25.60    3.10
   5  -2  -6  100.89    4.10
  -5   2   6   97.49    5.30
  -5   2   6   93.49    4.80
   4  -2  -6    0.60    0.50
  -4   2   6    1.70    0.80
  -4   2   6    0.00    0.70
   3  -2  -6    7.30    1.10
  -3   2   6    5.20    1.30
  -3   2   6    6.80    1.20
   2  -2  -6   19.90    1.50
  -2   2   6   15.60    1.60
  -2   2   6   16.10    1.30
   1  -2  -6  165.58    5.30
  -1   2   6  179.38    5.50
   0  -2  -6   41.20    2.30
   0   2   6   40.90    2.10
  -1  -2  -6   40.40    2.30
   1   2   6   35.70    2.10
  -2  -2  -6  122.49    4.60
   2   2   6  124.19    4.30
  -3  -2  -6  361.76    9.00
  -3  -2  -6  353.26    9.50
   3   2   6  361.76   10.40
  -4  -2  -6    1.40    0.60
  -4  -2  -6    1.40    0.60
   4   2   6    2.80    1.10
  -5  -2  -6    8.50    1.50
  -5  -2  -6    7.70    1.20
   5   2   6    7.80    1.80
  -6  -2  -6   37.50    2.50
  -6  -2  -6   42.60    2.50
   6   2   6   41.70    3.60
  -7  -2  -6  161.48    5.70
   7   2   6  150.48    8.00
  -8  -2  -6    1.60    0.70
   8   2   6    2.90    1.40
  -9  -2  -6    7.80    1.60
   9   2   6    5.20    2.40
  10   2   6    5.10    2.80
   8  -3  -6   76.19    6.20
  -8   3   6   98.49    5.60
   7  -3  -6    4.20    1.70
  -7   3   6    7.40    2.00
   6  -3  -6  107.59    6.20
   6  -3  -6  128.19    4.70
  -6   3   6  123.89    6.00
   5  -3  -6   12.40    2.20
   5  -3  -6   13.90    1.80
  -5   3   6   14.00    2.40
   4  -3  -6   12.40    2.10
   4  -3  -6   13.40    1.30
  -4   3   6   13.70    2.10
   3  -3  -6    2.90    1.00
   3  -3  -6    1.30    0.60
  -3   3   6    1.10    0.90
   2  -3  -6   28.30    2.00
  -2   3   6   27.30    2.20
   1  -3  -6    0.20    0.50
  -1   3   6    0.50    0.40
   0  -3  -6  595.74   13.90
   0   3   6  553.34   13.40
  -1  -3  -6   52.09    2.80
   1   3   6   49.60    2.40
  -2  -3  -6   39.60    2.50
   2   3   6   42.10    2.30
  -3  -3  -6    2.90    0.70
   3   3   6    1.10    0.50
   3   3   6    0.80    0.70
  -4  -3  -6  768.42   18.10
  -4  -3  -6  775.12   17.00
   4   3   6  768.62   20.60
  -5  -3  -6    0.50    0.70
  -5  -3  -6    1.40    0.60
   5   3   6   -1.30    1.30
  -6  -3  -6    6.10    1.50
  -6  -3  -6    6.20    1.20
   6   3   6    8.90    1.90
  -7  -3  -6    2.70    0.90
   7   3   6    5.50    1.70
   7   3   6    1.60    0.90
  -8  -3  -6    1.80    0.70
   8   3   6    1.40    1.30
  -9  -3  -6    7.20    1.40
   9   3   6    7.10    2.70
  10   3   6   25.50    4.70
  -8   4   6    1.70    1.40
   7  -4  -6    2.50    1.50
  -7   4   6    2.50    1.20
   6  -4  -6   75.49    5.10
   6  -4  -6   88.69    4.00
  -6   4   6   88.39    5.30
   5  -4  -6   64.99    3.30
   5  -4  -6   57.89    4.00
  -5   4   6   68.19    4.50
   4  -4  -6   84.99    3.80
   4  -4  -6   82.89    4.30
  -4   4   6   94.09    5.00
   3  -4  -6  103.49    4.50
   3  -4  -6  114.89    4.40
  -3   4   6  118.69    5.40
   2  -4  -6    6.50    1.20
  -2   4   6    8.90    1.50
   1  -4  -6    0.30    0.50
  -1   4   6    1.00    0.50
   0  -4  -6   13.50    1.70
   0   4   6   14.70    1.40
  -1  -4  -6  578.34   14.30
   1   4   6  589.44   13.60
  -2  -4  -6    0.10    0.70
   2   4   6    0.30    0.40
  -3  -4  -6   20.00    1.60
  -3  -4  -6   22.90    2.10
   3   4   6   19.80    1.70
  -4  -4  -6  258.07    8.30
  -4  -4  -6  262.37    8.70
   4   4   6  271.37    7.60
  -5  -4  -6  127.49    5.30
  -5  -4  -6  127.79    5.80
  -5  -4  -6  121.79    4.30
  -6  -4  -6  245.48    9.60
  -6  -4  -6  250.07    7.00
  -6  -4  -6  225.58    8.00
  -7  -4  -6    7.80    1.30
   7   4   6    7.40    1.40
  -8  -4  -6   36.70    2.60
   8   4   6   40.30    4.40
   9   4   6   22.00    4.50
  10   4   6   11.80    3.30
  -8   5   6   28.60    4.40
  -7   5   6   43.50    4.90
  -6   5   6   20.80    3.10
   5  -5  -6    2.70    1.40
   5  -5  -6    3.70    1.00
  -5   5   6    2.20    1.00
   4  -5  -6   49.20    3.00
   4  -5  -6   47.10    3.40
  -4   5   6   47.80    3.80
   3  -5  -6    0.20    0.60
   3  -5  -6   -0.50    0.80
  -3   5   6    0.40    1.00
   2  -5  -6  103.99    4.30
   2  -5  -6  108.19    4.50
  -2   5   6  102.09    4.90
   1  -5  -6  186.08    6.20
  -1   5   6  175.58    6.60
   0  -5  -6   47.60    2.80
   0   5   6   39.00    2.60
  -1  -5  -6  106.79    4.60
   1   5   6  108.19    4.30
  -2  -5  -6   69.49    3.70
   2   5   6   68.09    3.10
  -3  -5  -6   42.90    2.90
  -3  -5  -6   46.50    2.60
   3   5   6   42.20    2.40
  -4  -5  -6   54.49    3.30
  -4  -5  -6   53.09    3.40
   4   5   6   52.59    2.70
  -5  -5  -6   22.80    2.30
  -5  -5  -6   24.20    2.50
   5   5   6   22.10    1.80
  -6  -5  -6  561.04   15.30
  -6  -5  -6  573.14   17.70
   6   5   6  572.94   13.90
  -7  -5  -6    2.80    1.50
   7   5   6    5.40    1.30
   7   5   6    3.00    1.10
  -8  -5  -6   -0.20    1.60
   8   5   6   -0.20    0.90
  10   5   6   12.40    3.80
  -7   6   6   82.39    5.70
  -6   6   6   36.50    4.40
  -5   6   6    4.30    1.50
   4  -6  -6   14.20    2.00
  -4   6   6   17.40    3.00
   3  -6  -6    4.80    1.70
   3  -6  -6    6.30    1.40
  -3   6   6    5.10    1.80
   2  -6  -6   87.49    4.10
   2  -6  -6   93.19    4.60
  -2   6   6   86.49    4.90
   1  -6  -6  126.79    5.10
   1  -6  -6  114.89    4.40
  -1   6   6  121.89    5.50
   0  -6  -6   75.19    3.90
   0   6   6   79.79    4.10
  -1  -6  -6    6.30    1.40
   1   6   6    7.70    1.50
  -2  -6  -6  134.79    4.90
  -2  -6  -6  121.69    5.40
   2   6   6  128.09    4.80
  -3  -6  -6  292.17    9.20
  -3  -6  -6  284.37    9.40
   3   6   6  298.07    8.20
  -4  -6  -6  189.58    7.30
  -4  -6  -6  191.18    7.40
   4   6   6  191.68    6.00
  -5  -6  -6    8.20    1.70
  -5  -6  -6    9.40    1.90
   5   6   6    9.50    1.40
  -6  -6  -6    5.50    1.90
  -6  -6  -6    3.80    1.40
   6   6   6    5.60    1.10
  -7  -6  -6   38.80    3.80
   7   6   6   34.20    2.90
  -8  -6  -6   28.50    4.50
   8   6   6   33.50    3.10
  -9  -6  -6    1.10    1.60
   9   6   6    2.20    1.20
  -7   7   6   79.49    6.00
  -6   7   6   17.10    3.10
  -5   7   6  173.08    8.40
  -4   7   6    1.70    1.30
   3  -7  -6   16.40    2.20
  -3   7   6   11.40    2.30
   2  -7  -6   28.00    2.40
  -2   7   6   22.30    3.10
   1  -7  -6   -0.50    0.50
  -1   7   6   -0.40    0.80
   0  -7  -6   10.90    1.80
   0   7   6    6.50    1.60
  -1  -7  -6    1.90    1.00
  -1  -7  -6    5.10    1.10
   1   7   6    3.60    1.10
  -2  -7  -6  130.79    5.90
  -2  -7  -6  144.39    5.60
   2   7   6  144.39    5.50
  -3  -7  -6   40.20    3.10
  -3  -7  -6   37.40    2.80
   3   7   6   41.90    2.60
  -4  -7  -6   23.60    2.50
  -4  -7  -6   24.20    3.00
   4   7   6   19.10    1.80
  -5  -7  -6  307.77   11.20
  -5  -7  -6  292.07   10.30
   5   7   6  315.97    8.60
  -6  -7  -6   23.60    3.50
  -6  -7  -6   15.90    2.60
   6   7   6   20.40    2.10
  -7  -7  -6   11.50    2.70
   7   7   6   12.70    2.20
  -8  -7  -6   74.99    5.90
   8   7   6   66.79    4.50
  -9  -7  -6    1.10    1.90
   9   7   6    0.50    1.00
 -10  -7  -6    5.70    3.20
  -6   8   6   13.30    3.30
  -5   8   6   64.59    5.30
  -4   8   6    2.10    1.20
   3  -8  -6    6.10    1.50
  -3   8   6    7.90    2.20
   2  -8  -6   80.59    4.20
  -2   8   6   71.39    4.80
   1  -8  -6   39.50    3.00
  -1   8   6   40.00    3.40
   0  -8  -6   83.59    4.50
   0   8   6   83.59    4.80
  -1  -8  -6   16.50    2.50
   1   8   6   15.30    2.40
  -2  -8  -6   71.59    4.40
   2   8   6   86.69    4.30
  -3  -8  -6   29.60    2.90
  -3  -8  -6   30.20    2.70
   3   8   6   29.80    2.50
  -4  -8  -6   20.20    2.90
  -4  -8  -6   27.30    2.80
   4   8   6   23.50    2.20
  -5  -8  -6   77.39    5.00
  -5  -8  -6   81.49    5.20
   5   8   6   73.49    3.60
  -6  -8  -6   14.20    2.90
  -6  -8  -6   17.20    2.80
  -7  -8  -6   14.50    3.20
   7   8   6   13.20    2.50
  -8  -8  -6    4.50    2.20
   8   8   6    6.20    1.70
  -9  -8  -6    2.90    1.70
   9   8   6    1.60    1.10
 -10  -8  -6   10.30    4.50
  10   8   6   16.20    4.00
  -5   9   6   11.80    2.80
  -4   9   6    1.30    1.50
  -3   9   6   38.80    4.00
   2  -9  -6   15.00    2.40
  -2   9   6   15.70    2.90
   1  -9  -6  169.88    6.90
  -1   9   6  149.99    7.20
   0  -9  -6   49.30    3.60
   0   9   6   46.20    3.70
  -1  -9  -6   11.90    2.20
   1   9   6   12.00    2.20
  -2  -9  -6   47.40    3.70
   2   9   6   47.40    3.30
  -3  -9  -6    2.60    1.40
   3   9   6    1.20    1.10
  -4  -9  -6    6.60    1.90
   4   9   6    5.60    1.30
  -5  -9  -6   -1.10    0.50
  -6  -9  -6   11.30    3.40
   6   9   6   12.00    2.50
  -7  -9  -6   96.69    9.10
   7   9   6   93.59    5.60
   8   9   6   -0.30    1.20
   9   9   6    1.10    1.00
  -4  10   6   20.60    3.70
  -3  10   6   38.00    4.60
  -2  10   6    3.10    1.70
   1 -10  -6    1.20    1.10
  -1  10   6    0.50    1.40
   0 -10  -6    0.10    0.90
   0  10   6    1.00    0.80
  -1 -10  -6   46.10    3.70
   1  10   6   42.60    3.60
  -2 -10  -6   28.20    3.50
   2  10   6   28.00    2.80
  -3 -10  -6   60.49    4.50
   3  10   6   55.69    3.80
  -4 -10  -6   86.09    5.50
  -5 -10  -6    1.50    0.90
   6  10   6   -1.50    0.70
   7  10   6  107.99    6.40
   8  10   6    1.50    1.50
  -3  11   6    2.60    1.60
  -2  11   6   -0.80    1.00
  -1  11   6    7.90    2.40
   0 -11  -6   27.30    3.50
   0  11   6   26.90    3.60
  -1 -11  -6  155.28    7.40
   1  11   6  162.88    7.50
  -2 -11  -6   73.09    5.20
   2  11   6   87.69    5.10
  -3 -11  -6   40.50    3.90
  -4 -11  -6   -1.00    1.10
   5  11   6   18.00    3.00
   6  11   6    2.30    1.40
   7  11   6    8.60    2.20
  -2  12   6    0.70    1.80
  -1  12   6   16.70    3.30
   0  12   6   11.10    2.80
  -1 -12  -6    4.60    1.60
   1  12   6    1.40    1.40
  -2 -12  -6    1.00    1.20
   4  12   6   36.10    3.70
   5  12   6    7.60    2.10
   6  12   6   48.90    5.50
  -1  13   6    5.00    2.70
   2  13   6   20.10    3.30
   3  13   6    0.90    1.50
   4  13   6    3.30    2.20
   4   9  -7    1.30    1.40
  -3  -9   7    6.60    2.20
  -2  -9   7   29.90    5.60
  -1  -9   7   58.39    5.90
   0  -9   7   15.60    3.40
  -6  -8   7   35.70    9.10
   5   8  -7    7.50    1.80
  -5  -8   7   12.60    3.00
   4   8  -7   18.60    2.80
  -4  -8   7   35.80    5.80
  -3  -8   7    4.80    3.00
  -2  -8   7   11.10    3.00
  -1  -8   7   52.69    5.20
   1  -8   7   18.50    4.00
  -2   8  -7    0.60    0.90
   2  -8   7    8.90    2.20
  -3   8  -7    7.20    1.70
  -7  -7   7   14.80    4.50
   6   7  -7   17.50    2.70
  -6  -7   7   27.50    5.20
   5   7  -7    5.10    1.30
  -5  -7   7    0.70    2.30
   4   7  -7   13.70    2.30
  -4  -7   7   16.70    3.70
   3   7  -7   21.30    2.70
  -3  -7   7   29.20    5.20
   2   7  -7    9.50    1.80
  -2  -7   7   11.50    2.60
  -1  -7   7   18.60    4.20
   0  -7   7   79.79    6.10
  -1   7  -7  184.08    6.60
   1  -7   7  194.08   10.20
  -2   7  -7   55.29    3.50
   2  -7   7   58.89    5.80
   3  -7   7    8.60    3.70
  -4   7  -7   12.30    2.10
   4  -7   7   15.80    4.70
  -8  -6   7   44.20    9.50
   7   6  -7   37.00    3.60
  -7  -6   7   42.70    6.60
   6   6  -7    0.90    0.70
  -6  -6   7    3.50    1.60
   5   6  -7    4.40    1.30
  -5  -6   7    3.70    1.90
   4   6  -7   84.89    4.70
  -4  -6   7   86.59    6.70
   3   6  -7   22.10    2.60
  -3  -6   7   22.50    3.90
   2   6  -7  116.59    5.00
  -2  -6   7  104.89    6.80
   1   6  -7   21.30    2.10
  -1  -6   7   22.30    3.70
   0   6  -7    7.20    1.30
   0  -6   7    7.40    1.80
  -1   6  -7   13.90    1.90
   1  -6   7   12.00    3.30
  -2   6  -7   65.59    3.70
   2  -6   7   63.49    6.00
  -3   6  -7   65.49    3.80
   3  -6   7   61.49    6.30
  -4   6  -7   32.60    2.90
   4  -6   7   36.10    6.60
  -5   6  -7   29.80    3.00
   5  -6   7   29.90    6.60
   8   5  -7    1.20    0.80
  -8  -5   7    5.20    2.10
   7   5  -7  179.48    7.70
  -7  -5   7  169.58   10.50
   6   5  -7    5.50    1.70
  -6  -5   7    2.70    1.90
   5   5  -7    6.00    1.70
  -5  -5   7    8.20    2.30
   4   5  -7    1.80    1.10
  -4  -5   7    3.40    2.00
   3   5  -7   57.59    3.50
  -3  -5   7   62.59    5.00
   2   5  -7   15.60    2.00
  -2  -5   7   24.70    4.10
   1   5  -7   10.60    1.30
   1   5  -7    7.60    1.40
  -1  -5   7   11.80    2.30
   0   5  -7   13.60    1.70
   0   5  -7   14.10    1.40
   0  -5   7   14.60    3.20
  -1   5  -7   91.59    4.00
   1  -5   7   88.29    6.10
  -2   5  -7   10.70    1.70
   2  -5   7   10.00    2.90
  -3   5  -7  145.19    5.80
   3  -5   7  137.49    9.00
  -4   5  -7    3.00    1.00
   4  -5   7    2.40    3.60
  -5   5  -7   -0.10    0.80
   5  -5   7   -1.00    3.80
  -6   5  -7   25.10    3.30
   6  -5   7   19.10    5.70
  -9  -4   7    2.80    3.30
   8   4  -7    2.80    1.60
  -8  -4   7    2.00    2.70
   7   4  -7   18.10    2.60
  -7  -4   7   25.00    5.10
   6   4  -7   22.30    2.80
  -6  -4   7   26.20    4.90
   5   4  -7  280.37    9.20
  -5  -4   7  261.77   12.00
   4   4  -7    6.90    1.40
  -4  -4   7   10.30    2.40
   3   4  -7    0.60    0.50
  -3  -4   7    2.00    1.60
   2   4  -7   32.00    2.40
  -2  -4   7   28.10    3.20
  -2  -4   7   26.20    1.80
   1   4  -7   56.09    3.10
   1   4  -7   57.09    2.50
  -1  -4   7   55.99    4.20
   0   4  -7  127.39    4.50
   0   4  -7  117.99    4.70
   0  -4   7  128.99    6.80
  -1   4  -7   55.59    2.90
  -1   4  -7   59.39    2.70
   1  -4   7   63.09    4.80
  -2   4  -7   42.80    2.70
   2  -4   7   44.40    4.70
  -3   4  -7    3.80    1.10
   3  -4   7    7.50    3.80
  -4   4  -7    3.30    1.20
   4  -4   7    6.20    3.90
  -5   4  -7   47.60    3.40
   5  -4   7   54.49    7.30
  -6   4  -7   43.30    3.40
   6  -4   7   36.40    6.50
  -7   4  -7   -1.70    0.90
   7  -4   7   -7.80    3.50
   9   3  -7   11.20    2.60
  -9  -3   7    8.60    3.30
   8   3  -7   44.40    3.60
  -8  -3   7   46.30    5.50
   7   3  -7    8.50    1.90
  -7  -3   7    7.30    2.80
   6   3  -7   17.00    2.30
  -6  -3   7   16.50    3.50
   5   3  -7  164.28    6.40
  -5  -3   7  169.68    8.90
   4   3  -7    1.00    0.60
  -4  -3   7    2.10    1.00
   3   3  -7   12.20    1.70
  -3  -3   7   13.40    2.60
  -3  -3   7   10.40    1.60
   2   3  -7   66.09    3.40
  -2  -3   7   65.99    2.80
  -2  -3   7   64.59    4.40
   1   3  -7   10.60    1.50
  -1  -3   7   11.50    2.40
   0   3  -7   12.60    1.60
   0   3  -7   16.20    1.40
   0  -3   7   19.20    2.90
  -1   3  -7    7.80    1.20
  -1   3  -7    8.40    1.20
   1  -3   7    7.50    2.20
  -2   3  -7  268.77    7.90
  -2   3  -7  281.37    7.40
   2  -3   7  253.57   10.90
  -3   3  -7   96.49    4.30
   3  -3   7   80.59    6.60
  -4   3  -7   12.20    2.00
   4  -3   7    6.40    3.40
  -5   3  -7  200.48    7.20
   5  -3   7  174.18    9.90
  -6   3  -7    0.20    0.50
   6  -3   7   -2.60    3.00
  -7   3  -7   16.80    2.70
   7  -3   7   13.00    5.20
   9   2  -7   -1.50    1.10
  -9  -2   7    1.00    2.40
   8   2  -7   70.29    4.60
  -8  -2   7   65.69    6.30
   7   2  -7    1.50    1.10
  -7  -2   7    0.40    2.00
   6   2  -7    2.20    1.00
  -6  -2   7    0.90    1.60
   5   2  -7    5.60    1.30
  -5  -2   7    2.60    1.50
   4   2  -7    1.50    0.90
  -4  -2   7    1.70    1.20
   3   2  -7  145.49    5.50
  -3  -2   7  146.79    6.90
  -3  -2   7  146.99    4.90
   2   2  -7   40.50    2.60
  -2  -2   7   34.80    2.00
  -2  -2   7   36.60    3.20
   1   2  -7  136.99    5.00
  -1  -2   7  124.09    4.40
  -1  -2   7  129.79    5.90
   0   2  -7  262.47    6.90
   0   2  -7  265.17    7.30
   0  -2   7  250.47    9.10
  -1   2  -7    8.30    1.20
  -1   2  -7    8.00    1.10
   1  -2   7    9.20    2.20
  -2   2  -7  170.58    5.20
  -2   2  -7  158.18    5.40
   2  -2   7  157.28    7.80
  -3   2  -7   74.59    3.60
   3  -2   7   79.49    5.80
  -4   2  -7   22.90    2.10
   4  -2   7   26.80    4.20
  -5   2  -7   14.90    2.10
   5  -2   7   14.80    3.60
  -6   2  -7    0.30    0.60
   6  -2   7   -0.40    2.10
  -7   2  -7  100.19    5.20
   7  -2   7   92.29    7.50
  -8   2  -7    6.10    1.90
   8  -2   7    2.90    3.60
   9   1  -7    0.40    1.30
  -9  -1   7    1.40    2.10
   8   1  -7    4.80    1.50
  -8  -1   7    6.50    2.50
   7   1  -7    2.30    1.20
  -7  -1   7    5.40    2.50
   6   1  -7  357.46   10.70
  -6  -1   7  345.97   13.80
   5   1  -7    1.10    0.90
  -5  -1   7    2.60    1.20
   4   1  -7   17.80    1.80
  -4  -1   7   20.50    2.00
  -4  -1   7   21.40    3.30
   3   1  -7  123.49    5.00
  -3  -1   7  126.19    4.60
  -3  -1   7  127.29    6.10
   2   1  -7   59.89    3.20
  -2  -1   7   60.39    2.80
  -2  -1   7   65.59    3.80
   1   1  -7   75.59    3.40
  -1  -1   7   72.89    3.90
  -1  -1   7   81.99    3.30
   0   1  -7    0.50    0.40
   0  -1   7    0.70    0.60
  -1   1  -7  133.79    4.40
  -1   1  -7  125.59    4.30
   1  -1   7  123.09    5.60
  -2   1  -7  171.48    5.60
  -2   1  -7  181.08    5.70
   2  -1   7  175.48    7.60
  -3   1  -7   91.19    3.90
  -3   1  -7   89.29    3.70
   3  -1   7   88.29    5.40
  -4   1  -7   88.59    4.00
   4  -1   7   85.09    5.50
  -5   1  -7   80.39    4.00
   5  -1   7   73.89    5.40
  -6   1  -7    2.50    0.90
   6  -1   7   -1.00    1.80
  -7   1  -7  128.89    5.80
   7  -1   7  119.79    8.10
  -8   1  -7   11.90    2.20
   8  -1   7    9.00    3.90
   9   0  -7   35.00    3.00
  -9   0   7   24.90    4.60
   8   0  -7    5.20    1.40
  -8   0   7    5.10    2.20
   7   0  -7    8.20    1.70
  -7   0   7    8.30    2.30
   6   0  -7  136.39    5.80
  -6   0   7  125.19    7.20
   5   0  -7    3.60    1.20
  -5   0   7    3.30    1.50
  -5   0   7    3.80    1.30
   4   0  -7   68.69    3.70
  -4   0   7   74.29    3.70
  -4   0   7   63.39    4.30
   3   0  -7    9.10    1.50
  -3   0   7   15.00    2.00
  -3   0   7   14.00    2.30
   2   0  -7    1.90    0.60
  -2   0   7    1.40    0.70
  -2   0   7    3.60    1.10
   1   0  -7  470.45   11.60
  -1   0   7  476.45   11.50
  -1   0   7  485.65   13.20
   0   0  -7   41.30    2.30
   0   0   7   48.80    2.70
   0   0   7   49.90    2.50
  -1   0  -7   38.60    2.20
  -1   0  -7   41.50    2.10
   1   0   7   41.70    2.80
  -2   0  -7  113.39    4.10
  -2   0  -7  102.69    4.20
   2   0   7  108.69    5.20
  -3   0  -7   49.90    2.70
  -3   0  -7   47.00    2.70
   3   0   7   53.89    3.90
  -4   0  -7  104.69    4.10
  -4   0  -7  102.89    4.20
   4   0   7  105.69    5.70
  -5   0  -7    2.20    0.90
   5   0   7    2.40    1.50
  -6   0  -7   14.00    1.90
   6   0   7   13.20    2.80
  -7   0  -7   12.20    2.00
   7   0   7   17.30    3.20
  -8   0  -7   11.40    2.20
   8   0   7   13.40    3.30
  -9   0  -7   47.10    3.60
   9   0   7   47.10    6.50
   8  -1  -7   -0.20    1.00
  -8   1   7    0.70    1.70
   7  -1  -7   10.90    1.90
  -7   1   7    8.70    2.50
   6  -1  -7   20.40    2.10
  -6   1   7   21.60    2.80
  -6   1   7   18.30    3.00
   5  -1  -7    3.80    0.90
  -5   1   7    2.50    1.40
  -5   1   7    1.80    0.90
   4  -1  -7  320.47    8.90
  -4   1   7  313.77    9.50
  -4   1   7  296.37   10.50
   3  -1  -7   86.09    3.70
  -3   1   7   78.59    3.90
  -3   1   7   73.99    4.00
   2  -1  -7   14.70    1.40
  -2   1   7   14.40    1.50
  -2   1   7   14.00    1.80
   1  -1  -7  176.38    5.50
  -1   1   7  166.78    5.40
  -1   1   7  174.78    5.60
   0  -1  -7   41.60    2.40
   0   1   7   39.20    2.20
  -1  -1  -7   16.80    2.00
   1   1   7   18.10    1.60
   1   1   7   16.30    1.50
  -2  -1  -7    2.40    0.80
  -2  -1  -7    2.80    0.70
   2   1   7    3.00    1.50
  -3  -1  -7   51.79    2.70
  -3  -1  -7   53.49    3.00
   3   1   7   56.29    3.50
  -4  -1  -7  428.16   11.00
  -4  -1  -7  412.26   10.80
   4   1   7  426.56   13.20
  -5  -1  -7    0.70    0.60
  -5  -1  -7    3.20    1.00
   5   1   7    1.40    1.10
  -6  -1  -7    5.10    1.00
   6   1   7    0.20    1.30
  -7  -1  -7    5.80    1.30
   7   1   7    7.40    2.30
  -8  -1  -7    1.10    0.70
   8   1   7    1.80    1.90
  -9  -1  -7   46.30    3.40
   9   1   7   48.20    7.00
   7  -2  -7   69.19    3.70
  -7   2   7   62.09    4.50
   6  -2  -7   -0.40    0.60
  -6   2   7    0.90    1.40
  -6   2   7    0.70    1.10
   5  -2  -7    2.80    1.00
  -5   2   7    4.20    1.30
  -5   2   7    1.60    0.80
   4  -2  -7    1.40    0.60
  -4   2   7   -0.20    0.90
  -4   2   7    0.90    0.70
   3  -2  -7   -0.60    0.30
  -3   2   7    0.50    0.60
  -3   2   7    0.60    0.60
   2  -2  -7   25.20    1.80
  -2   2   7   26.80    2.20
   1  -2  -7  132.99    4.70
  -1   2   7  128.59    4.70
   0  -2  -7  111.69    4.30
   0   2   7  104.59    4.00
  -1  -2  -7  306.57    8.80
   1   2   7  306.37    8.30
  -2  -2  -7   13.80    1.80
   2   2   7    9.00    1.60
   2   2   7   10.00    1.30
  -3  -2  -7  183.48    5.60
  -3  -2  -7  180.18    6.20
   3   2   7  191.08    6.50
  -4  -2  -7    2.10    0.80
  -4  -2  -7    0.90    0.60
   4   2   7   -0.20    1.00
  -5  -2  -7  151.58    5.40
  -5  -2  -7  156.98    5.70
   5   2   7  163.78    7.00
  -6  -2  -7   31.50    2.30
   6   2   7   35.40    3.40
  -7  -2  -7   13.60    1.90
   7   2   7   17.60    3.00
  -8  -2  -7    5.50    1.30
   8   2   7   10.10    2.90
  -9  -2  -7    8.20    1.70
   9   2   7    8.90    3.10
   7  -3  -7    5.10    1.30
  -7   3   7    6.90    2.00
   6  -3  -7    1.30    0.90
  -6   3   7    0.10    0.90
   5  -3  -7    5.70    1.30
  -5   3   7    5.10    1.50
   4  -3  -7    2.10    0.70
   4  -3  -7    0.20    0.50
  -4   3   7    2.30    1.00
   3  -3  -7    2.50    0.90
   3  -3  -7    3.10    0.70
  -3   3   7    0.00    0.70
   2  -3  -7  525.25   13.10
  -2   3   7  541.65   14.00
   1  -3  -7    0.20    0.50
  -1   3   7    1.70    0.60
   0  -3  -7  136.49    5.20
   0   3   7  134.29    4.80
  -1  -3  -7    7.50    1.40
   1   3   7    8.40    1.30
  -2  -3  -7  500.75   13.10
   2   3   7  507.65   12.40
  -3  -3  -7   14.60    1.90
   3   3   7   17.60    1.60
   3   3   7   15.80    1.60
  -4  -3  -7   33.10    2.10
  -4  -3  -7   34.90    2.60
   4   3   7   32.10    2.50
  -5  -3  -7    5.10    1.10
  -5  -3  -7    7.50    1.20
   5   3   7    9.00    2.10
  -6  -3  -7    2.40    1.00
  -6  -3  -7    1.70    0.80
   6   3   7    3.30    1.40
  -7  -3  -7   15.40    2.00
   7   3   7   19.30    3.30
  -8  -3  -7  121.59    5.10
   8   3   7  118.29    7.40
  -9  -3  -7    3.10    1.30
   9   3   7    5.40    2.60
  10   3   7   10.50    3.90
  -8   4   7   40.70    4.00
  -7   4   7   10.80    2.40
   6  -4  -7    4.70    1.20
  -6   4   7    4.00    1.80
   5  -4  -7   97.69    4.50
  -5   4   7  111.59    5.90
   4  -4  -7   34.70    2.50
  -4   4   7   39.40    3.30
   3  -4  -7   25.20    2.10
  -3   4   7   26.00    2.50
   2  -4  -7    1.40    0.70
  -2   4   7    0.00    0.60
   1  -4  -7  310.87    9.20
  -1   4   7  323.17    9.50
   0  -4  -7    4.50    1.20
   0   4   7    4.10    1.00
  -1  -4  -7    3.50    1.10
   1   4   7    4.50    1.10
  -2  -4  -7  382.26   10.70
   2   4   7  361.96    9.80
  -3  -4  -7  424.26   11.70
   3   4   7  415.06   11.30
   3   4   7  402.26   10.70
  -4  -4  -7  391.56   11.30
   4   4   7  391.56   11.80
   4   4   7  407.26   10.60
  -5  -4  -7    3.60    1.10
   5   4   7    5.50    1.50
   5   4   7    3.40    1.10
  -6  -4  -7   26.10    2.00
  -6  -4  -7   28.30    2.60
   6   4   7   25.60    3.00
  -7  -4  -7   11.90    1.70
  -7  -4  -7   14.60    2.30
   7   4   7   15.30    3.20
  -8  -4  -7   11.10    1.70
   8   4   7   13.00    3.60
   9   4   7   46.80    5.20
  10   4   7   16.10    3.80
  -8   5   7   12.30    3.00
  -7   5   7    1.80    1.80
  -6   5   7    5.80    2.20
   5  -5  -7    3.60    1.30
  -5   5   7    3.70    1.90
   4  -5  -7   20.90    2.20
  -4   5   7   30.80    3.10
   3  -5  -7  121.79    5.20
  -3   5   7  123.69    6.10
   2  -5  -7    5.80    1.30
  -2   5   7    4.70    1.50
  -1   5   7   13.00    2.00
   0  -5  -7  129.49    5.40
   0   5   7  130.19    5.30
  -1  -5  -7   84.29    4.20
   1   5   7   93.19    4.10
  -2  -5  -7  237.58    7.90
   2   5   7  223.08    6.90
  -3  -5  -7    4.20    0.90
  -3  -5  -7    1.90    1.00
   3   5   7    2.00    0.90
  -4  -5  -7  521.95   14.50
  -4  -5  -7  528.45   14.30
   4   5   7  507.35   12.90
  -5  -5  -7    6.10    1.50
  -5  -5  -7    5.50    1.50
   5   5   7    6.90    1.30
  -6  -5  -7    0.50    0.90
  -6  -5  -7    1.50    0.80
   6   5   7    0.50    0.90
  -7  -5  -7   28.00    3.30
   7   5   7   24.90    2.30
   8   5   7   36.00    4.30
   8   5   7   30.80    2.90
   8   5   7   32.40    2.90
   9   5   7   13.70    3.30
  10   5   7   14.60    3.90
  -7   6   7    2.50    1.90
  -6   6   7   36.50    4.60
   5  -6  -7    0.50    1.00
  -5   6   7    0.00    1.40
   4  -6  -7   58.19    3.60
  -4   6   7   49.99    4.10
   3  -6  -7   88.09    4.40
  -3   6   7   84.29    5.20
   2  -6  -7   29.90    2.50
  -2   6   7   29.80    2.90
   1  -6  -7   24.90    2.40
  -1   6   7   25.60    2.50
   0  -6  -7   17.10    2.20
   0   6   7   14.50    2.20
  -1  -6  -7  219.68    7.70
   1   6   7  220.68    7.40
  -2  -6  -7  255.77    8.70
   2   6   7  266.47    8.10
  -3  -6  -7   15.00    2.20
   3   6   7   15.90    1.90
  -4  -6  -7   -0.30    1.20
  -4  -6  -7    1.30    0.80
   4   6   7    1.20    0.80
  -5  -6  -7   52.39    3.70
  -5  -6  -7   55.59    3.70
   5   6   7   50.79    2.90
  -6  -6  -7   48.80    3.90
  -6  -6  -7   49.70    3.90
   6   6   7   49.20    2.90
  -7  -6  -7   11.90    2.50
  -7  -6  -7   17.60    2.80
   7   6   7   15.40    2.00
  -8  -6  -7    6.20    2.30
   8   6   7    6.70    1.90
  10   6   7    8.50    3.00
  -7   7   7   48.20    8.20
  -6   7   7    8.00    2.30
  -5   7   7   13.10    3.00
   4  -7  -7   10.20    1.90
  -4   7   7   12.50    2.60
   3  -7  -7    2.20    1.10
  -3   7   7    2.50    1.60
   2  -7  -7    0.60    0.80
  -2   7   7    0.40    1.10
   1  -7  -7   43.10    3.10
  -1   7   7   48.00    3.50
   0  -7  -7  100.89    5.00
   0   7   7  112.19    5.40
  -1  -7  -7   29.70    2.80
   1   7   7   35.20    2.80
  -2  -7  -7   25.40    3.00
   2   7   7   25.90    2.40
  -3  -7  -7  244.98    9.00
   3   7   7  260.97    8.10
  -4  -7  -7    1.30    1.10
   4   7   7    2.90    0.90
  -5  -7  -7    8.30    1.70
   5   7   7    6.60    1.30
  -6  -7  -7   56.99    4.20
   6   7   7   66.19    3.40
   8   7   7   20.40    3.20
   9   7   7    5.90    2.00
  -6   8   7    4.00    1.40
  -5   8   7   -2.50    1.50
  -4   8   7   60.59    5.00
   3  -8  -7    3.20    1.20
  -3   8   7   -0.10    1.00
   2  -8  -7    5.90    1.50
  -2   8   7    6.60    2.10
   1  -8  -7   25.60    2.60
  -1   8   7   29.60    3.70
   0  -8  -7  153.48    6.50
   0   8   7  155.78    6.80
  -1  -8  -7    5.60    1.50
   1   8   7    5.00    1.40
  -2  -8  -7   27.50    3.40
   2   8   7   24.20    2.40
  -3  -8  -7   39.70    3.40
   3   8   7   40.20    2.90
  -4  -8  -7    2.50    1.50
   4   8   7    1.00    0.80
  -5  -8  -7   23.10    3.40
   5   8   7   25.70    2.30
  -6  -8  -7    4.60    1.50
   7   8   7    0.20    1.10
   8   8   7   17.20    3.00
   9   8   7   14.60    3.00
  -5   9   7    7.30    2.50
  -4   9   7    1.30    1.10
  -3   9   7   98.59    6.30
   2  -9  -7    1.70    1.00
  -2   9   7    2.90    1.70
   1  -9  -7   -0.10    0.60
  -1   9   7    2.10    1.10
   0  -9  -7   45.70    3.50
   0   9   7   37.80    3.50
  -1  -9  -7    3.00    1.40
   1   9   7    4.10    1.20
  -2  -9  -7   12.90    2.40
   2   9   7   12.90    2.40
  -3  -9  -7   34.00    3.40
   3   9   7   36.40    3.00
  -4  -9  -7   17.20    2.90
   4   9   7   20.80    2.60
  -5  -9  -7  217.28    9.30
  -6  -9  -7    6.60    2.30
   7   9   7    0.80    1.20
   8   9   7   33.00    4.10
   9   9   7    0.40    1.20
  -4  10   7    2.50    2.20
  -3  10   7   -0.30    1.30
  -2  10   7   25.30    3.80
   1 -10  -7   35.50    3.20
  -1  10   7   35.20    4.40
   0 -10  -7   24.70    3.20
   0  10   7   26.90    3.60
  -1 -10  -7   34.90    3.40
   1  10   7   35.50    3.40
  -2 -10  -7   56.99    4.30
   2  10   7   62.19    4.30
  -3 -10  -7    1.40    1.00
   3  10   7    3.90    1.20
  -4 -10  -7   20.20    3.30
  -5 -10  -7   88.19    5.70
   7  10   7    1.60    1.10
   8  10   7   18.10    3.20
  -3  11   7    1.20    2.00
  -2  11   7   29.60    4.10
  -1  11   7  161.18    8.20
   0 -11  -7   89.29    5.40
   0  11   7   90.49    6.00
  -1 -11  -7   21.10    3.30
   1  11   7   18.20    3.20
  -2 -11  -7    3.90    1.30
   2  11   7    3.60    1.60
  -3 -11  -7   45.80    4.30
  -4 -11  -7    8.30    2.40
  -5 -11  -7   12.30    2.70
   6  11   7   26.10    3.50
   7  11   7   10.90    2.80
  -2  12   7    4.90    2.40
  -1  12   7    0.60    1.90
   0 -12  -7    3.80    2.30
   0  12   7    2.80    1.60
  -1 -12  -7   39.30    4.00
   1  12   7   43.30    4.10
  -2 -12  -7    7.50    2.30
  -3 -12  -7    4.30    1.90
  -4 -12  -7   81.79    5.90
   5  12   7    5.50    2.10
   0  13   7    3.30    1.90
  -1 -13  -7    7.40    2.40
  -2 -13  -7    1.90    1.50
   3  13   7    5.90    1.80
   4   8  -8    2.20    1.30
  -4  -8   8    4.50    2.70
   3   8  -8   33.70    3.30
  -3  -8   8   43.00    5.10
  -2  -8   8   47.60    5.30
  -1  -8   8   30.50    5.10
   0  -8   8   12.10    2.80
   1  -8   8   37.20    4.20
  -6  -7   8   12.20    3.40
   5   7  -8   30.60    3.10
  -5  -7   8   34.80    5.30
   4   7  -8   14.10    2.30
  -4  -7   8   20.40    4.50
   3   7  -8    2.90    1.20
  -3  -7   8    0.70    2.10
   2   7  -8   36.80    3.10
  -2  -7   8   40.90    4.60
  -1  -7   8  168.48    9.40
   0  -7   8   35.60    4.20
  -2   7  -8   17.00    2.40
   2  -7   8   23.90    3.80
  -3   7  -8    0.80    1.10
   3  -7   8   11.30    2.30
  -7  -6   8    2.50    2.60
   6   6  -8   15.80    2.70
  -6  -6   8   18.90    4.80
   5   6  -8    5.60    1.70
  -5  -6   8    7.20    3.10
   4   6  -8   49.90    3.70
  -4  -6   8   47.50    5.00
   3   6  -8   15.50    2.30
  -3  -6   8   16.70    3.40
   2   6  -8    0.90    0.90
  -2  -6   8    3.40    1.70
   1   6  -8   -0.10    0.60
  -1  -6   8    2.60    1.70
   0  -6   8   91.79    6.10
  -1   6  -8   67.39    3.60
   1  -6   8   76.49    5.90
  -2   6  -8    2.70    1.20
   2  -6   8    6.50    2.90
  -3   6  -8   30.00    2.70
   3  -6   8   24.40    5.00
  -4   6  -8   96.99    5.10
   4  -6   8   91.79    8.30
  -8  -5   8   14.30    4.40
   7   5  -8    0.10    1.10
  -7  -5   8    7.80    2.60
   6   5  -8    0.30    0.90
  -6  -5   8    3.60    2.20
   5   5  -8   17.50    2.50
  -5  -5   8   16.90    4.30
   4   5  -8   13.20    2.10
  -4  -5   8   12.70    3.50
   3   5  -8   91.49    4.70
  -3  -5   8   75.49    5.80
   2   5  -8   29.30    2.60
  -2  -5   8   37.80    4.10
   1   5  -8   30.50    2.50
  -1  -5   8   39.30    3.90
   0   5  -8    2.70    0.80
   0   5  -8    1.60    0.80
   0  -5   8    3.00    1.80
  -1   5  -8  129.89    5.10
   1  -5   8  123.89    7.40
  -2   5  -8    6.80    1.50
   2  -5   8    7.70    2.70
  -3   5  -8   14.40    2.10
   3  -5   8   18.70    4.00
  -4   5  -8   13.10    2.30
   4  -5   8   17.10    4.90
  -5   5  -8    5.70    1.70
   5  -5   8   11.10    5.20
  -8  -4   8   25.00    5.10
   7   4  -8   95.39    5.60
  -7  -4   8   98.89    7.80
   6   4  -8    2.10    1.20
  -6  -4   8    3.70    2.00
   5   4  -8   23.50    3.00
  -5  -4   8   26.80    4.40
   4   4  -8   10.90    2.00
  -4  -4   8   11.30    3.30
   3   4  -8   17.90    2.40
  -3  -4   8   22.90    3.50
   2   4  -8  152.78    6.00
  -2  -4   8  144.59    7.60
   1   4  -8   40.20    2.80
  -1  -4   8   46.60    3.90
  -1  -4   8   41.80    2.50
   0   4  -8   39.10    2.40
   0   4  -8   38.90    2.50
   0  -4   8   40.40    3.80
  -1   4  -8    1.80    0.60
   1  -4   8    0.90    1.30
  -2   4  -8   16.20    2.10
   2  -4   8   17.20    3.40
  -3   4  -8  151.18    5.90
   3  -4   8  139.49    8.90
  -4   4  -8   44.90    3.20
   4  -4   8   41.40    7.00
  -5   4  -8   -0.50    0.60
   5  -4   8   -5.80    3.60
  -6   4  -8   20.80    3.10
   6  -4   8   15.90    5.60
   8   3  -8   11.30    2.00
  -8  -3   8   11.10    3.40
   7   3  -8   47.10    3.80
  -7  -3   8   47.90    5.40
   6   3  -8   14.50    2.40
  -6  -3   8   22.90    3.80
   5   3  -8   -0.30    0.50
  -5  -3   8    1.10    1.30
   4   3  -8   13.50    2.00
  -4  -3   8   15.10    3.30
   3   3  -8   38.40    2.80
  -3  -3   8   44.00    3.80
   2   3  -8    5.40    1.20
  -2  -3   8    6.80    1.10
  -2  -3   8    6.00    2.00
   1   3  -8    3.80    1.20
  -1  -3   8    2.50    0.80
  -1  -3   8    4.60    1.40
   0   3  -8  370.56    9.40
   0   3  -8  350.66    9.60
   0  -3   8  353.36   12.40
  -1   3  -8    0.60    0.60
  -1   3  -8    0.30    0.40
   1  -3   8    3.90    1.50
  -2   3  -8    1.00    0.50
   2  -3   8   -0.70    1.70
  -3   3  -8  346.87   10.10
   3  -3   8  338.17   14.10
  -4   3  -8    5.00    1.40
   4  -3   8    2.20    3.70
  -5   3  -8    7.60    1.70
   5  -3   8    7.70    4.60
  -6   3  -8    2.00    0.80
   6  -3   8   -4.40    3.50
  -7   3  -8    3.90    1.50
   7  -3   8   -1.60    4.00
   8   2  -8    1.50    1.20
  -8  -2   8    1.20    1.90
   7   2  -8    8.60    2.10
  -7  -2   8    4.70    2.40
   6   2  -8    2.60    1.00
  -6  -2   8    2.30    1.50
   5   2  -8   80.69    4.40
  -5  -2   8   85.79    6.00
   4   2  -8  105.09    5.10
  -4  -2   8  124.99    6.80
   3   2  -8  193.78    7.00
  -3  -2   8  186.58    6.10
  -3  -2   8  198.48    8.50
   2   2  -8  141.69    5.70
  -2  -2   8  158.98    7.00
  -2  -2   8  155.48    5.00
   1   2  -8    1.20    0.70
  -1  -2   8    2.70    1.00
  -1  -2   8    1.40    0.70
   0   2  -8   48.40    2.50
   0   2  -8   49.50    2.60
   0  -2   8   50.89    3.50
  -1   2  -8   41.20    2.40
  -1   2  -8   42.90    2.40
   1  -2   8   43.40    3.60
  -2   2  -8    2.50    0.80
  -2   2  -8    0.90    0.60
   2  -2   8    1.30    1.90
  -3   2  -8   14.00    1.90
   3  -2   8   14.70    4.00
  -4   2  -8   -1.00    0.60
   4  -2   8   -0.30    2.90
  -5   2  -8  142.09    5.90
   5  -2   8  142.29    8.80
  -6   2  -8    0.20    0.60
   6  -2   8   -3.80    3.10
  -7   2  -8    5.30    1.60
   7  -2   8    2.40    4.20
   8  -2   8   81.59   13.80
   9   1  -8    2.10    1.90
   8   1  -8   99.59    5.60
   7   1  -8    5.10    1.40
  -7  -1   8    2.40    2.20
   6   1  -8   65.09    4.20
  -6  -1   8   64.99    5.40
   5   1  -8   22.00    2.70
  -5  -1   8   27.90    3.30
   4   1  -8   12.60    2.00
  -4  -1   8   13.70    2.60
  -4  -1   8   15.90    2.10
   3   1  -8   40.90    2.90
  -3  -1   8   45.70    2.70
  -3  -1   8   45.50    3.60
   2   1  -8   12.30    1.70
  -2  -1   8   13.50    2.10
  -2  -1   8   13.30    1.70
   1   1  -8  130.79    4.80
  -1  -1   8  135.79    5.80
  -1  -1   8  129.09    4.60
   0   1  -8  110.89    4.20
   0  -1   8  110.19    5.00
   0  -1   8  113.79    4.40
  -1   1  -8  267.57    7.50
  -1   1  -8  292.37    7.90
   1  -1   8  263.57    9.30
  -2   1  -8  209.18    6.50
  -2   1  -8  208.28    6.60
   2  -1   8  201.58    8.60
  -3   1  -8   75.99    3.60
  -3   1  -8   56.79    3.20
   3  -1   8   69.99    5.30
  -4   1  -8    6.60    1.30
   4  -1   8    8.20    3.00
  -5   1  -8  128.69    5.50
   5  -1   8  137.99    8.10
  -6   1  -8    9.70    1.80
   6  -1   8    9.40    3.20
  -7   1  -8    1.00    1.20
   7  -1   8   -2.90    2.70
  -8   1  -8   -0.10    1.30
   8  -1   8   -1.60    2.70
   9   0  -8    2.90    1.20
   8   0  -8   28.70    2.70
   7   0  -8    3.90    1.30
   6   0  -8   40.70    3.00
  -6   0   8   39.30    4.20
   5   0  -8    0.00    0.70
  -5   0   8    0.60    0.90
  -5   0   8   -1.10    0.90
   4   0  -8    0.30    0.70
  -4   0   8   -0.40    0.70
  -4   0   8    1.00    1.10
   3   0  -8  181.78    6.30
  -3   0   8  195.38    6.60
  -3   0   8  182.98    7.50
   2   0  -8   55.09    2.90
  -2   0   8   43.20    2.70
  -2   0   8   48.10    3.20
   1   0  -8  196.28    6.20
  -1   0   8  193.98    6.80
  -1   0   8  194.58    6.10
   0   0  -8   23.60    1.80
   0   0   8   24.80    1.90
   0   0   8   21.30    1.90
  -1   0  -8    1.30    0.60
   1   0   8    2.10    1.00
  -2   0  -8  109.59    4.60
  -2   0  -8  113.89    4.30
   2   0   8  112.19    5.80
  -3   0  -8    1.90    0.80
  -3   0  -8    1.40    0.90
   3   0   8    1.60    2.00
  -4   0  -8   12.10    2.10
  -4   0  -8   11.60    1.80
   4   0   8    9.10    3.10
  -5   0  -8   15.20    2.20
   5   0   8   10.80    2.90
  -6   0  -8    2.20    0.80
   6   0   8    2.90    2.30
  -7   0  -8  143.79    6.10
   7   0   8  135.29    8.60
  -8   0  -8   -1.60    0.80
   8   0   8    2.10    3.00
   8  -1  -8    0.20    1.00
   7  -1  -8   -0.50    0.80
   6  -1  -8  126.39    5.50
  -6   1   8  142.09    6.90
   5  -1  -8   40.10    2.70
  -5   1   8   39.00    4.30
  -5   1   8   39.70    3.30
   4  -1  -8   50.49    3.00
  -4   1   8   43.50    3.10
  -4   1   8   45.20    3.50
   3  -1  -8   35.60    2.40
  -3   1   8   42.60    3.00
  -3   1   8   35.90    2.80
   2  -1  -8    7.10    1.30
  -2   1   8    6.30    1.30
  -2   1   8    7.80    1.40
   1  -1  -8    7.50    1.30
  -1   1   8    8.90    1.40
   0  -1  -8    1.00    0.70
   0   1   8    0.20    0.30
  -1  -1  -8   53.69    3.20
   1   1   8   57.59    3.00
   1   1   8   55.79    2.80
  -2  -1  -8  358.86    9.00
  -2  -1  -8  307.87    9.50
   2   1   8  341.67   10.50
  -3  -1  -8    4.60    1.00
  -3  -1  -8    6.50    1.50
   3   1   8    2.30    1.80
  -4  -1  -8   51.39    3.10
  -4  -1  -8   49.99    2.90
   4   1   8   53.29    4.00
  -5  -1  -8    6.70    1.40
   5   1   8    6.30    2.50
  -6  -1  -8   17.10    2.20
   6   1   8   19.60    3.40
  -7  -1  -8   88.99    4.50
   7   1   8   86.19    6.20
  -8  -1  -8   37.60    3.00
   8   1   8   28.70    4.70
  -9  -1  -8    1.70    1.50
   9   1   8    0.50    3.10
   8  -2  -8   10.10    2.00
   7  -2  -8   10.90    1.90
   6  -2  -8    3.50    1.20
  -6   2   8    5.50    1.70
   5  -2  -8    8.30    1.50
  -5   2   8   10.80    2.10
   4  -2  -8   -0.20    0.40
  -4   2   8    1.30    1.10
   3  -2  -8   12.90    1.60
  -3   2   8   14.20    2.20
   2  -2  -8  148.19    5.30
  -2   2   8  151.38    5.80
   1  -2  -8  319.57    9.00
  -1   2   8  292.87    8.70
   0  -2  -8   25.60    2.20
   0   2   8   25.70    1.90
  -1  -2  -8  174.68    6.60
   1   2   8  208.68    6.40
  -2  -2  -8   16.20    2.20
   2   2   8   17.00    1.80
  -3  -2  -8    9.80    1.70
  -3  -2  -8    9.80    1.40
   3   2   8   10.30    1.90
  -4  -2  -8   56.79    3.50
  -4  -2  -8   57.19    3.00
   4   2   8   59.79    3.90
  -5  -2  -8   25.60    2.10
  -5  -2  -8   29.30    2.40
   5   2   8   25.60    2.90
  -6  -2  -8    6.90    1.40
   6   2   8    4.60    2.40
  -7  -2  -8   18.50    1.90
   7   2   8   17.10    3.80
  -8  -2  -8   12.50    1.90
   8   2   8    7.80    3.10
  -9  -2  -8   43.40    3.30
   9   2   8   38.70    6.30
   7  -3  -8    2.80    1.10
  -7   3   8    1.30    1.60
   6  -3  -8    8.90    1.60
  -6   3   8    7.80    2.20
   5  -3  -8   47.10    3.00
  -5   3   8   48.30    3.90
   4  -3  -8  182.58    6.40
  -4   3   8  173.78    7.40
   3  -3  -8   21.10    2.00
  -3   3   8   20.30    2.70
   2  -3  -8  346.57   10.00
  -2   3   8  368.56   10.80
   1  -3  -8    0.30    0.60
  -1   3   8    0.70    0.60
   0  -3  -8  281.57    8.90
   0   3   8  292.97    8.40
  -1  -3  -8   64.09    3.60
   1   3   8   62.59    3.20
  -2  -3  -8    2.30    0.80
   2   3   8    1.00    0.60
  -3  -3  -8    9.90    1.80
   3   3   8    8.60    1.60
   3   3   8    8.00    1.60
  -4  -3  -8   24.70    2.40
   4   3   8   21.80    2.30
  -5  -3  -8   18.30    1.80
  -5  -3  -8   23.20    2.40
   5   3   8   18.80    2.50
  -6  -3  -8  252.17    8.30
  -6  -3  -8  247.08    7.70
   6   3   8  239.38    9.60
  -7  -3  -8    9.40    1.60
   7   3   8    8.30    2.50
  -8  -3  -8    0.70    1.00
   8   3   8    2.10    1.60
  -9  -3  -8   13.30    2.30
   9   3   8   12.40    3.30
  -8   4   8   -5.50    1.80
  -7   4   8   39.00    4.80
   6  -4  -8    4.00    1.40
  -6   4   8    2.40    1.40
   5  -4  -8   21.30    2.10
  -5   4   8   21.40    3.20
   4  -4  -8   25.40    2.30
  -4   4   8   27.60    3.60
   3  -4  -8   59.89    3.50
  -3   4   8   57.29    4.00
   2  -4  -8   22.20    2.60
  -2   4   8   19.70    2.70
   1  -4  -8   11.40    1.90
  -1   4   8   12.90    2.00
   0  -4  -8  558.64   15.00
   0   4   8  592.44   14.70
  -1  -4  -8  284.17    8.80
   1   4   8  234.58    7.70
  -2  -4  -8  383.86   11.40
   2   4   8  388.26   10.50
  -3  -4  -8  138.19    5.80
   3   4   8  130.19    5.00
  -4  -4  -8    3.00    1.00
   4   4   8    2.30    0.80
   4   4   8    1.80    1.50
  -5  -4  -8   12.90    2.30
   5   4   8   13.70    2.00
   5   4   8   13.70    2.30
  -6  -4  -8    6.90    1.60
   6   4   8    7.80    1.80
  -7  -4  -8   34.20    5.40
  -7  -4  -8   29.40    2.40
   7   4   8   31.20    3.50
  -8  -4  -8   11.30    1.80
   8   4   8    9.70    2.80
   9   4   8   15.20    3.70
  -8   5   8    3.00    2.20
  -7   5   8    1.50    1.90
   6  -5  -8    1.40    1.40
  -6   5   8    1.70    1.30
   5  -5  -8  110.09    5.30
  -5   5   8  118.19    6.60
   4  -5  -8    6.70    1.60
  -4   5   8    9.50    2.10
   3  -5  -8    0.80    0.80
  -3   5   8    0.00    0.80
   2  -5  -8  139.59    5.90
  -2   5   8  146.29    6.50
   1  -5  -8   13.40    2.10
  -1   5   8   12.50    2.00
   0  -5  -8  174.08    6.80
   0   5   8  200.38    7.10
  -1  -5  -8   23.80    2.80
   1   5   8   23.60    2.10
  -2  -5  -8  154.48    6.50
   2   5   8  149.29    5.60
  -3  -5  -8    2.10    1.20
   3   5   8    2.70    1.00
  -4  -5  -8    8.40    1.90
   4   5   8    9.20    1.50
  -5  -5  -8   82.29    4.70
   5   5   8   85.09    4.10
  -6  -5  -8   23.20    3.00
   6   5   8   26.70    2.30
  -7  -5  -8    7.30    1.70
   7   5   8    8.50    1.70
   8   5   8   59.59    3.70
  -7   6   8    5.20    2.30
  -6   6   8    2.90    2.00
   5  -6  -8   32.20    3.00
  -5   6   8   33.00    4.50
   4  -6  -8   13.90    2.20
  -4   6   8   13.10    2.70
   3  -6  -8   71.09    4.20
  -3   6   8   66.49    4.90
   2  -6  -8   13.80    2.20
  -2   6   8    8.70    2.10
   1  -6  -8  149.39    6.30
  -1   6   8  142.39    6.50
   0  -6  -8  399.06   11.80
   0   6   8  377.26   11.60
  -1  -6  -8    0.10    0.80
   1   6   8    1.70    0.80
  -2  -6  -8   -0.90    0.50
   2   6   8    0.50    0.50
  -3  -6  -8   86.69    4.80
   3   6   8   84.29    4.00
  -4  -6  -8   24.20    3.10
   4   6   8   21.20    2.00
  -5  -6  -8   45.20    3.70
   5   6   8   43.60    2.90
  -6  -6  -8   30.60    3.10
   6   6   8   31.20    2.60
  -7  -6  -8   10.10    2.00
   7   6   8   11.00    1.80
   8   6   8   -0.20    0.90
  -6   7   8    0.80    2.30
  -5   7   8    7.10    2.40
   4  -7  -8    1.30    1.10
  -4   7   8    1.60    1.00
   3  -7  -8   36.70    3.10
  -3   7   8   29.20    4.00
   2  -7  -8   31.00    2.90
  -2   7   8   31.90    3.90
   1  -7  -8  105.69    5.20
  -1   7   8   91.69    5.40
   0  -7  -8    3.80    1.50
   0   7   8    5.60    1.60
  -1  -7  -8  181.68    7.40
   1   7   8  180.88    7.20
  -2  -7  -8   53.49    3.90
   2   7   8   62.19    3.80
  -3  -7  -8   23.50    3.00
   3   7   8   17.50    2.30
  -4  -7  -8   58.69    4.10
   4   7   8   57.29    3.40
  -5  -7  -8   16.40    2.50
   5   7   8   13.70    2.00
  -6  -7  -8   16.30    2.90
   6   7   8   15.30    2.10
  -7  -7  -8   15.40    2.90
   8   7   8    0.20    1.00
  -5   8   8   -0.40    1.80
  -4   8   8    3.70    1.40
   3  -8  -8    5.70    1.70
  -3   8   8    3.80    1.50
   2  -8  -8   64.09    4.20
  -2   8   8   62.59    4.80
   1  -8  -8    2.60    1.20
  -1   8   8    3.00    1.60
   0  -8  -8   44.50    3.50
   0   8   8   40.20    3.70
  -1  -8  -8   22.30    3.00
   1   8   8   24.20    3.10
  -2  -8  -8    2.60    1.20
   2   8   8    3.80    1.40
  -3  -8  -8   11.70    2.30
   3   8   8   13.60    2.20
  -4  -8  -8   50.19    4.20
   4   8   8   47.70    3.30
  -5  -8  -8    4.10    1.40
   5   8   8   -0.50    0.80
  -6  -8  -8   12.10    2.50
  -7  -8  -8   48.90    4.20
   8   8   8   75.69    5.10
   9   8   8   26.40    3.80
  -5   9   8   50.19    9.30
  -4   9   8   10.00    2.20
  -3   9   8   -1.90    1.20
   2  -9  -8   10.70    2.10
  -2   9   8    9.30    2.50
   1  -9  -8   19.20    2.90
  -1   9   8   16.60    2.90
   0  -9  -8    8.00    1.90
   0   9   8    6.60    2.00
  -1  -9  -8   96.09    5.50
   1   9   8   92.09    5.40
  -2  -9  -8    4.40    1.70
   2   9   8    3.80    1.30
  -3  -9  -8  177.88    8.10
   3   9   8  175.18    7.30
  -4  -9  -8   24.20    3.50
   4   9   8   32.70    2.90
  -5  -9  -8   24.40    3.70
   5   9   8   23.00    3.00
  -6  -9  -8   19.50    3.30
   8   9   8   31.00    4.00
  -4  10   8   46.30    8.50
  -3  10   8   56.39    5.20
   2 -10  -8    5.20    1.60
  -2  10   8    4.10    1.70
   1 -10  -8   31.30    3.30
  -1  10   8   35.30    4.50
   0 -10  -8   36.40    3.50
   0  10   8   40.50    3.90
  -1 -10  -8    0.40    1.00
   1  10   8    1.00    1.30
  -2 -10  -8   15.60    2.70
   2  10   8   18.90    2.80
  -3 -10  -8   32.80    4.10
   3  10   8   33.90    3.40
  -4 -10  -8   13.40    2.80
   4  10   8   12.20    2.30
  -5 -10  -8    3.70    1.60
  -6 -10  -8   33.60    4.60
   7  10   8   29.20    4.00
  -2  11   8   33.40    4.70
   1 -11  -8   10.70    2.30
  -1  11   8    7.60    2.40
   0 -11  -8    2.90    1.60
   0  11   8    2.20    1.70
  -1 -11  -8   48.20    4.20
   1  11   8   49.20    4.40
  -2 -11  -8   46.50    4.10
   2  11   8   52.39    4.30
  -3 -11  -8    0.50    1.50
   3  11   8   -1.50    1.00
  -4 -11  -8   31.70    4.50
  -5 -11  -8    6.60    2.10
  -1  12   8   16.10    3.30
   0 -12  -8    0.30    1.10
   0  12   8    1.00    1.40
  -1 -12  -8    2.70    1.70
   1  12   8    0.40    1.50
  -2 -12  -8   56.09    4.80
   2  12   8   73.49    9.10
  -3 -12  -8    1.00    1.70
  -4 -12  -8    0.50    1.20
  -5 -12  -8    1.40    1.20
   0  13   8    1.30    2.90
  -1 -13  -8    4.00    1.80
  -2 -13  -8    2.80    1.60
  -5  -7   9   11.70    3.10
   4   7  -9   26.60    3.40
  -4  -7   9   28.10    5.00
   3   7  -9   59.69    4.30
  -3  -7   9   55.99    5.90
  -2  -7   9   33.30    5.20
  -1  -7   9   12.30    3.10
   0  -7   9   16.40    2.70
   2  -7   9   23.10    4.40
  -6  -6   9   26.60    4.60
   5   6  -9   17.70    2.90
  -5  -6   9   14.70    4.10
   4   6  -9    0.20    1.30
  -4  -6   9    4.00    2.50
   3   6  -9    5.10    1.50
  -3  -6   9    4.00    1.80
   2   6  -9   96.69    5.20
  -2  -6   9   98.49    7.00
  -1  -6   9   98.59    6.80
   0  -6   9    9.90    3.40
  -1   6  -9   21.60    2.20
  -2   6  -9   75.49    4.30
   2  -6   9   90.79    6.80
  -3   6  -9   20.30    2.70
  -7  -5   9   11.30    2.80
   6   5  -9    1.30    1.20
  -6  -5   9   -0.70    2.60
   5   5  -9   64.69    4.50
  -5  -5   9   62.69    5.80
   4   5  -9   25.80    3.30
  -4  -5   9   23.60    4.30
   3   5  -9    1.80    1.20
  -3  -5   9    4.30    2.10
   2   5  -9    7.50    1.90
  -2  -5   9   11.30    2.30
   1   5  -9  101.89    4.80
  -1  -5   9  103.59    6.50
   0   5  -9    4.50    1.10
   0  -5   9    6.90    1.80
  -1   5  -9   17.40    2.20
   1  -5   9   27.90    3.30
  -2   5  -9   17.80    2.40
   2  -5   9   27.40    4.70
  -3   5  -9   12.40    2.10
   3  -5   9   16.80    4.10
  -4   5  -9   46.30    3.50
   4  -5   9   49.60    6.90
   5  -5   9    5.90    4.70
   7   4  -9   13.90    3.70
   6   4  -9   24.10    3.40
  -6  -4   9   21.80    4.20
   5   4  -9    0.00    0.90
  -5  -4   9    1.20    1.40
   4   4  -9   42.10    3.40
  -4  -4   9   47.50    4.60
   3   4  -9   36.10    3.00
  -3  -4   9   39.40    4.10
   2   4  -9   37.70    3.10
  -2  -4   9   39.00    3.80
   1   4  -9   10.70    1.70
  -1  -4   9   12.80    2.70
  -1  -4   9    9.80    1.60
   0   4  -9   16.20    1.90
   0   4  -9   19.00    1.70
   0  -4   9   23.40    3.40
  -1   4  -9  184.18    6.40
   1  -4   9  177.18    8.70
  -2   4  -9    4.40    1.10
   2  -4   9   11.50    2.90
  -3   4  -9   13.30    2.10
   3  -4   9   17.10    3.80
  -4   4  -9   10.20    2.00
   4  -4   9    9.00    4.20
  -5   4  -9   15.00    2.40
   5  -4   9    4.10    5.20
   6  -4   9   24.30    8.10
   7   3  -9    2.60    1.00
   6   3  -9    6.90    1.90
  -6  -3   9    6.90    2.60
   5   3  -9    1.50    1.10
  -5  -3   9    5.90    2.10
   4   3  -9    1.90    1.00
  -4  -3   9    4.90    1.80
   3   3  -9    5.50    1.50
  -3  -3   9    7.50    2.50
   2   3  -9  254.77    8.70
  -2  -3   9  269.67    8.30
  -2  -3   9  276.17   10.70
   1   3  -9   23.20    2.10
  -1  -3   9   28.80    2.90
  -1  -3   9   22.90    2.00
   0   3  -9   11.10    1.60
   0  -3   9   15.90    2.60
  -1   3  -9  187.78    6.30
  -1   3  -9  191.88    6.10
   1  -3   9  180.98    8.40
  -2   3  -9   -0.20    0.50
   2  -3   9    2.10    1.60
  -3   3  -9    0.30    0.70
   3  -3   9    2.90    2.40
  -4   3  -9    1.20    0.80
   4  -3   9    0.20    3.20
  -5   3  -9    8.00    1.80
   5  -3   9    4.60    4.40
   6  -3   9   -0.40    4.80
   7   2  -9    1.80    1.30
   6   2  -9   64.79    4.40
   5   2  -9  226.18    8.60
  -5  -2   9  224.38   11.70
   4   2  -9   31.20    2.80
  -4  -2   9   27.90    3.40
   3   2  -9   -0.10    0.60
  -3  -2   9    2.70    1.40
  -3  -2   9    0.50    1.10
   2   2  -9   19.30    2.00
  -2  -2   9   19.10    1.80
  -2  -2   9   24.60    2.70
   1   2  -9    0.60    0.50
  -1  -2   9    1.10    0.60
  -1  -2   9    1.40    1.10
   0   2  -9    0.60    0.80
   0  -2   9   -0.20    0.50
  -1   2  -9   18.20    1.70
  -1   2  -9   14.80    1.80
   1  -2   9   22.40    2.60
  -2   2  -9   19.80    2.10
  -2   2  -9   20.10    1.90
   2  -2   9   21.40    3.30
  -3   2  -9  175.88    6.50
   3  -2   9  167.28    9.00
  -4   2  -9    6.20    1.50
   4  -2   9    3.10    3.30
  -5   2  -9   54.39    3.70
   5  -2   9   45.20    6.50
  -6   2  -9   72.99    4.30
   6  -2   9   67.79    8.10
  -7   2  -9    5.80    2.10
   7  -2   9   -9.40    3.90
   8   1  -9   15.00    2.60
   7   1  -9    4.50    1.40
   6   1  -9    4.10    1.50
   5   1  -9    8.30    1.70
   4   1  -9   11.50    2.00
   3   1  -9   97.59    4.60
  -3  -1   9   89.29    5.60
  -3  -1   9   83.69    4.10
   2   1  -9    2.50    1.00
  -2  -1   9    2.50    1.40
  -2  -1   9    2.80    0.80
   1   1  -9  185.98    6.30
  -1  -1   9  182.58    6.00
  -1  -1   9  188.28    7.30
   0   1  -9  315.77    8.70
   0  -1   9  307.87   10.10
   0  -1   9  295.87    8.70
  -1   1  -9    3.60    0.90
  -1   1  -9    3.20    1.00
   1  -1   9    5.10    1.20
  -2   1  -9   45.20    3.00
  -2   1  -9   50.49    2.80
   2  -1   9   47.10    3.90
  -3   1  -9  150.38    5.70
   3  -1   9  141.89    7.90
  -4   1  -9    0.60    0.80
   4  -1   9   -3.30    2.30
  -5   1  -9   -0.50    0.40
   5  -1   9   -6.30    2.50
  -6   1  -9   -0.70    0.50
   6  -1   9   -6.90    2.50
  -7   1  -9   11.30    2.30
   7  -1   9   -1.30    4.00
   8  -1   9   30.30    6.50
   8   0  -9   25.30    3.10
   7   0  -9   25.60    2.60
   6   0  -9    1.90    0.90
   5   0  -9   80.39    4.30
   4   0  -9   26.10    2.40
  -4   0   9   27.40    2.70
   3   0  -9  121.39    4.90
  -3   0   9  107.29    4.90
   2   0  -9   11.60    1.60
  -2   0   9   16.60    2.20
   1   0  -9   63.09    3.20
  -1   0   9   70.19    3.40
   0   0  -9   15.60    1.90
   0   0   9   16.30    1.70
   0   0   9   19.80    2.40
  -1   0  -9    2.00    1.00
   1   0   9    4.80    1.30
   1   0   9    2.00    0.70
  -2   0  -9    1.60    0.80
   2   0   9    2.10    1.30
  -3   0  -9    3.40    1.20
  -3   0  -9    1.30    0.80
   3   0   9    0.40    2.50
  -4   0  -9    8.50    1.60
   4   0   9    5.50    2.80
  -5   0  -9  239.68    8.20
   5   0   9  239.68   10.60
  -6   0  -9   11.10    1.80
   6   0   9    2.80    2.80
  -7   0  -9   49.00    3.60
   7   0   9   42.90    6.00
  -8   0  -9   39.60    4.10
   8   0   9   35.10    5.80
   8  -1  -9   14.10    2.30
   7  -1  -9   13.20    2.10
   6  -1  -9   62.39    3.70
   5  -1  -9   16.20    2.10
  -5   1   9   17.30    2.70
   4  -1  -9    6.80    1.40
  -4   1   9    7.20    1.70
   3  -1  -9    1.10    0.70
  -3   1   9    1.10    1.00
   2  -1  -9   41.20    2.60
  -2   1   9   38.80    2.80
   1  -1  -9  113.39    4.60
  -1   1   9  112.19    4.60
   0  -1  -9  260.27    8.10
   0   1   9  263.07    7.90
  -1  -1  -9   11.60    1.80
   1   1   9   12.90    1.80
  -2  -1  -9   54.99    3.50
   2   1   9   56.09    3.30
  -3  -1  -9   14.70    1.90
  -3  -1  -9   11.00    1.80
   3   1   9   10.80    2.70
  -4  -1  -9  133.79    5.30
  -4  -1  -9  143.69    5.80
   4   1   9  120.19    6.50
  -5  -1  -9   51.99    3.30
   5   1   9   50.59    4.70
  -6  -1  -9   25.20    2.30
   6   1   9   20.60    3.80
  -7  -1  -9    0.80    0.70
   7   1   9   -0.10    2.60
  -8  -1  -9    2.40    0.80
   8   1   9    2.40    2.90
   8  -2  -9    0.10    1.10
   7  -2  -9   15.00    2.20
   6  -2  -9    3.00    1.10
  -6   2   9    2.00    1.40
   5  -2  -9    0.00    0.80
  -5   2   9    0.90    1.50
   4  -2  -9  209.68    7.10
  -4   2   9  228.78    8.60
   3  -2  -9   70.49    3.60
  -3   2   9   65.49    4.10
   2  -2  -9   15.10    1.90
  -2   2   9   16.30    2.30
   1  -2  -9  242.78    7.60
  -1   2   9  207.28    7.30
   0  -2  -9   70.89    4.00
   0   2   9   75.59    3.70
  -1  -2  -9    3.60    1.30
   1   2   9    4.10    1.10
  -2  -2  -9   63.89    3.90
   2   2   9   80.19    3.90
  -3  -2  -9    1.60    1.00
   3   2   9    0.10    0.60
  -4  -2  -9   40.20    2.60
  -4  -2  -9   42.20    3.20
  -5  -2  -9   25.00    2.50
  -5  -2  -9   21.30    2.10
  -6  -2  -9   12.10    1.80
   6   2   9   10.70    3.60
  -7  -2  -9   81.79    4.30
   7   2   9   73.99    8.30
  -8  -2  -9    2.80    1.10
   7  -3  -9   32.90    3.00
   6  -3  -9   27.50    2.60
  -6   3   9   21.70    3.30
   5  -3  -9    2.20    1.00
  -5   3   9    2.30    1.00
   4  -3  -9  286.87    9.10
  -4   3   9  298.57   10.50
   3  -3  -9    0.80    0.80
  -3   3   9    2.70    0.90
   2  -3  -9   90.49    4.40
  -2   3   9   94.49    4.90
   1  -3  -9   58.69    3.60
  -1   3   9   54.39    3.50
   0  -3  -9    7.10    1.60
   0   3   9    9.40    1.50
  -1  -3  -9    0.70    0.80
   1   3   9    0.40    0.60
  -2  -3  -9   -0.10    0.90
   2   3   9    0.50    0.40
  -3  -3  -9   37.20    3.10
   3   3   9   35.00    2.60
  -4  -3  -9  440.16   12.60
   4   3   9  407.06   11.70
  -5  -3  -9   26.30    2.20
  -5  -3  -9   27.30    2.70
  -6  -3  -9   28.60    2.40
  -7  -3  -9   11.20    1.80
  -8  -3  -9   45.90    3.30
  -9  -3  -9    6.40    1.70
  -7   4   9    4.60    2.20
   6  -4  -9    2.70    1.30
  -6   4   9    1.80    1.90
   5  -4  -9    9.10    1.70
  -5   4   9   10.00    2.60
   4  -4  -9    4.70    1.30
  -4   4   9    2.30    1.60
   3  -4  -9   43.50    3.30
  -3   4   9   44.50    3.60
   2  -4  -9  476.35   13.30
  -2   4   9  462.25   13.80
   1  -4  -9  115.39    5.50
  -1   4   9  120.19    5.50
   0  -4  -9  109.99    5.30
   0   4   9  105.59    4.90
  -1  -4  -9  150.68    6.40
   1   4   9  152.18    5.80
  -2  -4  -9    8.70    1.80
   2   4   9    7.50    1.40
  -3  -4  -9    5.60    1.40
   3   4   9    4.60    1.20
  -4  -4  -9    0.40    1.10
   4   4   9    4.10    1.20
  -5  -4  -9   13.60    2.20
   5   4   9   14.70    2.10
  -6  -4  -9   15.50    2.60
   6   4   9    9.40    1.70
   7   4   9    9.90    1.70
  -8  -4  -9   53.59    3.40
  -9  -4  -9   44.40    3.20
  -7   5   9   26.90    4.50
   6  -5  -9   29.80    3.50
  -6   5   9   22.70    3.90
   5  -5  -9   28.50    2.90
  -5   5   9   36.10    4.60
   4  -5  -9   74.39    4.50
  -4   5   9   85.39    5.70
   3  -5  -9    7.10    1.70
  -3   5   9    7.00    1.80
   2  -5  -9   81.99    4.60
  -2   5   9   95.59    5.40
   1  -5  -9    7.30    1.70
  -1   5   9    7.50    1.80
   0  -5  -9   45.30    3.30
   0   5   9   39.40    3.00
  -1  -5  -9   28.00    2.80
   1   5   9   25.90    2.40
  -2  -5  -9   -0.40    0.80
   2   5   9   -1.10    0.30
  -3  -5  -9  119.19    5.90
   3   5   9  120.89    5.10
  -4  -5  -9   23.40    3.10
   4   5   9   21.60    2.10
  -5  -5  -9    1.80    1.30
   5   5   9    2.90    1.10
  -6  -5  -9   90.49    5.30
   6   5   9   93.89    4.70
  -7  -5  -9   33.90    3.50
   7   5   9   44.70    3.20
   8   5   9   12.40    2.50
  -6   6   9   -0.10    1.80
   5  -6  -9   67.69    4.50
  -5   6   9   69.79    5.50
   4  -6  -9    1.00    1.00
  -4   6   9   -0.70    1.30
   3  -6  -9   91.39    5.00
  -3   6   9   86.29    5.70
   2  -6  -9  173.88    7.20
  -2   6   9  165.18    7.70
   1  -6  -9   14.80    2.60
  -1   6   9   11.80    2.20
   0  -6  -9   62.79    4.10
   0   6   9   58.99    4.00
  -1  -6  -9   31.60    3.00
   1   6   9   36.50    3.00
  -2  -6  -9   12.20    2.40
   2   6   9   13.70    2.20
  -3  -6  -9   79.39    4.90
   3   6   9   78.19    4.10
  -4  -6  -9   35.10    3.40
   4   6   9   36.70    2.80
  -5  -6  -9    1.30    0.90
   5   6   9    1.40    0.80
  -6  -6  -9    5.50    1.80
   6   6   9    4.30    1.20
  -7  -6  -9   18.50    3.00
   7   6   9   18.90    2.50
  -6   7   9    0.60    1.80
  -5   7   9   31.80    4.40
   4  -7  -9   18.50    2.90
  -4   7   9   18.20    3.50
   3  -7  -9   71.59    4.50
  -3   7   9   72.19    5.30
   2  -7  -9    6.10    1.80
  -2   7   9    7.70    2.20
   1  -7  -9   18.90    2.90
  -1   7   9   18.20    2.80
   0  -7  -9   82.49    5.00
   0   7   9   91.99    5.30
  -1  -7  -9   70.29    4.60
   1   7   9   69.49    4.50
  -2  -7  -9   21.90    2.90
   2   7   9   27.10    2.70
  -3  -7  -9    6.10    1.70
   3   7   9    5.80    1.40
  -4  -7  -9   20.70    3.00
   4   7   9   20.50    2.80
  -5  -7  -9   91.19    5.70
   5   7   9   86.79    4.50
  -6  -7  -9    6.50    1.70
   6   7   9    7.30    1.60
  -7  -7  -9    4.50    1.70
   7   7   9    3.10    1.20
   8   7   9   69.79    4.90
  -5   8   9    3.70    1.70
  -4   8   9   24.10    4.10
   3  -8  -9    0.00    1.00
  -3   8   9    2.80    1.80
   2  -8  -9    5.00    1.70
  -2   8   9    9.30    2.40
   1  -8  -9   10.40    2.20
  -1   8   9   11.20    2.60
   0  -8  -9   27.70    3.50
   0   8   9   31.40    3.10
  -1  -8  -9    5.80    1.60
   1   8   9    4.10    1.40
  -2  -8  -9   55.69    4.30
   2   8   9   54.99    4.00
  -3  -8  -9    6.70    2.00
   3   8   9   11.10    2.20
  -4  -8  -9    9.50    2.20
   4   8   9    9.30    2.00
  -5  -8  -9   81.69    5.40
   5   8   9   78.19    4.40
  -6  -8  -9  166.38    8.30
   6   8   9  163.28    6.70
  -7  -8  -9   15.40    3.30
   8   8   9    0.00    1.40
   9   8   9    1.20    1.70
  -4   9   9    8.20    2.40
   3  -9  -9    6.30    1.90
  -3   9   9    5.10    1.80
   2  -9  -9   14.90    2.80
  -2   9   9   12.70    3.10
   1  -9  -9  155.28    7.30
  -1   9   9  168.58    8.40
   0  -9  -9    1.70    1.00
   0   9   9    5.00    1.40
  -1  -9  -9  103.29    6.00
   1   9   9  104.59    5.90
  -2  -9  -9   21.20    3.30
   2   9   9   26.10    3.40
  -3  -9  -9   14.80    2.80
   3   9   9   16.40    2.80
  -4  -9  -9   14.50    3.00
   4   9   9   18.80    2.80
  -5  -9  -9   21.20    3.40
   5   9   9   19.40    2.80
  -6  -9  -9   17.20    3.10
  -7  -9  -9   29.10    4.00
   8   9   9   10.00    2.50
  -3  10   9    5.60    2.50
   2 -10  -9   12.90    2.70
  -2  10   9   15.10    3.30
   1 -10  -9    2.70    1.30
  -1  10   9    0.30    1.40
   0 -10  -9    7.00    1.80
   0  10   9    5.90    2.20
  -1 -10  -9   31.70    4.10
   1  10   9   32.60    4.20
  -2 -10  -9   18.40    3.00
   2  10   9   18.70    3.20
  -3 -10  -9   14.50    2.90
   3  10   9   17.60    2.70
  -4 -10  -9   97.99    6.40
   4  10   9  109.19    5.80
  -5 -10  -9   71.99    5.60
  -6 -10  -9   84.39    6.20
  -7 -10  -9   20.80    4.10
  -2  11   9    1.20    1.90
   1 -11  -9   35.80    4.30
  -1  11   9   29.50    4.30
   0 -11  -9   29.30    3.90
   0  11   9   26.60    4.10
  -1 -11  -9    1.50    1.40
   1  11   9    3.30    1.80
  -2 -11  -9    4.10    1.60
   2  11   9    7.20    2.30
  -3 -11  -9   -0.40    1.30
  -4 -11  -9    4.60    1.70
  -5 -11  -9  168.48    8.80
  -6 -11  -9   11.90    3.30
   0 -12  -9   24.20    3.80
   0  12   9   25.20    4.10
  -1 -12  -9    2.50    1.20
   1  12   9    2.40    1.90
  -2 -12  -9    3.30    1.50
   2  12   9    4.60    1.90
  -3 -12  -9    0.60    1.50
  -4 -12  -9    2.40    1.50
   3   7 -10    2.00    2.10
  -3  -7  10   10.00    2.00
  -2  -7  10   16.80    3.40
  -1  -7  10   47.90    4.60
   0  -7  10   46.50    5.30
   4   6 -10   15.20    2.80
  -4  -6  10   32.10    6.20
   3   6 -10   57.69    4.40
  -3  -6  10   60.09    5.60
   2   6 -10   76.09    4.60
  -2  -6  10   69.39    5.80
   0  -6  10   73.79    5.70
  -2   6 -10   11.10    2.10
   5   5 -10   10.20    2.10
   4   5 -10   20.30    3.10
   3   5 -10   13.30    2.40
  -3  -5  10   16.20    3.30
   2   5 -10   18.40    2.70
  -2  -5  10   20.70    3.70
   1   5 -10   24.90    2.40
  -1  -5  10   38.40    3.80
   0  -5  10   32.70    3.60
  -1   5 -10    0.60    0.80
  -2   5 -10   23.40    2.80
   2  -5  10   39.50    4.20
  -3   5 -10   60.69    4.00
   3  -5  10   72.79    6.10
   4  -5  10   20.10    3.70
   5   4 -10   42.10    3.80
   4   4 -10   -0.10    1.10
   3   4 -10   42.60    3.50
   2   4 -10   34.60    2.80
  -2  -4  10   38.10    4.00
   1   4 -10  136.19    5.60
  -1  -4  10  144.89    7.60
   0   4 -10   -0.80    0.70
   0  -4  10    1.20    1.10
  -1   4 -10   24.20    2.20
   2  -4  10   12.90    2.60
   3  -4  10    7.60    2.70
  -4   4 -10   65.29    4.20
   4  -4  10   73.39    6.70
   5  -4  10   37.00    6.40
   6   3 -10   18.80    2.90
   5   3 -10    1.90    1.50
   4   3 -10  152.78    6.90
   3   3 -10   74.39    4.40
   2   3 -10   17.90    2.30
   1   3 -10  112.09    4.90
  -1  -3  10  113.39    8.40
  -1  -3  10  106.79    4.50
   0   3 -10    5.70    1.30
   0  -3  10   10.10    2.00
   0  -3  10    4.70    1.50
   1  -3  10    8.80    2.00
  -2   3 -10   35.50    2.70
   2  -3  10   42.10    4.00
  -3   3 -10   23.40    2.80
   3  -3  10   24.20    3.90
  -4   3 -10   14.70    2.40
   4  -3  10   19.10    4.70
  -5   3 -10    3.80    1.50
   5  -3  10    2.30    4.30
   6  -3  10   44.00    8.50
   7   2 -10   72.89    7.00
   6   2 -10   12.00    2.20
   5   2 -10    4.90    1.30
   4   2 -10   -0.20    0.60
   3   2 -10   11.90    1.90
   2   2 -10    1.60    0.90
  -2  -2  10    1.50    0.80
   1   2 -10   62.99    3.50
  -1  -2  10   65.99    3.40
   0   2 -10    0.20    0.70
   0  -2  10    1.20    0.80
  -1   2 -10  130.69    5.20
  -2   2 -10   46.30    3.00
   2  -2  10   49.60    4.30
  -3   2 -10  120.89    5.30
   3  -2  10  115.09    7.20
  -4   2 -10   53.99    3.60
   4  -2  10   55.79    6.50
  -5   2 -10    1.00    0.70
   5  -2  10   -6.40    3.40
  -6   2 -10   15.00    2.60
   7   1 -10   -0.10    1.00
   6   1 -10   41.00    3.50
   5   1 -10   68.49    4.20
   4   1 -10    2.30    1.20
   3   1 -10   66.59    3.80
  -3  -1  10   70.39    3.90
   2   1 -10  106.49    4.80
  -2  -1  10  121.19    4.90
   1   1 -10    0.80    0.50
  -1  -1  10    1.30    0.70
   0   1 -10  142.09    5.50
   0  -1  10  140.99    5.50
  -1   1 -10   66.39    3.60
   1  -1  10   66.09    3.70
  -2   1 -10    2.60    0.90
  -2   1 -10    2.10    1.10
  -3   1 -10    2.00    0.80
  -4   1 -10   10.40    1.90
  -5   1 -10   24.80    2.60
  -6   1 -10   40.40    3.40
   7   0 -10   -0.10    0.70
   6   0 -10    9.90    1.80
   5   0 -10   77.59    4.40
   4   0 -10   22.60    2.30
  -4   0  10   18.50    2.70
   3   0 -10   40.40    2.90
  -3   0  10   49.40    3.40
   2   0 -10    0.70    0.80
  -2   0  10    1.10    0.70
   1   0 -10    9.40    1.60
  -1   0  10    9.40    1.50
   0   0 -10    3.00    1.20
   0   0  10    3.80    1.20
  -1   0 -10   27.40    2.40
   1   0  10   25.10    2.30
  -2   0 -10    6.70    1.50
   2   0  10    9.60    1.60
  -3   0 -10  175.68    6.90
  -3   0 -10  169.48    6.20
  -4   0 -10   18.70    2.50
  -5   0 -10  168.98    6.70
  -6   0 -10   24.70    3.00
  -7   0 -10   34.40    3.30
   7  -1 -10    2.30    1.10
   6  -1 -10    9.70    1.90
  -5   1  10   11.50    3.20
   4  -1 -10   30.80    2.60
  -4   1  10   30.70    3.10
   3  -1 -10  146.89    5.70
  -3   1  10  133.29    6.20
   2  -1 -10   12.30    1.70
  -2   1  10   13.70    2.20
   1  -1 -10    0.80    0.60
  -1   1  10    0.70    0.70
   0  -1 -10   86.99    4.30
   0   1  10   86.49    4.20
  -1  -1 -10   16.60    2.30
   1   1  10   17.10    2.10
  -2  -1 -10  184.28    7.00
   2   1  10  150.38    6.20
  -3  -1 -10   32.40    2.90
  -4  -1 -10    0.50    0.50
  -4  -1 -10   -0.80    1.50
  -5  -1 -10    1.00    0.90
  -6  -1 -10    3.00    0.90
  -7  -1 -10   45.20    3.50
   7  -2 -10    4.80    1.40
   6  -2 -10  131.49    5.80
   5  -2 -10   18.90    2.50
  -5   2  10   17.80    3.10
   4  -2 -10    3.20    1.00
  -4   2  10    6.70    1.70
   3  -2 -10   40.50    2.90
  -3   2  10   35.00    3.20
   2  -2 -10   91.29    4.60
  -2   2  10   84.39    4.60
   1  -2 -10   69.79    4.00
  -1   2  10   78.09    4.10
   0  -2 -10  101.09    5.10
   0   2  10   97.39    4.60
  -1  -2 -10    1.30    1.00
   1   2  10    2.30    0.80
  -2  -2 -10   79.79    4.60
   2   2  10   77.29    4.10
  -3  -2 -10    0.50    1.10
   3   2  10    1.40    1.20
  -4  -2 -10   37.50    3.20
   4   2  10   37.20    2.90
  -5  -2 -10  120.19    5.20
  -6  -2 -10   13.40    2.10
  -7  -2 -10   66.59    4.00
  -8  -2 -10   10.20    2.00
   7  -3 -10    0.00    1.10
   6  -3 -10  154.08    6.70
  -6   3  10  163.88    8.20
   5  -3 -10   19.30    2.60
  -5   3  10   15.80    3.10
   4  -3 -10   60.69    3.80
  -4   3  10   50.49    4.40
   3  -3 -10   69.89    4.10
  -3   3  10   66.09    4.50
   2  -3 -10   50.69    3.40
  -2   3  10   43.70    3.60
   1  -3 -10    5.60    1.70
  -1   3  10    4.20    1.50
   0  -3 -10    5.30    1.60
   0   3  10    3.90    1.10
  -1  -3 -10   88.09    5.00
   1   3  10   88.79    4.30
  -2  -3 -10  160.88    7.20
   2   3  10  181.78    6.50
  -3  -3 -10   23.50    2.90
   3   3  10   26.40    2.50
  -4  -3 -10  191.28    7.70
   4   3  10  184.98    7.00
  -5  -3 -10   12.50    2.20
   5   3  10    6.20    1.40
  -7  -3 -10   16.70    2.30
  -8  -3 -10   -0.20    1.00
   7  -4 -10    3.90    1.50
   6  -4 -10   15.10    2.60
  -6   4  10   18.90    3.50
   5  -4 -10   32.80    3.00
  -5   4  10   33.50    4.30
   4  -4 -10  387.26   11.90
  -4   4  10  386.86   13.30
   3  -4 -10   18.80    2.70
  -3   4  10   16.00    2.80
   2  -4 -10   35.70    3.10
  -2   4  10   31.10    3.20
   1  -4 -10  141.39    6.40
  -1   4  10  123.49    5.90
   0  -4 -10    1.30    0.80
   0   4  10    0.50    0.70
  -1  -4 -10    2.90    1.00
   1   4  10    2.80    1.10
  -2  -4 -10    2.30    1.10
   2   4  10    1.90    0.90
  -3  -4 -10    3.70    1.70
   3   4  10    4.30    1.30
  -4  -4 -10   15.40    2.60
   4   4  10   19.90    2.70
  -5  -4 -10    8.80    2.00
   5   4  10   10.30    1.90
  -6  -4 -10  138.69    6.70
   6   4  10  131.99    6.00
   7   4  10   39.70    3.30
   8   4  10   32.90    3.30
  -7   5  10   30.60    5.40
   6  -5 -10   21.70    3.20
  -6   5  10   21.30    4.10
   5  -5 -10    4.30    1.50
  -5   5  10    6.30    2.00
   4  -5 -10   31.60    3.10
  -4   5  10   32.10    4.10
   3  -5 -10    4.80    1.60
  -3   5  10    1.80    1.60
   2  -5 -10    9.80    2.00
  -2   5  10    7.10    1.80
   1  -5 -10    2.60    1.20
  -1   5  10    1.60    1.40
   0  -5 -10    1.60    1.00
   0   5  10    1.30    0.70
  -1  -5 -10  209.28    8.40
   1   5  10  195.28    7.50
  -2  -5 -10    0.30    0.90
   2   5  10   -0.20    0.50
  -3  -5 -10   27.40    3.30
   3   5  10   23.90    2.40
  -4  -5 -10  104.69    5.90
   4   5  10  115.39    5.20
  -5  -5 -10   37.80    3.60
   5   5  10   45.20    3.20
  -6  -5 -10   35.50    3.60
   6   5  10   40.40    3.20
   7   5  10    1.10    1.20
   8   5  10   23.60    3.00
  -6   6  10    3.20    2.10
   5  -6 -10   37.70    4.30
  -5   6  10   48.30    5.60
   4  -6 -10   65.89    4.70
  -4   6  10   88.49    6.10
   3  -6 -10    8.40    2.00
  -3   6  10   10.80    2.40
   2  -6 -10   45.50    3.90
  -2   6  10   56.99    4.40
   1  -6 -10    1.40    1.10
  -1   6  10   -1.20    1.10
   0  -6 -10   19.90    3.00
   0   6  10   15.90    2.70
  -1  -6 -10   49.10    4.10
   1   6  10   49.00    3.60
  -2  -6 -10   46.60    4.00
   2   6  10   47.40    3.50
  -3  -6 -10    2.40    1.60
   3   6  10    2.70    1.30
  -4  -6 -10   -0.30    0.90
   4   6  10    1.30    1.00
  -5  -6 -10    6.70    2.20
   5   6  10    8.40    1.70
  -6  -6 -10   26.40    3.70
   6   6  10   35.90    3.00
  -7  -6 -10   -0.30    1.00
   7   6  10   -0.20    1.00
   8   6  10   46.00    3.60
  -5   7  10   58.69    5.80
   4  -7 -10    4.70    1.90
  -4   7  10    6.60    2.50
   3  -7 -10    2.30    1.20
  -3   7  10    0.60    1.30
   2  -7 -10   24.20    3.40
  -2   7  10   28.10    3.70
   1  -7 -10   14.10    2.60
  -1   7  10   15.30    2.80
   0  -7 -10    4.60    1.80
   0   7  10    3.20    1.70
  -1  -7 -10    7.60    2.10
   1   7  10    8.20    1.90
  -2  -7 -10   24.80    3.30
   2   7  10   21.20    2.90
  -3  -7 -10  123.29    6.60
   3   7  10  101.49    5.30
  -4  -7 -10   34.00    4.30
   4   7  10   26.40    3.20
  -5  -7 -10    7.20    2.00
   5   7  10    4.70    1.60
  -6  -7 -10   76.89    5.40
   6   7  10   68.39    4.20
  -7  -7 -10    1.10    1.30
   7   7  10    2.30    1.30
  -8  -7 -10    9.50    3.40
   4  -8 -10    0.60    1.30
  -4   8  10    0.30    2.00
   3  -8 -10   35.10    4.20
  -3   8  10   32.20    4.40
   2  -8 -10   10.30    2.20
  -2   8  10    8.80    2.40
   1  -8 -10    0.40    1.30
  -1   8  10    0.50    1.70
   0  -8 -10   84.29    5.40
   0   8  10   88.99    5.70
  -1  -8 -10   12.70    2.40
  -2  -8 -10   46.80    4.10
   2   8  10   43.50    3.90
  -3  -8 -10   57.39    4.60
   3   8  10   59.89    4.30
  -4  -8 -10   99.79    6.20
   4   8  10  100.79    5.50
  -5  -8 -10   10.70    2.80
   5   8  10    9.10    1.90
  -6  -8 -10    6.10    1.70
   6   8  10    3.80    1.60
  -7  -8 -10    2.40    1.80
   3  -9 -10  121.99    6.70
  -3   9  10  125.09    7.70
   2  -9 -10    9.90    2.40
  -2   9  10    6.40    2.40
   1  -9 -10   14.60    2.90
  -1   9  10   19.60    3.60
   0  -9 -10   35.60    3.60
   0   9  10   30.40    4.20
  -1  -9 -10   20.40    3.40
   1   9  10   21.50    3.40
  -2  -9 -10   50.49    4.40
   2   9  10   51.19    4.30
  -3  -9 -10    6.80    1.90
   3   9  10    9.70    2.30
  -4  -9 -10    7.70    2.30
   4   9  10    9.30    2.10
  -5  -9 -10   68.79    5.30
   5   9  10   73.89    4.80
  -6  -9 -10   14.20    3.30
  -7  -9 -10    0.30    1.90
   2 -10 -10    0.10    1.10
  -2  10  10    0.90    1.70
   1 -10 -10   -0.20    1.20
  -1  10  10    2.90    1.60
   0 -10 -10   22.80    3.60
   0  10  10   16.50    3.40
  -1 -10 -10   69.49    5.20
   1  10  10   80.89    5.70
  -2 -10 -10  114.19    6.90
   2  10  10  131.29    7.00
  -3 -10 -10  142.99    8.00
   3  10  10  157.48    7.70
  -4 -10 -10   36.70    4.70
   4  10  10   35.50    4.30
  -5 -10 -10   16.80    3.50
  -6 -10 -10    4.70    2.10
   1 -11 -10    5.90    2.00
  -1  11  10    2.00    1.60
   0 -11 -10    5.30    2.10
   0  11  10    9.10    2.80
  -1 -11 -10   11.50    2.70
   1  11  10   13.30    3.10
  -2 -11 -10   12.50    2.90
   2  11  10   13.90    2.70
  -3 -11 -10  127.49    7.50
   3  11  10  113.39    6.90
  -4 -11 -10    8.20    2.20
  -5 -11 -10    6.10    2.10
   0 -12 -10    3.80    2.10
  -1 -12 -10    7.20    2.00
   1  12  10    7.60    2.90
  -2 -12 -10    3.20    1.30
   2  12  10    2.20    1.80
   3   5 -11    3.80    1.50
   2   5 -11   15.40    2.40
  -2   5 -11   15.70    2.40
   4   4 -11    1.10    1.00
   3   4 -11   63.59    4.20
   2   4 -11    5.70    1.50
   1   4 -11   16.70    2.30
   1  -4  11    0.50    1.20
  -2   4 -11   29.20    2.70
  -3   4 -11   53.59    3.80
   5   3 -11   39.00    3.40
   4   3 -11   25.50    3.10
   3   3 -11   23.70    3.00
   2   3 -11    4.00    1.30
   1   3 -11   -0.60    0.80
   0   3 -11  104.59    4.80
   0  -3  11   99.29    4.80
   1  -3  11    2.00    1.30
  -2   3 -11    5.00    1.30
  -3   3 -11   17.80    2.50
  -4   3 -11   68.09    4.40
   5   2 -11   39.60    3.50
   4   2 -11    2.30    1.40
   3   2 -11   70.59    4.20
   2   2 -11   -0.50    0.60
   1   2 -11   18.30    2.20
  -1  -2  11   16.60    2.20
   0   2 -11   26.50    2.40
   0  -2  11   19.50    2.50
  -1   2 -11  159.08    6.30
   1  -2  11  170.58    6.70
  -2   2 -11    8.40    1.60
  -3   2 -11    2.10    1.00
  -4   2 -11   26.30    2.70
  -5   2 -11    5.50    1.50
   6   1 -11   21.30    2.90
   5   1 -11    8.80    1.70
   4   1 -11   38.70    3.10
   3   1 -11    2.90    0.80
   2   1 -11   60.09    3.60
  -2  -1  11   65.09    3.90
   1   1 -11   42.80    3.00
  -1  -1  11   47.40    3.10
   0   1 -11   30.60    2.60
   0  -1  11   31.90    2.60
  -1   1 -11    0.40    1.00
   1  -1  11    1.40    0.90
  -2   1 -11   40.20    4.20
   2  -1  11   35.50    3.00
  -3   1 -11   32.90    2.70
  -4   1 -11   18.60    2.50
  -5   1 -11   18.80    2.80
   6   0 -11   14.80    2.20
   5   0 -11   37.00    3.20
   4   0 -11    0.30    1.00
   3   0 -11    1.60    1.20
  -3   0  11    1.40    1.10
   2   0 -11    3.00    1.20
  -2   0  11    3.20    1.10
   1   0 -11  148.09    6.00
  -1   0  11  132.89    5.60
   0   0 -11   34.00    2.80
   0   0  11   32.00    2.60
  -1   0 -11   79.69    4.50
   1   0  11   82.19    4.40
  -2   0 -11   21.50    2.80
   2   0  11   12.40    2.00
   3   0  11  212.48    7.80
  -4   0 -11   35.20    2.80
  -5   0 -11   12.60    2.20
  -6   0 -11    3.70    1.60
   6  -1 -11   16.50    2.40
   5  -1 -11   51.99    3.50
   4  -1 -11    0.90    1.00
  -4   1  11    0.30    1.30
   3  -1 -11   10.50    1.70
  -3   1  11   10.10    2.30
   2  -1 -11    8.40    1.60
  -2   1  11    7.20    1.70
   1  -1 -11    2.60    1.00
  -1   1  11    4.20    1.40
   0  -1 -11  181.78    7.20
   0   1  11  181.28    6.70
  -1  -1 -11   21.50    2.90
   1   1  11   14.70    2.10
  -2  -1 -11    2.90    1.50
   2   1  11    3.30    1.20
  -3  -1 -11    2.20    1.30
   3   1  11    1.70    1.40
  -5  -1 -11   72.19    4.20
  -6  -1 -11   52.19    3.60
   6  -2 -11    4.00    1.50
   5  -2 -11    1.20    1.10
  -5   2  11    1.50    1.90
   4  -2 -11   18.70    2.40
  -4   2  11   20.10    3.00
   3  -2 -11   38.10    3.10
  -3   2  11   42.70    3.70
   2  -2 -11   56.89    3.70
  -2   2  11   67.19    4.30
   1  -2 -11   22.20    2.70
  -1   2  11   22.70    2.80
   0  -2 -11   49.60    3.60
   0   2  11   43.70    3.10
  -1  -2 -11   17.20    2.60
   1   2  11   16.10    2.30
  -2  -2 -11  102.99    5.60
   2   2  11   95.79    4.70
  -3  -2 -11   36.40    3.40
   3   2  11   36.60    3.10
  -4  -2 -11    4.70    1.60
   4   2  11    4.60    1.70
   5   2  11  140.59    6.30
  -6  -2 -11    6.80    1.40
  -7  -2 -11   -0.10    0.60
   6  -3 -11   36.80    3.30
   5  -3 -11    6.40    1.70
  -5   3  11    2.20    1.70
   4  -3 -11   28.40    2.80
  -4   3  11   21.50    3.50
   3  -3 -11   27.10    2.70
  -3   3  11   21.00    3.10
   2  -3 -11   31.50    2.90
  -2   3  11   26.50    3.40
   1  -3 -11   69.79    4.50
  -1   3  11   69.59    4.40
   0  -3 -11   62.99    4.40
   0   3  11   68.59    4.20
  -1  -3 -11   -0.70    0.90
   1   3  11    0.10    0.60
  -2  -3 -11  200.78    8.50
   2   3  11  219.28    7.70
  -3  -3 -11    4.70    1.90
   3   3  11    8.60    1.60
  -4  -3 -11    8.80    2.30
   4   3  11   11.50    2.20
  -5  -3 -11   18.70    3.80
   5   3  11   21.40    2.90
   6   3  11    1.90    1.30
   7   3  11   23.20    3.10
   6  -4 -11  134.69    6.90
  -6   4  11  142.19    8.30
   5  -4 -11    0.20    0.90
  -5   4  11    1.30    1.50
   4  -4 -11    1.70    1.30
  -4   4  11    5.00    1.60
   3  -4 -11   68.99    4.50
  -3   4  11   59.79    4.80
   2  -4 -11    1.10    1.30
  -2   4  11    1.10    1.00
   1  -4 -11    4.30    1.40
  -1   4  11    4.20    1.40
   0  -4 -11    4.80    1.60
   0   4  11    5.60    1.60
  -1  -4 -11    0.60    1.20
   1   4  11    4.70    1.20
  -2  -4 -11   34.50    4.10
   2   4  11   34.40    2.80
  -3  -4 -11    3.10    1.40
   3   4  11    4.40    1.40
  -4  -4 -11  194.28    8.60
   4   4  11  210.68    7.80
  -5  -4 -11   42.90    3.90
   5   4  11   38.10    3.30
   6   4  11   20.70    2.80
   7   4  11   33.30    3.40
   6  -5 -11    1.60    1.50
  -6   5  11   -0.40    2.40
   5  -5 -11    0.80    1.40
  -5   5  11    0.90    1.80
   4  -5 -11    0.70    1.00
  -4   5  11   -2.30    1.60
   3  -5 -11    0.50    1.10
  -3   5  11    0.50    1.70
   2  -5 -11    1.30    0.80
  -2   5  11    0.70    0.90
   1  -5 -11   79.39    5.10
  -1   5  11   73.19    5.00
   0  -5 -11   14.00    2.50
   0   5  11    7.30    1.80
  -1  -5 -11  124.49    6.60
   1   5  11  136.89    6.20
  -2  -5 -11   29.60    3.70
   2   5  11   35.20    3.00
  -3  -5 -11   36.70    3.70
   3   5  11   42.80    3.40
  -4  -5 -11   77.19    5.20
   4   5  11   69.19    4.30
  -5  -5 -11    1.60    1.20
   5   5  11    2.30    1.40
  -6  -5 -11   18.60    3.30
   6   5  11   27.20    2.60
   7   5  11    2.40    1.30
   8   5  11    5.30    1.90
   5  -6 -11    1.10    1.50
  -5   6  11    7.60    2.90
   4  -6 -11   61.79    4.70
  -4   6  11   58.49    5.40
   3  -6 -11    0.80    0.90
  -3   6  11   -0.20    1.20
   2  -6 -11   20.60    3.30
  -2   6  11   27.60    3.90
   1  -6 -11   14.40    2.70
  -1   6  11   16.80    3.30
   0  -6 -11   -0.40    0.80
   0   6  11    2.00    1.50
  -1  -6 -11   -0.30    1.30
   1   6  11    0.40    1.00
  -2  -6 -11    1.50    1.50
   2   6  11    0.10    0.70
  -3  -6 -11    1.60    0.90
   3   6  11   -0.10    0.80
  -4  -6 -11   22.10    3.50
   4   6  11   22.20    2.90
  -5  -6 -11    1.40    1.00
   5   6  11   -0.70    0.80
  -6  -6 -11  151.38    7.90
   6   6  11  137.19    6.40
  -7  -6 -11   16.00    5.00
   7   6  11    9.00    2.10
   8   6  11    5.30    1.70
   5  -7 -11    4.80    2.10
   4  -7 -11   25.60    3.90
  -4   7  11   21.70    3.90
   3  -7 -11    6.50    1.90
  -3   7  11    5.90    2.70
   2  -7 -11    3.30    1.70
  -2   7  11   -0.10    1.70
   1  -7 -11    3.00    1.60
  -1   7  11    2.70    2.10
   0  -7 -11   25.00    3.70
   0   7  11   20.90    3.50
  -1  -7 -11  157.78    7.90
   1   7  11  159.28    7.60
  -2  -7 -11   45.10    4.30
   2   7  11   38.60    3.60
  -3  -7 -11   19.80    3.50
   3   7  11   13.20    2.40
  -4  -7 -11   60.19    4.90
   4   7  11   43.90    3.80
  -5  -7 -11    1.50    1.80
   5   7  11    2.70    1.50
  -6  -7 -11   11.40    2.90
   6   7  11    7.80    1.90
  -7  -7 -11   24.00    3.80
   7   7  11   18.90    2.70
   4  -8 -11   -1.20    1.60
  -4   8  11    0.40    1.80
   3  -8 -11    2.50    1.80
  -3   8  11    6.20    2.60
   2  -8 -11   41.80    4.00
  -2   8  11   43.60    5.20
   1  -8 -11   21.40    3.60
  -1   8  11   13.10    3.30
   0  -8 -11  110.99    6.50
   0   8  11  103.29    6.40
  -1  -8 -11   50.79    4.50
   1   8  11   48.30    4.40
  -2  -8 -11   60.79    4.80
   2   8  11   60.59    4.80
  -3  -8 -11   28.30    4.00
   3   8  11   20.40    3.20
  -4  -8 -11    4.90    2.20
   4   8  11    2.40    1.50
  -5  -8 -11    6.60    1.90
   5   8  11    3.70    1.50
  -6  -8 -11    9.20    2.20
   6   8  11    7.60    2.30
  -7  -8 -11   -1.30    1.60
   3  -9 -11    1.80    1.50
  -3   9  11    1.10    1.60
   2  -9 -11   12.20    3.00
  -2   9  11   10.40    2.90
   1  -9 -11   14.40    3.00
  -1   9  11   14.10    3.00
   0  -9 -11   41.50    4.20
   0   9  11   46.60    5.50
  -1  -9 -11    3.90    2.00
   1   9  11    1.10    2.10
  -2  -9 -11   17.60    3.30
   2   9  11   14.30    3.00
  -3  -9 -11   35.90    4.90
   3   9  11   40.60    4.10
  -4  -9 -11   28.60    4.00
   4   9  11   30.90    3.90
  -5  -9 -11   23.60    4.10
   5   9  11   25.70    3.50
  -6  -9 -11    1.30    1.80
   2 -10 -11   11.00    2.80
   1 -10 -11   83.99    5.80
  -1  10  11   77.89    6.50
   0 -10 -11   93.69    6.30
   0  10  11   92.49    6.60
  -1 -10 -11  102.69    6.60
   1  10  11  109.19    7.20
  -2 -10 -11   13.30    3.20
   2  10  11   14.00    2.70
  -3 -10 -11    0.10    1.70
   3  10  11    3.50    1.70
  -4 -10 -11    1.30    2.00
   4  10  11    0.10    1.60
  -5 -10 -11   18.70    3.20
   5  10  11   15.20    3.50
   1 -11 -11   13.30    3.00
   0 -11 -11    1.40    1.60
   0  11  11    0.80    2.20
  -1 -11 -11   53.79    5.00
   1  11  11   61.19    5.70
  -2 -11 -11   18.60    3.60
   2  11  11   25.80    4.00
  -3 -11 -11   10.20    2.80
   3  11  11    8.00    2.80
   4  11  11    1.70    2.20
   2  12  11   32.40    7.00
   2   4 -12   11.60    2.20
   3   3 -12    1.90    1.30
   2   3 -12  100.19    5.10
   1   3 -12    0.30    0.90
   1  -3  12    2.60    1.30
  -3   3 -12    5.20    1.70
   4   2 -12    8.80    1.80
   3   2 -12    1.40    1.20
   2   2 -12    5.40    1.50
   1   2 -12   78.09    4.40
  -1  -2  12   73.49    4.90
   0   2 -12    7.50    1.70
   0  -2  12    5.70    1.50
   1  -2  12   14.10    2.30
   2  -2  12    5.70    1.60
   4   1 -12   31.60    3.00
   3   1 -12   39.90    3.20
   2   1 -12    6.30    1.60
  -2  -1  12   10.20    2.40
   1   1 -12    2.70    1.10
  -1  -1  12    0.70    1.00
   0   1 -12  110.29    5.40
   0  -1  12  119.89    5.40
  -1   1 -12   90.69    5.00
   1  -1  12   86.39    4.70
   2  -1  12    6.70    2.00
   3  -1  12   14.60    2.50
  -4   1 -12   15.50    2.50
   5   0 -12    1.50    1.30
   4   0 -12    0.40    1.10
   3   0 -12   94.49    4.90
   2   0 -12   49.70    3.50
  -2   0  12   60.99    4.00
   1   0 -12   -1.40    0.80
  -1   0  12    1.20    1.10
   0   0 -12    4.30    1.50
   0   0  12    5.40    1.40
  -1   0 -12  252.57    9.10
   1   0  12  230.38    8.40
  -2   0 -12   33.20    3.30
   2   0  12   31.30    3.10
   3   0  12    8.80    2.10
   4   0  12    6.00    1.60
  -5   0 -12   64.49    4.20
   5  -1 -12    5.30    1.30
   4  -1 -12    1.60    1.20
   3  -1 -12    3.20    1.40
  -3   1  12    2.10    1.70
   2  -1 -12   47.50    3.70
  -2   1  12   49.70    3.80
   1  -1 -12   12.20    2.30
  -1   1  12    9.10    1.90
   0  -1 -12   14.20    2.40
   0   1  12   12.50    2.20
  -1  -1 -12    2.30    1.50
   1   1  12    5.30    1.60
  -2  -1 -12   64.39    4.60
   2   1  12   70.99    4.30
  -3  -1 -12   90.89    5.70
   3   1  12   81.69    4.80
   4   1  12   10.90    2.60
   5   1  12    0.40    1.20
   5  -2 -12   13.90    2.50
   4  -2 -12   80.19    4.80
  -4   2  12   80.79    5.50
   3  -2 -12    2.10    0.80
  -3   2  12    2.00    1.70
   2  -2 -12   18.00    2.60
  -2   2  12   14.50    2.70
   1  -2 -12   64.99    4.40
  -1   2  12   68.79    4.30
   0  -2 -12  116.59    6.20
   0   2  12  120.59    5.70
  -1  -2 -12   15.90    2.70
   1   2  12   16.80    2.60
  -2  -2 -12    1.10    1.50
   2   2  12    1.80    1.10
  -3  -2 -12   82.59    5.30
   3   2  12   76.79    4.70
   4   2  12    5.70    1.80
   5   2  12    7.80    2.30
   6   2  12    1.60    1.60
   5  -3 -12    0.40    1.20
  -5   3  12    1.10    2.10
   4  -3 -12   23.40    3.20
  -4   3  12   21.00    3.80
   3  -3 -12   94.59    5.30
  -3   3  12   74.99    5.40
   2  -3 -12    2.70    1.60
  -2   3  12   -0.10    1.20
   1  -3 -12    1.60    1.40
  -1   3  12    0.30    1.10
   0  -3 -12  180.18    8.10
   0   3  12  206.28    8.00
  -1  -3 -12   36.20    3.50
   1   3  12   37.20    3.10
  -2  -3 -12   13.90    2.80
   2   3  12   19.00    2.60
  -3  -3 -12   25.20    3.70
   3   3  12   20.70    3.00
  -4  -3 -12    2.20    1.60
   4   3  12    3.40    1.70
   5   3  12   37.70    3.40
   6   3  12   19.80    3.10
  -5   4  12   13.50    3.60
   4  -4 -12   11.90    2.50
  -4   4  12    8.10    2.00
   3  -4 -12    2.40    1.40
  -3   4  12    1.30    2.00
   2  -4 -12    9.70    2.40
  -2   4  12    5.80    2.00
   1  -4 -12    0.70    1.40
  -1   4  12    1.10    1.00
   0  -4 -12    5.80    2.10
   0   4  12    2.10    1.60
  -1  -4 -12   14.80    2.90
   1   4  12   11.80    2.20
  -2  -4 -12  267.87   10.50
   2   4  12  276.27    9.60
  -3  -4 -12    1.50    1.50
   3   4  12    3.00    1.10
  -4  -4 -12    2.00    1.80
   4   4  12    4.60    1.70
  -5  -4 -12   56.19    4.70
   5   4  12   62.69    4.10
   6   4  12    1.30    1.10
   5  -5 -12    8.20    2.50
  -5   5  12   11.60    3.00
   4  -5 -12    2.30    1.20
  -4   5  12    0.50    1.90
   3  -5 -12   43.30    4.00
  -3   5  12   31.40    4.30
   2  -5 -12    9.70    2.20
  -2   5  12    8.10    2.50
   1  -5 -12  107.59    6.20
  -1   5  12   92.99    6.00
   0  -5 -12    4.30    1.40
   0   5  12    4.20    1.80
   1   5  12   -0.40    0.80
  -2  -5 -12   49.40    4.60
   2   5  12   52.89    3.80
  -3  -5 -12    2.60    1.70
   3   5  12    6.20    1.80
  -4  -5 -12   11.20    2.70
   4   5  12   11.20    2.20
  -5  -5 -12    4.70    1.70
   5   5  12    1.10    1.30
   6   5  12    4.30    1.60
   5  -6 -12    4.00    2.50
   4  -6 -12   39.20    4.00
  -4   6  12   31.30    4.80
   3  -6 -12   12.10    2.60
  -3   6  12   15.30    2.90
   2  -6 -12    2.30    1.90
  -2   6  12    1.20    1.60
   1  -6 -12    2.80    1.50
  -1   6  12   -0.80    1.50
   0  -6 -12   23.60    3.60
   0   6  12   18.90    3.30
  -1  -6 -12    1.10    1.40
   1   6  12    1.20    1.20
  -2  -6 -12   15.90    2.90
   2   6  12   13.30    2.30
  -3  -6 -12   -2.40    1.10
   3   6  12   -1.00    1.10
  -4  -6 -12  158.98    8.30
   4   6  12  162.68    7.10
  -5  -6 -12    3.60    1.50
   5   6  12    7.30    1.80
  -6  -6 -12    3.80    2.20
   6   6  12    7.20    1.70
   7   6  12   17.10    3.20
   4  -7 -12    3.50    2.00
   3  -7 -12   11.40    2.70
  -3   7  12   14.90    3.30
   2  -7 -12   52.19    4.70
  -2   7  12   51.59    5.20
   1  -7 -12   60.89    5.00
  -1   7  12   63.69    5.30
   0  -7 -12   41.50    5.00
   0   7  12   35.70    4.70
  -1  -7 -12   47.10    4.70
   1   7  12   53.89    4.70
  -2  -7 -12   18.90    3.50
   2   7  12   21.90    3.40
  -3  -7 -12    8.70    2.00
   3   7  12    6.10    1.90
  -4  -7 -12    6.00    2.30
   4   7  12    6.80    2.30
  -5  -7 -12    3.90    1.90
   5   7  12    1.30    1.20
  -6  -7 -12    3.60    2.40
   6   7  12    6.90    1.80
  -7  -7 -12   15.70    3.40
   7   7  12   16.60    3.20
   3  -8 -12   -0.40    1.70
  -3   8  12    1.10    3.90
   2  -8 -12   71.39    5.50
  -2   8  12   83.69    6.40
   1  -8 -12    9.90    2.80
  -1   8  12   11.70    3.10
   0  -8 -12   11.30    2.50
   0   8  12   10.50    2.70
  -1  -8 -12   10.20    2.60
   1   8  12   13.90    2.90
  -2  -8 -12    4.50    1.90
   2   8  12    3.40    2.20
  -3  -8 -12   14.10    3.50
   3   8  12   12.30    2.70
  -4  -8 -12   -1.60    0.80
   4   8  12   -0.90    1.30
  -5  -8 -12    0.20    1.90
   5   8  12    0.90    1.30
  -6  -8 -12   69.19    5.90
   6   8  12   70.49    4.90
   2  -9 -12   67.89    5.50
   1  -9 -12   -0.30    1.50
  -1   9  12    2.90    1.60
   0  -9 -12   11.50    2.70
   0   9  12   11.20    2.60
  -1  -9 -12   13.40    3.20
   1   9  12   11.90    2.90
  -2  -9 -12    6.80    2.40
   2   9  12    8.20    2.50
  -3  -9 -12   45.80    5.50
   3   9  12   40.90    4.90
  -4  -9 -12    1.70    2.10
   4   9  12    2.00    1.50
  -5  -9 -12    7.80    2.20
   5   9  12    7.50    2.20
   6   9  12    5.50    2.30
   1 -10 -12   99.69    8.20
   0 -10 -12    5.90    1.70
  -1 -10 -12    4.60    2.00
   1  10  12    1.10    2.10
  -2 -10 -12    1.70    1.70
   2  10  12   -1.10    1.50
  -3 -10 -12    6.20    2.50
   3  10  12    8.00    2.50
   4  10  12    3.00    1.70
   5  10  12   49.40    4.90
   3  11  12   28.60    5.40
   1   3 -13   -1.80    1.30
   2   2 -13    7.00    1.80
   1   2 -13    3.50    1.60
   0   2 -13   14.70    2.90
   0  -2  13   12.00    2.20
   1  -2  13   32.10    3.20
   2  -2  13   10.80    2.70
   3   1 -13   15.10    2.40
   2   1 -13   71.19    4.70
   1   1 -13   90.19    5.10
  -1  -1  13   95.09    5.00
   0   1 -13    1.60    1.30
   0  -1  13    2.70    1.20
   1  -1  13    2.10    1.30
   2  -1  13    0.60    1.40
   3  -1  13    6.80    3.60
   3   0 -13    7.20    1.90
   2   0 -13    3.30    1.60
  -2   0  13    0.90    1.60
   1   0 -13   69.49    4.50
  -1   0  13   75.59    4.60
   0   0 -13   38.10    3.60
   0   0  13   36.00    3.20
  -1   0 -13    3.70    1.60
   1   0  13    5.00    1.50
   2   0  13    4.20    1.40
   3   0  13   46.90    4.10
   4  -1 -13   17.90    3.70
   3  -1 -13   35.60    3.50
  -3   1  13   27.40    3.90
   2  -1 -13    0.20    0.70
  -2   1  13    1.30    1.20
   1  -1 -13    6.40    1.80
  -1   1  13    8.30    1.90
   0  -1 -13  107.59    6.00
   0   1  13  109.39    5.50
  -1  -1 -13   48.50    4.20
   1   1  13   50.89    3.70
  -2  -1 -13    0.70    1.30
   2   1  13    0.30    0.90
   3   1  13   13.90    2.70
   4   1  13    2.30    1.40
   4  -2 -13    5.10    1.50
   3  -2 -13   42.80    3.60
  -3   2  13   34.30    4.30
   2  -2 -13  113.59    6.20
  -2   2  13  109.59    6.10
   1  -2 -13    1.00    1.40
  -1   2  13    0.90    1.60
   0  -2 -13    6.90    1.80
   0   2  13    9.60    2.20
  -1  -2 -13   53.29    4.50
   1   2  13   50.99    3.90
  -2  -2 -13   13.80    2.80
   2   2  13   11.90    2.50
  -3  -2 -13    1.50    1.50
   3   2  13    0.40    0.90
   4   2  13   -0.70    1.50
   4  -3 -13    3.10    1.70
  -4   3  13   -0.10    2.30
   3  -3 -13   14.90    2.70
  -3   3  13   20.30    3.40
   2  -3 -13   98.39    5.80
  -2   3  13   96.09    6.10
   1  -3 -13   32.40    3.90
  -1   3  13   29.60    3.50
   0  -3 -13    9.80    2.60
   0   3  13    8.60    1.90
  -1  -3 -13   -1.00    1.10
   1   3  13    0.00    1.10
  -2  -3 -13   -1.10    1.40
   2   3  13    0.00    0.90
  -3  -3 -13   57.19    4.70
   3   3  13   46.30    3.90
  -4  -3 -13   96.29    7.70
   4   3  13   96.89    5.50
   5   3  13   29.10    3.70
   4  -4 -13   30.90    4.50
  -4   4  13   31.40    4.40
   3  -4 -13    2.50    1.60
  -3   4  13    3.90    2.40
   2  -4 -13    1.60    1.50
  -2   4  13   -0.60    1.60
   1  -4 -13   11.00    2.80
  -1   4  13    5.20    2.20
   0  -4 -13  162.58    7.90
   0   4  13  131.29    6.90
  -1  -4 -13    2.80    1.40
   1   4  13    5.60    2.20
  -2  -4 -13    2.50    2.00
   2   4  13    3.20    1.40
  -3  -4 -13   37.30    4.70
   3   4  13   32.30    3.20
  -4  -4 -13    7.40    2.20
   4   4  13    8.40    2.20
   5   4  13   21.40    3.20
  -4   5  13    9.00    3.10
   3  -5 -13   62.79    5.10
  -3   5  13   59.79    5.40
   2  -5 -13   -1.30    0.90
  -2   5  13   -0.80    1.10
   1  -5 -13    1.80    1.20
  -1   5  13    0.40    1.80
   0  -5 -13   35.20    4.40
   0   5  13   36.20    4.40
  -1  -5 -13   42.20    5.10
   1   5  13   35.50    3.60
  -2  -5 -13   13.10    2.70
   2   5  13    8.60    2.30
  -3  -5 -13    3.30    2.20
   3   5  13    7.80    2.00
  -4  -5 -13    8.80    2.60
   4   5  13    7.00    1.90
  -5  -5 -13  120.29    7.50
   5   5  13  156.08    7.00
   3  -6 -13    1.50    1.70
  -3   6  13    2.30    2.00
   2  -6 -13   24.70    3.90
  -2   6  13   23.70    3.90
   1  -6 -13   -0.40    1.10
  -1   6  13   -0.40    1.60
   0  -6 -13    4.10    1.70
   0   6  13    0.30    2.10
  -1  -6 -13    1.10    1.30
   1   6  13    2.40    1.30
  -2  -6 -13  180.38    9.30
   2   6  13  190.08    8.50
  -3  -6 -13    3.90    1.60
   3   6  13    2.60    2.00
  -4  -6 -13   13.70    3.00
   4   6  13   18.10    2.90
  -5  -6 -13   12.10    2.90
   5   6  13    7.50    2.00
  -6  -6 -13    4.80    2.90
   2  -7 -13   -2.00    1.60
  -2   7  13    0.80    2.80
   1  -7 -13   25.00    4.10
  -1   7  13   28.30    4.40
   0  -7 -13    2.40    2.00
   0   7  13    0.00    1.80
  -1  -7 -13   20.60    3.90
   1   7  13   17.50    3.70
  -2  -7 -13    3.20    1.60
   2   7  13    8.40    2.50
  -3  -7 -13   -0.80    1.70
   3   7  13    0.10    1.20
  -4  -7 -13    3.60    1.60
   4   7  13    1.20    1.30
  -5  -7 -13    6.40    2.30
   5   7  13   -1.40    1.20
   1  -8 -13   17.70    3.70
  -1   8  13   15.90    3.60
   0  -8 -13    2.40    1.40
   0   8  13    1.30    1.70
  -1  -8 -13    4.50    2.40
   1   8  13    7.30    2.10
  -2  -8 -13    4.10    2.60
   2   8  13    2.20    2.20
  -3  -8 -13    2.20    1.90
   3   8  13    3.80    1.90
  -4  -8 -13   45.90    5.90
   4   8  13   54.69    4.70
   5   8  13    7.70    2.60
  -1  -9 -13   51.89    7.10
   1   9  13   55.29    5.10
  -2  -9 -13   10.20    3.20
   2   9  13    8.50    3.00
   3   9  13   16.00    3.50
   4   9  13    1.80    1.90
   0   1 -14    9.30    2.30
   0  -1  14   10.20    2.30
   1   0 -14   10.70    2.50
  -1   0  14   15.10    2.60
   0   0 -14   -1.50    1.40
   0   0  14    1.40    1.40
  -1   0 -14   35.80    4.30
   1   0  14   36.40    3.50
  -2   1  14   30.50    3.80
   1  -1 -14   21.00    3.20
  -1   1  14   20.00    3.10
   0  -1 -14    3.40    1.60
   0   1  14    6.10    1.80
  -1  -1 -14   22.40    3.40
   1   1  14   24.00    3.40
   2   1  14   -0.60    1.50
  -3   2  14    1.40    2.40
   2  -2 -14   31.20    4.20
  -2   2  14   24.30    3.70
   1  -2 -14    9.50    2.50
  -1   2  14   14.10    3.00
   0  -2 -14    4.50    1.80
   0   2  14    3.60    2.00
  -1  -2 -14   -1.40    1.30
   1   2  14    1.70    1.40
  -2  -2 -14   30.10    3.90
   2   2  14   26.20    3.30
  -3   3  14   51.19    4.80
   2  -3 -14   14.30    2.90
  -2   3  14    9.90    2.70
   1  -3 -14    1.30    1.90
  -1   3  14    2.80    1.60
   0  -3 -14    1.20    1.20
   0   3  14    2.10    1.40
  -1  -3 -14    5.80    2.20
   1   3  14    6.80    2.20
  -2  -3 -14   96.69    6.40
   2   3  14  101.09    5.80
  -3  -3 -14   73.59    5.60
   3   3  14   67.39    5.30
  -3   4  14    5.70    2.70
   2  -4 -14   77.89    7.30
  -2   4  14   78.89    6.00
   1  -4 -14    6.50    2.00
  -1   4  14    4.30    2.40
   0  -4 -14    2.10    1.90
   0   4  14    2.70    2.00
  -1  -4 -14   39.70    4.70
   1   4  14   23.60    3.30
  -2  -4 -14   51.79    5.00
   2   4  14   54.09    4.30
  -3  -4 -14   10.20    2.80
   3   4  14    7.50    2.20
  -4  -4 -14   14.10    3.20
  -2   5  14   28.80    4.30
   1  -5 -14   18.20    3.60
  -1   5  14   21.30    3.80
   0  -5 -14   26.90    4.20
   0   5  14   14.80    3.10
  -1  -5 -14   60.59    5.30
   1   5  14   52.99    4.90
  -2  -5 -14    2.60    1.80
   2   5  14    2.60    1.60
  -3  -5 -14  140.59    8.20
   3   5  14  137.49    7.00
  -4  -5 -14    5.30    2.20
   1  -6 -14   12.70    4.20
  -1   6  14   10.70    3.80
   0  -6 -14   60.89    5.30
   0   6  14   60.19    5.60
  -1  -6 -14    1.00    2.10
   1   6  14    1.90    2.10
  -2  -6 -14   61.29    5.60
   2   6  14   62.79    5.20
  -3  -6 -14    5.70    2.20
   3   6  14    4.60    2.10
  -4  -6 -14   12.50    2.80
  -1  -7 -14    9.40    3.30
   1   7  14   10.60    3.90
  -2  -7 -14    0.50    2.40
   2   7  14    1.50    1.90

_computing_structure_solution     'SHELXS-97 (Sheldrick, 1997)'
;
_shelx_hkl_checksum              48546
loop_
_space_group_symop_operation_xyz
'x, y, z'
'-x, -y, -z'
loop_
_atom_site_label
_atom_site_type_symbol
_atom_site_fract_x
_atom_site_fract_y
_atom_site_fract_z
_atom_site_U_iso_or_equiv
_atom_site_adp_type
_atom_site_occupancy
_atom_site_site_symmetry_order
_atom_site_calc_flag
_atom_site_refinement_flags_posn
_atom_site_refinement_flags_adp
S1 S 0.83955(5) 0.42681(5) 0.71292(4) 0.01326(11) Uani 1 1 d . .
S2 S 0.55717(6) 0.72968(5) 0.07320(4) 0.01785(12) Uani 1 1 d . .
Cl1 Cl 0.92952(7) 0.82964(6) -0.02124(5) 0.02602(13) Uani 1 1 d . .
O1 O 0.68054(18) 0.96698(13) 0.40915(13) 0.0178(2) Uani 1 1 d . .
O2 O 0.77715(19) 0.83360(15) 0.63496(13) 0.0192(3) Uani 1 1 d . .
C1 C 0.7636(2) 0.52545(18) 0.54023(16) 0.0108(3) Uani 1 1 d . .
C2 C 0.7220(2) 0.69167(18) 0.47000(16) 0.0109(3) Uani 1 1 d . .
C3 C 0.7324(2) 0.82974(19) 0.51956(17) 0.0136(3) Uani 1 1 d . .
C4 C 0.6294(2) 0.92813(19) 0.28467(17) 0.0160(3) Uani 1 1 d . .
H4A H 0.7107 0.9664 0.2022 0.019 Uiso 1 1 calc R U
H4B H 0.4947 0.9781 0.2579 0.019 Uiso 1 1 calc R U
C5 C 0.6617(2) 0.74740(18) 0.33022(16) 0.0113(3) Uani 1 1 d . .
C6 C 0.6409(2) 0.64329(18) 0.25210(16) 0.0118(3) Uani 1 1 d . .
C7 C 0.6826(2) 0.47534(18) 0.31940(16) 0.0115(3) Uani 1 1 d . .
C8 C 0.7444(2) 0.41767(18) 0.46338(16) 0.0111(3) Uani 1 1 d . .
C9 C 0.7944(2) 0.25275(18) 0.55217(18) 0.0138(3) Uani 1 1 d . .
H9A H 0.7916 0.1620 0.5203 0.017 Uiso 1 1 calc R U
C10 C 0.8460(2) 0.24110(19) 0.68617(18) 0.0161(3) Uani 1 1 d . .
H10A H 0.8821 0.1410 0.7583 0.019 Uiso 1 1 calc R U
C11 C 0.7738(3) 0.6966(2) -0.02328(18) 0.0216(3) Uani 1 1 d . .
H11A H 0.7424 0.7105 -0.1238 0.026 Uiso 1 1 calc R U
H11B H 0.8430 0.5834 0.0178 0.026 Uiso 1 1 calc R U
C12 C 0.6661(3) 0.3549(2) 0.24293(18) 0.0175(3) Uani 1 1 d . .
H12A H 0.6061 0.4122 0.1494 0.026 Uiso 1 1 calc R U
H12B H 0.5883 0.2814 0.2996 0.026 Uiso 1 1 calc R U
H12C H 0.7930 0.2927 0.2299 0.026 Uiso 1 1 calc R U
loop_
_atom_site_aniso_label
_atom_site_aniso_U_11
_atom_site_aniso_U_22
_atom_site_aniso_U_33
_atom_site_aniso_U_23
_atom_site_aniso_U_13
_atom_site_aniso_U_12
S1 0.01518(19) 0.01275(19) 0.01128(18) -0.00223(13) -0.00188(13) -0.00303(14)
S2 0.0209(2) 0.0197(2) 0.01192(19) -0.00327(15) -0.00407(14) -0.00296(16)
Cl1 0.0284(2) 0.0307(2) 0.0179(2) -0.00257(17) 0.00117(16) -0.01057(19)
O1 0.0308(7) 0.0087(5) 0.0148(5) -0.0045(4) 0.0001(5) -0.0043(5)
O2 0.0303(7) 0.0166(6) 0.0146(5) -0.0085(4) -0.0003(5) -0.0075(5)
C1 0.0113(6) 0.0105(6) 0.0108(6) -0.0032(5) -0.0006(5) -0.0025(5)
C2 0.0147(7) 0.0084(6) 0.0104(6) -0.0040(5) 0.0003(5) -0.0027(5)
C3 0.0181(7) 0.0107(7) 0.0132(7) -0.0050(5) 0.0019(5) -0.0038(5)
C4 0.0249(8) 0.0089(7) 0.0129(7) -0.0039(5) -0.0014(6) -0.0001(6)
C5 0.0136(6) 0.0087(6) 0.0112(6) -0.0035(5) 0.0012(5) -0.0012(5)
C6 0.0141(7) 0.0115(7) 0.0098(6) -0.0031(5) -0.0008(5) -0.0021(5)
C7 0.0123(6) 0.0115(6) 0.0124(6) -0.0053(5) 0.0004(5) -0.0037(5)
C8 0.0107(6) 0.0097(6) 0.0134(6) -0.0041(5) 0.0002(5) -0.0022(5)
C9 0.0144(7) 0.0080(6) 0.0185(7) -0.0029(5) -0.0005(5) -0.0023(5)
C10 0.0174(7) 0.0106(7) 0.0181(7) -0.0005(6) -0.0023(6) -0.0026(6)
C11 0.0324(9) 0.0199(8) 0.0129(7) -0.0054(6) 0.0031(6) -0.0065(7)
C12 0.0245(8) 0.0136(7) 0.0186(7) -0.0085(6) -0.0008(6) -0.0073(6)
loop_
_atom_type_symbol
_atom_type_description
_atom_type_scat_dispersion_real
_atom_type_scat_dispersion_imag
_atom_type_scat_source
C C 0.0033 0.0016 'International Tables Vol C Tables 4.2.6.8 and 6.1.1.4'
H H 0.0000 0.0000 'International Tables Vol C Tables 4.2.6.8 and 6.1.1.4'
O O 0.0106 0.0060 'International Tables Vol C Tables 4.2.6.8 and 6.1.1.4'
S S 0.1246 0.1234 'International Tables Vol C Tables 4.2.6.8 and 6.1.1.4'
Cl Cl 0.1484 0.1585 'International Tables Vol C Tables 4.2.6.8 and 6.1.1.4'
loop_
_geom_angle_atom_site_label_1
_geom_angle_atom_site_label_2
_geom_angle_atom_site_label_3
_geom_angle
C1 S1 C10 90.92(7)
C6 S2 C11 100.84(8)
C3 O1 C4 110.44(12)
C2 C1 C8 118.49(13)
C2 C1 S1 129.01(11)
C8 C1 S1 112.50(11)
C5 C2 C1 120.24(13)
C5 C2 C3 108.89(13)
C1 C2 C3 130.87(14)
O2 C3 O1 121.86(14)
O2 C3 C2 130.01(15)
O1 C3 C2 108.13(13)
O1 C4 C5 104.47(13)
O1 C4 H4A 110.9
C5 C4 H4A 110.9
O1 C4 H4B 110.9
C5 C4 H4B 110.9
H4A C4 H4B 108.9
C2 C5 C6 122.35(14)
C2 C5 C4 108.05(13)
C6 C5 C4 129.59(14)
C5 C6 C7 118.82(14)
C5 C6 S2 118.27(11)
C7 C6 S2 122.89(12)
C6 C7 C8 118.95(13)
C6 C7 C12 122.29(14)
C8 C7 C12 118.76(14)
C1 C8 C7 121.15(14)
C1 C8 C9 110.59(14)
C7 C8 C9 128.25(14)
C10 C9 C8 112.63(14)
C10 C9 H9A 123.7
C8 C9 H9A 123.7
C9 C10 S1 113.36(12)
C9 C10 H10A 123.3
S1 C10 H10A 123.3
S2 C11 Cl1 114.46(10)
S2 C11 H11A 108.6
Cl1 C11 H11A 108.6
S2 C11 H11B 108.6
Cl1 C11 H11B 108.6
H11A C11 H11B 107.6
C7 C12 H12A 109.5
C7 C12 H12B 109.5
H12A C12 H12B 109.5
C7 C12 H12C 109.5
H12A C12 H12C 109.5
H12B C12 H12C 109.5
loop_
_geom_bond_atom_site_label_1
_geom_bond_atom_site_label_2
_geom_bond_distance
S1 C1 1.7180(15)
S1 C10 1.7332(17)
S2 C6 1.7757(15)
S2 C11 1.7890(18)
Cl1 C11 1.8084(19)
O1 C3 1.363(2)
O1 C4 1.4512(19)
O2 C3 1.2074(19)
C1 C2 1.401(2)
C1 C8 1.414(2)
C2 C5 1.374(2)
C2 C3 1.463(2)
C4 C5 1.498(2)
C4 H4A 0.9900
C4 H4B 0.9900
C5 C6 1.399(2)
C6 C7 1.409(2)
C7 C8 1.414(2)
C7 C12 1.503(2)
C8 C9 1.440(2)
C9 C10 1.355(2)
C9 H9A 0.9500
C10 H10A 0.9500
C11 H11A 0.9900
C11 H11B 0.9900
C12 H12A 0.9800
C12 H12B 0.9800
C12 H12C 0.9800
loop_
_geom_torsion_atom_site_label_1
_geom_torsion_atom_site_label_2
_geom_torsion_atom_site_label_3
_geom_torsion_atom_site_label_4
_geom_torsion
C10 S1 C1 C2 -179.75(15)
C10 S1 C1 C8 -0.25(12)
C8 C1 C2 C5 0.8(2)
S1 C1 C2 C5 -179.69(12)
C8 C1 C2 C3 -178.51(15)
S1 C1 C2 C3 1.0(3)
C4 O1 C3 O2 -178.53(15)
C4 O1 C3 C2 1.48(18)
C5 C2 C3 O2 179.32(17)
C1 C2 C3 O2 -1.3(3)
C5 C2 C3 O1 -0.69(18)
C1 C2 C3 O1 178.72(15)
C3 O1 C4 C5 -1.64(18)
C1 C2 C5 C6 -0.6(2)
C3 C2 C5 C6 178.84(14)
C1 C2 C5 C4 -179.83(14)
C3 C2 C5 C4 -0.35(18)
O1 C4 C5 C2 1.18(17)
O1 C4 C5 C6 -177.93(15)
C2 C5 C6 C7 0.3(2)
C4 C5 C6 C7 179.28(16)
C2 C5 C6 S2 178.75(12)
C4 C5 C6 S2 -2.3(2)
C11 S2 C6 C5 102.83(13)
C11 S2 C6 C7 -78.78(15)
C5 C6 C7 C8 -0.2(2)
S2 C6 C7 C8 -178.54(11)
C5 C6 C7 C12 -179.35(14)
S2 C6 C7 C12 2.3(2)
C2 C1 C8 C7 -0.7(2)
S1 C1 C8 C7 179.72(11)
C2 C1 C8 C9 179.55(14)
S1 C1 C8 C9 0.00(16)
C6 C7 C8 C1 0.4(2)
C12 C7 C8 C1 179.61(14)
C6 C7 C8 C9 -179.94(15)
C12 C7 C8 C9 -0.7(2)
C1 C8 C9 C10 0.36(19)
C7 C8 C9 C10 -179.34(15)
C8 C9 C10 S1 -0.56(19)
C1 S1 C10 C9 0.47(13)
C6 S2 C11 Cl1 -74.62(11)
