#------------------------------------------------------------------------------
#$Date: 2019-11-08 04:09:26 +0200 (Fri, 08 Nov 2019) $
#$Revision: 225308 $
#$URL: file:///home/coder/svn-repositories/cod/cif/7/15/66/7156612.cif $
#------------------------------------------------------------------------------
#
# This file is available in the Crystallography Open Database (COD),
# http://www.crystallography.net/
#
# All data on this site have been placed in the public domain by the
# contributors.
#
data_7156612
loop_
_publ_author_name
'McCaw, Patrick G.'
'Khandavilli, U. B. Rao'
'Lawrence, Simon E.'
'Maguire, Anita R.'
'Collins, Stuart G.'
_publ_section_title
;
 Synthesis of 1,2,5-oxathiazole-S-oxides by 1,3-dipolar cycloadditions of
 nitrile oxides to \a-oxo sulfines.
;
_journal_issue                   3
_journal_name_full               'Organic &amp; biomolecular chemistry'
_journal_page_first              622
_journal_page_last               638
_journal_paper_doi               10.1039/c8ob02691b
_journal_volume                  17
_journal_year                    2019
_chemical_formula_moiety         'C16 H10 N2 O5 S'
_chemical_formula_sum            'C16 H10 N2 O5 S'
_chemical_formula_weight         342.32
_chemical_name_common
4'-(4-nitrophenyl)spiro[indene-2,5'-[1,4,2]oxathiazol]-1(3H)-one-4'-oxide
_space_group_crystal_system      triclinic
_space_group_IT_number           2
_space_group_name_Hall           '-P 1'
_space_group_name_H-M_alt        'P -1'
_symmetry_space_group_name_Hall  '-P 1'
_symmetry_space_group_name_H-M   'P -1'
_atom_sites_solution_hydrogens   geom
_audit_update_record
;
2018-10-26 deposited with the CCDC.
2018-12-12 downloaded from the CCDC.
;
_cell_angle_alpha                74.726(4)
_cell_angle_beta                 86.674(5)
_cell_angle_gamma                72.819(4)
_cell_formula_units_Z            2
_cell_length_a                   7.5520(11)
_cell_length_b                   8.2283(11)
_cell_length_c                   12.8010(18)
_cell_measurement_reflns_used    5153
_cell_measurement_temperature    300.(2)
_cell_measurement_theta_max      26.1366
_cell_measurement_theta_min      2.6782
_cell_volume                     732.95(18)
_computing_cell_refinement       'SAINT V8.34A (Bruker AXS Inc., 2013)'
_computing_data_reduction        'SAINT V8.34A (Bruker AXS Inc., 2013)'
_computing_structure_refinement  'SHELXL-2014/6 (Sheldrick, 2014)'
_diffrn_ambient_temperature      300.(2)
_diffrn_detector_area_resol_mean 8.3330
_diffrn_measured_fraction_theta_full 0.985
_diffrn_measured_fraction_theta_max 0.985
_diffrn_measurement_device_type  'Bruker SMART X2S'
_diffrn_measurement_method       '\w scans'
_diffrn_radiation_monochromator  'doubly curved silicon crystal'
_diffrn_radiation_type           MoK\a
_diffrn_radiation_wavelength     0.71073
_diffrn_reflns_av_R_equivalents  0.0445
_diffrn_reflns_av_unetI/netI     0.0329
_diffrn_reflns_limit_h_max       9
_diffrn_reflns_limit_h_min       -9
_diffrn_reflns_limit_k_max       10
_diffrn_reflns_limit_k_min       -10
_diffrn_reflns_limit_l_max       15
_diffrn_reflns_limit_l_min       -15
_diffrn_reflns_number            15211
_diffrn_reflns_theta_full        26.40
_diffrn_reflns_theta_max         26.40
_diffrn_reflns_theta_min         2.68
_diffrn_source                   'micro-focus sealed tube'
_diffrn_source_type              'Bruker X2S'
_exptl_absorpt_coefficient_mu    0.252
_exptl_absorpt_correction_T_max  0.95
_exptl_absorpt_correction_T_min  0.75
_exptl_absorpt_correction_type   multi-scan
_exptl_absorpt_process_details   'SADABS V2014/4 (Bruker AXS Inc.)'
_exptl_crystal_colour            'clear colourless'
_exptl_crystal_density_diffrn    1.551
_exptl_crystal_density_method    'not measured'
_exptl_crystal_description       PLATE
_exptl_crystal_F_000             352
_exptl_crystal_size_max          0.498
_exptl_crystal_size_mid          0.385
_exptl_crystal_size_min          0.184
_refine_diff_density_max         0.358
_refine_diff_density_min         -0.405
_refine_ls_extinction_method     none
_refine_ls_goodness_of_fit_ref   1.054
_refine_ls_hydrogen_treatment    constr
_refine_ls_matrix_type           full
_refine_ls_number_parameters     217
_refine_ls_number_reflns         2960
_refine_ls_number_restraints     1
_refine_ls_restrained_S_all      1.057
_refine_ls_R_factor_all          0.0643
_refine_ls_R_factor_gt           0.0510
_refine_ls_shift/su_max          0.001
_refine_ls_shift/su_mean         0.000
_refine_ls_structure_factor_coef Fsqd
_refine_ls_weighting_details
'w=1/[\s^2^(Fo^2^)+(0.1207P)^2^] where P=(Fo^2^+2Fc^2^)/3'
_refine_ls_weighting_scheme      calc
_refine_ls_wR_factor_gt          0.1583
_refine_ls_wR_factor_ref         0.1729
_reflns_number_gt                2275
_reflns_number_total             2960
_reflns_threshold_expression     'I > 2\s(I)'
_cod_data_source_file            c8ob02691b2.cif
_cod_data_source_block           I
_cod_depositor_comments
'Adding full bibliography for 7156612--7156616.cif.'
_cod_database_code               7156612
_shelx_res_file
;
TITL ARM_UK_PMC_2829_a.res in P-1
CELL  0.71073   7.5520   8.2283  12.8010   74.726   86.674   72.819
ZERR    2.000   0.0011   0.0011   0.0018    0.004    0.005    0.004
LATT 1
SFAC C  H  N  O  S
UNIT 32  20  4  10  2
OMIT 0 0 1
L.S. 5
ACTA
BOND $H
FMAP 2
PLAN 5
HTAB C14 O6
SIZE 0.184 0.385 0.498
HTAB
DELU 0.002 S2 O6
CONF
TEMP 27.000
WGHT    0.120700
FVAR       1.11270
O1    4    0.682641    0.949776    0.248950    11.00000    0.07163    0.06910 =
         0.05920   -0.02452    0.01721   -0.04832
S2    5    0.724993    0.791474    0.184843    11.00000    0.05968    0.06962 =
         0.04634   -0.02159    0.01275   -0.03619
C3    1    0.497408    0.756353    0.227537    11.00000    0.04651    0.04146 =
         0.03624   -0.00959    0.00175   -0.01962
C4    1    0.459642    0.832009    0.323805    11.00000    0.04559    0.04140 =
         0.03718   -0.01068   -0.00345   -0.01774
N5    3    0.552007    0.935075    0.334768    11.00000    0.06087    0.06079 =
         0.04730   -0.02215    0.01077   -0.03563
O6    4    0.866919    0.637738    0.245254    11.00000    0.04505    0.08435 =
         0.08579   -0.03146   -0.00264   -0.01559
C7    1    0.357594    0.867651    0.131173    11.00000    0.05571    0.03384 =
         0.03581   -0.00693   -0.00085   -0.01542
C8    1    0.305610    0.742078    0.086140    11.00000    0.04080    0.04052 =
         0.03310   -0.01007    0.00204   -0.01521
C9    1    0.191880    0.776716   -0.004494    11.00000    0.04195    0.05681 =
         0.03936   -0.00932   -0.00163   -0.01532
AFIX  43
H9    2    0.135785    0.891580   -0.043989    11.00000   -1.20000
AFIX   0
C10   1    0.165729    0.635824   -0.033263    11.00000    0.04740    0.08162 =
         0.04555   -0.02468    0.00373   -0.03349
AFIX  43
H10   2    0.093103    0.655285   -0.094099    11.00000   -1.20000
AFIX   0
C11   1    0.246185    0.465148    0.027214    11.00000    0.05691    0.06203 =
         0.05546   -0.03089    0.01389   -0.03537
AFIX  43
H11   2    0.225095    0.372031    0.006653    11.00000   -1.20000
AFIX   0
C12   1    0.356845    0.429997    0.117209    11.00000    0.04682    0.04216 =
         0.04948   -0.01748    0.01400   -0.02231
AFIX  43
H12   2    0.410113    0.314876    0.157260    11.00000   -1.20000
AFIX   0
C13   1    0.386668    0.570849    0.146468    11.00000    0.03584    0.03744 =
         0.04044   -0.01302    0.00910   -0.01566
C14   1    0.502967    0.564113    0.240070    11.00000    0.04526    0.03723 =
         0.04097   -0.00930    0.00289   -0.01476
AFIX  23
H14A  2    0.629143    0.491378    0.236447    11.00000   -1.20000
H14B  2    0.451401    0.517158    0.308586    11.00000   -1.20000
AFIX   0
O15   4    0.313190    1.025373    0.102130    11.00000    0.10655    0.03381 =
         0.05955   -0.00743   -0.01605   -0.01445
C16   1    0.317282    0.801309    0.404959    11.00000    0.04421    0.03793 =
         0.03857   -0.00936   -0.00122   -0.01534
C17   1    0.168141    0.748991    0.380555    11.00000    0.05027    0.05458 =
         0.04041   -0.01680    0.00090   -0.02346
AFIX  43
H17   2    0.159074    0.730032    0.312838    11.00000   -1.20000
AFIX   0
C18   1    0.033764    0.725160    0.456403    11.00000    0.04209    0.04808 =
         0.04980   -0.01199   -0.00128   -0.01853
AFIX  43
H18   2   -0.064078    0.687617    0.440906    11.00000   -1.20000
AFIX   0
C19   1    0.047382    0.757939    0.555077    11.00000    0.04430    0.03450 =
         0.04157   -0.00507    0.00299   -0.00988
C20   1    0.192309    0.812081    0.581677    11.00000    0.05326    0.03876 =
         0.03328   -0.00840   -0.00280   -0.01214
AFIX  43
H20   2    0.197597    0.834745    0.648690    11.00000   -1.20000
AFIX   0
C21   1    0.327824    0.831589    0.507212    11.00000    0.04472    0.04051 =
         0.03902   -0.00965   -0.00379   -0.01633
AFIX  43
H21   2    0.427404    0.865103    0.524539    11.00000   -1.20000
AFIX   0
N22   3   -0.099028    0.738098    0.634779    11.00000    0.05117    0.04762 =
         0.04810   -0.00462    0.00535   -0.01222
O23   4   -0.089332    0.778125    0.719253    11.00000    0.07905    0.08450 =
         0.05080   -0.02125    0.01928   -0.02799
O24   4   -0.222314    0.684675    0.611435    11.00000    0.05517    0.08783 =
         0.07421   -0.01926    0.01272   -0.03429
HKLF 4

REM  ARM_UK_PMC_2829_a.res in P-1
REM R1 =  0.0510 for    2275 Fo > 4sig(Fo)  and  0.0643 for all    2960 data
REM    217 parameters refined using      1 restraints

END

WGHT      0.1222      0.0000

REM Instructions for potential hydrogen bonds
HTAB C14 O6

REM Highest difference peak  0.358,  deepest hole -0.405,  1-sigma level  0.077
Q1    1  -0.1953  0.7431  0.7850  11.00000  0.05    0.27
Q2    1   0.5393  0.4819  0.3038  11.00000  0.05    0.27
Q3    1   0.1753  0.8352 -0.0231  11.00000  0.05    0.26
Q4    1   0.2472  0.7554  0.0599  11.00000  0.05    0.25
Q5    1   0.6555  0.9081  0.1491  11.00000  0.05    0.23
;
_shelx_res_checksum              43903
_shelx_hkl_file
;
   1   0   0  313.37   14.40
  -2   0   0 2553.44  112.59
  -2   0   0 2407.46  114.49
  -2   0   0 2527.95  112.59
  -2   0   0 2461.65  113.99
  -2   0   0 2498.35  111.79
  -2   0   0 2496.85  111.69
   2   0   0 2454.75  111.69
   2   0   0 2516.65  111.99
   2   0   0 2475.95  112.49
   2   0   0 2587.14  114.09
   2   0   0 2403.96  114.59
   2   0   0 2465.55  112.49
  -3   0   0    7.70    2.70
  -3   0   0    6.00    1.50
  -3   0   0    4.50    0.90
  -3   0   0    5.30    3.40
  -3   0   0    4.20    0.90
  -3   0   0    3.90    1.40
   3   0   0    3.70    0.80
   3   0   0    5.80    1.20
   3   0   0    5.20    1.40
   3   0   0    2.70    2.50
   3   0   0    4.30    1.30
  -4   0   0   11.10    1.30
  -4   0   0   14.50    2.60
  -4   0   0   10.90    3.70
  -4   0   0   11.30    1.60
   4   0   0   10.20    1.90
   4   0   0   11.00    2.30
   4   0   0   12.10    3.90
   4   0   0   11.70    1.40
  -5   0   0  345.17   18.50
  -5   0   0  353.16   22.00
  -5   0   0  339.87   16.00
  -5   0   0  333.77   16.70
   5   0   0  354.96   18.40
   5   0   0  333.67   22.60
   5   0   0  331.47   17.60
  -6   0   0   85.29   10.30
  -6   0   0   81.89    7.10
   6   0   0   79.29   10.50
   6   0   0   65.39    6.00
   6   0   0   86.19    7.10
  -7   0   0    5.70    3.10
  -7   0   0    1.10    3.70
   7   0   0    0.30    2.20
   7   0   0    3.00    4.30
  -8   0   0    3.10    3.00
  -8   0   0    0.10    4.40
   8   0   0    3.80    2.70
   8   0   0   -0.50    4.30
  -9   0   0    7.50    4.20
   9   0   0    7.40    6.80
   8  -1   0   47.40   11.20
   8  -1   0   44.10    7.10
  -8   1   0   47.10    6.50
  -8   1   0   41.30    9.60
   7  -1   0  215.98   19.00
   7  -1   0  193.38   13.50
  -7   1   0  198.88   17.80
  -7   1   0  195.38   13.10
   6  -1   0   92.39   11.30
   6  -1   0   88.49    6.30
   6  -1   0   86.99    7.60
  -6   1   0   90.09   10.80
  -6   1   0   85.19    7.20
   5  -1   0    5.50    2.30
   5  -1   0    5.30    3.40
   5  -1   0    6.60    1.90
  -5   1   0    3.30    3.20
  -5   1   0    3.60    1.30
  -5   1   0    4.40    2.00
   4  -1   0  192.88   11.10
   4  -1   0  183.28   14.00
   4  -1   0  184.58   10.30
   4  -1   0  184.48   10.30
  -4   1   0  199.28    9.70
  -4   1   0  187.78   13.50
  -4   1   0  186.58   10.60
   3  -1   0  212.18   11.10
   3  -1   0  217.58   11.00
   3  -1   0  190.98   13.70
   3  -1   0  215.88   11.60
  -3   1   0  215.58   11.20
  -3   1   0  219.28   13.60
  -3   1   0  227.38   10.80
  -3   1   0  218.38   11.60
   2  -1   0    6.70    2.30
   2  -1   0    6.30    1.00
   2  -1   0    5.20    1.20
   2  -1   0    6.00    1.40
   2  -1   0    4.90    1.80
  -2   1   0    4.30    1.20
  -2   1   0    5.20    1.90
  -2   1   0    4.90    1.00
  -2   1   0    4.20    2.00
  -2   1   0    4.40    1.20
   1  -1   0  619.34   30.30
   1  -1   0  659.13   30.00
   1  -1   0  620.04   29.10
   1  -1   0  652.83   29.60
   1  -1   0  626.14   28.80
   1  -1   0  587.14   28.80
  -1   1   0  645.84   30.50
  -1   1   0  632.34   28.90
  -1   1   0  668.63   29.50
  -1   1   0  651.33   28.80
  -1   1   0  664.53   30.00
  -1   1   0  619.24   29.20
   0  -1   0   32.50    3.90
  -1  -1   0  346.17   16.90
  -1  -1   0  365.06   17.80
   1   1   0  351.56   16.80
   1   1   0  354.76   16.60
   1   1   0  357.06   17.20
  -2  -1   0  670.33   31.50
  -2  -1   0  679.23   31.00
  -2  -1   0  647.14   33.10
  -2  -1   0  685.83   32.70
  -2  -1   0  666.63   31.00
  -2  -1   0  678.53   31.60
   2   1   0  659.13   30.90
   2   1   0  637.74   31.40
   2   1   0  709.33   32.70
   2   1   0  670.33   31.60
   2   1   0  660.83   30.90
   2   1   0  692.43   33.40
  -3  -1   0 1509.95   67.69
  -3  -1   0 1481.95   68.59
  -3  -1   0 1531.15   67.59
  -3  -1   0 1583.94   68.59
  -3  -1   0 1461.55   70.39
  -3  -1   0 1374.46   70.89
   3   1   0 1529.75   68.59
   3   1   0 1507.45   67.49
   3   1   0 1453.45   67.39
   3   1   0 1451.15   71.29
   3   1   0 1447.56   68.39
  -4  -1   0   70.69    4.50
  -4  -1   0   66.69    7.30
  -4  -1   0   72.99    4.60
  -4  -1   0   73.19    5.70
   4   1   0   71.59    5.50
   4   1   0   68.59    4.30
   4   1   0   66.49    4.30
   4   1   0   64.09    7.70
  -5  -1   0  738.93   35.90
  -5  -1   0  712.13   33.80
  -5  -1   0  670.53   38.60
  -5  -1   0  723.73   34.00
   5   1   0  757.52   33.80
   5   1   0  699.53   40.20
   5   1   0  726.53   35.50
   5   1   0  725.93   33.90
  -6  -1   0  302.57   17.20
  -6  -1   0  278.47   14.50
  -6  -1   0  302.67   20.70
   6   1   0  262.27   21.20
   6   1   0  289.07   15.20
   6   1   0  300.87   16.80
  -7  -1   0  646.84   34.50
  -7  -1   0  679.63   39.50
   7   1   0  694.23   41.50
   7   1   0  660.53   34.20
   7   1   0  629.74   32.50
  -8  -1   0   37.50    9.10
  -8  -1   0   47.90    7.10
   8   1   0   48.30    6.70
   8   1   0   55.99   12.10
  -9  -1   0    3.70    3.60
  -9  -1   0   -2.20    4.30
   9   1   0   -0.60    5.10
   9   1   0    1.20    3.20
   8  -2   0   75.59   10.00
  -8   2   0   89.29   14.30
   7  -2   0   11.10    6.00
   7  -2   0    8.50    3.50
  -7   2   0   13.50    6.20
  -7   2   0   11.80    4.30
   6  -2   0    9.10    5.00
   6  -2   0   10.00    3.20
  -6   2   0    7.70    2.50
  -6   2   0    8.50    4.60
   5  -2   0  167.08   14.30
   5  -2   0  164.38   11.20
   5  -2   0  163.48    9.30
  -5   2   0  168.78    9.10
  -5   2   0  176.08   14.00
  -5   2   0  168.28   10.10
   4  -2   0    9.50    1.80
   4  -2   0    9.20    2.50
   4  -2   0    5.50    3.20
   4  -2   0    5.80    1.50
  -4   2   0    7.70    1.90
  -4   2   0    8.50    1.80
  -4   2   0    9.50    3.60
   3  -2   0   84.99    5.10
   3  -2   0   86.09    6.30
   3  -2   0   82.49    4.90
   3  -2   0   83.89    7.80
  -3   2   0   89.09    7.60
  -3   2   0   85.99    5.10
  -3   2   0   73.89    5.70
   2  -2   0    9.70    1.50
   2  -2   0   11.90    1.20
   2  -2   0   10.90    2.30
  -2   2   0    6.30    1.70
  -2   2   0    9.50    2.80
  -2   2   0   10.60    1.30
  -2   2   0    7.40    2.20
  -2   2   0   10.70    2.40
  -2   2   0   12.10    2.10
  -2   2   0   11.50    1.10
  -2   2   0    5.80    1.50
   1  -2   0 5302.97  240.68
   1  -2   0 5245.88  240.88
   1  -2   0 5063.69  241.58
  -1   2   0 5321.37  240.58
  -1   2   0 5533.15  242.38
  -1   2   0 5319.77  241.38
  -1   2   0 5289.47  240.88
  -1   2   0 5351.26  241.48
  -1   2   0 5575.34  245.48
  -1   2   0 5604.54  240.38
   0  -2   0 7068.09  322.47
   0  -2   0 7059.49  322.57
   0  -2   0 7457.25  322.17
   0  -2   0 6349.56  324.47
   0   2   0 7576.74  322.47
   0   2   0 7271.27  322.17
   0   2   0 7249.77  322.47
   0   2   0 7421.56  324.37
  -1  -2   0 1603.54   74.49
  -1  -2   0 1703.43   74.79
  -1  -2   0 1669.73   74.69
  -1  -2   0 1619.34   75.59
  -1  -2   0 1558.84   74.69
  -1  -2   0 1594.44   74.79
   1   2   0 1598.64   74.59
   1   2   0 1642.84   76.69
   1   2   0 1718.33   75.49
   1   2   0 1690.03   74.79
   1   2   0 1674.63   74.79
  -2  -2   0  389.36   20.60
  -2  -2   0  394.06   20.50
  -2  -2   0  415.66   20.30
  -2  -2   0  425.56   19.90
  -2  -2   0  404.16   22.10
  -2  -2   0  409.76   20.90
   2   2   0  402.26   19.90
   2   2   0  421.56   19.80
   2   2   0  406.96   19.90
   2   2   0  395.46   20.30
   2   2   0  426.26   21.90
   2   2   0  424.96   20.30
  -3  -2   0  297.27   17.00
  -3  -2   0  285.47   16.00
  -3  -2   0  295.77   17.30
  -3  -2   0  325.07   15.50
  -3  -2   0  295.17   18.20
  -3  -2   0  296.97   15.30
   3   2   0  318.87   16.00
   3   2   0  330.37   18.70
   3   2   0  302.97   15.30
   3   2   0  310.07   15.20
  -4  -2   0  490.45   24.80
  -4  -2   0  474.45   23.50
  -4  -2   0  499.85   23.60
  -4  -2   0  474.45   26.70
   4   2   0  472.75   23.20
   4   2   0  452.75   24.20
   4   2   0  498.85   28.10
   4   2   0  492.85   23.30
  -5  -2   0    1.90    2.50
  -5  -2   0    0.90    1.40
  -5  -2   0   -1.40    1.60
   5   2   0    1.10    1.10
   5   2   0   -0.40    1.30
   5   2   0    1.90    2.90
  -6  -2   0   43.20    4.30
  -6  -2   0   59.09    6.40
  -6  -2   0   56.39    8.80
   6   2   0   49.00    4.20
   6   2   0   54.89    9.80
   6   2   0   58.09    6.60
  -7  -2   0   -1.50    1.40
  -7  -2   0   -1.20    2.20
  -7  -2   0    2.20    4.10
   7   2   0   -2.00    2.00
   7   2   0   -1.10    3.80
   7   2   0    0.60    1.70
  -8  -2   0   13.00    4.20
  -8  -2   0   13.00    6.30
   8   2   0   16.40    4.10
   8   2   0   16.70    7.90
  -9  -2   0   21.50    5.80
  -9  -2   0   23.40    8.50
   9   2   0   31.60   10.40
   9   2   0   21.90    5.30
   7  -3   0  129.39   12.40
  -7   3   0  155.58   21.90
  -7   3   0  154.68   15.40
   6  -3   0    0.40    2.40
  -6   3   0    4.80    4.10
  -6   3   0    2.90    6.30
   5  -3   0   -0.40    1.40
   5  -3   0   -0.60    2.10
  -5   3   0    0.30    1.30
  -5   3   0    0.90    4.40
  -5   3   0    1.30    3.00
   4  -3   0   32.80    3.40
   4  -3   0   24.70    4.20
  -4   3   0   28.40    2.90
  -4   3   0   25.90    7.90
  -4   3   0   22.30    4.90
   3  -3   0   69.09    4.90
   3  -3   0   68.19    6.10
  -3   3   0   82.09   10.50
  -3   3   0   73.79    4.30
  -3   3   0   53.29    5.00
  -3   3   0   65.39    6.70
  -3   3   0   66.79    3.70
  -3   3   0   56.59    5.50
   2  -3   0    2.20    1.00
   2  -3   0    0.00    1.40
   2  -3   0    2.70    1.30
  -2   3   0    1.20    1.20
  -2   3   0    2.00    0.90
  -2   3   0    1.40    1.40
  -2   3   0    2.30    0.80
  -2   3   0    1.60    3.10
  -2   3   0    0.70    0.60
  -2   3   0    2.50    1.70
   1  -3   0 1345.17   63.29
   1  -3   0 1386.46   63.59
  -1   3   0 1377.06   63.49
  -1   3   0 1403.96   63.19
  -1   3   0 1389.96   62.59
  -1   3   0 1390.86   64.39
  -1   3   0 1414.66   63.39
  -1   3   0 1257.77   67.19
  -1   3   0 1371.06   63.49
  -1   3   0 1470.25   65.29
   0  -3   0  475.25   22.90
   0  -3   0  503.95   22.50
   0  -3   0  465.65   23.10
   0   3   0  467.45   22.80
   0   3   0  469.95   25.10
   0   3   0  481.45   22.90
   0   3   0  469.35   22.40
  -1  -3   0   17.40    3.40
  -1  -3   0   33.70    3.10
  -1  -3   0   31.50    2.30
  -1  -3   0   30.40    2.90
  -1  -3   0   32.60    2.40
   1   3   0   29.50    5.50
   1   3   0   28.50    2.90
   1   3   0   24.70    3.50
   1   3   0   32.90    3.00
   1   3   0   30.10    2.90
  -2  -3   0  258.77   13.30
  -2  -3   0  258.47   13.10
  -2  -3   0  205.68   16.10
  -2  -3   0  248.08   13.40
  -2  -3   0  226.68   13.00
  -2  -3   0  246.78   14.00
   2   3   0  236.38   13.10
   2   3   0  254.17   13.70
   2   3   0  266.17   15.10
   2   3   0  248.18   13.10
   2   3   0  256.87   13.40
   2   3   0  241.28   12.90
  -3  -3   0   46.40    4.20
  -3  -3   0   50.59    5.10
  -3  -3   0   49.60    4.70
  -3  -3   0   45.50    6.60
  -3  -3   0   46.40    5.20
   3   3   0   47.00    4.40
   3   3   0   48.50    6.10
   3   3   0   46.80    4.20
  -4  -3   0  114.69    8.30
  -4  -3   0  105.89    7.30
  -4  -3   0  113.09    9.50
   4   3   0  112.69   10.40
   4   3   0  109.69    7.20
   4   3   0  118.19    8.00
  -5  -3   0  133.79    8.30
  -5  -3   0  123.39    9.30
  -5  -3   0  119.19   11.00
   5   3   0  139.59    9.40
   5   3   0  114.59    7.80
   5   3   0  136.29   12.70
  -6  -3   0    2.10    2.70
  -6  -3   0   -1.80    1.30
  -6  -3   0    0.30    2.60
   6   3   0    0.10    1.60
   6   3   0   -0.20    1.20
   6   3   0   -2.80    3.10
  -7  -3   0  317.97   20.10
  -7  -3   0  327.77   17.70
  -7  -3   0  313.47   23.20
   7   3   0  358.76   26.10
   7   3   0  319.47   17.30
   7   3   0  328.37   19.60
  -8  -3   0   -1.60    2.40
  -8  -3   0    2.50    2.00
  -8  -3   0    1.80    4.20
   8   3   0    2.20    4.70
   8   3   0    0.60    2.30
   8   3   0    1.00    2.60
  -9  -3   0    3.50    5.00
  -9  -3   0    2.10    3.70
   9   3   0    6.20    3.80
   9   3   0   -0.20    5.50
   7  -4   0    4.30    4.40
  -7   4   0    6.30    4.80
  -7   4   0   13.40   10.60
   6  -4   0   -2.90    3.10
  -6   4   0   -1.40    3.20
  -6   4   0    0.80    6.50
   5  -4   0   92.79    6.60
   5  -4   0   91.49    8.80
  -5   4   0   69.49    9.20
  -5   4   0   82.99   16.70
   4  -4   0    6.30    2.10
   4  -4   0    7.70    3.20
  -4   4   0    7.70    1.50
  -4   4   0    3.80    6.10
  -4   4   0    7.80    3.60
   3  -4   0  124.49    6.70
   3  -4   0  128.89    7.90
   3  -4   0  118.99    9.10
  -3   4   0  116.79    6.20
  -3   4   0  130.39   15.60
  -3   4   0  113.39    6.40
  -3   4   0  115.49    6.20
  -3   4   0  122.49    9.30
   2  -4   0  131.89    7.90
   2  -4   0  147.19    9.70
   2  -4   0  155.78    8.90
  -2   4   0  137.39    9.00
  -2   4   0  137.19    7.00
  -2   4   0  140.69    6.90
  -2   4   0  152.78    9.10
  -2   4   0  139.79    7.80
   1  -4   0  676.63   32.50
   1  -4   0  658.83   32.00
  -1   4   0  645.14   31.00
  -1   4   0  680.63   36.90
  -1   4   0  662.43   31.50
  -1   4   0  637.94   31.70
  -1   4   0  720.03   34.20
  -1   4   0  699.43   31.70
   0  -4   0 1170.18   67.09
   0  -4   0 1353.36   62.59
   0  -4   0 1362.06   62.39
   0  -4   0 1438.56   61.79
   0   4   0 1408.26   65.39
   0   4   0 1331.17   61.49
  -1  -4   0   90.29    6.20
  -1  -4   0   83.49    6.00
  -1  -4   0   87.59    5.70
   1   4   0   88.29    7.30
   1   4   0   83.79    5.60
   1   4   0   65.09    8.80
  -2  -4   0   84.89    6.10
  -2  -4   0   76.49    5.50
  -2  -4   0   78.09    6.00
  -2  -4   0   88.89    5.80
   2   4   0   81.19    8.00
   2   4   0   78.69    6.70
   2   4   0   79.39    6.20
  -3  -4   0    0.30    1.60
  -3  -4   0    0.40    1.60
  -3  -4   0    0.50    1.70
  -3  -4   0   -0.30    1.40
   3   4   0    0.90    2.00
   3   4   0   -1.60    1.20
   3   4   0   -0.30    1.30
  -4  -4   0 1133.39   55.79
  -4  -4   0 1115.19   56.79
  -4  -4   0 1200.28   55.09
   4   4   0 1127.19   54.89
   4   4   0 1174.18   58.99
   4   4   0 1212.08   55.99
  -5  -4   0   39.80    6.00
  -5  -4   0   34.40    6.30
  -5  -4   0   48.20    5.40
   5   4   0   34.30    4.40
   5   4   0   34.70    4.80
   5   4   0   33.90    7.20
  -6  -4   0   49.50    8.60
  -6  -4   0   53.19    7.40
  -6  -4   0   55.39    6.10
   6   4   0   50.29    5.00
   6   4   0   42.20    5.90
   6   4   0   57.69   10.30
  -7  -4   0  109.39    8.70
  -7  -4   0  129.29   11.00
  -7  -4   0  123.89   13.10
   7   4   0  118.39    8.30
   7   4   0  128.79   10.40
   7   4   0  119.89   14.50
  -8  -4   0   38.10    5.40
  -8  -4   0   45.30    9.70
  -8  -4   0   44.30    7.70
   8   4   0   36.60    4.80
   8   4   0   33.00    9.60
   8   4   0   30.20    5.80
  -9  -4   0    1.20    4.00
  -9  -4   0   -1.20    4.20
   9   4   0   -2.20    5.10
   9   4   0   -1.90    3.10
   6  -5   0    3.00    3.80
  -6   5   0    2.10    7.50
   5  -5   0   10.90    4.60
  -5   5   0    2.00    6.70
  -5   5   0   11.20    4.90
   4  -5   0   12.40    3.00
   4  -5   0    9.00    3.60
  -4   5   0    5.90    7.00
  -4   5   0    7.90    3.70
   3  -5   0    2.10    1.40
   3  -5   0    1.60    1.70
  -3   5   0    0.70    2.20
  -3   5   0    1.60    5.20
   2  -5   0  447.36   22.50
   2  -5   0  464.65   23.40
  -2   5   0  459.55   29.60
  -2   5   0  443.96   23.10
  -2   5   0  452.55   23.00
   1  -5   0   23.10    3.20
   1  -5   0   22.80    3.80
   1  -5   0   19.10    2.90
  -1   5   0   24.70    2.30
  -1   5   0   36.30    7.20
  -1   5   0    7.30    5.40
   0  -5   0  717.23   35.20
   0  -5   0  692.23   40.30
   0  -5   0  699.03   34.80
   0  -5   0  761.52   34.10
   0   5   0  741.03   38.20
   0   5   0  690.33   33.70
  -1  -5   0  515.75   25.50
  -1  -5   0  496.65   25.60
  -1  -5   0  514.05   24.90
   1   5   0  524.15   27.60
   1   5   0  470.15   24.60
  -2  -5   0    7.10    1.70
  -2  -5   0    7.10    2.30
  -2  -5   0    3.90    4.00
  -2  -5   0    6.60    2.10
  -2  -5   0    5.00    1.60
   2   5   0    4.40    3.40
   2   5   0    6.10    2.90
  -3  -5   0   29.00    4.10
  -3  -5   0   26.00    4.10
  -3  -5   0   33.40    4.70
  -3  -5   0   29.20    4.30
   3   5   0   30.80    4.90
   3   5   0   26.50    4.30
   3   5   0   32.30    6.20
  -4  -5   0   49.40    5.70
  -4  -5   0   51.09    6.10
  -4  -5   0   53.39    6.00
   4   5   0   47.80    7.40
   4   5   0   48.00    5.60
   4   5   0   53.49    6.50
  -5  -5   0  139.59   10.80
  -5  -5   0  147.69   11.90
  -5  -5   0  151.28   10.20
   5   5   0  146.19   10.70
   5   5   0  134.29   13.10
   5   5   0  129.79    9.60
  -6  -5   0  196.48   14.10
  -6  -5   0  174.68   15.10
  -6  -5   0  191.28   12.70
   6   5   0  209.18   14.00
   6   5   0  202.08   17.90
   6   5   0  204.78   12.50
  -7  -5   0   20.40    5.30
  -7  -5   0    8.70    3.20
  -7  -5   0   11.90    5.40
   7   5   0   22.40    7.60
   7   5   0    8.10    2.70
   7   5   0   11.10    3.80
  -8  -5   0   38.30    7.10
  -8  -5   0   37.90    8.60
  -8  -5   0   36.50    5.80
   8   5   0   49.99   11.80
   8   5   0   44.50    7.30
   8   5   0   36.90    5.30
  -9  -5   0   40.30    8.30
  -9  -5   0   35.50    7.50
  -9  -5   0   35.80    9.60
   9   5   0   37.40    7.20
   9   5   0   35.00   10.80
  -5   6   0    1.90    8.40
   4  -6   0   16.10    3.90
  -4   6   0    7.40    7.80
  -4   6   0   21.10    9.70
   3  -6   0    4.30    2.30
  -3   6   0    8.10    6.30
  -3   6   0    4.90    7.40
   2  -6   0  207.18   12.50
   2  -6   0  229.18   13.70
  -2   6   0  232.98   19.00
   1  -6   0   27.10    3.90
   1  -6   0   28.30    5.00
   1  -6   0   13.40    2.50
  -1   6   0    7.70    6.50
  -1   6   0   14.60    5.40
   0  -6   0  100.19    7.40
   0  -6   0  100.99    7.90
   0  -6   0   99.49    6.50
   0   6   0   78.99    6.00
   0   6   0   96.09    9.90
  -1  -6   0  134.79    9.50
  -1  -6   0  138.29    8.50
  -1  -6   0  121.49    9.10
   1   6   0   96.49   12.90
   1   6   0  165.88   11.80
  -2  -6   0    1.90    2.00
  -2  -6   0    0.40    1.40
   2   6   0   -0.90    1.90
   2   6   0   -0.50    2.20
   2   6   0    4.30    3.70
  -3  -6   0    1.30    2.00
  -3  -6   0    0.60    1.60
  -3  -6   0   -0.30    1.60
  -3  -6   0   -0.10    1.60
   3   6   0    1.30    1.90
   3   6   0    1.20    2.60
   3   6   0    1.10    2.20
  -4  -6   0  186.98   12.70
  -4  -6   0  190.48   12.90
  -4  -6   0  179.18   12.40
   4   6   0  200.58   15.50
   4   6   0  193.58   12.70
   4   6   0  181.88   13.20
  -5  -6   0   -2.70    2.00
  -5  -6   0   -1.60    2.00
  -5  -6   0   -0.80    2.30
   5   6   0   -0.30    2.10
   5   6   0    0.60    2.00
   5   6   0    0.40    3.40
  -6  -6   0   89.29    9.30
  -6  -6   0   96.19   10.30
  -6  -6   0   88.59    8.40
   6   6   0  100.59    8.40
   6   6   0   81.79   11.80
   6   6   0  100.99    9.20
  -7  -6   0   17.10    5.90
  -7  -6   0   17.00    4.30
  -7  -6   0   12.20    4.50
   7   6   0   13.30    4.60
   7   6   0   17.60    4.00
   7   6   0   23.40    7.90
  -8  -6   0   66.49   11.60
  -8  -6   0   67.09    8.30
  -8  -6   0   82.69   10.90
   8   6   0   61.19   12.90
   8   6   0   57.59    8.60
   8   6   0   64.89    7.50
  -4   7   0    2.80   12.30
  -4   7   0    0.20    6.80
   3  -7   0   -0.10    2.60
  -3   7   0   -2.10    6.70
  -3   7   0    4.00    6.00
   2  -7   0    8.90    3.40
   2  -7   0   13.90    3.10
  -2   7   0    5.00    7.40
  -2   7   0   20.60    7.50
   1  -7   0    2.20    2.20
   1  -7   0   -0.60    1.80
  -1   7   0    0.90    5.70
  -1   7   0    0.70    3.60
   0  -7   0    1.10    2.50
   0  -7   0    5.90    2.60
   0  -7   0    4.70    2.00
   0   7   0    0.60    5.40
   0   7   0    2.80    3.60
  -1  -7   0  204.68   13.00
  -1  -7   0  203.48   11.90
   1   7   0  158.48   17.50
   1   7   0  198.08   15.00
  -2  -7   0  143.49   11.00
  -2  -7   0  142.39   10.20
   2   7   0  159.18   11.80
   2   7   0  155.98   12.80
   2   7   0  170.28   14.90
  -3  -7   0  164.78   11.70
  -3  -7   0  164.88   12.10
   3   7   0  184.68   13.80
   3   7   0  184.18   14.80
   3   7   0  172.98   12.60
  -4  -7   0  141.09   10.40
  -4  -7   0  122.19   10.40
  -4  -7   0  150.48   11.20
   4   7   0  160.48   13.80
   4   7   0  136.49   11.70
   4   7   0  149.79   11.50
  -5  -7   0    8.50    3.60
  -5  -7   0    8.00    3.70
  -5  -7   0    5.70    3.40
   5   7   0    2.60    2.70
   5   7   0    7.50    3.60
   5   7   0    7.10    4.50
  -6  -7   0    7.00    3.90
  -6  -7   0    1.20    2.70
  -6  -7   0    7.50    3.50
   6   7   0    2.10    4.20
   6   7   0   -0.20    2.50
   6   7   0    4.60    3.50
  -7  -7   0  124.79   10.90
  -7  -7   0  138.19   12.70
  -7  -7   0  120.29   13.10
   7   7   0  128.39   10.60
   7   7   0  129.39   11.90
   7   7   0  131.69   15.80
  -8  -7   0   -0.10    3.60
  -8  -7   0    2.40    3.30
  -8  -7   0   -1.80    3.40
   8   7   0   -0.70    5.00
   8   7   0   -3.40    2.80
   8   7   0    0.50    2.70
   3  -8   0    3.10    3.30
  -3   8   0   -3.20    5.50
   2  -8   0    5.60    3.60
  -2   8   0    8.10    6.60
   1  -8   0   26.40    5.70
   1  -8   0   18.80    4.10
  -1   8   0   14.20    6.20
   0  -8   0    0.00    2.30
   0   8   0    1.00    7.00
   0   8   0    0.00    4.30
  -1  -8   0  140.69   10.80
   1   8   0  114.29   15.40
   1   8   0  148.39   12.00
   1   8   0  152.58   13.70
  -2  -8   0    4.20    2.50
  -2  -8   0    1.80    2.70
   2   8   0    2.80    2.90
   2   8   0    3.50    3.70
   2   8   0    5.20    4.90
  -3  -8   0   18.40    4.60
  -3  -8   0   17.60    4.30
   3   8   0   14.90    4.50
   3   8   0   12.90    4.80
   3   8   0   16.70    6.00
  -4  -8   0    4.50    3.50
  -4  -8   0    7.40    3.50
   4   8   0   10.70    4.00
   4   8   0    9.70    4.80
   4   8   0    8.80    4.30
  -5  -8   0   67.79    8.80
  -5  -8   0   51.49    7.40
   5   8   0   53.39    8.30
   5   8   0   59.49   10.30
   5   8   0   62.19    8.10
  -6  -8   0    0.10    2.80
  -6  -8   0    3.00    3.40
   6   8   0    2.90    3.40
   6   8   0    3.20    4.90
   6   8   0    1.00    3.50
  -7  -8   0   14.10    5.40
  -7  -8   0   15.20    5.30
   7   8   0    9.90    6.20
   7   8   0   15.70    5.50
   7   8   0    8.60    4.00
  -1   9   0   -1.30    4.90
  -1   9   0    2.90    4.10
   0  -9   0    4.60    3.30
   0   9   0    5.00    4.90
   0   9   0    4.00    4.40
  -1  -9   0    4.20    3.00
   1   9   0    5.60    4.80
   1   9   0   -0.70    3.20
  -2  -9   0    4.60    3.20
   2   9   0    2.00    3.70
   2   9   0    4.90    4.30
  -3  -9   0   -0.50    2.40
  -3  -9   0    2.90    3.70
   3   9   0    3.10    3.60
   3   9   0   -1.80    3.40
  -4  -9   0    3.70    3.20
  -4  -9   0    5.30    3.70
   4   9   0    3.10    3.80
   4   9   0    9.30    5.00
  -5  -9   0    4.10    3.50
  -5  -9   0   -0.40    3.40
   5   9   0    0.70    3.70
   5   9   0    1.40    3.70
  -6  -9   0    7.00    4.30
   6   9   0   10.50    4.50
   6   9   0    1.90    4.20
   5   9  -1   68.89   10.20
   5   9  -1   78.19   10.40
  -5  -9   1   69.29    9.60
  -5  -9   1   70.49    9.80
   4   9  -1   19.80    6.00
   4   9  -1   -0.10    3.40
  -4  -9   1    7.30    4.20
  -4  -9   1    5.60    3.50
   3   9  -1   23.60    6.10
   3   9  -1   17.50    6.30
  -3  -9   1   17.60    5.10
   2   9  -1   24.80    6.20
   2   9  -1   11.50    5.50
  -2  -9   1   20.60    5.30
   1   9  -1   -0.30    4.00
   1   9  -1    3.50    3.80
  -1  -9   1    1.80    3.00
   0   9  -1   33.80    9.00
   0  -9   1   31.10    5.90
   7   8  -1   -0.90    3.00
   7   8  -1   -5.20    2.80
   7   8  -1   -0.60    4.80
  -7  -8   1   -0.30    3.40
  -7  -8   1    0.00    3.10
   6   8  -1   24.80    6.60
   6   8  -1    9.10    4.20
   6   8  -1   20.50    7.70
  -6  -8   1   20.00    5.80
  -6  -8   1   25.20    6.10
   5   8  -1   -2.90    2.40
   5   8  -1   -1.20    3.00
   5   8  -1    3.10    4.40
  -5  -8   1    2.20    2.80
  -5  -8   1    0.30    2.80
   4   8  -1   64.69   10.80
   4   8  -1   46.90    7.60
   4   8  -1   64.39    9.60
  -4  -8   1   48.40    7.30
  -4  -8   1   54.09    7.80
   3   8  -1    9.70    4.30
   3   8  -1   16.20    6.30
   3   8  -1   18.30    5.00
  -3  -8   1   13.60    4.20
   2   8  -1   87.09   11.50
   2   8  -1   87.69   12.90
   2   8  -1   77.79    9.40
  -2  -8   1   79.79    7.30
  -2  -8   1   94.59    8.80
   1   8  -1    0.80    6.40
   1   8  -1    1.80    4.20
  -1  -8   1    5.60    3.40
  -1  -8   1    2.90    2.70
   0   8  -1    8.70    8.40
   0   8  -1    8.30    5.50
   0  -8   1   14.10    4.20
   0  -8   1   24.30    5.20
  -1   8  -1   18.30    6.80
   1  -8   1   22.80    4.70
   1  -8   1   17.40    4.80
  -2   8  -1   36.60    9.40
   2  -8   1   49.99    7.30
   8   7  -1   49.20    8.50
   8   7  -1   66.49   14.30
   8   7  -1   56.59    7.80
  -8  -7   1   58.89   11.20
  -8  -7   1   75.49   10.60
  -8  -7   1   66.79    8.60
   7   7  -1   49.30   11.70
   7   7  -1   38.70    6.20
   7   7  -1   52.19    8.30
  -7  -7   1   51.29    9.40
  -7  -7   1   43.30    8.00
  -7  -7   1   40.30    6.90
   6   7  -1   19.30    4.80
   6   7  -1   17.30    7.00
   6   7  -1   22.60    5.30
  -6  -7   1   24.90    6.30
  -6  -7   1   20.70    5.20
  -6  -7   1   34.70    6.10
   5   7  -1   99.99    9.80
   5   7  -1   83.39    9.60
   5   7  -1   72.79   11.20
  -5  -7   1   83.39    9.10
  -5  -7   1   96.29    9.30
  -5  -7   1   88.79    8.80
   4   7  -1   47.50    6.80
   4   7  -1   47.80    7.60
   4   7  -1   59.19   10.20
  -4  -7   1   54.59    7.40
  -4  -7   1   46.00    6.20
  -4  -7   1   49.30    6.80
   3   7  -1   31.70    5.70
   3   7  -1   35.60    6.70
   3   7  -1   36.70    8.20
  -3  -7   1   31.90    5.20
  -3  -7   1   39.30    6.00
   2   7  -1   16.00    6.90
   2   7  -1   10.50    4.50
  -2  -7   1   14.80    3.30
  -2  -7   1    5.50    2.90
  -2  -7   1    9.70    3.60
   1   7  -1    2.60    5.80
   1   7  -1    5.40    4.20
  -1  -7   1    6.10    3.00
  -1  -7   1    8.70    2.40
  -1  -7   1    5.20    3.10
   0   7  -1    3.80    6.50
   0   7  -1   -0.80    3.80
   0  -7   1    4.70    2.80
   0  -7   1    2.20    2.80
  -1   7  -1   28.50    7.60
  -1   7  -1   13.70    8.70
   1  -7   1   42.30    6.00
   1  -7   1   39.10    5.40
  -2   7  -1    5.80    6.20
  -2   7  -1    4.60    7.40
   2  -7   1    5.80    3.00
  -3   7  -1    2.70    8.20
  -3   7  -1    0.90    6.20
   3  -7   1   -0.60    2.40
  -4   7  -1    2.80    7.90
  -4   7  -1    0.40    8.80
   8   6  -1   -1.40    3.20
   8   6  -1   -1.60    5.10
   8   6  -1    2.00    2.60
  -8  -6   1    2.20    2.80
  -8  -6   1   -1.00    3.80
  -8  -6   1    0.20    3.60
   7   6  -1    1.60    4.60
   7   6  -1    1.80    3.00
   7   6  -1   -1.90    1.70
  -7  -6   1   -1.70    3.00
  -7  -6   1    1.40    2.50
  -7  -6   1   -3.00    2.50
   6   6  -1   -1.90    2.40
   6   6  -1    1.40    2.40
   6   6  -1    0.30    3.60
  -6  -6   1    0.30    3.10
  -6  -6   1   -0.90    2.80
  -6  -6   1   -0.40    2.30
   5   6  -1  305.67   19.20
   5   6  -1  306.47   22.60
   5   6  -1  311.57   18.30
  -5  -6   1  310.47   19.00
  -5  -6   1  303.17   18.00
  -5  -6   1  279.87   19.10
   4   6  -1  310.97   17.80
   4   6  -1  285.17   18.40
   4   6  -1  302.67   21.10
  -4  -6   1  291.27   17.70
  -4  -6   1  274.87   17.10
  -4  -6   1  275.47   17.40
   3   6  -1   22.80    5.00
   3   6  -1   33.60    7.50
   3   6  -1   25.20    4.50
  -3  -6   1   28.20    4.60
  -3  -6   1   19.70    4.00
  -3  -6   1   14.40    5.10
  -3  -6   1   23.50    3.80
   2   6  -1  395.36   27.60
   2   6  -1  436.36   24.50
  -2  -6   1  393.66   21.20
  -2  -6   1  388.06   21.90
  -2  -6   1  401.36   21.90
   1   6  -1    0.10    4.40
   1   6  -1    0.80    3.10
  -1  -6   1    4.10    1.90
  -1  -6   1   -1.10    1.80
  -1  -6   1    3.70    2.20
   0   6  -1  103.19   12.00
   0   6  -1   74.79    5.10
   0  -6   1   85.89    7.50
   0  -6   1   74.49    6.70
   0  -6   1   77.69    5.40
  -1   6  -1  348.47   23.60
   1  -6   1  312.27   17.60
   1  -6   1  315.47   18.40
  -2   6  -1   92.19   13.90
   2  -6   1  106.09    7.50
   2  -6   1  102.79    8.70
  -3   6  -1   -4.90    5.10
  -3   6  -1    1.90    7.10
   3  -6   1    1.20    2.40
  -4   6  -1    5.80    9.60
  -4   6  -1    5.10    7.00
   4  -6   1    4.70    2.90
  -5   6  -1    8.40   10.20
   9   5  -1   20.40    9.80
   9   5  -1   11.10    4.60
  -9  -5   1   11.90    5.80
  -9  -5   1   17.90    4.50
  -9  -5   1   18.10    7.60
   8   5  -1   27.00    9.40
   8   5  -1   26.40    4.50
   8   5  -1   28.30    6.00
  -8  -5   1   36.90    7.60
  -8  -5   1   26.10    5.10
  -8  -5   1   28.30    8.10
   7   5  -1   14.90    3.50
   7   5  -1    8.50    3.60
   7   5  -1   12.60    6.30
  -7  -5   1   11.80    5.40
  -7  -5   1   10.50    3.60
  -7  -5   1    7.30    3.70
   6   5  -1  178.78   12.30
   6   5  -1  204.48   13.70
   6   5  -1  208.78   18.60
  -6  -5   1  178.08   12.50
  -6  -5   1  201.68   14.30
  -6  -5   1  183.78   15.50
   5   5  -1   11.20    5.40
   5   5  -1    7.60    3.00
   5   5  -1   11.80    3.20
  -5  -5   1    5.30    2.50
  -5  -5   1    4.60    3.20
  -5  -5   1    6.00    3.00
   4   5  -1  211.88   16.70
   4   5  -1  245.28   15.00
   4   5  -1  213.78   13.50
  -4  -5   1  232.98   13.50
  -4  -5   1  213.18   14.40
  -4  -5   1  213.48   13.90
   3   5  -1  545.85   28.60
   3   5  -1  555.84   27.50
   3   5  -1  546.05   31.20
  -3  -5   1  505.95   26.90
  -3  -5   1  535.85   27.30
  -3  -5   1  491.95   27.00
  -3  -5   1  512.55   27.00
   2   5  -1  117.09   12.20
   2   5  -1  117.09    9.40
  -2  -5   1  103.79    7.70
  -2  -5   1  106.29    7.80
  -2  -5   1  109.79    7.70
  -2  -5   1  102.39    6.80
   1   5  -1    9.00    2.20
   1   5  -1   13.10    4.20
   1   5  -1    3.60    4.80
  -1  -5   1   10.60    2.20
  -1  -5   1    9.80    2.40
  -1  -5   1   10.00    2.60
   0   5  -1    0.40    1.00
   0   5  -1   -1.90    3.50
   0   5  -1    1.70    2.90
   0  -5   1    1.10    1.60
   0  -5   1    0.30    1.10
   0  -5   1   -1.00    1.40
  -1   5  -1  477.95   29.40
   1  -5   1  447.76   23.30
   1  -5   1  471.55   24.10
  -2   5  -1   38.50    8.90
  -2   5  -1   39.20    5.40
  -2   5  -1   15.70    7.90
  -2   5  -1   36.80    4.30
   2  -5   1   45.80    5.20
   2  -5   1   41.50    4.10
  -3   5  -1   26.80    5.10
  -3   5  -1    6.00    6.60
   3  -5   1   18.90    3.70
   3  -5   1   17.80    2.60
  -4   5  -1   -0.70    5.80
  -4   5  -1   10.10    4.20
   4  -5   1    9.70    4.10
   4  -5   1    9.00    2.90
  -5   5  -1    6.30    9.60
  -5   5  -1   17.80    5.70
   5  -5   1   13.70    5.00
  -6   5  -1    5.60   10.40
   6  -5   1    5.70    4.40
   9   4  -1   13.20    8.30
   9   4  -1   18.60    5.50
  -9  -4   1   18.00    7.40
  -9  -4   1   28.90    7.30
   8   4  -1   -1.30    2.30
   8   4  -1    1.10    4.60
   8   4  -1   -0.20    1.70
  -8  -4   1   -1.40    3.10
  -8  -4   1    0.10    2.30
  -8  -4   1   -2.30    2.90
   7   4  -1   44.50   10.60
   7   4  -1   46.50    6.60
   7   4  -1   47.40    5.20
  -7  -4   1   46.40    8.90
  -7  -4   1   41.90    5.60
  -7  -4   1   49.99    7.40
   6   4  -1  288.07   16.80
   6   4  -1  276.07   21.70
   6   4  -1  256.37   14.80
  -6  -4   1  251.37   19.10
  -6  -4   1  267.47   15.40
  -6  -4   1  245.48   16.80
   5   4  -1  138.59   13.40
   5   4  -1  145.79   10.30
   5   4  -1  132.29    9.10
  -5  -4   1  141.29   10.50
  -5  -4   1  146.69   12.20
   4   4  -1  774.82   38.80
   4   4  -1  794.02   43.20
   4   4  -1  772.42   39.70
  -4  -4   1  812.02   41.00
  -4  -4   1  804.42   39.80
  -4  -4   1  824.02   38.90
   3   4  -1   14.00    4.50
   3   4  -1    8.40    2.60
   3   4  -1    7.50    2.30
  -3  -4   1    8.20    2.60
  -3  -4   1    9.30    2.50
  -3  -4   1    9.30    2.50
  -3  -4   1    7.10    2.40
   2   4  -1   48.50    8.20
   2   4  -1   42.70    5.70
  -2  -4   1   43.00    4.10
  -2  -4   1   40.70    4.20
  -2  -4   1   41.70    4.60
  -2  -4   1   42.50    4.20
  -2  -4   1   42.50    4.20
   1   4  -1    3.30    1.40
   1   4  -1    2.90    2.50
   1   4  -1    4.50    4.20
  -1  -4   1    3.90    1.50
  -1  -4   1    5.40    2.00
  -1  -4   1    2.60    3.70
  -1  -4   1    3.90    2.00
   0   4  -1   54.29    7.30
   0   4  -1   51.59    3.70
   0  -4   1   65.19    4.90
   0  -4   1   62.39    5.00
   0  -4   1   59.49    3.90
   0  -4   1   41.50    9.10
  -1   4  -1 2726.03  123.89
  -1   4  -1 2206.98  117.59
   1  -4   1 2721.73  117.29
   1  -4   1 2679.73  117.79
  -2   4  -1  753.62   36.70
  -2   4  -1  729.13   35.20
  -2   4  -1  754.02   37.10
   2  -4   1  777.32   37.80
   2  -4   1  765.12   35.60
   2  -4   1  749.33   36.40
  -3   4  -1    2.50    2.40
  -3   4  -1   -0.50    4.30
  -3   4  -1    3.50    1.20
   3  -4   1    3.10    2.70
   3  -4   1    5.20    1.40
   3  -4   1    4.70    2.00
  -4   4  -1  100.59    9.50
  -4   4  -1  102.99   18.50
   4  -4   1  105.49    9.40
   4  -4   1  114.39    7.80
  -5   4  -1   13.80    4.80
  -5   4  -1   15.20    9.10
   5  -4   1   12.90    3.10
   5  -4   1   11.60    4.20
  -6   4  -1   14.40    9.70
  -6   4  -1   13.90    5.70
   6  -4   1    4.50    3.80
  -7   4  -1    2.10    4.70
  -7   4  -1   -1.80    9.00
   9   3  -1    5.40    3.60
   9   3  -1    6.40    6.60
  -9  -3   1    8.10    5.90
  -9  -3   1    6.30    4.10
   8   3  -1   31.70    9.90
   8   3  -1   44.10    6.60
  -8  -3   1   36.70    6.70
  -8  -3   1   46.10   10.00
  -8  -3   1   34.20    4.80
   7   3  -1   78.59    7.70
   7   3  -1   68.29    5.60
   7   3  -1   82.79   12.30
  -7  -3   1   65.79   10.70
  -7  -3   1   65.69    6.10
  -7  -3   1   82.89    8.50
   6   3  -1  387.36   21.30
   6   3  -1  387.06   26.90
   6   3  -1  370.16   19.30
  -6  -3   1  357.86   19.80
  -6  -3   1  368.56   24.50
  -6  -3   1  386.36   21.90
   5   3  -1   37.70    5.00
   5   3  -1   33.50    3.90
   5   3  -1   33.70    7.30
  -5  -3   1   41.20    4.20
  -5  -3   1   37.20    6.40
  -5  -3   1   31.00    5.00
   4   3  -1   33.20    4.30
   4   3  -1   27.70    5.80
   4   3  -1   34.40    3.90
  -4  -3   1   33.60    5.60
  -4  -3   1   26.50    4.20
  -4  -3   1   33.20    4.00
   3   3  -1   44.60    4.50
   3   3  -1   44.60    6.10
   3   3  -1   43.50    4.10
  -3  -3   1   39.10    4.30
  -3  -3   1   47.70    4.10
  -3  -3   1   40.20    4.90
  -3  -3   1   36.00    4.50
   2   3  -1  380.06   20.60
   2   3  -1  396.76   19.60
   2   3  -1  408.96   23.20
  -2  -3   1  388.76   19.90
  -2  -3   1  369.06   19.40
  -2  -3   1  400.26   19.60
  -2  -3   1  386.56   19.90
  -2  -3   1  386.96   19.70
   1   3  -1   95.09    7.30
   1   3  -1   66.79    9.10
   1   3  -1   94.29    5.60
   1   3  -1   89.39    5.20
   1   3  -1   90.19    5.80
   1   3  -1   84.19    5.60
  -1  -3   1   90.59    5.60
  -1  -3   1   83.09    5.70
  -1  -3   1   86.09    7.70
  -1  -3   1   98.19    5.90
   0   3  -1   38.80    2.70
   0   3  -1   39.00    3.20
   0   3  -1   39.50    5.90
   0   3  -1   42.80    3.70
   0  -3   1   36.90    3.30
   0  -3   1   40.80    3.60
   0  -3   1   23.10    6.40
   0  -3   1   38.90    2.80
  -1   3  -1  180.48   10.20
  -1   3  -1  173.68    9.20
   1  -3   1  174.88    9.70
   1  -3   1  206.48   14.80
   1  -3   1  179.08    9.90
   1  -3   1  163.58    9.40
  -2   3  -1  350.36   18.40
  -2   3  -1  290.67   24.30
  -2   3  -1  338.47   16.40
   2  -3   1  364.36   18.80
   2  -3   1  349.96   17.40
   2  -3   1  348.37   16.60
   2  -3   1  346.47   18.40
  -3   3  -1  315.67   18.00
  -3   3  -1  303.27   24.10
  -3   3  -1  285.57   14.50
   3  -3   1  304.77   17.50
   3  -3   1  306.57   14.40
   3  -3   1  316.77   15.90
  -4   3  -1    6.70    3.30
  -4   3  -1    6.20    1.40
  -4   3  -1   10.00    6.00
  -4   3  -1    4.70    1.80
   4  -3   1    9.30    3.00
   4  -3   1   10.80    2.20
  -5   3  -1  138.09    8.10
  -5   3  -1  129.89   12.10
  -5   3  -1  144.59   18.00
   5  -3   1  134.59   10.90
   5  -3   1  145.09    8.80
  -6   3  -1    8.80    7.60
  -6   3  -1    9.20    4.80
   6  -3   1    9.70    3.90
  -7   3  -1    6.20    8.50
  -7   3  -1    3.60    4.70
   7  -3   1    3.30    3.40
   9   2  -1   25.90    5.50
   9   2  -1   23.50    8.90
  -9  -2   1   21.70    5.90
  -9  -2   1   20.90    8.30
   8   2  -1   94.69   14.00
   8   2  -1   97.89    8.90
  -8  -2   1   86.79    9.40
  -8  -2   1   87.49   13.80
   7   2  -1  308.67   16.30
   7   2  -1  335.57   19.00
   7   2  -1  334.97   25.40
  -7  -2   1  291.77   22.40
  -7  -2   1  310.57   16.70
  -7  -2   1  312.67   19.40
   6   2  -1   48.10    9.50
   6   2  -1   54.19    4.40
   6   2  -1   58.89    6.60
  -6  -2   1   59.39    4.90
  -6  -2   1   47.10    8.20
  -6  -2   1   55.19    6.40
   5   2  -1  108.79    8.20
   5   2  -1  114.09   11.60
   5   2  -1  100.29    7.60
   5   2  -1  103.59    6.40
  -5  -2   1  105.79    6.90
  -5  -2   1  104.39    8.20
  -5  -2   1  101.39   10.00
   4   2  -1  180.68   11.00
   4   2  -1  180.38   10.10
   4   2  -1  197.58   14.60
   4   2  -1  191.48   10.10
  -4  -2   1  188.48   13.10
  -4  -2   1  182.98   10.30
  -4  -2   1  178.08   11.30
   3   2  -1  535.85   29.10
   3   2  -1  544.25   26.30
   3   2  -1  526.65   25.50
   3   2  -1  538.05   25.50
   3   2  -1  539.55   25.50
  -3  -2   1  538.65   25.60
  -3  -2   1  493.15   27.20
  -3  -2   1  528.45   27.70
  -3  -2   1  548.75   26.50
   2   2  -1   -0.10    0.90
   2   2  -1    0.70    1.10
   2   2  -1    0.30    1.10
   2   2  -1    0.20    0.80
   2   2  -1   -1.10    1.50
  -2  -2   1   -0.30    1.00
  -2  -2   1   -0.50    0.90
  -2  -2   1    0.40    1.00
  -2  -2   1    2.10    2.50
  -2  -2   1    0.10    1.00
  -2  -2   1    1.40    1.10
   1   2  -1  352.16   16.30
   1   2  -1  304.47   19.90
   1   2  -1  334.97   16.20
   1   2  -1  358.26   16.20
   1   2  -1  338.97   17.40
   1   2  -1  327.37   16.10
  -1  -2   1  346.57   16.30
  -1  -2   1  323.17   17.60
  -1  -2   1  323.07   16.60
  -1  -2   1  318.77   16.20
  -1  -2   1  326.77   16.20
   0   2  -1 1138.59   53.09
   0   2  -1 1147.69   53.29
   0   2  -1 1178.48   56.09
   0   2  -1 1139.89   52.69
   0   2  -1 1177.38   53.79
   0  -2   1 1241.98   53.39
   0  -2   1 1150.58   52.69
   0  -2   1 1138.39   53.19
   0  -2   1 1158.78   53.29
  -1   2  -1 4995.70  212.88
  -1   2  -1 4646.04  213.08
  -1   2  -1 4736.53  212.58
  -1   2  -1 4533.25  211.78
   1  -2   1 4565.54  213.18
   1  -2   1 4856.01  212.78
   1  -2   1 4701.43  211.88
   1  -2   1 4687.73  212.28
  -2   2  -1  729.63   36.30
  -2   2  -1  706.93   35.60
  -2   2  -1  774.42   41.60
  -2   2  -1  745.93   34.10
  -2   2  -1  833.72   36.20
  -2   2  -1  717.83   33.90
  -2   2  -1  743.23   37.70
   2  -2   1  722.93   34.10
   2  -2   1  733.23   36.00
   2  -2   1  768.92   35.10
   2  -2   1  751.92   36.50
  -3   2  -1   37.10    4.70
  -3   2  -1   30.60    2.60
  -3   2  -1   27.70    3.70
  -3   2  -1   42.10    8.30
   3  -2   1   32.00    2.30
   3  -2   1   33.70    3.30
   3  -2   1   30.90    4.10
  -4   2  -1  136.69    8.20
  -4   2  -1  143.69   11.40
   4  -2   1  142.09    9.80
   4  -2   1  153.88    8.80
   4  -2   1  146.59    7.90
  -5   2  -1    2.10    3.20
  -5   2  -1    0.80    1.40
   5  -2   1   -0.30    2.10
   5  -2   1    0.20    1.50
  -6   2  -1    1.30    3.60
  -6   2  -1    2.10    2.00
   6  -2   1    2.90    2.70
   6  -2   1    1.80    1.70
  -7   2  -1   -2.10    5.50
  -7   2  -1    3.40    4.40
   7  -2   1    2.80    3.10
  -8   2  -1    6.90    9.70
  -8   2  -1    0.40    5.40
   8  -2   1   -4.40    3.70
   9   1  -1    8.20    7.30
   9   1  -1    9.00    4.10
  -9  -1   1    4.70    5.80
  -9  -1   1    5.20    3.90
   8   1  -1   58.29   12.30
   8   1  -1   47.20    6.60
  -8  -1   1   46.50   10.20
  -8  -1   1   63.89    8.30
   7   1  -1  235.28   14.70
   7   1  -1  248.78   21.10
  -7  -1   1  221.48   15.00
  -7  -1   1  237.78   19.30
  -7  -1   1  218.68   12.20
   6   1  -1   95.19    7.70
   6   1  -1   98.49   12.00
   6   1  -1   92.69    6.10
  -6  -1   1  100.39    6.20
  -6  -1   1   90.99   10.60
  -6  -1   1  100.29    8.30
   5   1  -1    1.20    1.50
   5   1  -1    1.40    2.90
   5   1  -1    1.60    1.10
   5   1  -1    1.40    0.90
  -5  -1   1    1.30    1.70
  -5  -1   1    1.50    1.10
  -5  -1   1    0.60    2.60
   4   1  -1  772.92   34.90
   4   1  -1  739.73   40.10
   4   1  -1  721.63   34.50
   4   1  -1  747.23   36.00
  -4  -1   1  752.42   34.90
  -4  -1   1  753.82   36.40
  -4  -1   1  731.23   38.70
   3   1  -1  133.39   10.70
   3   1  -1  149.69    7.70
   3   1  -1  142.69    7.60
   3   1  -1  142.49    8.30
   3   1  -1  138.89    7.40
   3   1  -1  136.79    8.40
  -3  -1   1  144.49    7.70
  -3  -1   1  146.29    9.90
  -3  -1   1  154.48    8.80
  -3  -1   1  137.39    9.90
  -3  -1   1  147.69    8.50
  -3  -1   1  142.49   11.10
   2   1  -1 2462.65  112.79
   2   1  -1 2468.05  112.69
   2   1  -1 2477.85  115.49
   2   1  -1 2438.56  113.29
   2   1  -1 2530.25  114.49
   2   1  -1 2503.95  112.79
   2   1  -1 2494.75  113.39
  -2  -1   1 2497.95  113.49
  -2  -1   1 2535.15  115.79
  -2  -1   1 2516.95  113.49
  -2  -1   1 2620.04  112.89
  -2  -1   1 2437.66  114.29
   1   1  -1 1915.21   82.69
   1   1  -1 1827.42   83.09
   1   1  -1 1797.62   83.09
   1   1  -1 1889.31   82.49
   1   1  -1 1892.51   85.19
   1   1  -1 1828.72   82.39
  -1  -1   1 1893.41   82.79
  -1  -1   1 1840.92   82.49
  -1  -1   1 1788.12   83.19
  -1  -1   1 1837.72   82.49
  -1  -1   1 1549.84   85.09
  -1  -1   1 1841.62   83.19
   0  -1   1 3001.30  142.89
   0  -1   1 3353.96  143.79
  -1   1  -1 6447.95  317.77
  -1   1  -1 7353.16  318.27
  -1   1  -1 7676.63  321.97
  -1   1  -1 7101.79  317.87
  -1   1  -1 7132.89  317.07
   1  -1   1 6804.72  317.97
   1  -1   1 6891.21  316.97
   1  -1   1 6993.70  317.67
   1  -1   1 7285.57  318.27
  -2   1  -1  696.53   34.60
  -2   1  -1  722.63   35.60
  -2   1  -1  701.93   32.60
  -2   1  -1  677.13   33.40
  -2   1  -1  739.73   33.50
   2  -1   1  719.93   34.70
   2  -1   1  706.73   33.50
   2  -1   1  729.43   32.60
   2  -1   1  694.23   33.60
  -3   1  -1   12.90    3.30
  -3   1  -1   12.40    1.90
  -3   1  -1   18.30    2.30
   3  -1   1   15.90    3.90
   3  -1   1   10.30    2.20
   3  -1   1   14.20    1.90
   3  -1   1   16.00    2.60
  -4   1  -1    3.90    1.40
  -4   1  -1    2.00    1.20
  -4   1  -1    2.80    2.80
   4  -1   1    7.40    2.20
   4  -1   1    2.20    1.20
   4  -1   1    3.10    1.70
   4  -1   1    4.50    3.10
  -5   1  -1  284.87   15.20
  -5   1  -1  261.47   18.60
   5  -1   1  267.17   15.20
   5  -1   1  283.67   19.70
   5  -1   1  286.37   16.00
  -6   1  -1   15.80    3.40
  -6   1  -1   20.80    6.10
   6  -1   1   14.80    3.00
   6  -1   1   18.90    6.10
   6  -1   1   17.60    3.90
  -7   1  -1   -0.40    4.20
  -7   1  -1    3.30    2.60
   7  -1   1    0.20    3.70
   7  -1   1    0.10    2.80
  -8   1  -1    1.00    4.70
   8  -1   1   -0.90    2.50
   8  -1   1    4.40    5.20
   9   0  -1   23.60   10.00
   8   0  -1    1.60    4.90
   8   0  -1    1.80    2.60
  -8   0   1    0.40    4.40
  -8   0   1    1.60    3.10
   7   0  -1    4.20    4.50
   7   0  -1    3.40    2.40
  -7   0   1    9.30    3.50
  -7   0   1    8.50    4.90
   6   0  -1  100.09    7.20
   6   0  -1  122.09    8.90
   6   0  -1  122.49   13.20
  -6   0   1  115.99    6.30
  -6   0   1  126.59    9.10
  -6   0   1  128.29   12.40
   5   0  -1   43.00    4.90
   5   0  -1   53.19    8.10
   5   0  -1   45.10    3.70
   5   0  -1   33.60    3.30
  -5   0   1   47.00    5.00
  -5   0   1   42.80    3.10
  -5   0   1   43.00    3.20
  -5   0   1   40.60    7.10
   4   0  -1   10.20    1.70
   4   0  -1   16.50    4.60
   4   0  -1   15.40    1.80
   4   0  -1   11.40    2.20
  -4   0   1   13.60    1.70
  -4   0   1   12.10    3.60
  -4   0   1   12.60    1.50
  -4   0   1   12.50    2.60
   3   0  -1 1210.38   54.39
   3   0  -1 1217.58   55.69
   3   0  -1 1210.38   58.99
   3   0  -1 1159.78   54.79
   3   0  -1 1179.38   55.49
  -3   0   1 1231.98   55.59
  -3   0   1 1292.87   63.49
  -3   0   1 1221.98   54.59
  -3   0   1 1194.68   54.39
  -3   0   1 1215.38   55.79
  -3   0   1 1084.69   59.59
  -3   0   1 1204.68   57.89
   2   0  -1 2239.58  106.99
   2   0  -1 2291.77  104.59
   2   0  -1 2345.07  104.79
   2   0  -1 2267.67  104.29
   2   0  -1 2260.67  103.79
  -2   0   1 2312.17  104.89
  -2   0   1 2359.36  106.99
  -2   0   1 2296.47  106.09
  -2   0   1 2386.06  104.09
  -2   0   1 2341.27  103.89
  -2   0   1 2344.37  104.69
   1   0  -1  903.01   42.70
   1   0  -1  938.41   42.20
   1   0  -1  901.91   42.70
  -1   0   1  927.61   42.60
  -1   0   1  973.50   44.10
   0   0  -1   -0.10    0.30
   0   0  -1   -0.10    0.50
   0   0  -1    0.00    0.20
   0   0  -1   -0.30    0.10
   0   0  -1   -0.20    0.20
   0   0  -1    0.10    0.40
   0   0   1    0.00    0.20
   0   0   1   -0.30    0.20
   0   0   1    0.00    0.20
   0   0   1   -0.30    0.30
   0   0   1   -0.50    0.40
   0   0   1   -0.10    0.10
  -1   0  -1 1951.40   85.69
  -1   0  -1 1860.41   85.19
  -1   0  -1 1910.91   85.79
  -1   0  -1 1858.31   86.69
   1   0   1 1883.41   85.59
   1   0   1 1928.91   86.49
  -2   0  -1 1454.95   70.29
  -2   0  -1 1546.45   67.89
  -2   0  -1 1512.25   69.79
  -2   0  -1 1506.25   68.39
  -2   0  -1 1522.15   68.19
   2   0   1 1498.35   68.19
   2   0   1 1518.05   69.89
   2   0   1 1474.25   68.29
   2   0   1 1534.85   68.19
   2   0   1 1465.55   67.39
   2   0   1 1439.06   70.09
  -3   0  -1  185.98    9.10
  -3   0  -1  193.98   10.60
  -3   0  -1  199.58    9.70
  -3   0  -1  194.88   12.40
  -3   0  -1  191.88   10.40
   3   0   1  195.78    9.10
   3   0   1  180.08   12.70
   3   0   1  186.38   10.20
   3   0   1  193.88   10.30
   3   0   1  199.68   13.50
   3   0   1  184.48   10.40
  -4   0  -1   29.70    2.60
  -4   0  -1   23.30    4.90
  -4   0  -1   26.50    3.40
   4   0   1   28.80    3.50
   4   0   1   22.70    3.10
   4   0   1   25.90    1.70
   4   0   1   26.80    4.10
   4   0   1   19.60    4.60
  -5   0  -1   12.40    2.00
  -5   0  -1   10.90    2.70
  -5   0  -1    5.00    3.70
   5   0   1    6.20    2.40
   5   0   1   14.40    4.90
   5   0   1   11.20    2.80
  -6   0  -1  103.79    8.10
  -6   0  -1   97.79   11.40
   6   0   1   84.79    7.50
   6   0   1   97.29   11.50
   6   0   1  111.19    8.20
  -7   0  -1    1.60    4.20
  -7   0  -1    4.60    2.80
   7   0   1    3.90    4.50
   7   0   1    0.90    2.40
   7   0   1   -1.40    2.50
  -8   0  -1  120.39   10.40
  -8   0  -1  134.29   15.10
   8   0   1  124.89   10.80
   8   0   1  129.49   15.90
   8  -1  -1   15.20    7.50
   8  -1  -1   12.90    4.20
  -8   1   1   10.50    4.00
  -8   1   1   13.20    7.00
   7  -1  -1  185.68   12.80
   7  -1  -1  192.18   18.10
  -7   1   1  182.38   12.50
  -7   1   1  177.48   16.80
   6  -1  -1   12.50    2.30
   6  -1  -1    9.00    5.10
   6  -1  -1    8.60    2.80
  -6   1   1   12.80    3.20
  -6   1   1   15.90    5.50
   5  -1  -1  172.58    9.00
   5  -1  -1  167.58   10.50
   5  -1  -1  167.58   14.50
  -5   1   1  170.28    8.60
  -5   1   1  176.98   10.70
  -5   1   1  168.48   13.90
   4  -1  -1  740.13   40.40
   4  -1  -1  746.13   36.20
   4  -1  -1  782.82   34.90
  -4   1   1  771.82   36.30
  -4   1   1  741.03   39.40
  -4   1   1  742.63   34.50
   3  -1  -1  136.79    7.70
   3  -1  -1  126.39   10.30
   3  -1  -1  135.89    7.80
   3  -1  -1  140.69    7.00
   3  -1  -1  133.59    6.50
  -3   1   1  140.39    6.70
  -3   1   1  137.59    6.50
  -3   1   1  140.39    7.90
  -3   1   1  142.79    7.90
  -3   1   1  132.99    9.80
   2  -1  -1    6.00    1.10
   2  -1  -1    4.00    1.10
   2  -1  -1    4.30    2.00
   2  -1  -1    4.90    0.60
   2  -1  -1    7.90    0.80
  -2   1   1    3.50    0.80
  -2   1   1    3.80    1.70
  -2   1   1    6.30    1.20
  -2   1   1    2.50    1.60
  -2   1   1    4.50    0.90
  -2   1   1    3.20    1.90
   1  -1  -1 2656.33  122.19
   1  -1  -1 2659.73  123.69
   1  -1  -1 2659.03  123.39
   1  -1  -1 2709.93  122.49
  -1   1   1 2830.32  122.39
  -1   1   1 2711.63  122.19
  -1   1   1 2691.43  123.39
  -1   1   1 2863.51  122.19
  -1   1   1 2591.44  122.49
  -1   1   1 2871.61  122.29
  -1   1   1 2710.43  123.69
   0   1   1  209.78   10.80
  -1  -1  -1 1197.38   56.69
  -1  -1  -1 1217.98   57.39
  -1  -1  -1 1263.07   56.69
   1   1   1 1252.97   56.89
   1   1   1 1313.37   57.39
   1   1   1 1240.98   56.69
  -2  -1  -1  402.86   19.70
  -2  -1  -1  386.56   21.00
  -2  -1  -1  421.16   20.80
  -2  -1  -1  393.56   19.50
  -2  -1  -1  404.86   19.10
  -2  -1  -1  418.96   19.20
   2   1   1  412.16   20.80
   2   1   1  400.36   19.00
   2   1   1  410.66   21.20
   2   1   1  401.26   19.50
   2   1   1  396.56   19.00
   2   1   1  415.16   19.70
  -3  -1  -1   46.50    3.90
  -3  -1  -1   43.50    3.90
  -3  -1  -1   39.80    5.20
  -3  -1  -1   42.10    5.00
  -3  -1  -1   46.30    3.10
  -3  -1  -1   43.30    3.20
   3   1   1   38.20    5.00
   3   1   1   46.30    3.70
   3   1   1   44.90    3.20
   3   1   1   40.30    5.40
   3   1   1   39.20    3.80
   3   1   1   42.80    3.00
  -4  -1  -1    7.60    1.50
  -4  -1  -1   10.70    2.50
  -4  -1  -1    9.30    3.30
  -4  -1  -1   11.10    1.80
   4   1   1    9.10    2.10
   4   1   1    9.10    1.70
   4   1   1   17.50    4.70
   4   1   1   10.00    1.50
  -5  -1  -1  333.77   16.80
  -5  -1  -1  351.06   18.90
  -5  -1  -1  362.66   22.10
   5   1   1  357.26   16.80
   5   1   1  334.97   22.70
   5   1   1  342.47   18.60
   5   1   1  335.37   17.40
  -6  -1  -1   93.19   10.90
  -6  -1  -1  106.09    8.60
  -6  -1  -1  102.59    6.20
   6   1   1  106.29   12.10
   6   1   1  114.59    7.50
   6   1   1  108.89    7.60
   6   1   1  104.49    8.10
  -7  -1  -1    3.90    4.70
  -7  -1  -1    8.20    3.60
   7   1   1   13.00    6.20
   7   1   1   11.40    3.20
   7   1   1   14.90    3.80
  -8  -1  -1   -0.20    2.70
  -8  -1  -1    0.60    4.00
   8   1   1    0.10    4.60
   8   1   1   -2.40    2.00
  -9  -1  -1   66.29   12.50
  -9  -1  -1   59.69    8.50
   9   1   1   62.89    8.70
   9   1   1   76.19   14.80
   8  -2  -1    2.70    3.30
   8  -2  -1   11.30    6.90
  -8   2   1    3.70    5.50
   7  -2  -1   22.10    7.20
   7  -2  -1   24.30    5.00
  -7   2   1   16.50    3.90
  -7   2   1   21.50    7.10
   6  -2  -1    0.10    1.90
   6  -2  -1    0.10    3.60
  -6   2   1   -1.10    3.00
  -6   2   1   -0.50    1.60
   5  -2  -1    1.60    1.00
   5  -2  -1    3.10    3.30
   5  -2  -1    3.60    2.10
  -5   2   1    0.00    2.50
  -5   2   1    1.30    1.00
  -5   2   1    1.10    1.40
   4  -2  -1   43.90    6.30
   4  -2  -1   37.10    3.60
   4  -2  -1   35.90    2.90
   4  -2  -1   40.00    4.60
  -4   2   1   38.30    3.70
  -4   2   1   40.50    3.00
  -4   2   1   38.10    6.30
   3  -2  -1    2.00    1.40
   3  -2  -1    0.90    1.80
   3  -2  -1    0.50    0.90
  -3   2   1    1.40    1.10
  -3   2   1    0.00    1.80
  -3   2   1    0.80    0.90
  -3   2   1    0.60    1.10
   2  -2  -1  502.85   25.40
   2  -2  -1  521.05   24.60
   2  -2  -1  513.95   27.10
  -2   2   1  537.05   25.10
  -2   2   1  521.25   24.70
  -2   2   1  528.95   24.30
  -2   2   1  531.75   26.40
  -2   2   1  532.55   24.80
  -2   2   1  533.75   27.50
  -2   2   1  552.14   24.20
  -2   2   1  535.65   26.70
   1  -2  -1  184.18   10.00
   1  -2  -1  176.98    8.90
   1  -2  -1  182.18    9.10
   1  -2  -1  178.08    9.40
  -1   2   1  178.78    9.30
  -1   2   1  179.78    8.90
  -1   2   1  178.08    9.70
  -1   2   1  176.98   10.20
  -1   2   1  175.68    8.90
  -1   2   1  192.78    9.50
   0  -2  -1 6367.56  303.47
   0  -2  -1 6649.63  302.27
   0  -2  -1 6725.93  302.27
   0  -2  -1 6253.97  302.07
   0  -2  -1 7429.96  303.17
   0   2   1 6609.94  302.97
   0   2   1 6957.50  302.27
   0   2   1 6889.01  302.17
   0   2   1 6716.63  302.27
  -1  -2  -1  833.92   39.40
  -1  -2  -1  817.62   38.60
  -1  -2  -1  864.51   38.80
  -1  -2  -1  810.92   39.00
  -1  -2  -1  842.62   38.70
  -1  -2  -1  765.92   38.60
   1   2   1  834.72   38.80
   1   2   1  848.12   38.90
   1   2   1  872.01   38.70
   1   2   1  867.41   38.80
   1   2   1  829.42   38.70
   1   2   1  837.52   38.60
  -2  -2  -1   25.60    2.50
  -2  -2  -1   25.50    3.50
  -2  -2  -1   22.80    2.60
  -2  -2  -1   30.00    3.40
  -2  -2  -1   30.70    3.00
  -2  -2  -1   26.50    3.00
   2   2   1   25.70    2.50
   2   2   1   25.20    3.40
   2   2   1   25.90    2.60
   2   2   1   30.70    3.50
   2   2   1   25.80    2.60
   2   2   1   23.20    2.90
  -3  -2  -1 4923.11  223.58
  -3  -2  -1 4694.33  226.38
  -3  -2  -1 5043.70  224.48
  -3  -2  -1 4891.51  225.78
  -3  -2  -1 4979.60  223.58
   3   2   1 4717.53  223.38
   3   2   1 4975.40  223.38
   3   2   1 4956.20  226.68
   3   2   1 5177.38  225.98
   3   2   1 5355.86  225.48
   3   2   1 4853.71  224.08
  -4  -2  -1   32.70    3.20
  -4  -2  -1   31.50    4.30
  -4  -2  -1   25.20    4.90
   4   2   1   27.00    2.80
   4   2   1   33.20    3.10
   4   2   1   30.40    5.70
   4   2   1   32.90    3.90
  -5  -2  -1    0.80    1.70
  -5  -2  -1    0.50    1.10
  -5  -2  -1    0.00    2.00
   5   2   1   -1.40    0.90
   5   2   1    0.40    1.70
   5   2   1   -0.90    2.50
  -6  -2  -1   -0.50    2.00
  -6  -2  -1   -0.70    2.60
  -6  -2  -1   -0.50    1.20
   6   2   1    2.00    1.30
   6   2   1   -1.00    2.90
   6   2   1    1.00    1.80
  -7  -2  -1    1.90    3.50
  -7  -2  -1    1.90    2.80
  -7  -2  -1    1.30    1.60
   7   2   1    1.90    1.70
   7   2   1    1.00    2.30
   7   2   1   -0.20    3.80
  -8  -2  -1  123.89   11.00
  -8  -2  -1  132.59   14.80
   8   2   1  122.79   15.50
   8   2   1  125.99   10.50
  -9  -2  -1    6.30    4.00
  -9  -2  -1   12.90    7.00
   9   2   1    4.70    3.60
   9   2   1   14.00    7.90
   7  -3  -1   19.70    5.20
  -7   3   1   29.40    8.10
   6  -3  -1    0.20    2.30
   6  -3  -1    3.30    4.20
  -6   3   1    2.40    3.50
  -6   3   1    1.60    2.10
   5  -3  -1    1.60    2.10
   5  -3  -1    1.10    1.20
   5  -3  -1   -0.80    2.60
  -5   3   1    0.20    1.50
  -5   3   1   -0.10    3.00
   4  -3  -1  135.69   11.80
   4  -3  -1  147.69    7.90
   4  -3  -1  132.09    9.50
  -4   3   1  142.19   11.40
  -4   3   1  133.69    8.40
  -4   3   1  133.09    8.10
   3  -3  -1  882.01   39.80
   3  -3  -1  836.12   41.30
  -3   3   1  920.31   38.90
  -3   3   1  767.92   40.30
  -3   3   1  869.51   42.80
  -3   3   1  853.71   39.70
  -3   3   1  834.92   38.90
   2  -3  -1  285.67   14.40
   2  -3  -1  292.87   14.00
   2  -3  -1  281.07   15.30
  -2   3   1  270.47   16.70
  -2   3   1  301.87   14.80
  -2   3   1  283.37   15.80
  -2   3   1  287.97   13.90
  -2   3   1  277.37   14.40
  -2   3   1  289.17   14.00
  -2   3   1  278.07   14.80
  -2   3   1  291.57   15.70
  -2   3   1  311.77   19.40
   1  -3  -1   28.00    2.60
   1  -3  -1   16.20    2.80
   1  -3  -1   30.20    2.90
  -1   3   1   30.30    2.40
  -1   3   1   23.30    5.10
  -1   3   1   31.00    3.00
  -1   3   1   32.90    5.30
  -1   3   1   27.40    2.80
  -1   3   1   22.10    2.90
  -1   3   1   26.30    2.60
  -1   3   1   26.90    2.60
  -1   3   1   27.10    3.30
   0  -3  -1  448.56   23.00
   0  -3  -1  441.26   21.30
   0  -3  -1  455.45   21.00
   0  -3  -1  436.16   21.10
   0  -3  -1  385.66   23.30
   0   3   1  426.46   21.10
   0   3   1  431.26   22.40
   0   3   1  436.16   21.10
   0   3   1  456.75   20.90
  -1  -3  -1   59.49    4.20
  -1  -3  -1   56.69    4.00
  -1  -3  -1   55.59    5.00
  -1  -3  -1   54.49    4.10
   1   3   1   54.59    4.10
   1   3   1   55.69    3.70
   1   3   1   57.19    5.00
   1   3   1   53.89    4.30
   1   3   1   57.59    4.70
   1   3   1   54.29    4.20
   1   3   1   54.99    4.20
  -2  -3  -1  876.31   40.50
  -2  -3  -1  869.71   40.90
  -2  -3  -1  845.22   42.50
  -2  -3  -1  840.42   41.10
  -2  -3  -1  836.42   40.70
   2   3   1  899.11   40.40
   2   3   1  875.51   40.80
   2   3   1  832.72   40.40
   2   3   1  818.22   40.30
   2   3   1  857.51   40.60
   2   3   1  887.71   40.90
   2   3   1  862.41   41.60
  -3  -3  -1 1440.96   70.09
  -3  -3  -1 1467.25   67.39
  -3  -3  -1 1416.06   67.99
  -3  -3  -1 1417.96   68.89
   3   3   1 1482.75   67.89
   3   3   1 1459.35   69.99
   3   3   1 1547.25   69.19
   3   3   1 1426.26   67.29
  -4  -3  -1 1210.48   56.69
  -4  -3  -1 1160.88   58.19
  -4  -3  -1 1207.68   55.59
   4   3   1 1207.68   59.59
   4   3   1 1168.68   56.19
   4   3   1 1163.88   55.29
  -5  -3  -1  147.09   10.50
  -5  -3  -1  147.89    9.30
  -5  -3  -1  149.99   12.20
   5   3   1  149.49    9.10
   5   3   1  157.48   10.30
   5   3   1  164.38   13.90
  -6  -3  -1   29.20    5.10
  -6  -3  -1   35.00    7.00
  -6  -3  -1   36.00    4.30
   6   3   1   40.90    4.00
   6   3   1   37.70    7.90
   6   3   1   29.60    4.70
  -7  -3  -1   34.20    4.30
  -7  -3  -1   41.20    8.60
  -7  -3  -1   37.30    6.50
   7   3   1   25.40    3.70
   7   3   1   25.80    5.00
   7   3   1   31.00    8.50
  -8  -3  -1    7.70    2.80
  -8  -3  -1   10.80    4.20
  -8  -3  -1   12.20    5.60
   8   3   1   11.10    2.90
   8   3   1   10.60    3.60
   8   3   1    8.00    5.80
  -9  -3  -1  102.09   10.70
  -9  -3  -1   79.29   14.20
   9   3   1  109.49   16.10
   9   3   1   79.09    9.80
   7  -4  -1   -1.20    3.30
  -7   4   1    5.60    8.20
  -7   4   1    5.80    4.40
   6  -4  -1    3.00    3.50
  -6   4   1   -1.50    3.30
  -6   4   1    1.40    6.40
   5  -4  -1    9.80    3.50
  -5   4   1   22.60    8.70
  -5   4   1    8.20    4.50
   4  -4  -1    8.30    2.10
   4  -4  -1    4.50    2.90
  -4   4   1    5.80    5.80
  -4   4   1    6.40    1.70
  -4   4   1    8.10    3.50
   3  -4  -1  181.08   10.40
   3  -4  -1  181.28   11.70
  -3   4   1  169.68    9.30
  -3   4   1  181.68   10.00
  -3   4   1  185.58    9.60
  -3   4   1  188.58    9.20
  -3   4   1  189.88   12.50
  -3   4   1  194.58   17.50
   2  -4  -1   88.19    5.60
   2  -4  -1   91.39    6.20
  -2   4   1   92.39    6.80
  -2   4   1   93.29    6.80
  -2   4   1   90.19    5.00
  -2   4   1   77.99   10.70
  -2   4   1   90.99    5.40
  -2   4   1   76.69    5.40
   1  -4  -1  319.37   15.90
   1  -4  -1  335.57   16.30
  -1   4   1  323.47   17.30
  -1   4   1  284.77   16.10
  -1   4   1  328.27   19.50
  -1   4   1  307.67   15.70
  -1   4   1  308.37   15.30
  -1   4   1  306.17   15.50
   0  -4  -1  304.87   17.60
   0  -4  -1  284.07   15.10
   0  -4  -1  281.67   14.90
   0  -4  -1  286.47   14.60
   0   4   1  274.97   14.40
   0   4   1  285.97   16.60
  -1  -4  -1  129.89    7.70
  -1  -4  -1  118.09    7.80
   1   4   1  130.59    7.70
   1   4   1  120.19    9.60
   1   4   1  134.59    8.30
   1   4   1  128.49    8.70
  -2  -4  -1 2044.90   94.19
  -2  -4  -1 2036.60   94.29
  -2  -4  -1 2068.09   93.89
   2   4   1 2081.39   95.49
   2   4   1 1990.60   94.29
   2   4   1 2060.89   94.89
  -3  -4  -1  259.67   18.60
  -3  -4  -1  288.57   16.10
  -3  -4  -1  298.17   15.70
  -3  -4  -1  292.87   16.40
   3   4   1  306.27   15.80
   3   4   1  288.87   17.60
   3   4   1  291.67   16.10
  -4  -4  -1    5.50    2.20
  -4  -4  -1    6.30    2.50
  -4  -4  -1    4.20    2.70
   4   4   1    4.70    3.10
   4   4   1    4.90    2.00
   4   4   1    5.00    2.00
  -5  -4  -1   94.69    7.40
  -5  -4  -1   97.09    8.50
  -5  -4  -1  104.39    9.80
   5   4   1  103.89    8.20
   5   4   1  100.89    7.30
   5   4   1  118.19   11.40
  -6  -4  -1   -1.00    2.50
  -6  -4  -1   -1.30    2.20
  -6  -4  -1    1.70    2.10
   6   4   1    0.40    1.90
   6   4   1    0.40    1.60
   6   4   1   -0.20    3.40
  -7  -4  -1   -0.10    3.40
  -7  -4  -1   -1.80    2.50
  -7  -4  -1    0.70    2.00
   7   4   1    1.30    1.80
   7   4   1   -3.40    3.30
   7   4   1    0.00    2.30
  -8  -4  -1   56.19    8.40
  -8  -4  -1   53.99   10.30
  -8  -4  -1   56.79    6.40
   8   4   1   62.49   12.50
   8   4   1   60.49    6.00
   8   4   1   53.99    7.50
  -9  -4  -1   94.99   11.60
  -9  -4  -1   99.99   13.80
   9   4   1   81.39   10.30
   9   4   1  106.59   17.90
   6  -5  -1    9.80    4.50
  -6   5   1   15.00   10.20
   5  -5  -1    1.70    3.20
  -5   5   1    0.80    3.60
  -5   5   1    3.20    6.90
   4  -5  -1   95.59    7.10
   4  -5  -1   93.99    8.60
  -4   5   1   92.19    9.10
  -4   5   1   93.99   16.90
   3  -5  -1    6.80    2.30
  -3   5   1   10.90    6.90
  -3   5   1    6.10    2.80
  -3   5   1    7.10    1.40
   2  -5  -1   15.50    3.00
   2  -5  -1   11.30    2.30
  -2   5   1   12.50    2.70
  -2   5   1    5.50    4.40
  -2   5   1   14.60    2.10
  -2   5   1   15.00    3.30
  -2   5   1    6.40    5.10
  -2   5   1   14.30    1.70
   1  -5  -1  212.08   11.70
   1  -5  -1  215.38   12.30
  -1   5   1  198.38   10.90
  -1   5   1  217.98   15.30
  -1   5   1  204.18   13.10
   0  -5  -1  218.28   12.20
   0  -5  -1  207.28   12.40
   0  -5  -1  233.28   15.20
   0  -5  -1  213.28   11.80
   0   5   1  205.18   11.50
   0   5   1  208.78   14.20
  -1  -5  -1  100.79    6.60
  -1  -5  -1  100.89    7.00
   1   5   1   83.29    6.90
   1   5   1   87.69    7.70
   1   5   1   80.89    9.00
  -2  -5  -1   10.50    1.80
  -2  -5  -1   11.80    2.40
  -2  -5  -1   10.70    2.60
  -2  -5  -1    7.70    2.20
   2   5   1   12.00    3.60
   2   5   1   11.90    3.10
   2   5   1    9.60    2.60
  -3  -5  -1  328.77   18.80
  -3  -5  -1  324.37   18.50
  -3  -5  -1  347.97   19.20
  -3  -5  -1  359.16   19.10
   3   5   1  358.36   20.70
   3   5   1  360.66   19.10
   3   5   1  372.06   19.70
  -4  -5  -1  305.27   17.70
  -4  -5  -1  311.37   17.10
  -4  -5  -1  293.67   18.00
   4   5   1  297.07   17.50
   4   5   1  305.17   19.70
   4   5   1  298.07   16.90
  -5  -5  -1   41.50    6.20
  -5  -5  -1   50.89    6.90
  -5  -5  -1   49.00    6.00
   5   5   1   37.70    4.90
   5   5   1   51.49    8.00
   5   5   1   50.29    6.30
  -6  -5  -1   47.00    6.00
  -6  -5  -1   54.49    8.80
  -6  -5  -1   37.80    6.40
   6   5   1   45.00    5.50
   6   5   1   44.20    6.50
   6   5   1   44.20    9.30
  -7  -5  -1    0.30    2.60
  -7  -5  -1    3.20    2.40
  -7  -5  -1   -0.40    3.20
   7   5   1   -2.50    1.60
   7   5   1    1.60    2.60
   7   5   1    3.20    4.60
  -8  -5  -1    0.00    3.10
  -8  -5  -1    1.70    2.70
  -8  -5  -1    2.20    3.90
   8   5   1    2.20    2.10
   8   5   1   -0.70    2.70
   8   5   1   -0.10    4.20
  -9  -5  -1  134.99   13.30
  -9  -5  -1  137.89   16.30
   9   5   1  137.39   17.80
   9   5   1  156.28   13.10
  -5   6   1    0.10    7.30
  -5   6   1    0.70    7.30
  -4   6   1    7.00    7.80
  -4   6   1   16.80    8.20
   3  -6  -1   10.20    3.00
  -3   6   1    2.90    5.50
  -3   6   1    5.70    6.00
   2  -6  -1   88.29    7.40
   2  -6  -1   89.39    6.70
  -2   6   1   96.09    6.00
  -2   6   1   88.39    7.00
  -2   6   1   89.79   12.00
   1  -6  -1  128.19    8.40
   1  -6  -1  122.59    8.90
  -1   6   1  114.99    7.60
  -1   6   1  117.59   11.30
   0  -6  -1   25.80    4.10
   0  -6  -1   19.40    5.30
   0  -6  -1   19.60    3.40
   0  -6  -1   23.50    3.50
   0   6   1   18.90    3.00
   0   6   1   10.40    5.30
   0   6   1   24.00    5.10
  -1  -6  -1    7.60    4.50
  -1  -6  -1   12.20    2.70
  -1  -6  -1   13.80    3.00
   1   6   1   11.40    3.20
   1   6   1   12.70    5.10
   1   6   1    8.80    3.30
  -2  -6  -1  142.49   10.10
  -2  -6  -1  147.19    9.90
   2   6   1  144.59   11.00
   2   6   1  160.48   11.70
   2   6   1  147.09   10.50
  -3  -6  -1  100.69    7.50
  -3  -6  -1  105.89    8.30
  -3  -6  -1   91.99    7.10
  -3  -6  -1  108.99    8.30
   3   6   1  108.19    8.80
   3   6   1  109.19    9.60
   3   6   1  106.89    8.50
  -4  -6  -1    1.90    2.40
  -4  -6  -1    0.00    2.00
  -4  -6  -1    1.20    2.10
   4   6   1   -0.60    2.50
   4   6   1    1.30    2.10
   4   6   1   -0.70    2.20
  -5  -6  -1  261.27   15.80
  -5  -6  -1  252.37   16.50
  -5  -6  -1  237.08   16.80
   5   6   1  252.27   15.60
   5   6   1  295.07   16.80
   5   6   1  241.18   18.70
  -6  -6  -1   -2.30    2.50
  -6  -6  -1   -0.10    2.70
  -6  -6  -1   -2.00    2.10
   6   6   1   -1.50    3.40
   6   6   1   -0.30    2.00
   6   6   1   -0.40    1.80
  -7  -6  -1   73.89   10.10
  -7  -6  -1   67.99    9.00
  -7  -6  -1   71.89    7.50
   7   6   1   69.29   12.10
   7   6   1   70.09    8.90
   7   6   1   69.09    7.00
  -8  -6  -1    9.00    5.00
  -8  -6  -1    4.50    4.40
  -8  -6  -1    6.00    3.30
   8   6   1   13.70    7.30
   8   6   1    9.40    3.30
   8   6   1    9.70    4.40
  -4   7   1   -0.20    6.60
   3  -7  -1    4.60    2.80
  -3   7   1    6.90    6.40
  -3   7   1   -1.80    7.00
   2  -7  -1   25.70    4.80
   2  -7  -1   17.80    3.50
  -2   7   1   31.10    7.90
  -2   7   1    6.30    7.10
   1  -7  -1  184.78   11.90
  -1   7   1  192.48   15.60
   0  -7  -1   -0.80    1.90
   0  -7  -1    0.20    1.90
   0   7   1    0.60    4.50
   0   7   1    2.20    3.00
  -1  -7  -1 1031.00   49.90
  -1  -7  -1 1005.40   49.00
   1   7   1  947.11   53.69
   1   7   1 1049.59   52.09
   1   7   1 1081.29   51.19
  -2  -7  -1  438.96   23.90
  -2  -7  -1  443.56   24.50
   2   7   1  460.45   26.10
   2   7   1  471.05   26.50
   2   7   1  436.26   25.00
  -3  -7  -1  241.58   14.70
  -3  -7  -1  207.08   16.10
  -3  -7  -1  242.48   15.10
   3   7   1  239.18   16.30
   3   7   1  244.68   15.40
   3   7   1  232.18   15.80
  -4  -7  -1  161.18   12.40
  -4  -7  -1  198.58   12.80
  -4  -7  -1  185.98   13.20
   4   7   1  200.28   13.90
   4   7   1  197.98   13.30
   4   7   1  183.58   14.80
  -5  -7  -1    9.40    3.70
  -5  -7  -1    7.60    3.30
  -5  -7  -1    9.20    3.50
   5   7   1   15.00    4.20
   5   7   1    8.60    3.40
   5   7   1    4.60    3.80
  -6  -7  -1   46.30    7.00
  -6  -7  -1   55.69    8.00
  -6  -7  -1   49.60    8.30
   6   7   1   64.59   11.20
   6   7   1   57.89    7.30
   6   7   1   67.59    8.60
  -7  -7  -1   -1.20    3.10
  -7  -7  -1   -3.60    2.60
  -7  -7  -1   -1.50    2.10
   7   7   1    3.20    3.00
   7   7   1    2.70    4.90
   7   7   1    0.10    2.40
  -8  -7  -1    6.80    4.90
  -8  -7  -1    0.00    3.00
  -8  -7  -1    4.00    4.60
   8   7   1    9.50    4.60
   8   7   1    6.40    6.60
   8   7   1    5.00    3.20
  -3   8   1   -0.10    4.10
  -3   8   1    3.10    6.00
  -2   8   1    1.10    4.60
  -2   8   1    0.40    2.60
   1  -8  -1    1.50    2.40
  -1   8   1   -0.70    4.20
  -1   8   1    1.90    3.20
   0  -8  -1   -1.90    2.10
   0   8   1   -0.90    2.30
   0   8   1   -0.90    3.00
  -1  -8  -1   43.00    5.60
  -1  -8  -1   50.29    6.70
   1   8   1   39.90    7.30
   1   8   1   52.89    7.40
  -2  -8  -1   -0.60    2.30
  -2  -8  -1   -0.70    1.80
   2   8   1   -3.40    3.80
   2   8   1    3.00    3.50
   2   8   1   -1.40    2.50
  -3  -8  -1    1.80    3.00
  -3  -8  -1    2.10    2.70
   3   8   1    1.80    3.00
   3   8   1    7.10    3.60
   3   8   1    4.10    3.10
  -4  -8  -1    7.30    3.40
  -4  -8  -1    8.00    3.40
   4   8   1   12.60    3.90
   4   8   1   12.40    4.60
   4   8   1    8.40    4.40
  -5  -8  -1   15.80    4.50
  -5  -8  -1   20.40    5.20
   5   8   1   14.90    5.70
   5   8   1   18.30    5.20
   5   8   1   19.70    4.80
  -6  -8  -1   83.69    9.90
  -6  -8  -1   67.09    9.70
   6   8   1   70.89    8.60
   6   8   1   72.99   10.90
   6   8   1   71.79    9.30
  -7  -8  -1  121.99   12.70
  -7  -8  -1  122.19   11.50
   7   8   1  132.79   15.80
   7   8   1  112.69   11.70
   7   8   1  143.29   11.60
  -1   9   1    9.80    4.90
  -1   9   1    4.30    4.20
   0  -9  -1   30.00    5.60
   0   9   1   30.60    7.40
   0   9   1   27.80    6.20
  -1  -9  -1   -0.20    2.30
   1   9   1    2.00    3.90
   1   9   1   -0.90    3.00
  -2  -9  -1    0.50    2.60
   2   9   1   -0.30    2.90
   2   9   1    3.80    3.70
  -3  -9  -1   25.60    5.20
  -3  -9  -1   25.40    5.50
   3   9   1   29.80    6.40
   3   9   1   26.10    6.00
  -4  -9  -1    1.20    2.80
  -4  -9  -1    1.60    3.50
   4   9   1    0.20    2.80
   4   9   1    3.40    3.30
  -5  -9  -1    8.70    4.40
  -5  -9  -1   13.00    4.60
   5   9   1    9.30    4.60
   5   9   1   15.20    5.50
  -6  -9  -1   -0.10    3.50
  -6  -9  -1   -0.60    3.10
   6   9   1    1.20    3.20
   6   9   1   -1.10    3.00
   5   9  -2    3.40    4.20
   5   9  -2    2.30    4.20
  -5  -9   2   -1.80    3.30
  -5  -9   2    2.20    3.20
   4   9  -2   -2.00    3.60
   4   9  -2    2.20    3.90
  -4  -9   2    3.20    3.20
  -4  -9   2   -3.30    2.60
   3   9  -2    5.80    4.10
   3   9  -2    6.20    5.30
  -3  -9   2    7.10    4.50
   2   9  -2    6.30    5.70
  -2  -9   2   13.30    5.30
   1   9  -2   -5.00    4.50
  -1  -9   2    1.70    3.60
  -1  -9   2   -1.60    2.90
   0   9  -2    0.90    5.90
   0  -9   2    2.60    3.60
   0  -9   2    6.90    3.80
   6   8  -2   -1.30    3.50
   6   8  -2    1.40    3.20
   6   8  -2    5.40    6.00
  -6  -8   2    1.60    3.50
  -6  -8   2   -1.10    3.50
   5   8  -2   -1.80    3.70
   5   8  -2    2.30    3.50
   5   8  -2    3.20    5.30
  -5  -8   2    0.80    3.10
  -5  -8   2    5.70    4.00
   4   8  -2  286.17   22.80
   4   8  -2  254.17   19.30
   4   8  -2  244.48   17.70
  -4  -8   2  236.98   17.00
  -4  -8   2  248.78   16.90
   3   8  -2    1.10    3.20
   3   8  -2    0.40    3.40
   3   8  -2   -0.60    4.50
  -3  -8   2    2.10    3.10
  -3  -8   2    3.70    2.80
   2   8  -2   24.30    9.70
   2   8  -2   26.10    7.10
  -2  -8   2   18.40    4.90
  -2  -8   2   25.00    5.50
   1   8  -2    6.20    7.70
   1   8  -2   10.80    5.40
  -1  -8   2   12.60    3.80
  -1  -8   2    4.20    3.20
   0   8  -2   51.19   10.00
   0   8  -2   12.30    8.90
   0  -8   2   37.80    6.80
   0  -8   2   36.20    6.10
  -1   8  -2   -0.90    8.00
  -1   8  -2   10.90    6.60
   1  -8   2    4.50    3.10
   1  -8   2   -1.10    3.10
  -2   8  -2   21.30    8.90
   2  -8   2   23.90    6.20
   7   7  -2    7.70    4.00
   7   7  -2   11.50    7.00
   7   7  -2    7.50    3.70
  -7  -7   2    9.00    5.00
  -7  -7   2    4.50    4.30
  -7  -7   2    6.30    3.80
   6   7  -2   30.70    9.00
   6   7  -2   33.30    6.00
   6   7  -2   29.90    6.70
  -6  -7   2   30.20    7.10
  -6  -7   2   37.00    7.00
  -6  -7   2   33.70    6.50
   5   7  -2  683.73   40.00
   5   7  -2  657.53   34.10
   5   7  -2  605.84   34.90
  -5  -7   2  612.14   34.00
  -5  -7   2  590.34   34.10
  -5  -7   2  601.74   33.40
   4   7  -2   99.79   11.80
   4   7  -2   90.89   12.40
   4   7  -2  106.09    9.80
  -4  -7   2  105.59    9.30
  -4  -7   2   88.19    8.80
   3   7  -2   62.49   11.50
   3   7  -2   58.49    9.10
  -3  -7   2   59.09    7.60
  -3  -7   2   56.19    7.20
   2   7  -2  207.18   16.20
   2   7  -2  202.48   20.80
  -2  -7   2  185.78   12.10
  -2  -7   2  192.18   13.40
  -2  -7   2  181.28   13.00
   1   7  -2   16.10    8.70
   1   7  -2   45.40    8.70
  -1  -7   2   38.50    6.00
  -1  -7   2   36.50    4.00
  -1  -7   2   42.90    6.20
   0   7  -2  105.19   14.20
   0  -7   2   94.39    8.40
   0  -7   2  100.49    9.00
  -1   7  -2   59.29   11.50
   1  -7   2   74.79    8.50
   1  -7   2   70.19    6.90
  -2   7  -2   56.39   12.90
   2  -7   2   70.19    8.60
  -3   7  -2   91.59   16.70
   3  -7   2  105.29    9.80
  -4   7  -2    0.00    9.00
   8   6  -2    6.60    3.30
   8   6  -2    1.30    3.50
   8   6  -2    5.10    6.80
  -8  -6   2    9.50    5.20
  -8  -6   2    4.80    3.60
  -8  -6   2    6.00    5.50
   7   6  -2   67.09    9.10
   7   6  -2   77.39   14.40
   7   6  -2   63.59    7.80
  -7  -6   2   81.29    8.20
  -7  -6   2   82.39   12.10
  -7  -6   2   71.39    9.90
   6   6  -2    4.60    2.70
   6   6  -2    4.90    3.10
   6   6  -2   -0.10    4.30
  -6  -6   2    2.40    2.70
  -6  -6   2    6.10    3.30
  -6  -6   2    1.10    2.90
   5   6  -2   44.10    7.00
   5   6  -2   44.50    6.40
   5   6  -2   43.90    9.50
  -5  -6   2   49.90    7.30
  -5  -6   2   55.29    7.10
  -5  -6   2   42.50    7.30
   4   6  -2   13.80    5.80
   4   6  -2   11.40    3.60
   4   6  -2   14.00    4.60
  -4  -6   2    4.60    2.70
  -4  -6   2    7.40    3.00
  -4  -6   2    8.20    3.30
   3   6  -2   91.39   12.00
   3   6  -2   73.89    9.40
  -3  -6   2   81.39    7.30
  -3  -6   2   77.49    7.30
  -3  -6   2   77.29    6.80
  -3  -6   2   86.19    7.60
   2   6  -2  181.78   18.90
   2   6  -2  200.48   14.60
  -2  -6   2  181.38   11.70
  -2  -6   2  169.88   11.00
  -2  -6   2  157.98    9.50
  -2  -6   2  176.88   11.80
   1   6  -2    5.40    3.70
   1   6  -2    0.60    5.00
  -1  -6   2    0.60    1.50
  -1  -6   2    1.20    1.90
  -1  -6   2   -0.10    1.90
   0   6  -2   65.79    9.80
   0   6  -2   25.60   10.20
   0  -6   2   64.39    6.10
   0  -6   2   58.39    4.30
   0  -6   2   56.09    6.50
  -1   6  -2  492.15   33.30
   1  -6   2  529.35   27.10
   1  -6   2  544.95   28.10
  -2   6  -2   66.09   13.00
   2  -6   2   66.49    7.50
   2  -6   2   74.69    6.10
  -3   6  -2   47.80   12.30
  -3   6  -2    7.80    8.80
   3  -6   2   20.30    4.60
  -4   6  -2    6.20    9.20
  -4   6  -2    1.90    7.70
   4  -6   2    3.30    2.80
  -5   6  -2    0.90    9.40
   8   5  -2   79.49    7.30
   8   5  -2   91.69   10.60
   8   5  -2   92.79   16.50
  -8  -5   2   95.09   11.60
  -8  -5   2   88.39   13.80
  -8  -5   2   83.29    8.20
   7   5  -2    0.40    2.80
   7   5  -2   -1.10    4.40
   7   5  -2    2.80    2.20
  -7  -5   2    2.00    3.00
  -7  -5   2    3.80    4.00
  -7  -5   2    1.30    2.30
   6   5  -2  595.14   30.40
   6   5  -2  601.04   37.70
   6   5  -2  561.14   31.60
  -6  -5   2  592.94   30.70
  -6  -5   2  561.44   34.00
  -6  -5   2  596.54   32.30
   5   5  -2  382.16   27.00
   5   5  -2  438.56   23.60
   5   5  -2  402.86   22.00
  -5  -5   2  388.96   22.90
  -5  -5   2  399.46   21.90
  -5  -5   2  380.06   24.00
   4   5  -2   79.69    7.20
   4   5  -2   71.19   10.40
   4   5  -2   76.99    7.70
  -4  -5   2   80.09    7.00
  -4  -5   2   76.99    7.80
  -4  -5   2   85.29    7.60
   3   5  -2   51.59    7.10
   3   5  -2   47.70    9.00
  -3  -5   2   44.00    5.50
  -3  -5   2   39.90    4.90
  -3  -5   2   43.60    5.40
  -3  -5   2   30.00    5.40
  -3  -5   2   42.60    5.30
   2   5  -2   45.50    6.80
   2   5  -2   33.00    9.00
  -2  -5   2   32.50    3.70
  -2  -5   2   30.50    4.20
  -2  -5   2   28.80    4.30
  -2  -5   2   32.90    4.60
   1   5  -2   14.80    4.70
   1   5  -2    3.70    5.70
   1   5  -2   16.60    2.40
  -1  -5   2   14.60    3.10
  -1  -5   2   14.50    2.60
  -1  -5   2   16.00    3.30
   0   5  -2   24.10    2.30
   0   5  -2   13.50    7.70
   0   5  -2   40.90    7.80
   0  -5   2   24.90    3.90
   0  -5   2   25.40    3.90
   0  -5   2   27.30    2.60
  -1   5  -2   20.00    6.60
  -1   5  -2    5.50    6.60
   1  -5   2   23.70    3.50
   1  -5   2   16.90    3.50
  -2   5  -2  101.09   15.10
  -2   5  -2   94.79    9.70
   2  -5   2  129.99    8.00
   2  -5   2  149.09    9.60
  -3   5  -2    1.80    6.70
  -3   5  -2    7.20    3.80
   3  -5   2    9.70    2.80
   3  -5   2    4.00    1.80
  -4   5  -2   18.20   11.40
  -4   5  -2   20.70    5.60
   4  -5   2   19.90    4.10
   4  -5   2   18.40    5.00
  -5   5  -2    7.00    9.60
   5  -5   2    8.90    3.20
   5  -5   2   10.40    4.80
  -6   5  -2   -4.30    7.90
   6  -5   2    0.60    4.10
   9   4  -2   -0.50    3.20
   9   4  -2    0.90    6.50
  -9  -4   2    2.10    4.20
  -9  -4   2    5.00    5.70
   8   4  -2    6.20    6.10
   8   4  -2    4.40    2.90
  -8  -4   2    8.80    4.30
  -8  -4   2    7.80    5.20
  -8  -4   2    5.10    2.90
   7   4  -2  184.98   18.60
   7   4  -2  172.28   12.80
   7   4  -2  173.28   10.70
  -7  -4   2  152.18   12.80
  -7  -4   2  153.58   15.10
  -7  -4   2  167.38   11.30
   6   4  -2   31.60    4.40
   6   4  -2   41.60   10.00
   6   4  -2   29.00    5.20
  -6  -4   2   34.90    5.70
  -6  -4   2   27.80    6.60
  -6  -4   2   33.30    4.70
   5   4  -2   59.59   10.20
   5   4  -2   67.79    6.90
   5   4  -2   65.49    5.90
  -5  -4   2   68.19    8.30
  -5  -4   2   68.29    7.00
  -5  -4   2   65.39    6.10
   4   4  -2   13.40    3.40
   4   4  -2   10.90    4.30
   4   4  -2    8.70    2.50
  -4  -4   2   12.40    3.30
  -4  -4   2    8.20    3.10
  -4  -4   2   12.90    3.10
   3   4  -2   70.19    9.20
   3   4  -2   68.49    6.70
  -3  -4   2   66.39    5.70
  -3  -4   2   73.89    6.10
  -3  -4   2   68.79    6.40
  -3  -4   2   80.69    5.90
  -3  -4   2   58.59    6.40
   2   4  -2   88.09   11.10
   2   4  -2   96.89    8.20
   2   4  -2   87.59    6.50
  -2  -4   2   97.19    6.80
  -2  -4   2   83.39    6.40
  -2  -4   2   96.89    6.70
   1   4  -2   32.40    3.10
   1   4  -2   41.70    6.50
   1   4  -2   30.60    3.00
   1   4  -2   25.00    7.80
  -1  -4   2   40.00    4.00
  -1  -4   2   33.80    4.20
  -1  -4   2   37.60    3.50
   0   4  -2  134.59    9.40
   0   4  -2  173.68   13.70
   0   4  -2  162.88    8.40
   0  -4   2  166.28    8.80
   0  -4   2  172.38    9.80
   0  -4   2  176.08   10.10
   0  -4   2  175.18    8.70
  -1   4  -2  425.46   27.00
   1  -4   2  408.36   20.30
   1  -4   2  389.96   20.20
   1  -4   2  407.16   20.90
  -2   4  -2   37.00    3.50
  -2   4  -2   45.60    5.90
   2  -4   2   39.70    3.80
   2  -4   2   35.50    4.40
   2  -4   2   38.80    4.70
   2  -4   2   49.80    6.10
  -3   4  -2    1.60    1.20
  -3   4  -2   -0.70    2.00
  -3   4  -2    1.90    5.60
   3  -4   2    1.00    1.10
   3  -4   2   -1.80    1.80
   3  -4   2    0.00    1.70
  -4   4  -2   10.50    4.20
  -4   4  -2    4.20    6.80
   4  -4   2    9.40    2.90
   4  -4   2   13.20    4.50
  -5   4  -2   -0.30    3.20
  -5   4  -2   10.50    9.70
   5  -4   2    2.70    3.40
   5  -4   2    1.90    2.20
  -6   4  -2    4.20    8.40
  -6   4  -2   -0.30    3.60
   6  -4   2    1.90    3.70
   9   3  -2   10.50    4.50
   9   3  -2   13.20    8.60
  -9  -3   2   19.80    5.90
  -9  -3   2   10.20    6.60
   8   3  -2   -2.00    4.50
   8   3  -2    3.90    3.20
  -8  -3   2    2.60    3.00
  -8  -3   2    0.30    2.00
  -8  -3   2   -0.40    3.20
   7   3  -2   90.49   12.80
   7   3  -2   60.19    5.10
   7   3  -2   55.49    7.00
  -7  -3   2   57.19    7.80
  -7  -3   2   67.29    6.10
  -7  -3   2   66.49   10.70
   6   3  -2 1177.08   61.89
   6   3  -2 1086.89   52.59
   6   3  -2 1134.09   54.89
  -6  -3   2 1076.29   58.39
  -6  -3   2 1135.19   55.59
  -6  -3   2 1119.29   53.39
   5   3  -2  496.35   30.80
   5   3  -2  496.15   24.50
   5   3  -2  490.55   25.80
  -5  -3   2  470.55   28.30
  -5  -3   2  496.15   26.40
  -5  -3   2  483.55   24.80
   4   3  -2  432.86   23.90
   4   3  -2  455.35   27.80
   4   3  -2  469.35   23.10
  -4  -3   2  466.05   24.20
  -4  -3   2  445.86   25.60
  -4  -3   2  469.55   23.20
   3   3  -2   10.10    2.50
   3   3  -2    8.30    3.60
  -3  -3   2    5.60    1.90
  -3  -3   2    6.60    1.90
  -3  -3   2    9.00    2.40
   2   3  -2  510.35   24.60
   2   3  -2  480.35   23.80
   2   3  -2  511.25   29.70
  -2  -3   2  481.45   24.00
  -2  -3   2  482.45   23.80
  -2  -3   2  475.85   23.80
  -2  -3   2  442.56   25.00
   1   3  -2  332.37   16.80
   1   3  -2  339.07   19.60
   1   3  -2  362.76   17.50
  -1  -3   2  327.27   17.30
  -1  -3   2  338.57   17.10
  -1  -3   2  346.87   17.40
   0   3  -2  982.50   47.30
   0   3  -2  928.71   42.40
   0   3  -2  863.11   41.50
   0  -3   2  893.61   42.70
   0  -3   2  897.91   41.70
   0  -3   2  857.91   42.40
   0  -3   2  964.10   43.00
  -1   3  -2  151.38   11.30
  -1   3  -2  188.38    9.70
   1  -3   2  187.28    9.80
   1  -3   2  181.78   10.30
   1  -3   2  191.98   10.50
  -2   3  -2  366.56   18.50
  -2   3  -2  369.36   20.80
   2  -3   2  442.46   21.40
   2  -3   2  359.76   20.30
   2  -3   2  409.36   19.60
   2  -3   2  372.66   18.50
  -3   3  -2    3.00    4.50
  -3   3  -2    0.30    2.20
  -3   3  -2   -0.10    0.90
   3  -3   2   -1.20    1.20
   3  -3   2   -0.30    1.90
   3  -3   2    0.80    0.90
  -4   3  -2  111.99   16.40
  -4   3  -2  111.69   10.10
   4  -3   2  121.59    8.00
   4  -3   2  108.39    9.40
  -5   3  -2   54.29    8.50
  -5   3  -2   43.30   12.70
   5  -3   2   56.29    5.40
   5  -3   2   53.59    7.20
  -6   3  -2   22.10    6.40
  -6   3  -2   16.30    9.60
   6  -3   2   22.60    5.20
   6  -3   2   25.30    4.20
  -7   3  -2   -0.40    7.50
  -7   3  -2    0.00    4.40
   7  -3   2   -2.70    2.90
   9   2  -2    0.30    5.30
   9   2  -2   -0.50    3.00
  -9  -2   2    0.20    4.20
  -9  -2   2   -1.30    3.30
   8   2  -2   15.60    7.50
   8   2  -2   24.50    5.10
  -8  -2   2   25.90    8.00
  -8  -2   2   35.90    6.50
   7   2  -2    0.50    4.30
   7   2  -2   -0.80    1.20
   7   2  -2    2.20    2.60
  -7  -2   2    0.90    3.50
  -7  -2   2    2.30    2.00
  -7  -2   2   -0.90    2.10
   6   2  -2  411.26   22.50
   6   2  -2  420.96   28.60
   6   2  -2  410.76   20.30
  -6  -2   2  419.56   26.40
  -6  -2   2  403.06   23.10
  -6  -2   2  405.56   21.10
   5   2  -2    2.40    2.00
   5   2  -2    4.10    3.50
   5   2  -2    1.00    1.30
   5   2  -2    1.40    1.10
  -5  -2   2    2.70    2.70
  -5  -2   2    2.10    1.90
  -5  -2   2    1.20    1.40
   4   2  -2  744.73   35.00
   4   2  -2  717.73   35.10
   4   2  -2  755.32   36.30
   4   2  -2  738.33   40.60
  -4  -2   2  773.82   36.80
  -4  -2   2  740.03   35.40
  -4  -2   2  735.43   38.60
   3   2  -2 1341.17   63.29
   3   2  -2 1363.76   66.89
   3   2  -2 1326.37   62.09
   3   2  -2 1400.06   64.89
  -3  -2   2 1351.96   63.39
  -3  -2   2 1344.47   62.49
   2   2  -2  450.45   22.90
   2   2  -2  462.65   21.80
   2   2  -2  447.56   22.00
   2   2  -2  461.75   23.10
   2   2  -2  428.96   21.50
   2   2  -2  466.75   26.10
  -2  -2   2  428.86   23.10
  -2  -2   2  451.25   21.70
  -2  -2   2  459.85   22.30
  -2  -2   2  454.85   21.80
  -2  -2   2  430.46   23.10
   1   2  -2 3536.25  167.18
   1   2  -2 3828.92  169.48
   1   2  -2 3690.93  167.38
   1   2  -2 3905.51  168.48
  -1  -2   2 3577.64  167.48
  -1  -2   2 3612.04  167.38
  -1  -2   2 3791.52  167.48
  -1  -2   2 3745.13  170.08
   0   2  -2  177.38    9.10
   0   2  -2  177.48    8.50
   0   2  -2  177.48   10.00
   0   2  -2  162.98   12.30
   0  -2   2  153.68   10.40
   0  -2   2  180.58    8.70
   0  -2   2  179.68    9.40
   0  -2   2  182.48    9.20
  -1   2  -2 5463.15  262.37
  -1   2  -2 5914.31  263.77
  -1   2  -2 5725.83  261.47
  -1   2  -2 5511.45  262.67
   1  -2   2 5832.52  262.07
   1  -2   2 6304.67  269.47
   1  -2   2 5865.01  261.47
   1  -2   2 5784.52  262.97
   1  -2   2 5980.10  262.67
  -2   2  -2  633.14   40.70
  -2   2  -2  668.13   32.50
  -2   2  -2  719.43   34.90
  -2   2  -2  670.93   34.20
   2  -2   2  730.03   34.80
   2  -2   2  691.03   34.40
   2  -2   2  753.22   33.60
   2  -2   2  717.93   32.30
  -3   2  -2   15.30    1.40
  -3   2  -2   25.50    7.60
  -3   2  -2   16.70    1.60
  -3   2  -2   19.00    4.00
   3  -2   2   20.80    3.70
   3  -2   2   14.60    1.40
   3  -2   2   14.10    2.60
   3  -2   2   14.80    1.40
  -4   2  -2   34.80    9.00
  -4   2  -2   29.30    5.60
  -4   2  -2   30.40    2.80
   4  -2   2   30.60    4.80
   4  -2   2   23.00    2.30
   4  -2   2   27.50    3.70
  -5   2  -2  156.98   13.50
  -5   2  -2  159.98    9.50
  -5   2  -2  181.68   19.50
   5  -2   2  169.58   10.50
   5  -2   2  166.78   11.90
  -6   2  -2   38.40    4.50
  -6   2  -2   57.69   14.20
  -6   2  -2   49.10    9.00
   6  -2   2   34.50    5.90
   6  -2   2   41.40    4.90
  -7   2  -2   29.00    8.40
  -7   2  -2   37.30   12.80
   7  -2   2   21.60    5.60
  -8   2  -2   17.90    7.80
  -8   2  -2   13.80   10.90
   8  -2   2   13.10    5.00
   9   1  -2    2.40    3.20
   9   1  -2    0.20    5.40
  -9  -1   2    2.00    3.20
  -9  -1   2    1.40    4.90
   8   1  -2    3.10    4.90
   8   1  -2    7.40    3.20
  -8  -1   2    6.10    3.80
  -8  -1   2    2.30    4.30
   7   1  -2   75.59   13.00
   7   1  -2   77.39    7.00
  -7  -1   2   60.69    5.10
  -7  -1   2   66.59    7.40
  -7  -1   2   76.89   12.10
   6   1  -2   86.59    5.50
   6   1  -2   95.09   12.10
   6   1  -2   98.19    7.80
  -6  -1   2  103.59    8.40
  -6  -1   2   87.49    6.10
  -6  -1   2   93.09   10.50
   5   1  -2   74.59    4.90
   5   1  -2   78.09    6.30
   5   1  -2   87.09   10.20
   5   1  -2   77.99    4.70
  -5  -1   2   80.79    5.40
  -5  -1   2   72.99    8.60
  -5  -1   2   87.49    7.10
   4   1  -2   15.50    2.60
   4   1  -2   15.40    4.50
   4   1  -2   15.20    2.40
   4   1  -2   17.20    1.90
   4   1  -2   16.50    2.00
  -4  -1   2   16.70    3.10
  -4  -1   2   18.10    4.30
  -4  -1   2   15.90    2.20
   3   1  -2  309.17   15.40
   3   1  -2  297.97   18.50
   3   1  -2  298.17   14.90
   3   1  -2  294.37   17.30
   3   1  -2  285.07   14.40
   3   1  -2  290.07   14.30
  -3  -1   2  301.07   15.60
  -3  -1   2  295.57   14.70
  -3  -1   2  301.77   15.70
   2   1  -2 5592.04  260.97
   2   1  -2 5447.46  259.57
   2   1  -2 5762.02  258.97
   2   1  -2 5701.83  262.67
   2   1  -2 5837.52  259.87
   2   1  -2 5848.11  259.47
  -2  -1   2 5727.93  259.87
  -2  -1   2 6138.99  259.37
  -2  -1   2 6004.10  259.07
  -2  -1   2 5572.44  260.97
  -2  -1   2 5841.92  260.17
  -2  -1   2 5751.72  263.77
   1   1  -2 3660.73  163.08
   1   1  -2 3649.14  163.98
   1   1  -2 3639.24  162.78
   1   1  -2 3040.10  166.88
   1   1  -2 3794.62  162.98
   1   1  -2 3858.01  164.48
  -1  -1   2 3856.61  162.88
  -1  -1   2 3824.92  164.28
  -1  -1   2 3726.53  163.08
  -1  -1   2 3112.29  164.58
  -1  -1   2 3614.54  162.98
   0   1  -2 2548.25  111.39
   0   1  -2 2447.06  111.19
   0   1  -2 2476.15  110.99
   0   1  -2 2163.18  113.09
   0  -1   2 2520.05  110.89
   0  -1   2 2556.04  110.49
  -1   1  -2 6429.56  320.87
  -1   1  -2 6411.96  319.87
  -1   1  -2 6492.05  320.17
  -1   1  -2 6633.34  320.67
  -1   1  -2 7668.93  322.27
   1  -1   2 7112.49  320.97
   1  -1   2 7475.75  320.07
   1  -1   2 7724.63  321.57
   1  -1   2 7147.18  320.87
   1  -1   2 7506.95  319.57
   1  -1   2 7870.81  326.27
  -2   1  -2   80.39    7.10
  -2   1  -2   80.59    4.60
  -2   1  -2   77.39    5.80
  -2   1  -2   87.39    5.60
  -2   1  -2   86.69    6.70
  -2   1  -2   78.99    9.30
  -2   1  -2   81.89    4.60
   2  -1   2   88.79    4.70
   2  -1   2   80.89    5.80
   2  -1   2   89.59    6.20
   2  -1   2   94.29    4.60
   2  -1   2   82.09    6.50
  -3   1  -2  171.58    9.50
  -3   1  -2  191.98   15.70
  -3   1  -2  190.18   10.30
  -3   1  -2  186.98   12.20
   3  -1   2  186.48    9.50
   3  -1   2  175.18   10.80
   3  -1   2  178.78   10.70
  -4   1  -2  505.65   28.70
  -4   1  -2  511.35   25.10
   4  -1   2  539.55   25.10
   4  -1   2  507.45   26.40
   4  -1   2  519.35   26.40
  -5   1  -2   26.30    5.90
  -5   1  -2   20.40    3.10
   5  -1   2   18.90    3.70
   5  -1   2   16.60    5.20
   5  -1   2   22.20    4.20
  -6   1  -2  206.98   17.10
  -6   1  -2  209.08   12.70
   6  -1   2  212.18   13.40
   6  -1   2  218.88   18.00
   6  -1   2  226.08   14.20
  -7   1  -2   48.70    9.90
  -7   1  -2   47.00    6.00
   7  -1   2   48.10    6.90
  -8   1  -2   10.00    9.10
  -8   1  -2   13.60    6.90
   8  -1   2   20.20    5.80
   8   0  -2   68.49    8.00
   8   0  -2   59.99   12.50
  -8   0   2   75.59   13.30
  -8   0   2   74.89    8.30
   7   0  -2    5.50    2.60
   7   0  -2    2.30    4.50
  -7   0   2    3.10    2.50
  -7   0   2    2.80    4.40
   6   0  -2  221.78   18.50
   6   0  -2  199.58   12.50
   6   0  -2  185.38   10.60
  -6   0   2  214.38   13.40
  -6   0   2  215.08   17.00
  -6   0   2  208.68   10.70
   5   0  -2  167.78   14.70
   5   0  -2  169.98   10.30
   5   0  -2  166.18    8.70
   5   0  -2  152.68    9.40
  -5   0   2  173.48   13.60
  -5   0   2  174.88   10.90
  -5   0   2  166.28    8.80
   4   0  -2    0.50    2.30
   4   0  -2   -0.10    0.60
   4   0  -2    1.00    1.20
   4   0  -2   -0.20    1.10
   4   0  -2    0.00    0.60
  -4   0   2    0.20    2.00
  -4   0   2    0.30    0.80
  -4   0   2    0.80    1.40
   3   0  -2  891.71   41.00
   3   0  -2  903.61   42.30
   3   0  -2  847.02   42.10
   3   0  -2  905.31   42.60
   3   0  -2  905.81   41.00
   3   0  -2  906.01   44.90
   3   0  -2  908.71   46.10
  -3   0   2  926.11   42.40
  -3   0   2  943.11   42.90
  -3   0   2  934.01   41.70
   2   0  -2 7087.79  318.17
   2   0  -2 7196.68  319.07
   2   0  -2 6949.10  315.37
   2   0  -2 6812.92  316.47
   2   0  -2 6582.84  316.37
   2   0  -2 7098.09  315.47
   2   0  -2 7136.99  316.27
  -2   0   2 7451.35  316.17
  -2   0   2 7367.06  319.37
  -2   0   2 6440.56  317.87
  -2   0   2 7281.57  316.67
  -2   0   2 7098.39  316.27
   1   0  -2 1273.77   56.89
   1   0  -2 1215.18   57.59
   1   0  -2 1126.29   55.59
   1   0  -2 1165.78   55.09
   1   0  -2 1263.97   55.39
   1   0  -2 1224.48   55.29
  -1   0   2 1154.08   57.09
  -1   0   2 1235.18   55.39
  -1   0   2 1238.58   55.49
  -1   0   2 1295.47   54.99
  -1   0   2 1179.98   58.19
   0   0  -2  118.79    9.60
   0   0  -2  164.88    7.90
   0   0   2  134.69   10.00
   0   0   2  132.09    8.80
  -1   0  -2 2970.50  132.99
  -1   0  -2 3056.99  133.19
  -1   0  -2 3134.39  134.69
  -1   0  -2 3134.69  132.59
  -1   0  -2 2762.62  136.59
  -1   0  -2 2931.91  132.79
   1   0   2 2993.80  132.79
   1   0   2 3150.68  134.39
   1   0   2 2750.52  133.29
   1   0   2 2693.53  132.69
   1   0   2 2852.71  132.99
  -2   0  -2  559.74   28.10
  -2   0  -2  593.14   26.40
  -2   0  -2  555.94   28.50
  -2   0  -2  554.74   26.20
  -2   0  -2  570.34   26.70
   2   0   2  545.75   26.80
   2   0   2  554.64   26.70
   2   0   2  555.04   28.10
   2   0   2  551.44   26.30
   2   0   2  552.54   25.70
   2   0   2  565.44   25.70
  -3   0  -2    4.10    1.60
  -3   0  -2    2.70    2.00
  -3   0  -2    3.00    1.20
   3   0   2    4.10    1.40
   3   0   2    4.10    0.90
   3   0   2    3.50    0.70
   3   0   2    1.70    1.80
   3   0   2    3.40    1.70
   3   0   2    3.40    1.50
  -4   0  -2    2.50    2.40
  -4   0  -2    2.70    1.50
  -4   0  -2    1.50    1.30
   4   0   2    4.60    2.70
   4   0   2    3.60    0.80
   4   0   2    2.20    0.70
   4   0   2    3.00    1.50
   4   0   2    0.80    1.40
   4   0   2    1.10    1.40
  -5   0  -2 1043.20   51.89
  -5   0  -2  999.20   47.60
   5   0   2  963.50   45.20
   5   0   2 1024.20   48.20
   5   0   2  983.20   52.29
   5   0   2  970.10   48.00
  -6   0  -2   21.60    6.10
  -6   0  -2   21.90    3.90
   6   0   2   21.70    4.10
   6   0   2   19.40    6.10
   6   0   2   23.00    4.20
  -7   0  -2   27.00    7.50
  -7   0  -2   19.00    4.00
   7   0   2   14.70    3.90
   7   0   2   23.40    4.50
   7   0   2   19.40    6.90
  -8   0  -2   46.40   10.70
  -8   0  -2   27.10    5.40
   8   0   2   32.60    9.20
   8   0   2   23.80    5.30
   8  -1  -2    0.90    2.80
   8  -1  -2   -1.30    4.40
  -8   1   2    2.10    2.90
  -8   1   2    3.50    5.10
   7  -1  -2   25.60    8.20
   7  -1  -2   24.00    4.50
  -7   1   2   22.80    4.80
  -7   1   2   18.50    6.30
   6  -1  -2    3.80    4.30
   6  -1  -2    4.60    2.20
  -6   1   2    9.10    5.70
  -6   1   2    6.20    2.60
   5  -1  -2   22.80    3.50
   5  -1  -2   25.80    6.40
  -5   1   2   17.80    5.10
  -5   1   2   24.90    2.10
  -5   1   2   26.70    4.00
   4  -1  -2  413.36   20.70
   4  -1  -2  422.66   19.20
   4  -1  -2  390.36   24.80
  -4   1   2  396.96   19.20
  -4   1   2  447.86   24.40
  -4   1   2  406.06   21.10
   3  -1  -2   50.89    3.00
   3  -1  -2   46.30    3.60
   3  -1  -2   41.80    5.90
   3  -1  -2   46.70    3.70
  -3   1   2   44.50    3.80
  -3   1   2   43.40    3.50
  -3   1   2   45.90    3.00
   2  -1  -2  452.95   22.60
   2  -1  -2  484.35   22.30
   2  -1  -2  478.05   25.00
   2  -1  -2  495.85   22.00
   2  -1  -2  483.45   24.40
  -2   1   2  444.66   22.40
  -2   1   2  478.45   22.70
  -2   1   2  488.45   24.90
  -2   1   2  474.35   22.20
   1  -1  -2 2643.34  122.99
   1  -1  -2 2843.22  123.29
   1  -1  -2 2707.23  124.89
   1  -1  -2 2712.63  124.79
   1  -1  -2 2803.82  122.99
  -1   1   2 2900.71  123.59
  -1   1   2 2582.44  125.29
  -1   1   2 2807.12  124.99
  -1   1   2 2738.53  122.99
  -1   1   2 2680.93  122.99
   0  -1  -2 1071.39   49.10
   0  -1  -2 1056.59   47.90
   0  -1  -2 1040.70   47.90
   0  -1  -2 1014.90   47.60
   0   1   2 1064.29   47.90
   0   1   2 1034.00   47.90
   0   1   2 1123.99   48.80
  -1  -1  -2 6342.07  290.77
  -1  -1  -2 7191.18  292.17
  -1  -1  -2 6750.12  291.87
  -1  -1  -2 6287.17  290.07
  -1  -1  -2 6066.79  289.97
  -1  -1  -2 6498.65  290.37
  -1  -1  -2 6210.78  290.07
   1   1   2 6432.66  290.07
   1   1   2 6455.05  290.07
   1   1   2 6343.56  290.37
   1   1   2 6787.12  291.47
   1   1   2 6224.78  290.07
  -2  -1  -2   27.20    3.60
  -2  -1  -2   26.30    2.70
  -2  -1  -2   29.20    2.70
  -2  -1  -2   32.30    2.40
  -2  -1  -2   31.90    3.80
  -2  -1  -2   28.50    2.30
   2   1   2   26.40    2.30
   2   1   2   24.20    3.30
   2   1   2   25.10    3.50
   2   1   2   26.90    2.40
   2   1   2   28.00    2.60
   2   1   2   26.70    2.70
  -3  -1  -2   18.90    3.70
  -3  -1  -2   16.50    2.10
  -3  -1  -2   18.50    2.60
  -3  -1  -2   16.00    1.90
  -3  -1  -2   21.30    4.50
   3   1   2   16.30    2.20
   3   1   2   16.90    3.70
   3   1   2   17.80    2.60
   3   1   2   13.60    2.20
   3   1   2   18.70    2.10
  -4  -1  -2  483.85   28.20
  -4  -1  -2  514.55   24.40
  -4  -1  -2  514.65   25.90
   4   1   2  531.05   25.20
   4   1   2  521.55   24.40
   4   1   2  514.95   25.80
   4   1   2  541.65   29.30
  -5  -1  -2  110.29   10.50
  -5  -1  -2   97.79    6.00
  -5  -1  -2  103.89    7.80
   5   1   2  111.79    7.20
   5   1   2  106.19    6.10
   5   1   2  104.79   10.80
   5   1   2  100.29    7.60
  -6  -1  -2   64.19    6.50
  -6  -1  -2   69.79    9.40
   6   1   2   60.49    6.10
   6   1   2   60.29    5.80
   6   1   2   72.19    9.80
  -7  -1  -2    7.70    3.10
  -7  -1  -2    9.80    5.20
   7   1   2   11.10    5.60
   7   1   2    7.20    3.00
   7   1   2   10.10    3.30
  -8  -1  -2  120.39   10.60
  -8  -1  -2  126.79   14.70
   8   1   2  116.49   15.10
   8   1   2  126.59   10.50
  -9  -1  -2    1.10    3.40
  -9  -1  -2    2.60    5.60
   9   1   2    0.70    3.30
   9   1   2    7.00    6.60
   8  -2  -2   32.40    6.20
   8  -2  -2   28.00    9.40
  -8   2   2   45.00   10.70
   7  -2  -2    0.70    2.50
   7  -2  -2    3.90    4.50
  -7   2   2    2.90    4.10
  -7   2   2    5.20    2.70
   6  -2  -2  108.39    8.70
   6  -2  -2  124.29   13.20
  -6   2   2  104.29    8.40
  -6   2   2  121.79   12.80
   5  -2  -2   73.19    9.40
   5  -2  -2   81.09    6.50
  -5   2   2   87.09    9.50
  -5   2   2   79.29    6.50
   4  -2  -2   25.90    5.60
   4  -2  -2   26.20    3.50
  -4   2   2   24.70    1.90
  -4   2   2   27.90    5.40
  -4   2   2   23.90    1.70
  -4   2   2   21.90    1.70
  -4   2   2   22.70    3.20
   3  -2  -2  117.39    5.90
   3  -2  -2  118.09    7.10
   3  -2  -2  115.99    9.70
  -3   2   2  113.59    6.10
  -3   2   2  115.59    6.80
  -3   2   2  118.69    7.00
  -3   2   2  124.09    6.10
  -3   2   2  112.09    9.10
  -3   2   2  107.09    6.30
   2  -2  -2    0.30    1.50
   2  -2  -2    0.70    0.90
   2  -2  -2   -0.40    1.20
  -2   2   2    1.00    0.80
  -2   2   2    1.80    1.60
  -2   2   2    0.50    1.60
  -2   2   2   -0.20    0.60
  -2   2   2    0.10    0.70
  -2   2   2    0.00    0.70
  -2   2   2    0.20    1.50
  -2   2   2    1.30    0.70
   1  -2  -2 1888.51   86.79
   1  -2  -2 1849.11   86.69
   1  -2  -2 1850.71   85.59
  -1   2   2 1927.71   86.89
  -1   2   2 1971.90   85.59
  -1   2   2 1821.32   87.49
  -1   2   2 1877.81   87.09
  -1   2   2 1897.21   85.49
  -1   2   2 1970.70   85.79
  -1   2   2 1852.91   85.49
  -1   2   2 1920.91   85.59
   0  -2  -2  115.29    6.60
   0  -2  -2  114.59    6.40
   0  -2  -2  114.59    6.40
   0  -2  -2  123.09    7.00
   0   2   2  113.79    6.20
   0   2   2  119.29    6.60
   0   2   2  118.09    6.40
   0   2   2  122.49    6.40
  -1  -2  -2  458.15   21.40
  -1  -2  -2  433.76   21.30
  -1  -2  -2  438.56   22.70
  -1  -2  -2  444.66   21.30
  -1  -2  -2  429.36   21.30
   1   2   2  478.95   21.70
   1   2   2  440.36   21.30
   1   2   2  443.16   21.20
   1   2   2  482.65   22.20
   1   2   2  448.56   21.20
   1   2   2  439.96   21.30
  -2  -2  -2 1736.33   79.49
  -2  -2  -2 1670.33   80.59
  -2  -2  -2 1781.72   79.29
  -2  -2  -2 1619.54   79.59
  -2  -2  -2 1781.52   80.79
  -2  -2  -2 1776.22   79.29
   2   2   2 1830.62   80.79
   2   2   2 1759.12   79.79
   2   2   2 1661.33   79.09
   2   2   2 1755.22   79.49
   2   2   2 1753.12   80.59
   2   2   2 1743.93   79.29
  -3  -2  -2  381.76   21.10
  -3  -2  -2  383.96   18.80
  -3  -2  -2  365.06   21.40
  -3  -2  -2  393.96   19.00
  -3  -2  -2  385.26   19.70
   3   2   2  385.96   21.50
   3   2   2  377.86   18.80
   3   2   2  407.06   21.50
   3   2   2  381.86   19.40
   3   2   2  380.86   18.80
  -4  -2  -2   87.09    6.70
  -4  -2  -2   87.69    5.70
  -4  -2  -2   85.29    8.20
   4   2   2   91.99    6.60
   4   2   2   87.79    5.80
   4   2   2   88.29    8.80
   4   2   2   83.99    5.60
  -5  -2  -2   89.89    5.90
  -5  -2  -2   95.69    9.40
  -5  -2  -2   89.19    7.40
   5   2   2   97.49    6.40
   5   2   2   84.59    6.10
   5   2   2   87.29    7.00
   5   2   2   97.59   10.10
  -6  -2  -2    6.50    2.80
  -6  -2  -2    4.20    1.60
  -6  -2  -2    4.40    3.50
   6   2   2    4.50    4.20
   6   2   2    7.70    2.50
   6   2   2    2.90    1.60
  -7  -2  -2   25.80    5.10
  -7  -2  -2   25.70    7.20
  -7  -2  -2   33.60    3.60
   7   2   2   31.80    5.30
   7   2   2   27.10    7.60
   7   2   2   32.20    4.40
  -8  -2  -2   50.99   10.70
  -8  -2  -2   49.50    7.40
   8   2   2   60.49    7.30
   8   2   2   50.49    7.10
   8   2   2   60.09   12.30
  -9  -2  -2   73.59   13.40
  -9  -2  -2   68.19    9.30
   9   2   2   83.09    9.90
   9   2   2  100.39   16.60
   7  -3  -2    0.20    4.50
   7  -3  -2    0.70    3.00
  -7   3   2   -0.70    3.60
   6  -3  -2   12.00    3.60
   6  -3  -2   16.00    5.80
  -6   3   2   11.90    5.50
  -6   3   2   10.20    3.00
   5  -3  -2  302.97   21.10
   5  -3  -2  301.17   17.50
  -5   3   2  312.27   20.80
  -5   3   2  296.17   16.40
   4  -3  -2  262.37   17.70
   4  -3  -2  258.47   14.80
   4  -3  -2  255.67   12.70
  -4   3   2  258.67   13.10
  -4   3   2  259.37   17.10
  -4   3   2  249.78   13.70
  -4   3   2  251.87   12.10
   3  -3  -2   69.09    4.40
   3  -3  -2   58.99    5.20
   3  -3  -2   61.69    6.80
  -3   3   2   72.89    5.90
  -3   3   2   71.49    4.70
  -3   3   2   69.09    6.80
  -3   3   2   68.49    4.80
  -3   3   2   65.09    4.10
  -3   3   2   46.10    6.20
  -3   3   2   70.19    4.10
   2  -3  -2   30.80    4.10
   2  -3  -2   51.69    3.80
   2  -3  -2   35.40    3.00
  -2   3   2   34.60    4.20
  -2   3   2   37.40    2.80
  -2   3   2   37.00    2.90
  -2   3   2   33.60    4.50
  -2   3   2   36.70    2.50
  -2   3   2   36.00    4.30
  -2   3   2   34.10    2.90
  -2   3   2   32.70    3.10
  -2   3   2   29.60    4.10
   1  -3  -2  202.48   10.50
   1  -3  -2  206.18   11.20
  -1   3   2  203.18   10.40
  -1   3   2  202.28   10.80
  -1   3   2  205.18   10.70
  -1   3   2  207.18   10.60
  -1   3   2  191.18   10.60
  -1   3   2  175.38   11.80
  -1   3   2  235.48   13.10
  -1   3   2  222.28   12.50
  -1   3   2  196.58   11.40
   0  -3  -2 1365.76   63.19
   0  -3  -2 1307.07   61.39
   0  -3  -2 1249.77   61.69
   0  -3  -2 1349.56   61.89
   0   3   2 1369.76   61.49
   0   3   2 1360.96   61.49
   0   3   2 1365.26   61.59
   0   3   2 1361.16   61.89
   0   3   2 1300.67   60.69
   0   3   2 1358.06   61.39
  -1  -3  -2  578.54   29.40
  -1  -3  -2  614.14   29.40
  -1  -3  -2  588.04   29.80
   1   3   2  624.04   29.40
   1   3   2  656.63   29.40
   1   3   2  604.84   28.80
   1   3   2  600.44   29.40
   1   3   2  665.23   29.70
   1   3   2  614.54   29.40
  -2  -3  -2 1411.26   69.39
  -2  -3  -2 1508.05   70.09
  -2  -3  -2 1524.05   70.19
  -2  -3  -2 1371.26   69.19
  -2  -3  -2 1527.15   69.29
  -2  -3  -2 1529.25   69.69
   2   3   2 1590.94   69.69
   2   3   2 1518.05   70.09
   2   3   2 1526.65   69.29
   2   3   2 1500.85   69.19
   2   3   2 1445.96   69.09
   2   3   2 1576.84   70.09
  -3  -3  -2    0.30    1.50
  -3  -3  -2    0.90    1.90
  -3  -3  -2    2.60    2.00
  -3  -3  -2   -0.30    1.30
   3   3   2    1.10    1.50
   3   3   2    1.00    1.90
   3   3   2   -0.20    1.90
   3   3   2   -0.10    1.00
  -4  -3  -2  851.51   41.40
  -4  -3  -2  864.11   43.10
  -4  -3  -2  858.01   40.20
   4   3   2  814.62   40.80
   4   3   2  820.12   40.00
   4   3   2  862.91   44.00
  -5  -3  -2   48.50    5.90
  -5  -3  -2   39.90    4.40
  -5  -3  -2   38.70    6.60
   5   3   2   39.60    5.00
   5   3   2   42.00    4.00
   5   3   2   39.60    7.20
  -6  -3  -2  139.09   13.10
  -6  -3  -2  155.28   11.30
  -6  -3  -2  156.08    9.60
   6   3   2  158.68    9.60
   6   3   2  159.08   11.00
   6   3   2  165.18   15.00
  -7  -3  -2    0.10    1.50
  -7  -3  -2   -0.30    2.70
  -7  -3  -2   -0.40    3.20
   7   3   2   -2.30    2.10
   7   3   2   -0.10    1.40
   7   3   2   -0.80    4.10
  -8  -3  -2   13.10    6.00
  -8  -3  -2   16.10    5.00
   8   3   2    5.80    2.60
   8   3   2   16.20    7.00
   8   3   2    9.70    3.40
  -9  -3  -2   24.10    6.20
  -9  -3  -2   23.90    8.70
   9   3   2   14.70    4.80
   9   3   2   17.50    8.40
  -7   4   2    1.30    7.50
  -7   4   2    0.80    4.20
   6  -4  -2    0.40    2.80
  -6   4   2    2.30    4.10
  -6   4   2   -1.30    5.50
   5  -4  -2   13.90    3.90
  -5   4   2   11.70    2.60
  -5   4   2   14.90    5.20
   4  -4  -2    4.70    1.60
   4  -4  -2    3.20    2.40
  -4   4   2    1.30    3.80
  -4   4   2    4.50    3.20
  -4   4   2    6.20    1.90
  -4   4   2    4.20    1.20
   3  -4  -2   99.39    6.30
   3  -4  -2  101.19    7.40
  -3   4   2   86.79    8.20
  -3   4   2  104.19    6.00
  -3   4   2  109.09   12.00
  -3   4   2   97.39    7.00
  -3   4   2   86.69    5.70
  -3   4   2   97.49    5.40
  -3   4   2   80.89    6.40
   2  -4  -2   -0.40    0.90
   2  -4  -2   -0.20    1.20
  -2   4   2   -0.50    1.10
  -2   4   2    1.70    2.40
  -2   4   2    1.50    1.80
  -2   4   2   -1.70    2.80
  -2   4   2    0.10    1.60
  -2   4   2    0.30    1.20
  -2   4   2    1.40    1.70
  -2   4   2    1.20    1.20
  -2   4   2    0.30    0.80
   1  -4  -2  152.98    8.80
  -1   4   2  158.58    9.00
  -1   4   2  163.98   10.90
  -1   4   2  163.78    8.90
  -1   4   2  148.69    9.70
  -1   4   2  160.28    9.00
  -1   4   2  150.48    9.20
   0  -4  -2  191.58   10.60
   0  -4  -2  180.18   13.00
   0  -4  -2  195.88   10.40
   0  -4  -2  189.58    9.40
   0   4   2  197.98   11.30
   0   4   2  187.68   10.60
   0   4   2  187.98   10.20
   0   4   2  181.98    9.80
   0   4   2  159.88   10.10
  -1  -4  -2  208.08   12.60
  -1  -4  -2  200.68   11.20
  -1  -4  -2  194.08   11.20
   1   4   2  199.88   10.40
   1   4   2  207.28   10.90
   1   4   2  209.38   11.30
   1   4   2  180.08   11.20
   1   4   2  205.78   11.60
  -2  -4  -2    2.20    2.40
  -2  -4  -2    2.20    1.70
  -2  -4  -2    2.80    1.80
  -2  -4  -2    1.10    1.50
   2   4   2    0.70    1.30
   2   4   2    0.50    1.50
   2   4   2    2.30    1.40
   2   4   2    1.10    1.50
  -3  -4  -2  459.25   24.60
  -3  -4  -2  472.85   23.70
  -3  -4  -2  457.35   25.80
  -3  -4  -2  476.05   24.20
   3   4   2  472.65   23.90
   3   4   2  465.15   23.60
   3   4   2  472.15   24.80
   3   4   2  469.55   25.30
  -4  -4  -2   93.29    7.00
  -4  -4  -2   90.49    7.60
  -4  -4  -2   96.79    8.50
   4   4   2   97.69    9.30
   4   4   2   96.19    7.30
   4   4   2   95.89    6.80
  -5  -4  -2   29.20    5.10
  -5  -4  -2   31.70    4.20
  -5  -4  -2   31.50    5.90
   5   4   2   35.00    7.10
   5   4   2   38.00    4.50
   5   4   2   28.10    4.60
  -6  -4  -2   22.40    5.80
  -6  -4  -2   18.20    3.40
  -6  -4  -2   12.40    3.70
   6   4   2   21.90    4.20
   6   4   2   21.60    6.60
   6   4   2   13.10    2.80
  -7  -4  -2   83.19   11.00
  -7  -4  -2   95.89    9.20
  -7  -4  -2   73.89    6.80
   7   4   2   81.79   11.50
   7   4   2   76.29    6.60
   7   4   2   89.99    8.30
  -8  -4  -2    4.00    4.60
  -8  -4  -2    1.60    3.50
  -8  -4  -2    5.10    2.50
   8   4   2    1.30    4.40
   8   4   2    2.10    2.70
   8   4   2    3.10    2.10
  -9  -4  -2  152.08   13.80
  -9  -4  -2  158.48   17.70
   9   4   2  152.78   12.70
   9   4   2  159.28   18.70
  -6   5   2   15.40   10.00
  -6   5   2    9.00    5.30
   5  -5  -2   54.89    7.20
  -5   5   2   55.49   13.90
  -5   5   2   44.50    7.90
   4  -5  -2   54.89    6.90
  -4   5   2   70.29   13.90
  -4   5   2   69.09    8.00
   3  -5  -2   -1.00    1.40
  -3   5   2   -0.80    1.00
  -3   5   2    0.70    4.60
  -3   5   2    0.90    4.00
  -3   5   2    0.60    0.90
  -3   5   2    1.40    2.20
   2  -5  -2  102.49    6.50
   2  -5  -2   96.09    6.90
  -2   5   2  100.99    5.80
  -2   5   2   81.69    8.30
  -2   5   2  104.69   10.60
  -2   5   2   98.19    7.30
  -2   5   2   90.39    6.10
  -2   5   2   66.89   10.80
   1  -5  -2    0.50    1.70
   1  -5  -2   -0.60    1.30
  -1   5   2    0.50    2.00
  -1   5   2    1.30    3.20
  -1   5   2    0.80    1.30
  -1   5   2    1.20    1.70
  -1   5   2    0.30    1.30
  -1   5   2    2.20    1.70
   0  -5  -2  127.29    8.20
   0  -5  -2  121.29    7.90
   0   5   2  121.89    9.10
   0   5   2  127.59    8.40
   0   5   2  118.89    7.50
   0   5   2  110.99    7.40
  -1  -5  -2   38.30    4.10
  -1  -5  -2   44.10    4.40
   1   5   2   36.80    4.50
   1   5   2   36.00    4.80
   1   5   2   41.30    4.50
  -2  -5  -2   16.10    3.30
  -2  -5  -2   12.30    2.70
  -2  -5  -2   11.80    2.70
   2   5   2   13.50    3.00
   2   5   2   12.20    2.70
   2   5   2   13.70    2.90
   2   5   2   13.30    2.40
  -3  -5  -2   11.80    3.00
  -3  -5  -2    6.80    2.50
  -3  -5  -2    8.80    2.70
  -3  -5  -2    6.90    4.10
   3   5   2    7.50    2.50
   3   5   2    5.90    2.50
   3   5   2    9.40    3.30
   3   5   2    7.30    2.30
  -4  -5  -2   65.19    6.40
  -4  -5  -2   64.89    6.90
  -4  -5  -2   69.29    6.20
   4   5   2   59.69    5.80
   4   5   2   54.99    6.30
   4   5   2   58.19    7.30
  -5  -5  -2  261.97   15.00
  -5  -5  -2  254.67   15.90
  -5  -5  -2  220.08   16.50
   5   5   2  257.07   18.30
   5   5   2  254.87   14.70
   5   5   2  255.77   15.50
  -6  -5  -2  117.59    9.10
  -6  -5  -2  116.49   10.30
  -6  -5  -2  127.79   12.00
   6   5   2  117.99    9.90
   6   5   2  126.19   13.30
   6   5   2  134.29    9.10
  -7  -5  -2   28.20    5.90
  -7  -5  -2   25.70    7.00
  -7  -5  -2   18.00    3.90
   7   5   2   18.50    4.60
   7   5   2   18.80    3.70
   7   5   2   17.30    6.60
  -8  -5  -2    4.50    4.00
  -8  -5  -2    1.40    2.60
  -8  -5  -2    4.50    4.50
   8   5   2    4.80    3.70
   8   5   2    5.30    2.70
   8   5   2    5.80    5.30
  -9  -5  -2    3.80    4.00
  -9  -5  -2    7.60    5.80
   9   5   2    2.40    5.80
   9   5   2    0.60    2.30
   9   5   2    4.30    3.70
  -5   6   2    8.40    8.50
  -5   6   2    5.80   12.50
  -4   6   2   11.90    6.80
  -4   6   2    9.60    7.90
  -3   6   2    2.50    5.60
  -3   6   2    9.30    5.60
  -3   6   2    6.10    3.20
  -3   6   2    6.30    1.60
   2  -6  -2   23.10    3.50
  -2   6   2   17.90    3.20
  -2   6   2   23.70    2.50
  -2   6   2   26.00    6.00
  -2   6   2    6.10    5.50
   1  -6  -2  321.67   17.50
  -1   6   2  299.17   18.60
  -1   6   2  337.17   18.30
  -1   6   2  337.37   20.40
  -1   6   2  343.47   17.50
   0  -6  -2   10.20    2.70
   0  -6  -2   10.80    2.70
   0   6   2    7.60    3.00
   0   6   2    5.20    3.90
   0   6   2    5.90    2.30
   0   6   2    7.10    2.70
  -1  -6  -2  415.56   21.80
  -1  -6  -2  400.26   22.00
   1   6   2  423.46   23.20
   1   6   2  425.86   23.00
   1   6   2  415.46   22.50
  -2  -6  -2  221.78   13.70
  -2  -6  -2  229.28   13.60
   2   6   2  220.18   14.20
   2   6   2  232.68   13.80
   2   6   2  224.48   13.90
  -3  -6  -2   86.99    7.20
  -3  -6  -2   78.49    7.10
  -3  -6  -2   74.19    7.00
  -3  -6  -2   73.09    6.20
   3   6   2   76.49    7.50
   3   6   2   88.39    7.70
   3   6   2   89.39    7.50
  -4  -6  -2  148.09   11.10
  -4  -6  -2  147.39   10.50
  -4  -6  -2  144.29   10.80
   4   6   2  145.79   10.40
   4   6   2  143.09   12.00
   4   6   2  162.18   11.00
  -5  -6  -2    6.80    3.60
  -5  -6  -2    3.90    2.80
  -5  -6  -2    7.10    3.20
   5   6   2    8.60    4.10
   5   6   2    5.30    2.70
   5   6   2    6.40    2.70
  -6  -6  -2   67.59    6.90
  -6  -6  -2   61.49    8.40
  -6  -6  -2   54.79    7.80
   6   6   2   61.59    6.80
   6   6   2   60.79    7.50
   6   6   2   61.69   10.40
  -7  -6  -2   -0.60    3.20
  -7  -6  -2    2.70    2.70
  -7  -6  -2    0.70    2.70
   7   6   2   -1.30    1.50
   7   6   2    2.10    4.50
   7   6   2    0.00    2.40
  -8  -6  -2   10.70    5.60
  -8  -6  -2   16.50    4.40
  -8  -6  -2   14.50    5.20
   8   6   2   12.50    4.70
   8   6   2   27.30    8.70
   8   6   2   17.40    4.00
  -3   7   2   -1.80    4.00
  -3   7   2    1.30    2.20
   2  -7  -2   85.79    6.90
  -2   7   2   88.39   11.40
  -2   7   2   79.59    7.80
   1  -7  -2  218.48   13.50
  -1   7   2  248.88   14.90
  -1   7   2  212.18   16.20
   0  -7  -2    1.80    2.40
   0  -7  -2    3.30    2.40
   0   7   2   -1.20    2.30
   0   7   2    2.10    2.50
   0   7   2   -1.10    3.40
  -1  -7  -2   30.80    4.50
  -1  -7  -2   27.60    4.80
   1   7   2   33.50    5.80
   1   7   2   22.70    4.70
   1   7   2   25.40    5.20
  -2  -7  -2   13.30    3.70
  -2  -7  -2    7.00    2.80
   2   7   2    6.10    3.00
   2   7   2   10.70    3.90
   2   7   2    6.60    3.00
  -3  -7  -2    3.80    2.80
  -3  -7  -2    8.00    3.30
  -3  -7  -2   11.00    3.40
   3   7   2    2.40    2.30
   3   7   2    6.00    3.00
   3   7   2    2.20    2.40
  -4  -7  -2   14.50    4.00
  -4  -7  -2   17.10    4.10
  -4  -7  -2    4.80    3.10
   4   7   2   13.30    4.40
   4   7   2   12.10    3.90
   4   7   2    5.10    3.20
  -5  -7  -2    6.10    3.30
  -5  -7  -2    8.30    3.50
  -5  -7  -2    2.80    2.80
   5   7   2    2.70    3.20
   5   7   2   -2.10    2.10
   5   7   2    0.90    2.40
  -6  -7  -2   39.70    6.30
  -6  -7  -2   36.30    7.20
  -6  -7  -2   34.40    6.80
   6   7   2   27.70    7.50
   6   7   2   34.50    5.50
   6   7   2   36.60    6.30
  -7  -7  -2  145.59   13.00
  -7  -7  -2  136.09   11.50
  -7  -7  -2  134.39   13.90
   7   7   2  145.89   11.20
   7   7   2  146.09   15.80
   7   7   2  175.58   13.10
  -8  -7  -2    7.70    3.80
  -8  -7  -2    6.50    4.70
  -8  -7  -2    3.40    4.80
   8   7   2   11.60    6.80
   8   7   2    4.40    3.70
   8   7   2    8.90    3.70
  -2   8   2    1.40    3.10
  -2   8   2    8.00    4.70
   1  -8  -2    6.00    2.80
  -1   8   2    7.70    3.70
  -1   8   2    7.80    4.70
   0  -8  -2    2.00    2.30
   0   8   2    1.70    3.00
   0   8   2    0.20    2.90
  -1  -8  -2   14.80    4.10
  -1  -8  -2   13.80    3.50
   1   8   2   12.10    4.20
   1   8   2   23.60    5.30
  -2  -8  -2   22.20    4.90
  -2  -8  -2   20.10    4.20
   2   8   2   17.80    4.80
   2   8   2   27.20    5.90
  -3  -8  -2   56.09    7.20
  -3  -8  -2   41.70    6.30
   3   8   2   38.10    6.30
   3   8   2   31.10    5.90
  -4  -8  -2   61.59    8.10
  -4  -8  -2   61.89    8.00
   4   8   2   59.49    8.50
   4   8   2   54.89    7.80
   4   8   2   76.89    8.60
  -5  -8  -2   20.20    4.90
  -5  -8  -2   12.90    4.20
   5   8   2    7.00    3.50
   5   8   2   15.00    5.40
   5   8   2   12.30    4.10
  -6  -8  -2   55.99    8.10
  -6  -8  -2   41.00    7.30
   6   8   2   40.90    6.90
   6   8   2   41.40    6.50
   6   8   2   49.90    9.50
  -7  -8  -2    3.80    3.80
  -7  -8  -2   -0.70    3.30
   7   8   2    0.90    3.10
   7   8   2   -0.20    4.10
   7   8   2    7.30    4.30
   1  -9  -2   -2.30    2.80
  -1   9   2    0.60    3.90
  -1   9   2   -1.90    2.90
   0  -9  -2    4.40    3.10
   0   9   2    3.80    4.50
   0   9   2    4.10    3.60
  -1  -9  -2    3.10    2.80
   1   9   2    6.20    4.40
   1   9   2    1.40    3.60
  -2  -9  -2   47.60    7.10
  -2  -9  -2   42.40    6.10
   2   9   2   34.30    6.90
   2   9   2   39.90    6.90
  -3  -9  -2    2.10    2.90
  -3  -9  -2    3.80    3.30
   3   9   2   -0.40    3.00
   3   9   2    0.20    2.70
  -4  -9  -2   24.90    6.00
  -4  -9  -2   28.80    5.80
   4   9   2   17.70    5.10
   4   9   2   32.10    6.10
  -5  -9  -2    0.00    2.60
  -5  -9  -2    2.60    3.60
   5   9   2    1.20    3.40
   5   9   2    3.10    3.60
  -6  -9  -2    1.50    3.40
  -6  -9  -2    0.40    3.40
   6   9   2   -0.40    3.30
   6   9   2    0.20    2.90
  -2 -10  -2    2.60    4.30
   2  10   2    0.50    4.00
   2  10   2    4.20    3.90
  -3 -10  -2   40.50    7.70
   3  10   2   49.60    8.60
   3  10   2   66.69    9.50
  -4 -10  -2   25.10    6.10
  -4 -10  -2   32.30    6.90
   4  10   2   22.20    6.20
   4  10   2   26.40    6.50
   4   9  -3   63.19   17.20
   4   9  -3   40.90    9.40
   4   9  -3   63.79    9.90
  -4  -9   3   55.19    9.10
   3   9  -3    1.90    3.90
   3   9  -3   -3.00    3.50
  -3  -9   3    3.90    4.10
   2   9  -3    0.20    4.70
  -2  -9   3   -1.90    3.30
  -2  -9   3    3.60    4.40
   1   9  -3    6.80    6.10
  -1  -9   3    9.50    4.50
  -1  -9   3    2.00    3.70
   6   8  -3   -1.00    3.20
   6   8  -3    3.00    3.90
   6   8  -3    0.70    5.10
  -6  -8   3    0.10    3.60
  -6  -8   3    2.70    3.80
   5   8  -3   10.40    6.90
   5   8  -3    8.90    4.40
   5   8  -3   17.30    5.70
  -5  -8   3   15.10    4.90
  -5  -8   3   16.60    5.40
   4   8  -3  169.28   15.30
   4   8  -3  181.88   14.50
   4   8  -3  193.68   19.70
  -4  -8   3  139.79   12.50
  -4  -8   3  164.38   13.50
   3   8  -3   28.50   10.30
   3   8  -3   33.10    8.10
  -3  -8   3   28.40    5.30
  -3  -8   3   29.20    6.20
   2   8  -3    7.00    5.00
   2   8  -3    0.20    6.80
  -2  -8   3   -0.10    3.00
  -2  -8   3    1.40    2.90
   1   8  -3    6.80    5.60
   1   8  -3    9.80    9.30
  -1  -8   3   10.60    3.70
  -1  -8   3   14.10    4.60
   0   8  -3    2.00    5.10
   0   8  -3    0.10    8.10
   0  -8   3    0.50    3.00
   0  -8   3   -1.20    2.30
  -1   8  -3    8.10    9.10
  -1   8  -3    5.70    6.70
   1  -8   3    4.60    3.50
   1  -8   3    1.70    3.40
  -2   8  -3    7.70   10.70
   2  -8   3   16.40    5.10
   7   7  -3   35.10    7.50
   7   7  -3   40.10    6.80
   7   7  -3   24.30    9.20
  -7  -7   3   24.70    5.80
  -7  -7   3   47.10    8.50
  -7  -7   3   23.00    7.00
   6   7  -3   -0.10    4.80
   6   7  -3   -3.90    2.90
   6   7  -3    0.30    3.00
  -6  -7   3    0.20    3.30
  -6  -7   3   -3.30    2.40
  -6  -7   3    1.10    2.80
   5   7  -3   16.10    5.00
   5   7  -3   24.70    5.50
   5   7  -3   26.00    8.60
  -5  -7   3   14.50    4.70
  -5  -7   3   22.20    5.40
   4   7  -3  174.08   14.60
   4   7  -3  151.98   17.10
   4   7  -3  153.68   12.40
  -4  -7   3  161.68   12.20
  -4  -7   3  145.99   11.80
   3   7  -3  149.59   17.70
   3   7  -3  142.39   13.10
  -3  -7   3  123.79   10.00
  -3  -7   3  114.09   10.30
  -3  -7   3  129.09   10.70
   2   7  -3  179.98   15.60
   2   7  -3  157.68   20.40
  -2  -7   3  155.88   10.90
  -2  -7   3  172.78   12.40
  -2  -7   3  169.98   12.40
   1   7  -3    3.70    7.40
   1   7  -3    4.10    4.20
  -1  -7   3    2.20    2.80
  -1  -7   3    4.30    2.60
   0   7  -3    2.50    4.80
   0   7  -3    0.90    7.90
   0  -7   3    1.30    2.20
   0  -7   3    2.10    2.80
  -1   7  -3    4.00    8.80
  -1   7  -3   -2.90    4.30
   1  -7   3    0.90    2.10
   1  -7   3    2.20    2.90
  -2   7  -3   12.10   11.10
  -2   7  -3   25.60    9.60
   2  -7   3   49.70    7.00
  -3   7  -3   16.70   10.10
  -3   7  -3    1.60    9.50
   3  -7   3   20.30    5.10
   8   6  -3   22.30   10.00
   8   6  -3   23.00    4.80
   8   6  -3   25.20    6.70
  -8  -6   3   15.90    4.70
  -8  -6   3   25.00    6.80
  -8  -6   3   21.20    7.90
   7   6  -3   13.10    4.80
   7   6  -3    4.10    5.40
   7   6  -3    9.30    3.60
  -7  -6   3    8.60    3.70
  -7  -6   3    4.80    4.30
  -7  -6   3   14.50    6.20
   6   6  -3    5.00    3.40
   6   6  -3    4.20    3.60
   6   6  -3    8.20    6.00
  -6  -6   3    6.30    4.10
  -6  -6   3   10.80    4.30
  -6  -6   3    3.70    2.80
   5   6  -3  106.39    9.60
   5   6  -3   97.69   13.60
   5   6  -3  116.99   10.60
  -5  -6   3   98.39   10.30
  -5  -6   3  119.09   10.20
  -5  -6   3  101.29    9.20
   4   6  -3   76.59    9.60
   4   6  -3   78.19   11.80
  -4  -6   3   78.49    7.80
  -4  -6   3   91.59    8.30
  -4  -6   3   81.99    8.30
   3   6  -3   22.90    5.60
   3   6  -3   22.90    8.10
  -3  -6   3   20.70    4.50
  -3  -6   3   16.80    3.90
  -3  -6   3   24.00    4.30
  -3  -6   3   19.70    4.40
   2   6  -3    4.30    3.80
   2   6  -3    4.70    6.90
  -2  -6   3    2.00    2.20
  -2  -6   3    2.30    1.80
  -2  -6   3    2.50    2.50
  -2  -6   3    3.40    2.50
   1   6  -3   50.59    9.10
   1   6  -3   34.70   11.70
  -1  -6   3   66.09    7.50
  -1  -6   3   56.59    6.80
  -1  -6   3   47.00    4.70
   0   6  -3   57.19   10.20
   0  -6   3   62.79    6.30
   0  -6   3   61.99    5.40
   0  -6   3   75.69    7.30
  -1   6  -3   85.09   13.60
   1  -6   3   93.09    7.60
   1  -6   3   99.19    8.50
  -2   6  -3   -2.50    5.10
  -2   6  -3    7.60    9.00
   2  -6   3    3.50    2.90
   2  -6   3   -0.10    1.90
  -3   6  -3   23.40   10.40
  -3   6  -3   10.90    9.20
   3  -6   3   36.80    5.80
  -4   6  -3    0.00    6.70
  -4   6  -3   -0.30    7.70
   4  -6   3    4.70    3.00
   8   5  -3    4.90    7.30
   8   5  -3    2.60    3.70
  -8  -5   3    1.60    5.10
  -8  -5   3    0.40    3.50
  -8  -5   3    2.60    2.80
   7   5  -3  102.59    8.30
   7   5  -3   98.89   14.90
   7   5  -3  100.09    9.70
  -7  -5   3   99.19    8.80
  -7  -5   3  104.39   10.40
  -7  -5   3   82.19   11.40
   6   5  -3   26.60    5.40
   6   5  -3   18.70    4.10
   6   5  -3   16.60    6.90
  -6  -5   3   25.40    4.70
  -6  -5   3   17.40    5.50
  -6  -5   3   22.20    5.50
   5   5  -3  225.78   15.80
   5   5  -3  236.88   14.80
   5   5  -3  239.08   20.20
  -5  -5   3  236.98   16.80
  -5  -5   3  240.48   14.90
  -5  -5   3  235.78   15.70
   4   5  -3   74.29    9.00
   4   5  -3  106.79   12.80
  -4  -5   3   96.79    7.90
  -4  -5   3   84.49    8.40
  -4  -5   3   91.49    8.10
   3   5  -3  193.68   13.90
   3   5  -3  194.38   18.00
  -3  -5   3  155.88   11.30
  -3  -5   3  189.08   11.90
  -3  -5   3  179.38   11.70
   2   5  -3    2.00    1.80
   2   5  -3    3.50    6.00
   2   5  -3    1.00    2.70
  -2  -5   3    3.00    2.10
  -2  -5   3    3.00    2.00
  -2  -5   3    0.00    1.80
  -2  -5   3    0.90    2.30
   1   5  -3    4.60    3.50
   1   5  -3    2.00    1.40
   1   5  -3   -1.30    4.70
   1   5  -3   -0.10    1.30
  -1  -5   3    0.80    1.90
  -1  -5   3    1.20    2.00
  -1  -5   3   -0.30    1.40
  -1  -5   3    1.30    1.40
   0   5  -3   13.90    2.90
   0   5  -3   10.40    1.60
   0   5  -3    5.10    6.10
   0   5  -3   13.60    5.70
   0  -5   3   13.00    3.20
   0  -5   3   11.00    1.90
   0  -5   3   14.20    3.00
  -1   5  -3   74.09   11.70
   1  -5   3   75.69    7.00
   1  -5   3   72.19    6.10
  -2   5  -3  459.05   33.40
   2  -5   3  459.55   23.90
   2  -5   3  498.45   25.40
  -3   5  -3   50.59    9.00
   3  -5   3   70.99    5.40
   3  -5   3   69.09    6.90
  -4   5  -3   10.80    5.30
  -4   5  -3    0.40    7.70
   4  -5   3    5.90    3.20
   4  -5   3    5.80    4.10
  -5   5  -3   11.70    9.90
   5  -5   3   14.90    5.10
   5  -5   3   12.10    4.00
   8   4  -3   -0.70    4.80
   8   4  -3    1.50    2.80
  -8  -4   3    1.40    4.40
  -8  -4   3   -0.20    3.30
  -8  -4   3    1.50    2.50
   7   4  -3   11.20    3.80
   7   4  -3    6.70    5.90
   7   4  -3   11.90    3.00
  -7  -4   3    6.00    3.00
  -7  -4   3   12.40    4.40
  -7  -4   3   11.50    5.60
   6   4  -3   10.20    5.90
   6   4  -3    5.50    2.50
   6   4  -3   15.00    4.10
  -6  -4   3    7.80    2.80
  -6  -4   3    7.80    3.90
  -6  -4   3    3.30    3.60
   5   4  -3  170.08   12.10
   5   4  -3  195.88   17.00
   5   4  -3  170.58   11.10
  -5  -4   3  170.88   11.20
  -5  -4   3  157.78   13.40
  -5  -4   3  171.08   12.30
   4   4  -3  235.58   19.10
   4   4  -3  247.08   15.50
  -4  -4   3  238.98   16.00
  -4  -4   3  239.38   14.20
  -4  -4   3  249.58   15.00
   3   4  -3    1.30    1.90
   3   4  -3    2.50    2.10
   3   4  -3    5.30    4.30
  -3  -4   3    1.50    1.60
  -3  -4   3    3.90    2.00
  -3  -4   3    2.50    1.80
   2   4  -3  314.37   26.00
   2   4  -3  377.16   19.30
   2   4  -3  355.46   21.20
  -2  -4   3  352.26   18.80
  -2  -4   3  353.96   18.80
  -2  -4   3  360.06   18.90
   1   4  -3   43.60   11.10
   1   4  -3   86.29    6.20
   1   4  -3   73.19    9.00
   1   4  -3   69.89    5.00
  -1  -4   3   80.49    5.50
  -1  -4   3   70.39    5.90
  -1  -4   3   84.29    6.10
   0   4  -3    3.60    5.70
   0   4  -3   15.70    1.70
   0   4  -3    9.00    3.10
   0   4  -3   25.30    6.30
   0  -4   3   21.20    2.30
   0  -4   3   16.50    2.80
   0  -4   3   16.70    2.90
   0  -4   3   19.20    3.10
  -1   4  -3   -1.60    4.60
  -1   4  -3   -2.20    3.10
  -1   4  -3    1.30    2.40
   1  -4   3    1.00    1.70
   1  -4   3   -0.10    1.30
   1  -4   3    0.90    1.60
  -2   4  -3    2.70    5.50
  -2   4  -3    8.80    4.10
   2  -4   3    8.80    3.00
   2  -4   3    9.00    3.10
   2  -4   3   10.50    2.70
   2  -4   3    9.10    2.20
  -3   4  -3   27.50   11.50
  -3   4  -3   45.00    7.50
   3  -4   3   52.39    5.70
   3  -4   3   52.49    7.30
   3  -4   3   49.80    4.10
  -4   4  -3  289.87   20.60
   4  -4   3  318.27   17.60
   4  -4   3  314.97   19.90
  -5   4  -3   22.30    6.40
  -5   4  -3   16.30   10.50
   5  -4   3   18.60    5.60
   5  -4   3   29.00    4.70
  -6   4  -3    2.50    4.20
  -6   4  -3    2.70    9.10
   6  -4   3    0.00    3.60
   9   3  -3   -0.70    3.10
   9   3  -3    1.30    6.20
  -9  -3   3   -0.30    4.90
  -9  -3   3    5.20    4.50
   8   3  -3   88.09   15.80
   8   3  -3   69.09    8.60
  -8  -3   3   77.39   12.90
  -8  -3   3   89.09   10.90
  -8  -3   3   63.99    6.80
   7   3  -3   91.39    6.40
   7   3  -3   93.19    8.60
   7   3  -3   89.99   13.30
  -7  -3   3   87.39    7.30
  -7  -3   3   78.19    8.70
  -7  -3   3   81.89   11.20
   6   3  -3  237.88   13.70
   6   3  -3  264.27   21.50
   6   3  -3  244.18   15.50
  -6  -3   3  251.47   16.30
  -6  -3   3  257.57   18.90
  -6  -3   3  245.48   14.50
   5   3  -3  306.37   17.70
   5   3  -3  316.07   16.40
   5   3  -3  308.97   22.50
  -5  -3   3  294.47   19.90
  -5  -3   3  287.87   16.50
  -5  -3   3  303.57   18.00
   4   3  -3    4.70    1.90
   4   3  -3    5.80    2.60
   4   3  -3    2.70    3.50
  -4  -3   3    5.30    2.10
  -4  -3   3    5.00    1.90
   3   3  -3 1402.56   67.79
   3   3  -3 1322.77   62.79
   3   3  -3 1310.57   63.09
  -3  -3   3 1266.67   61.09
  -3  -3   3 1292.37   60.89
  -3  -3   3 1258.57   61.69
   2   3  -3   18.60    3.40
   2   3  -3   19.10    6.10
   2   3  -3   17.30    3.70
  -2  -3   3   11.90    3.60
  -2  -3   3   20.80    3.00
  -2  -3   3   16.40    2.50
  -2  -3   3   18.00    2.90
   1   3  -3   59.29    5.50
   1   3  -3   30.20    8.70
   1   3  -3   42.90    6.10
   1   3  -3   51.19    3.80
  -1  -3   3   53.09    4.10
  -1  -3   3   55.89    4.50
  -1  -3   3   59.19    4.50
   0   3  -3 1042.60   48.40
   0   3  -3 1053.19   54.69
   0  -3   3 1087.39   49.90
   0  -3   3 1022.50   48.70
   0  -3   3 1083.19   49.60
   0  -3   3 1084.59   51.39
  -1   3  -3   14.50    4.00
  -1   3  -3   23.40    2.90
   1  -3   3   27.20    3.60
   1  -3   3   31.50    3.10
   1  -3   3   29.90    3.60
  -2   3  -3 1551.94   75.89
  -2   3  -3 1454.15   71.99
   2  -3   3 1662.63   73.19
   2  -3   3 1584.84   74.19
   2  -3   3 1560.04   74.49
   2  -3   3 1600.34   71.89
  -3   3  -3    3.40    5.50
  -3   3  -3    2.70    2.80
  -3   3  -3    2.30    1.30
   3  -3   3    1.60    1.50
   3  -3   3    0.00    2.00
   3  -3   3    1.50    1.20
  -4   3  -3   59.29   14.30
  -4   3  -3   73.69    8.80
   4  -3   3   92.89    6.90
   4  -3   3   84.09    8.20
  -5   3  -3   31.00   12.20
  -5   3  -3   36.00    7.40
   5  -3   3   34.20    6.20
   5  -3   3   23.10    4.00
  -6   3  -3   15.60   10.60
  -6   3  -3   10.60    5.30
   6  -3   3   13.50    3.40
   6  -3   3   14.50    4.70
  -7   3  -3   -1.60    8.90
  -7   3  -3   -0.30    4.60
   7  -3   3    0.40    3.80
   9   2  -3   10.20    8.20
   9   2  -3   19.60    5.10
  -9  -2   3    7.00    4.50
  -9  -2   3    4.60    5.40
   8   2  -3    6.90    3.20
   8   2  -3    3.20    5.50
  -8  -2   3    7.90    5.20
  -8  -2   3    2.40    3.20
   7   2  -3   42.30    5.80
   7   2  -3   46.60   10.40
  -7  -2   3   39.60    8.60
  -7  -2   3   35.30    4.70
  -7  -2   3   46.30    7.20
   6   2  -3    9.20    3.10
   6   2  -3   11.20    2.00
   6   2  -3   14.60    6.50
  -6  -2   3   12.10    2.80
  -6  -2   3    9.10    4.60
  -6  -2   3    6.50    3.10
   5   2  -3    7.00    2.40
   5   2  -3    2.40    1.30
   5   2  -3    0.50    3.10
   5   2  -3    6.20    1.70
  -5  -2   3    4.40    1.70
  -5  -2   3    3.10    3.00
  -5  -2   3    5.90    2.50
   4   2  -3 1316.87   62.39
   4   2  -3 1370.16   61.29
   4   2  -3 1323.27   60.79
   4   2  -3 1343.97   67.49
   4   2  -3 1312.07   64.89
  -4  -2   3 1276.87   62.69
  -4  -2   3 1305.17   61.49
   3   2  -3  705.43   36.10
   3   2  -3  712.73   34.70
   3   2  -3  679.03   33.10
   3   2  -3  722.43   38.80
  -3  -2   3  705.83   33.70
  -3  -2   3  732.93   34.60
  -3  -2   3  680.03   33.30
   2   2  -3   45.80    5.00
   2   2  -3   47.60    3.80
   2   2  -3   46.00    8.10
   2   2  -3   51.39    4.90
  -2  -2   3   47.80    3.80
  -2  -2   3   48.40    3.90
  -2  -2   3   34.80    5.60
  -2  -2   3   38.50    5.60
  -2  -2   3   49.40    4.20
   1   2  -3   32.80    2.70
   1   2  -3   14.20    6.40
   1   2  -3   40.80    5.30
   1   2  -3   30.40    3.10
  -1  -2   3   16.60    4.30
  -1  -2   3   30.40    3.00
  -1  -2   3   35.90    3.00
   0   2  -3  249.18   13.90
   0   2  -3  255.67   14.20
   0   2  -3  269.97   17.50
   0   2  -3  261.27   13.50
   0  -2   3  263.77   13.40
   0  -2   3  256.97   12.80
   0  -2   3  284.87   13.70
  -1   2  -3  416.86   21.70
   1  -2   3  457.55   20.70
   1  -2   3  451.55   21.50
   1  -2   3  462.45   22.30
   1  -2   3  437.86   20.50
   1  -2   3  469.75   23.30
   1  -2   3  432.56   22.90
  -2   2  -3    0.80    2.20
  -2   2  -3   -0.50    3.60
  -2   2  -3    1.00    1.20
   2  -2   3    1.10    1.70
   2  -2   3   -0.10    0.90
   2  -2   3    2.40    2.10
   2  -2   3    1.70    1.70
  -3   2  -3  459.55   25.80
  -3   2  -3  438.96   21.70
  -3   2  -3  443.96   21.50
  -3   2  -3  395.56   31.90
   3  -2   3  468.65   24.70
   3  -2   3  512.25   24.10
   3  -2   3  476.95   21.70
   3  -2   3  485.85   21.40
  -4   2  -3  405.06   24.00
  -4   2  -3  386.86   31.00
  -4   2  -3  379.56   19.10
   4  -2   3  427.76   21.50
   4  -2   3  397.46   22.30
  -5   2  -3   73.29    5.30
  -5   2  -3  107.39   18.80
  -5   2  -3   79.29    9.60
   5  -2   3   84.69    7.20
   5  -2   3   84.29    8.20
  -6   2  -3   69.39   16.60
  -6   2  -3   55.19    9.50
   6  -2   3   61.19    8.10
   6  -2   3   55.79    6.30
  -7   2  -3   43.20   14.50
  -7   2  -3   50.59   10.30
   7  -2   3   30.30    6.50
   9   1  -3    4.50    3.20
   9   1  -3   10.70    7.20
  -9  -1   3    7.00    6.40
  -9  -1   3   16.60    5.20
   8   1  -3  113.89   15.90
   8   1  -3   97.99    9.00
  -8  -1   3  103.19   10.10
  -8  -1   3  107.39   13.60
   7   1  -3    5.30    2.60
   7   1  -3    4.70    5.00
  -7  -1   3    1.90    3.60
  -7  -1   3    1.80    1.60
  -7  -1   3    5.30    3.10
   6   1  -3  225.88   13.70
   6   1  -3  215.68   19.20
   6   1  -3  227.38   11.30
  -6  -1   3  221.78   17.50
  -6  -1   3  228.08   14.60
  -6  -1   3  222.88   12.30
   5   1  -3    3.10    1.10
   5   1  -3    3.00    0.90
   5   1  -3    2.00    3.10
   5   1  -3    4.80    1.90
  -5  -1   3    3.50    2.80
  -5  -1   3    0.50    1.80
  -5  -1   3    4.20    1.60
   4   1  -3   35.20    6.90
   4   1  -3   29.20    2.50
   4   1  -3   34.30    5.80
   4   1  -3   25.00    3.50
   4   1  -3   25.10    2.40
  -4  -1   3   26.80    4.10
  -4  -1   3   33.20    3.20
   3   1  -3 5120.29  233.08
   3   1  -3 5266.07  237.48
   3   1  -3 5054.99  232.88
   3   1  -3 5080.49  235.38
   3   1  -3 5023.10  231.78
  -3  -1   3 5178.58  233.48
  -3  -1   3 5165.38  233.58
  -3  -1   3 5325.57  232.58
  -3  -1   3 5212.18  231.98
   2   1  -3   18.20    2.50
   2   1  -3   15.30    2.50
   2   1  -3   20.20    3.50
   2   1  -3   20.10    4.80
   2   1  -3   19.10    2.40
  -2  -1   3   11.60    3.10
  -2  -1   3   14.70    2.80
  -2  -1   3   24.30    2.70
  -2  -1   3   10.00    4.40
  -2  -1   3   16.30    2.30
  -2  -1   3   18.80    2.00
   1   1  -3    1.60    1.10
   1   1  -3    3.40    1.10
   1   1  -3    2.00    1.50
   1   1  -3    1.50    1.20
   1   1  -3    2.90    2.20
   1   1  -3    1.80    3.40
  -1  -1   3    2.30    1.00
  -1  -1   3    1.00    2.00
  -1  -1   3    3.70    1.30
  -1  -1   3   -0.60    2.90
  -1  -1   3    5.20    1.30
  -1  -1   3    2.80    2.00
   0   1  -3  817.82   42.40
   0   1  -3  897.81   42.40
   0   1  -3  912.01   42.30
   0  -1   3  903.21   41.50
   0  -1   3  957.60   42.20
   0  -1   3  948.61   42.30
  -1   1  -3  778.12   38.50
  -1   1  -3  766.52   38.00
  -1   1  -3  784.52   37.70
  -1   1  -3  697.43   40.30
   1  -1   3  852.31   37.10
   1  -1   3  888.01   39.80
   1  -1   3  874.31   37.60
   1  -1   3  771.92   44.40
   1  -1   3  847.12   38.50
   1  -1   3  779.02   38.40
  -2   1  -3 1418.76   79.69
  -2   1  -3 1515.05   71.29
  -2   1  -3 1632.34   74.59
  -2   1  -3 1492.35   72.69
  -2   1  -3 1527.85   71.09
   2  -1   3 1555.64   72.89
   2  -1   3 1590.54   71.19
   2  -1   3 1663.63   71.49
   2  -1   3 1716.43   74.19
   2  -1   3 1543.95   72.99
  -3   1  -3    2.20    1.10
  -3   1  -3    2.30    0.70
  -3   1  -3    1.10    2.10
  -3   1  -3    3.60    4.00
   3  -1   3    1.60    1.00
   3  -1   3    3.50    1.00
   3  -1   3    1.90    1.60
   3  -1   3    0.30    1.80
  -4   1  -3    5.20    4.80
  -4   1  -3    7.50    1.90
  -4   1  -3    8.00    3.60
   4  -1   3    8.70    1.00
   4  -1   3    9.40    2.80
   4  -1   3    7.80    1.90
   4  -1   3    7.00    2.70
   4  -1   3    8.10    1.00
  -5   1  -3   15.40    2.80
  -5   1  -3   16.00    5.10
  -5   1  -3   26.80    9.20
   5  -1   3   16.50    3.60
   5  -1   3   13.90    3.50
  -6   1  -3   70.59   10.60
  -6   1  -3   59.09    5.60
  -6   1  -3   78.89   16.00
   6  -1   3   57.09    7.40
   6  -1   3   47.50    6.30
  -7   1  -3   58.89   11.00
  -7   1  -3   75.09   16.80
  -7   1  -3   53.09    6.60
   7  -1   3   57.39    7.80
   7  -1   3   41.90    6.00
  -8   1  -3    2.70    8.60
  -8   1  -3   -0.80    4.80
   8  -1   3    0.40    3.40
   8   0  -3   20.30    4.40
   8   0  -3   11.90    7.30
  -8   0   3   19.90    7.00
  -8   0   3   14.10    4.50
   7   0  -3    4.90    2.30
   7   0  -3    4.10    4.50
  -7   0   3    8.80    5.00
  -7   0   3    1.90    2.50
   6   0  -3   57.59    5.60
   6   0  -3   62.89   11.20
  -6   0   3   59.79    4.40
  -6   0   3   58.69    6.50
  -6   0   3   45.60    8.50
   5   0  -3    1.00    1.40
   5   0  -3   -0.20    2.70
   5   0  -3   -0.80    1.30
  -5   0   3    0.60    1.80
  -5   0   3    3.00    3.00
   4   0  -3  259.97   17.40
   4   0  -3  276.17   19.00
   4   0  -3  280.17   14.60
   4   0  -3  238.18   14.50
  -4   0   3  295.87   13.90
  -4   0   3  293.47   15.40
   3   0  -3 5312.57  254.67
   3   0  -3 5821.42  254.37
   3   0  -3 5732.93  257.37
   3   0  -3 5644.83  253.07
   3   0  -3 5501.55  253.07
   3   0  -3 5631.04  258.67
  -3   0   3 5882.91  254.07
  -3   0   3 5709.33  254.57
  -3   0   3 5575.04  254.97
   2   0  -3 1001.00   44.60
   2   0  -3  921.11   44.10
   2   0  -3  951.50   44.90
   2   0  -3  977.90   46.90
   2   0  -3 1015.20   48.20
   2   0  -3  896.01   45.10
  -2   0   3  952.60   45.00
  -2   0   3  938.51   47.30
  -2   0   3 1025.40   45.00
  -2   0   3  971.60   44.90
  -2   0   3  984.70   43.90
  -2   0   3  973.20   49.00
   1   0  -3 9067.79  431.46
   1   0  -3 9999.00  429.06
   1   0  -3 9457.85  429.36
   1   0  -3 8973.50  428.76
   1   0  -3 9578.64  433.26
  -1   0   3 9577.04  428.86
  -1   0   3 9926.41  429.46
  -1   0   3 9848.62  428.66
  -1   0   3 9594.74  429.26
   0   0  -3   -0.30    1.20
   0   0  -3    0.10    0.80
   0   0  -3    0.30    2.70
   0   0  -3    1.10    2.00
   0   0  -3    0.40    1.00
   0   0  -3    0.50    0.90
   0   0   3   -0.30    1.30
   0   0   3    0.40    1.00
   0   0   3    0.00    0.90
   0   0   3   -0.40    1.60
   0   0   3   -0.10    1.20
   0   0   3   -1.50    2.20
  -1   0  -3 2306.67  100.19
  -1   0  -3 2297.37  100.09
  -1   0  -3 2089.29  100.19
  -1   0  -3 2019.40  102.89
  -1   0  -3 2284.77   99.69
   1   0   3 2038.60   99.99
   1   0   3 2026.00  100.49
   1   0   3 2336.17   99.99
   1   0   3 2379.66  102.49
   1   0   3 2209.28  105.39
   1   0   3 2248.77  100.19
  -2   0  -3 2273.77  101.89
  -2   0  -3 2365.56  101.89
  -2   0  -3 2361.96  100.89
  -2   0  -3 2333.07  107.99
  -2   0  -3 2177.88  101.39
  -2   0  -3 2271.87  104.19
  -2   0  -3 2335.47  104.19
   2   0   3 2041.90  101.19
   2   0   3 2065.89  102.29
   2   0   3 2294.17  101.49
   2   0   3 2268.47  103.79
   2   0   3 2047.00  101.79
  -3   0  -3 1639.14   66.49
  -3   0  -3 1382.66   65.09
  -3   0  -3 1354.96   67.99
  -3   0  -3 1499.75   72.59
   3   0   3 1416.76   65.29
   3   0   3 1365.46   65.79
   3   0   3 1451.35   64.49
   3   0   3 1314.97   64.49
   3   0   3 1353.16   66.19
  -4   0  -3  502.95   27.20
  -4   0  -3  456.75   23.50
   4   0   3  481.05   24.30
   4   0   3  476.45   22.20
   4   0   3  509.55   23.80
   4   0   3  444.66   22.30
   4   0   3  455.65   24.60
  -5   0  -3  299.27   19.60
  -5   0  -3  275.37   15.30
   5   0   3  245.58   16.00
   5   0   3  294.07   19.90
   5   0   3  261.87   13.50
   5   0   3  291.67   16.20
  -6   0  -3   29.90    7.30
  -6   0  -3   31.80    4.50
   6   0   3   36.80    8.10
   6   0   3   25.00    4.40
   6   0   3   22.30    4.60
  -7   0  -3    0.50    2.40
  -7   0  -3    1.00    4.10
   7   0   3   -0.20    2.50
   7   0   3   -2.80    2.20
  -8   0  -3   28.50    8.90
  -8   0  -3   27.70    5.40
   8   0   3   34.80    6.30
   8  -1  -3   43.80   10.90
   8  -1  -3   46.70    6.80
  -8   1   3   44.10    6.90
  -8   1   3   59.09   12.10
   7  -1  -3   13.80    6.40
   7  -1  -3   10.10    3.10
  -7   1   3    7.20    4.80
  -7   1   3    6.40    3.10
   6  -1  -3   29.30    4.20
   6  -1  -3   25.90    7.20
  -6   1   3   23.50    2.40
  -6   1   3   22.60    6.50
  -6   1   3   22.20    4.30
   5  -1  -3    1.30    0.90
   5  -1  -3    0.70    1.40
   5  -1  -3    0.20    3.30
  -5   1   3    4.10    3.20
  -5   1   3    2.50    1.00
  -5   1   3    5.20    2.30
   4  -1  -3   58.29    4.50
   4  -1  -3   63.29    7.90
   4  -1  -3   62.69    4.10
  -4   1   3   56.79    5.10
  -4   1   3   56.39    3.90
   3  -1  -3 1354.46   66.09
   3  -1  -3 1303.27   64.89
   3  -1  -3 1365.36   61.59
   3  -1  -3 1354.06   61.69
  -3   1   3 1401.16   62.59
  -3   1   3 1355.56   61.79
  -3   1   3 1285.27   61.69
   2  -1  -3  322.17   15.40
   2  -1  -3  327.37   18.10
   2  -1  -3  320.37   15.00
   2  -1  -3  313.37   17.50
  -2   1   3  318.67   15.00
  -2   1   3  311.77   18.20
  -2   1   3  322.77   15.80
  -2   1   3  293.57   15.80
  -2   1   3  303.77   17.90
   1  -1  -3  646.24   33.90
   1  -1  -3  732.13   31.50
   1  -1  -3  695.13   33.40
   1  -1  -3  685.83   30.90
   1  -1  -3  665.93   30.70
  -1   1   3  699.93   31.10
  -1   1   3  660.33   31.80
  -1   1   3  671.53   30.90
  -1   1   3  649.64   34.30
   0  -1  -3 1811.22   80.19
   0  -1  -3 1525.05   81.79
   0  -1  -3 1780.92   79.89
   0  -1  -3 1771.42   80.29
   0   1   3 1849.91   81.59
   0   1   3 1795.32   80.29
   0   1   3 1766.92   79.89
   0   1   3 1886.21   80.49
  -1  -1  -3    0.20    0.80
  -1  -1  -3    1.30    2.00
  -1  -1  -3    1.90    2.40
  -1  -1  -3    1.40    0.80
  -1  -1  -3    0.80    0.70
  -1  -1  -3    1.50    0.70
   1   1   3    1.60    0.90
   1   1   3    1.80    0.80
   1   1   3    2.40    2.00
   1   1   3    1.70    1.00
   1   1   3    0.40    0.60
   1   1   3    1.60    1.70
  -2  -1  -3 3644.74  170.48
  -2  -1  -3 3721.63  172.68
  -2  -1  -3 3763.42  172.28
  -2  -1  -3 4161.38  174.98
  -2  -1  -3 3809.42  170.58
  -2  -1  -3 3907.91  170.28
   2   1   3 3624.74  169.68
   2   1   3 3642.44  172.28
   2   1   3 3791.32  170.08
   2   1   3 3762.32  170.68
   2   1   3 3724.73  170.38
   2   1   3 3753.62  170.48
  -3  -1  -3    9.20    3.10
  -3  -1  -3   15.70    2.50
  -3  -1  -3   10.80    1.90
   3   1   3   10.70    2.20
   3   1   3    9.60    2.80
   3   1   3    9.00    1.90
   3   1   3    8.20    1.30
   3   1   3   11.70    1.80
   3   1   3   12.80    2.20
  -4  -1  -3 2266.87  104.89
  -4  -1  -3 2162.48  101.59
   4   1   3 2200.58  101.79
   4   1   3 2259.87  100.39
   4   1   3 2119.09   99.89
   4   1   3 2237.78  105.19
   4   1   3 2233.28  101.39
  -5  -1  -3   63.49    8.20
  -5  -1  -3   42.40    5.20
   5   1   3   44.90    3.20
   5   1   3   47.40    3.70
   5   1   3   45.90    5.10
   5   1   3   45.00    7.10
   5   1   3   51.59    5.70
  -6  -1  -3   18.50    3.90
  -6  -1  -3   22.20    6.20
   6   1   3   17.50    3.70
   6   1   3   14.40    5.10
   6   1   3   12.70    3.40
   6   1   3   16.40    1.90
  -7  -1  -3   -3.20    3.20
  -7  -1  -3   -0.70    2.20
   7   1   3   -0.60    2.10
   7   1   3   -0.40    2.30
   7   1   3   -0.80    3.50
  -8  -1  -3    1.40    4.60
  -8  -1  -3    1.20    2.90
   8   1   3    1.60    4.90
   8   1   3    1.00    2.90
  -9  -1  -3    2.00    3.60
  -9  -1  -3    2.70    6.50
   9   1   3    6.40    6.50
   9   1   3    5.10    4.40
   8  -2  -3    0.40    5.00
  -8   2   3    0.80    3.10
  -8   2   3    0.20    4.60
   7  -2  -3   28.50    5.20
   7  -2  -3   28.00    8.10
  -7   2   3   22.90    4.70
  -7   2   3   24.80    7.90
   6  -2  -3   21.80    6.80
   6  -2  -3   21.60    3.90
  -6   2   3   24.00    6.60
  -6   2   3   21.10    4.10
   5  -2  -3  275.97   15.40
   5  -2  -3  273.17   20.30
  -5   2   3  281.67   13.50
  -5   2   3  273.47   15.80
  -5   2   3  277.97   13.30
  -5   2   3  283.97   19.40
   4  -2  -3  191.38   14.80
   4  -2  -3  202.08   11.10
  -4   2   3  190.48   10.00
  -4   2   3  200.08   10.00
  -4   2   3  198.88   14.20
  -4   2   3  195.98   11.40
   3  -2  -3  631.44   28.80
   3  -2  -3  623.74   31.90
   3  -2  -3  626.04   32.80
  -3   2   3  612.74   29.20
  -3   2   3  598.54   28.60
  -3   2   3  544.65   28.70
   2  -2  -3   80.19    6.60
   2  -2  -3   78.09    6.70
   2  -2  -3   72.99    4.50
  -2   2   3   75.19    3.90
  -2   2   3   73.19    5.00
  -2   2   3   74.99    4.30
  -2   2   3   76.39    4.00
  -2   2   3   71.39    6.60
  -2   2   3   77.19    4.80
  -2   2   3   80.29    7.20
  -2   2   3   80.59    4.70
   1  -2  -3  112.59    7.30
   1  -2  -3  113.19    6.10
   1  -2  -3  121.09    8.10
  -1   2   3  119.39    6.20
  -1   2   3  117.59    8.10
  -1   2   3  119.99    5.60
  -1   2   3  117.39    6.20
  -1   2   3  127.89    6.60
  -1   2   3  113.19    5.90
  -1   2   3  110.59    7.50
  -1   2   3   99.59    8.70
   0  -2  -3  517.25   24.60
   0  -2  -3  544.25   26.60
   0  -2  -3  527.65   25.00
   0  -2  -3  552.54   25.20
   0   2   3  520.25   24.40
   0   2   3  564.84   25.90
   0   2   3  542.15   25.30
   0   2   3  501.05   24.80
   0   2   3  530.65   24.90
  -1  -2  -3   34.50    2.80
  -1  -2  -3   32.00    3.10
  -1  -2  -3   18.50    4.00
  -1  -2  -3   27.10    2.60
  -1  -2  -3   35.30    2.50
  -1  -2  -3   34.60    2.80
  -1  -2  -3   27.90    3.80
   1   2   3   30.80    2.50
   1   2   3   33.50    3.10
   1   2   3   39.90    4.50
   1   2   3   34.90    2.70
   1   2   3   31.40    2.80
  -2  -2  -3  191.68   10.10
  -2  -2  -3  196.98   10.10
  -2  -2  -3  186.88   11.30
  -2  -2  -3  183.68   10.40
  -2  -2  -3  192.28   12.10
  -2  -2  -3  191.28   10.20
   2   2   3  200.88   11.80
   2   2   3  176.08   10.00
   2   2   3  181.68   10.10
   2   2   3  206.48   10.80
   2   2   3  191.38   11.00
   2   2   3  186.18   10.00
  -3  -2  -3  688.53   35.30
  -3  -2  -3  695.33   35.60
  -3  -2  -3  686.43   33.50
  -3  -2  -3  678.93   32.60
   3   2   3  694.93   35.20
   3   2   3  720.13   32.80
   3   2   3  695.93   33.20
   3   2   3  672.03   32.70
  -4  -2  -3  150.18    9.40
  -4  -2  -3  137.69    8.10
  -4  -2  -3  145.39   11.20
   4   2   3  137.49    8.20
   4   2   3  143.69   11.40
   4   2   3  139.59    9.00
   4   2   3  139.99    8.40
  -5  -2  -3   23.90    3.90
  -5  -2  -3   21.90    5.20
  -5  -2  -3   18.70    2.60
   5   2   3   18.70    2.90
   5   2   3   21.10    5.40
   5   2   3   18.60    3.30
  -6  -2  -3   84.49    9.90
  -6  -2  -3   86.39    5.80
  -6  -2  -3   80.19    7.50
   6   2   3   91.49   10.80
   6   2   3   77.89    7.10
   6   2   3   84.49    6.60
  -7  -2  -3    3.70    3.80
  -7  -2  -3   -0.90    2.20
   7   2   3   -1.10    1.80
   7   2   3   -0.40    1.60
   7   2   3   -0.80    3.50
  -8  -2  -3  127.09   14.90
  -8  -2  -3  136.09   11.30
   8   2   3  136.49   15.80
   8   2   3  121.49   10.70
   8   2   3  148.19   11.10
  -9  -2  -3    2.10    5.30
  -9  -2  -3    3.10    3.40
   9   2   3    3.40    5.80
   9   2   3    0.80    2.90
   7  -3  -3    0.90    3.60
  -7   3   3    0.20    4.20
   6  -3  -3   32.60    5.20
   6  -3  -3   41.10    8.80
  -6   3   3   35.10    7.90
  -6   3   3   38.10    5.20
   5  -3  -3   23.50    4.00
   5  -3  -3   25.40    6.60
  -5   3   3   22.80    3.80
  -5   3   3   30.60    6.60
   4  -3  -3   51.39    7.20
   4  -3  -3   42.10    4.90
  -4   3   3   48.40    3.50
  -4   3   3   45.70    3.70
  -4   3   3   51.89    4.50
  -4   3   3   62.79    7.40
   3  -3  -3   57.59    6.60
   3  -3  -3   56.99    4.70
  -3   3   3   65.09    4.40
  -3   3   3   62.39    3.80
  -3   3   3   57.39    4.00
  -3   3   3   70.99    4.80
  -3   3   3   60.29    4.30
  -3   3   3   59.49    4.10
   2  -3  -3   66.59    4.60
   2  -3  -3   65.49    6.00
   2  -3  -3   63.09    6.00
  -2   3   3   64.39    6.10
  -2   3   3   72.89    4.20
  -2   3   3   64.39    4.20
  -2   3   3   57.09    6.60
  -2   3   3   68.79    4.10
  -2   3   3   72.59    4.80
  -2   3   3   71.49    4.60
  -2   3   3   71.29    4.20
  -2   3   3   57.99    6.00
   1  -3  -3  834.62   39.70
   1  -3  -3  804.42   38.90
  -1   3   3  842.82   38.30
  -1   3   3  782.82   38.00
  -1   3   3  799.22   38.80
  -1   3   3  839.42   38.00
  -1   3   3  864.51   39.40
  -1   3   3  822.32   38.20
  -1   3   3  829.32   38.50
  -1   3   3  819.32   39.10
   0  -3  -3  217.08   12.40
   0  -3  -3  210.08   11.30
   0  -3  -3  218.78   12.00
   0  -3  -3  216.48   11.40
   0   3   3  211.98   11.40
   0   3   3  226.08   11.80
   0   3   3  213.28   11.20
   0   3   3  215.28   11.00
  -1  -3  -3 2123.19  100.99
  -1  -3  -3 2087.19  100.49
  -1  -3  -3 2185.38  100.69
  -1  -3  -3 2136.49  100.59
   1   3   3 2201.38  100.99
   1   3   3 2445.86  102.19
   1   3   3 2255.27  100.69
   1   3   3 2121.29  100.19
   1   3   3 2316.07  100.59
  -2  -3  -3   -0.70    1.20
  -2  -3  -3   -0.10    1.20
  -2  -3  -3   -0.20    1.10
  -2  -3  -3    0.30    1.70
  -2  -3  -3   -0.70    0.90
   2   3   3    1.40    1.20
   2   3   3    0.10    1.50
   2   3   3    0.60    1.20
   2   3   3   -0.40    0.90
  -3  -3  -3  256.97   14.50
  -3  -3  -3  250.87   15.60
  -3  -3  -3  257.37   15.80
  -3  -3  -3  265.27   13.80
   3   3   3  255.27   15.50
   3   3   3  267.57   14.10
   3   3   3  271.67   13.80
  -4  -3  -3  640.94   31.80
  -4  -3  -3  637.44   30.60
  -4  -3  -3  645.74   33.80
   4   3   3  658.23   34.10
   4   3   3  598.04   30.40
   4   3   3  607.24   31.20
  -5  -3  -3    2.70    2.60
  -5  -3  -3    2.70    1.60
  -5  -3  -3    3.70    2.40
   5   3   3    3.20    3.10
   5   3   3    3.20    1.90
   5   3   3    3.70    1.60
  -6  -3  -3   20.60    5.70
  -6  -3  -3   21.70    3.30
  -6  -3  -3   30.00    5.20
   6   3   3   20.50    3.90
   6   3   3   22.10    6.40
   6   3   3   25.40    3.70
  -7  -3  -3    1.90    3.80
  -7  -3  -3   -1.10    2.20
  -7  -3  -3    2.00    1.80
   7   3   3    2.30    2.20
   7   3   3   -1.00    1.40
   7   3   3    1.30    4.00
  -8  -3  -3    7.60    5.40
  -8  -3  -3    1.50    3.20
   8   3   3    7.30    5.60
   8   3   3   10.20    3.20
   8   3   3    5.40    3.10
  -9  -3  -3    2.30    5.60
  -9  -3  -3   10.90    4.70
   9   3   3    3.30    5.80
   9   3   3    7.40    4.10
  -7   4   3    2.40    4.30
   6  -4  -3   16.40    6.10
   6  -4  -3   24.90    7.30
  -6   4   3   24.60    6.90
   5  -4  -3   91.19   10.60
   5  -4  -3   78.99    7.70
  -5   4   3   90.59   10.30
  -5   4   3   91.89    7.00
   4  -4  -3    1.90    2.90
   4  -4  -3    3.40    2.20
  -4   4   3    3.90    1.50
  -4   4   3    2.50    3.20
  -4   4   3    3.40    1.60
  -4   4   3    3.00    1.30
   3  -4  -3  440.46   25.50
   3  -4  -3  442.86   23.30
  -3   4   3  472.55   25.60
  -3   4   3  480.25   22.10
  -3   4   3  452.85   22.30
  -3   4   3  453.85   22.30
  -3   4   3  460.75   22.50
  -3   4   3  476.35   22.80
  -2   4   3    5.00    1.40
  -2   4   3    7.70    2.20
  -2   4   3    6.20    3.30
  -2   4   3    8.40    3.10
  -2   4   3    7.70    1.70
  -2   4   3    9.10    1.90
  -2   4   3    7.30    1.90
  -2   4   3    7.30    1.40
  -2   4   3    8.10    2.90
   1  -4  -3  452.15   23.00
   1  -4  -3  446.16   22.40
  -1   4   3  458.15   22.50
  -1   4   3  456.15   25.10
  -1   4   3  460.05   22.40
  -1   4   3  460.35   22.80
  -1   4   3  458.55   23.00
  -1   4   3  464.95   22.20
  -1   4   3  451.75   23.30
   0  -4  -3    5.00    1.90
   0  -4  -3    4.50    2.80
   0  -4  -3    6.80    2.30
   0  -4  -3    3.50    1.60
   0   4   3   -0.50    1.60
   0   4   3    5.20    1.60
   0   4   3    6.60    1.80
   0   4   3    5.20    1.80
  -1  -4  -3  903.51   42.60
  -1  -4  -3  863.71   43.30
  -1  -4  -3  873.11   42.90
   1   4   3  888.11   42.40
   1   4   3  885.81   42.60
   1   4   3  974.50   42.90
  -2  -4  -3  523.15   26.00
  -2  -4  -3  531.95   26.70
  -2  -4  -3  512.55   26.30
  -2  -4  -3  517.55   28.00
   2   4   3  511.05   25.80
   2   4   3  531.05   26.60
   2   4   3  534.95   26.00
   2   4   3  547.75   26.00
  -3  -4  -3   87.19    7.30
  -3  -4  -3   80.09    7.30
  -3  -4  -3   80.19    6.40
  -3  -4  -3   83.19    6.30
   3   4   3   76.29    5.90
   3   4   3   89.89    6.40
   3   4   3   78.59    7.00
  -4  -4  -3   18.40    3.20
  -4  -4  -3   12.50    3.20
  -4  -4  -3   14.60    4.00
   4   4   3   13.40    3.00
   4   4   3   19.00    3.10
   4   4   3   19.80    4.60
  -5  -4  -3   63.99    5.60
  -5  -4  -3   64.59    6.40
  -5  -4  -3   53.29    7.30
   5   4   3   55.59    5.70
   5   4   3   57.59    5.30
   5   4   3   67.79    8.40
  -6  -4  -3  185.48   11.50
  -6  -4  -3  187.68   13.10
  -6  -4  -3  180.58   15.30
   6   4   3  180.18   11.30
   6   4   3  176.98   15.60
   6   4   3  191.88   12.60
  -7  -4  -3  239.78   19.30
  -7  -4  -3  242.28   14.30
  -7  -4  -3  237.68   16.40
   7   4   3  275.37   21.00
   7   4   3  237.28   14.30
   7   4   3  243.78   15.90
  -8  -4  -3   -2.50    1.80
  -8  -4  -3    0.80    3.80
  -8  -4  -3    1.80    3.00
   8   4   3   -4.20    2.00
   8   4   3   -1.00    3.80
   8   4   3    1.20    1.90
  -9  -4  -3    7.00    6.10
  -9  -4  -3    2.80    4.00
   9   4   3   -1.50    3.20
   9   4   3   -2.20    4.90
  -6   5   3    2.60    4.30
  -6   5   3    4.30    7.20
   5  -5  -3   69.79    9.10
  -5   5   3   69.59    9.50
  -5   5   3  100.29   17.10
  -4   5   3   21.50    3.10
  -4   5   3   12.80    6.50
  -4   5   3   18.70    5.20
  -4   5   3   20.90    3.00
  -3   5   3    8.40    2.30
  -3   5   3    8.50    3.30
  -3   5   3   10.10    4.60
  -3   5   3    9.70    1.70
  -3   5   3    8.60    2.00
  -3   5   3    9.40    5.00
  -2   5   3    2.10    2.20
  -2   5   3    1.60    3.50
  -2   5   3    0.40    2.50
  -2   5   3    0.60    2.80
  -2   5   3   -0.50    1.30
  -2   5   3    1.30    1.90
   1  -5  -3  298.07   15.70
  -1   5   3  305.97   17.10
  -1   5   3  307.07   16.10
  -1   5   3  280.87   16.10
   0  -5  -3  437.66   21.40
   0  -5  -3  449.66   22.40
   0  -5  -3  476.15   23.50
   0   5   3  421.56   21.00
   0   5   3  442.16   22.50
   0   5   3  443.46   22.90
   0   5   3  421.36   22.40
  -1  -5  -3  786.12   39.10
  -1  -5  -3  786.02   39.30
   1   5   3  817.62   39.40
   1   5   3  829.32   39.40
   1   5   3  839.22   38.30
  -2  -5  -3  313.57   17.10
  -2  -5  -3  308.27   16.70
   2   5   3  299.67   16.50
   2   5   3  302.27   16.10
   2   5   3  308.67   16.80
   2   5   3  321.07   16.80
  -3  -5  -3 1384.16   63.39
  -3  -5  -3 1255.27   65.59
  -3  -5  -3 1306.67   63.69
  -3  -5  -3 1363.76   64.99
   3   5   3 1339.27   63.99
   3   5   3 1424.26   65.69
   3   5   3 1326.77   63.19
   3   5   3 1325.17   63.29
  -4  -5  -3  430.26   23.90
  -4  -5  -3  428.96   25.00
  -4  -5  -3  455.65   23.30
   4   5   3  432.66   23.00
   4   5   3  453.65   23.60
   4   5   3  449.66   25.30
  -5  -5  -3  125.69   11.20
  -5  -5  -3  127.39   10.20
  -5  -5  -3  135.79    9.50
   5   5   3  129.29    9.70
   5   5   3  139.09   12.20
   5   5   3  133.79    9.20
  -6  -5  -3  236.68   17.90
  -6  -5  -3  247.48   14.80
  -6  -5  -3  249.28   16.20
   6   5   3  239.58   18.80
   6   5   3  242.68   14.40
   6   5   3  237.18   15.30
  -7  -5  -3   18.90    3.90
  -7  -5  -3   19.60    6.10
  -7  -5  -3   20.10    5.00
   7   5   3   22.20    4.10
   7   5   3   25.10    5.10
   7   5   3   18.10    6.60
  -8  -5  -3   83.79   13.10
  -8  -5  -3   84.79    9.60
  -8  -5  -3   84.69    7.70
   8   5   3   83.59    7.50
   8   5   3   85.59    8.70
   8   5   3   66.79   12.40
  -9  -5  -3   -0.10    3.40
  -9  -5  -3   -1.00    4.60
   9   5   3   -0.10    2.40
   9   5   3   -0.20    5.40
   9   5   3    3.50    3.50
  -5   6   3    2.80    7.70
  -4   6   3    3.90    5.40
  -4   6   3    3.10    6.70
  -3   6   3    9.70    2.90
  -3   6   3   12.70    2.40
  -3   6   3   14.10    2.20
  -3   6   3    9.50    6.30
  -3   6   3    4.80    4.60
  -3   6   3   14.00    3.80
   2  -6  -3  124.39    8.30
  -2   6   3  138.79   11.20
  -2   6   3  118.79    8.60
  -2   6   3  117.09    8.60
   1  -6  -3  493.95   24.90
  -1   6   3  480.95   25.40
  -1   6   3  497.05   26.70
  -1   6   3  474.95   23.80
  -1   6   3  508.15   25.50
   0  -6  -3   98.29    8.00
   0  -6  -3   94.59    7.00
   0   6   3   92.29    7.20
   0   6   3   86.89    7.50
   0   6   3   88.89    5.80
   0   6   3   64.49    7.00
  -1  -6  -3  283.07   16.40
  -1  -6  -3  286.47   16.50
   1   6   3  307.07   16.90
   1   6   3  300.47   17.00
  -2  -6  -3   63.79    6.30
  -2  -6  -3   69.29    6.30
   2   6   3   72.09    6.30
   2   6   3   62.59    5.30
   2   6   3   72.49    5.50
   2   6   3   67.59    6.40
  -3  -6  -3  341.87   19.50
  -3  -6  -3  342.27   21.00
  -3  -6  -3  356.16   19.80
   3   6   3  353.16   19.80
   3   6   3  364.86   19.70
   3   6   3  357.76   19.50
   3   6   3  353.96   19.70
  -4  -6  -3  145.69   11.60
  -4  -6  -3  152.48   10.30
  -4  -6  -3  148.19   10.80
   4   6   3  142.99   10.10
   4   6   3  132.99   10.10
   4   6   3  141.39   11.30
  -5  -6  -3   18.80    4.70
  -5  -6  -3   19.00    5.00
  -5  -6  -3   15.10    3.80
   5   6   3   19.70    5.60
   5   6   3   20.20    4.50
   5   6   3   17.50    3.70
  -6  -6  -3   63.69    8.30
  -6  -6  -3   43.90    6.10
  -6  -6  -3   54.29    8.90
   6   6   3   56.69    8.80
   6   6   3   65.49    7.10
   6   6   3   54.09    7.00
  -7  -6  -3   47.10    7.80
  -7  -6  -3   61.09   10.40
  -7  -6  -3   55.59    7.10
   7   6   3   53.79    7.50
   7   6   3   54.89    6.70
   7   6   3   66.39   11.40
  -8  -6  -3  162.88   16.60
  -8  -6  -3  161.78   12.30
  -8  -6  -3  168.88   14.40
   8   6   3  167.28   17.80
   8   6   3  195.68   12.60
   8   6   3  164.08   13.60
  -3   7   3    2.50    2.60
  -3   7   3    4.10    4.30
   2  -7  -3   21.70    3.70
  -2   7   3   18.10    3.90
  -2   7   3   14.20    4.70
   1  -7  -3   53.09    5.90
   1  -7  -3   30.80    5.70
  -1   7   3   46.70    5.90
  -1   7   3   50.69    7.40
   0  -7  -3  194.78   13.20
   0  -7  -3  187.38   11.70
   0   7   3  209.98   12.70
   0   7   3  193.18   12.90
   0   7   3  142.69   12.10
  -1  -7  -3    5.30    2.70
  -1  -7  -3   14.30    3.70
   1   7   3    7.70    3.10
   1   7   3    8.20    3.10
  -2  -7  -3   15.90    4.00
  -2  -7  -3   20.50    3.90
   2   7   3   12.50    3.50
   2   7   3   15.00    3.80
   2   7   3   20.90    3.40
  -3  -7  -3   30.80    5.10
  -3  -7  -3   12.30    4.10
  -3  -7  -3   20.80    4.10
   3   7   3   21.80    4.10
   3   7   3   22.50    4.30
   3   7   3   24.40    4.50
  -4  -7  -3  241.58   14.60
  -4  -7  -3  220.58   15.70
  -4  -7  -3  211.98   14.50
   4   7   3  224.08   14.30
   4   7   3  201.18   14.70
   4   7   3  217.78   14.30
  -5  -7  -3   32.80    6.50
  -5  -7  -3   19.20    4.60
  -5  -7  -3   18.60    4.30
   5   7   3   23.80    4.80
   5   7   3   23.10    4.50
   5   7   3   23.40    5.80
  -6  -7  -3  371.26   24.80
  -6  -7  -3  371.76   22.20
  -6  -7  -3  393.86   23.60
   6   7   3  397.46   23.20
   6   7   3  390.06   22.10
   6   7   3  386.36   25.70
  -7  -7  -3   21.20    5.60
  -7  -7  -3   19.50    6.60
  -7  -7  -3   10.70    4.10
   7   7   3   27.90    7.90
   7   7   3   12.00    3.60
   7   7   3   18.70    5.10
  -8  -7  -3   44.00    8.00
  -8  -7  -3   34.60    6.10
  -8  -7  -3   41.40    9.50
   8   7   3   49.10   11.10
   8   7   3   44.50    6.60
   8   7   3   42.80    7.50
  -2   8   3   -0.90    2.40
  -2   8   3   -2.00    3.60
   1  -8  -3   63.59    6.70
  -1   8   3   66.99    8.90
  -1   8   3   56.69    7.50
   0  -8  -3    4.20    3.30
   0  -8  -3    0.60    2.40
   0   8   3    1.20    2.60
   0   8   3    0.80    2.70
  -1  -8  -3   -0.50    2.10
  -1  -8  -3    2.10    2.30
   1   8   3    6.10    3.20
   1   8   3    3.80    3.00
  -2  -8  -3   63.59    7.60
  -2  -8  -3   74.39    7.20
   2   8   3   69.99    8.30
   2   8   3   62.49    7.70
  -3  -8  -3   -0.30    2.50
  -3  -8  -3   -0.70    2.10
   3   8   3   -1.20    2.30
   3   8   3   -0.90    2.30
  -4  -8  -3   -0.40    2.40
  -4  -8  -3   -2.80    2.20
   4   8   3   -1.90    1.90
   4   8   3    0.50    2.60
  -5  -8  -3   28.70    5.70
  -5  -8  -3   32.50    6.20
   5   8   3   27.40    5.60
   5   8   3   27.70    5.20
  -6  -8  -3   -0.70    2.70
  -6  -8  -3   -1.50    2.60
   6   8   3    4.70    3.20
   6   8   3   -3.10    2.70
   6   8   3   -1.00    3.60
  -7  -8  -3   11.50    4.90
  -7  -8  -3    7.70    4.00
  -7  -8  -3   10.20    6.20
   7   8   3   12.80    6.20
   7   8   3    9.00    4.60
   7   8   3    8.60    3.80
   1  -9  -3   18.40    4.60
  -1   9   3   19.40    5.30
   0  -9  -3   24.20    5.10
   0   9   3   32.30    6.60
   0   9   3   31.50    6.40
  -1  -9  -3   -1.60    2.70
   1   9   3    1.90    3.00
   1   9   3    0.30    3.20
  -2  -9  -3    0.90    2.40
  -2  -9  -3   -0.10    2.70
   2   9   3   -1.80    2.80
   2   9   3    1.60    3.00
  -3  -9  -3   20.20    5.00
  -3  -9  -3   11.40    4.10
   3   9   3    9.40    4.10
   3   9   3   22.40    5.30
  -4  -9  -3   10.60    3.90
  -4  -9  -3   10.30    4.50
   4   9   3    7.10    3.60
   4   9   3   14.30    4.30
  -5  -9  -3    7.20    4.00
  -5  -9  -3   16.50    4.90
   5   9   3    9.60    4.20
   5   9   3   15.10    4.70
  -6  -9  -3    6.80    4.00
  -6  -9  -3    7.90    4.60
   6   9   3    8.10    4.10
   6   9   3    6.00    4.10
  -2 -10  -3    2.40    3.60
   2  10   3    7.60    4.40
   2  10   3    6.30    4.20
  -3 -10  -3   18.20    6.50
  -3 -10  -3   17.80    5.20
   3  10   3   13.70    4.80
   3  10   3   19.10    5.60
  -4 -10  -3   16.60    4.90
  -4 -10  -3   12.70    5.20
   4  10   3   17.70    5.50
   4  10   3    9.00    4.60
   5   8  -4   66.39   14.10
   5   8  -4   67.89    9.80
   5   8  -4   72.29   10.90
  -5  -8   4   72.49    9.80
  -5  -8   4   72.29    9.70
   4   8  -4    8.70    4.80
   4   8  -4   18.00    8.80
  -4  -8   4   12.00    4.50
  -4  -8   4   14.10    4.70
   3   8  -4    2.60    7.50
   3   8  -4    7.70    5.10
  -3  -8   4    6.60    4.10
  -3  -8   4   10.50    4.20
   2   8  -4   -2.40    7.50
   2   8  -4   -3.40    3.70
  -2  -8   4    2.50    3.70
  -2  -8   4    7.40    3.90
   1   8  -4    8.10    6.50
   1   8  -4   20.70   11.80
  -1  -8   4    5.60    3.60
  -1  -8   4    7.40    3.90
   0   8  -4    1.50    8.50
   0   8  -4   12.60    7.20
   0  -8   4   10.30    4.30
   0  -8   4    6.30    4.00
  -1   8  -4    1.50    9.30
  -1   8  -4    3.10    7.60
   1  -8   4   -2.50    3.50
   7   7  -4   80.59    9.70
   7   7  -4   91.69   17.10
   7   7  -4   77.09   11.00
  -7  -7   4   79.09   11.10
  -7  -7   4   85.69   10.30
  -7  -7   4   90.89   17.20
   6   7  -4    7.60    3.90
   6   7  -4    3.00    5.80
   6   7  -4   -2.40    3.20
  -6  -7   4    4.50    4.00
  -6  -7   4    8.30    4.30
   5   7  -4  147.09   12.50
   5   7  -4  146.79   13.90
   5   7  -4  176.68   19.10
  -5  -7   4  146.19   12.30
  -5  -7   4  148.09   12.70
   4   7  -4   13.80    5.10
   4   7  -4   15.50    8.20
  -4  -7   4    7.80    3.70
  -4  -7   4   17.00    4.60
  -4  -7   4   18.60    4.50
   3   7  -4   59.29   13.90
   3   7  -4   50.69    9.20
  -3  -7   4   49.30    7.40
  -3  -7   4   52.49    7.40
  -3  -7   4   50.49    7.00
   2   7  -4   20.50    6.50
   2   7  -4   16.60   10.50
  -2  -7   4   14.90    4.20
  -2  -7   4   27.20    4.60
  -2  -7   4   27.40    5.30
   1   7  -4   -0.40    3.70
   1   7  -4   -0.20    7.40
  -1  -7   4   -0.80    2.40
  -1  -7   4    1.50    2.80
   0   7  -4   27.40    8.10
   0   7  -4   11.90   10.30
   0  -7   4   31.30    5.60
   0  -7   4   35.40    6.40
  -1   7  -4   -0.10    8.60
  -1   7  -4   -1.30    5.60
   1  -7   4    4.20    3.50
   1  -7   4    0.70    2.60
  -2   7  -4    1.80    7.20
  -2   7  -4    4.30   10.40
   2  -7   4   12.70    4.60
  -3   7  -4    6.70    9.60
  -3   7  -4   18.30   10.50
   3  -7   4    2.70    4.50
   7   6  -4   59.59    8.90
   7   6  -4   77.79   15.70
   7   6  -4   67.59    8.30
  -7  -6   4   69.69   11.90
  -7  -6   4   75.99   10.60
  -7  -6   4   75.29    9.50
   6   6  -4    3.90    5.70
   6   6  -4    4.60    3.40
   6   6  -4    2.80    3.30
  -6  -6   4    2.40    3.10
  -6  -6   4    5.50    3.30
  -6  -6   4    1.90    3.20
   5   6  -4   12.00    4.40
   5   6  -4   18.10    4.50
   5   6  -4   22.00    8.10
  -5  -6   4   14.90    5.00
  -5  -6   4   20.30    5.00
  -5  -6   4   20.50    4.50
   4   6  -4  388.46   24.50
   4   6  -4  445.96   31.10
  -4  -6   4  390.86   22.50
  -4  -6   4  354.26   21.80
  -4  -6   4  378.16   22.00
  -4  -6   4  365.86   22.60
   3   6  -4   84.89   15.50
   3   6  -4   73.89   10.40
  -3  -6   4   69.89    8.00
  -3  -6   4   71.99    7.10
  -3  -6   4   70.99    7.40
   2   6  -4  422.16   22.40
   2   6  -4  435.96   27.50
  -2  -6   4  419.66   23.50
  -2  -6   4  415.16   22.70
  -2  -6   4  441.86   23.90
   1   6  -4    0.90    4.00
   1   6  -4    1.70    6.40
   1   6  -4   -0.10    1.80
  -1  -6   4    0.60    1.50
  -1  -6   4    3.10    2.60
  -1  -6   4    2.30    2.30
   0   6  -4   21.40    7.60
   0   6  -4   12.30    9.30
   0  -6   4   27.70    4.80
   0  -6   4   23.40    4.40
  -1   6  -4   -1.40    5.20
  -1   6  -4   -3.40    5.70
   1  -6   4    0.60    2.30
   1  -6   4    0.00    2.10
  -2   6  -4    8.20    7.80
  -2   6  -4    4.10    7.90
   2  -6   4   16.70    4.30
   2  -6   4    7.30    3.00
  -3   6  -4   11.40    9.10
  -3   6  -4    1.50    8.90
   3  -6   4   30.60    5.50
  -4   6  -4   -3.20    8.70
  -4   6  -4   -1.30    8.50
   4  -6   4    2.20    3.00
   8   5  -4   11.80    8.40
   8   5  -4   13.90    5.20
  -8  -5   4   28.10    7.00
  -8  -5   4   21.20    7.70
  -8  -5   4   17.70    4.60
   7   5  -4   52.89    7.90
   7   5  -4   34.50   10.10
   7   5  -4   47.10    6.50
  -7  -5   4   44.50    7.90
  -7  -5   4   35.20    6.10
  -7  -5   4   44.60    9.70
   6   5  -4   25.90    4.80
   6   5  -4   26.10    8.90
   6   5  -4   26.10    5.40
  -6  -5   4   27.00    5.80
  -6  -5   4   20.20    4.40
  -6  -5   4   28.80    7.00
   5   5  -4   73.09    7.10
   5   5  -4   68.69   12.20
   5   5  -4   68.39    8.60
  -5  -5   4   63.19    8.40
  -5  -5   4   55.89    7.60
  -5  -5   4   62.79    7.30
   4   5  -4   52.39    8.00
   4   5  -4   45.50   10.40
  -4  -5   4   46.50    6.00
  -4  -5   4   48.60    6.10
  -4  -5   4   47.40    6.60
   3   5  -4   46.60   10.80
   3   5  -4   50.89    7.70
   3   5  -4   53.89    6.30
  -3  -5   4   50.19    5.70
  -3  -5   4   54.89    6.30
  -3  -5   4   44.90    5.80
   2   5  -4   25.30    6.20
   2   5  -4   12.50    3.20
   2   5  -4   15.30    8.60
  -2  -5   4    3.70    3.20
  -2  -5   4   13.50    3.40
  -2  -5   4   14.90    3.40
  -2  -5   4   14.50    3.10
   1   5  -4  107.39   13.00
   1   5  -4   98.89    7.10
   1   5  -4   49.99   13.70
  -1  -5   4   68.19    7.60
  -1  -5   4   82.09    7.00
  -1  -5   4   82.79    6.30
  -1  -5   4   90.09    7.40
   0   5  -4   67.59   10.70
   0   5  -4   83.69    8.70
   0  -5   4   95.59    7.60
   0  -5   4   64.79    7.10
   0  -5   4   94.79    7.20
   0  -5   4   85.19    5.40
  -1   5  -4  103.79   15.20
   1  -5   4   90.99    8.00
   1  -5   4   96.29    7.40
  -2   5  -4    3.00    3.90
  -2   5  -4   -1.00    5.20
  -2   5  -4    3.90    6.60
   2  -5   4    1.70    2.30
   2  -5   4    1.70    1.70
  -3   5  -4   40.20    8.40
  -3   5  -4   12.70   10.00
  -4   5  -4    1.30    7.20
   4  -5   4   -1.80    2.70
   4  -5   4   -1.80    2.40
  -5   5  -4    4.40   10.40
   5  -5   4   18.40    4.80
   5  -5   4   20.70    6.20
   8   4  -4    4.90    6.70
   8   4  -4    5.00    3.70
  -8  -4   4   13.90    5.30
  -8  -4   4    8.10    6.00
  -8  -4   4    3.50    2.80
   7   4  -4  337.17   20.20
   7   4  -4  326.77   17.70
   7   4  -4  301.87   26.30
  -7  -4   4  291.07   20.20
  -7  -4   4  299.77   18.30
  -7  -4   4  326.57   23.60
   6   4  -4   16.40    3.50
   6   4  -4   12.50    3.90
   6   4  -4   20.20    7.80
  -6  -4   4   18.90    6.10
  -6  -4   4   15.60    4.60
  -6  -4   4   18.20    4.00
   5   4  -4  610.14   32.20
   5   4  -4  640.44   33.80
   5   4  -4  684.63   40.40
  -5  -4   4  651.13   32.50
  -5  -4   4  598.14   35.40
  -5  -4   4  637.14   33.70
   4   4  -4    0.00    2.30
   4   4  -4   -0.40    3.40
   4   4  -4   -0.90    2.20
  -4  -4   4   -0.70    2.00
  -4  -4   4    3.70    2.30
  -4  -4   4   -0.70    1.70
   3   4  -4   25.30    5.20
   3   4  -4   22.20    4.50
   3   4  -4   30.30    8.80
  -3  -4   4   17.90    3.40
  -3  -4   4   21.80    3.70
  -3  -4   4   22.40    4.00
   2   4  -4  668.83   34.80
   2   4  -4  637.24   32.30
   2   4  -4  584.44   41.50
  -2  -4   4  626.14   31.30
  -2  -4   4  636.34   31.40
  -2  -4   4  626.34   31.40
   1   4  -4  488.85   25.00
   1   4  -4  433.36   22.20
  -1  -4   4  449.16   23.60
  -1  -4   4  467.55   23.60
  -1  -4   4  454.65   22.90
   0   4  -4  209.48   17.40
   0  -4   4  213.38   12.30
   0  -4   4  207.48   11.10
   0  -4   4  222.28   13.50
   0  -4   4  200.78   12.50
  -1   4  -4  271.67   22.20
   1  -4   4  282.07   15.00
   1  -4   4  259.97   15.70
   1  -4   4  275.97   15.60
  -2   4  -4   52.49    8.40
  -2   4  -4   27.60   11.20
  -3   4  -4    1.20    5.90
  -3   4  -4   -0.50    3.40
   3  -4   4    3.90    1.70
   3  -4   4    2.50    3.10
   3  -4   4    7.10    2.80
  -4   4  -4    1.80    7.20
  -4   4  -4    4.00    4.30
   4  -4   4    0.80    2.20
   4  -4   4    1.90    3.20
  -5   4  -4   12.60    5.90
  -5   4  -4    3.50    9.30
   5  -4   4    3.60    2.80
   5  -4   4    0.40    3.20
  -6   4  -4    1.50    5.50
  -6   4  -4    2.90   10.00
   6  -4   4    2.50    4.70
   8   3  -4    5.30    3.30
   8   3  -4    7.40    6.80
  -8  -3   4   10.10    3.20
  -8  -3   4    3.90    3.70
  -8  -3   4    1.40    4.60
   7   3  -4    7.60    3.40
   7   3  -4    6.30    5.50
  -7  -3   4   14.30    5.80
  -7  -3   4    9.00    3.80
  -7  -3   4   11.10    3.30
   6   3  -4  129.89   15.00
   6   3  -4  118.29    9.60
   6   3  -4  130.69    8.30
  -6  -3   4  107.79    9.90
  -6  -3   4  107.49   11.80
  -6  -3   4  125.79    8.80
   5   3  -4   43.70    5.90
   5   3  -4   55.49   10.10
   5   3  -4   41.00    5.00
  -5  -3   4   49.70    6.60
  -5  -3   4   45.90    5.30
   4   3  -4  268.17   20.70
   4   3  -4  265.27   17.60
   4   3  -4  272.47   16.20
  -4  -3   4  252.37   14.50
  -4  -3   4  290.57   15.20
  -4  -3   4  258.27   15.90
   3   3  -4   85.89    8.10
   3   3  -4   77.59    7.60
   3   3  -4   95.69   11.50
  -3  -3   4   91.29    7.10
  -3  -3   4   87.19    6.30
  -3  -3   4   91.09    6.70
   2   3  -4   70.39    7.10
   2   3  -4   68.29    6.70
   2   3  -4   68.59   12.40
  -2  -3   4   74.99    5.60
  -2  -3   4   65.49    5.50
  -2  -3   4   65.09    5.50
   1   3  -4  346.37   17.50
   1   3  -4  372.66   21.00
   1   3  -4  320.57   21.30
  -1  -3   4  381.06   18.60
  -1  -3   4  329.77   18.20
  -1  -3   4  371.56   18.10
   0   3  -4   88.49   11.20
   0  -3   4   75.69    8.00
   0  -3   4   86.29    6.20
   0  -3   4   86.99    6.00
   0  -3   4   81.79    5.20
   1  -3   4  404.86   21.60
   1  -3   4  371.96   18.40
   1  -3   4  381.66   18.60
   1  -3   4  394.06   20.60
   1  -3   4  434.16   20.10
  -2   3  -4   45.40    8.10
   2  -3   4   66.29    5.80
   2  -3   4   55.49    6.70
   2  -3   4   62.49    4.70
  -3   3  -4    2.50    1.60
  -3   3  -4    6.60    6.20
  -3   3  -4    2.00    3.20
   3  -3   4    0.80    1.20
   3  -3   4    4.30    2.30
   3  -3   4    0.30    2.00
  -4   3  -4  179.68   15.60
   4  -3   4  179.08   13.90
   4  -3   4  205.98   12.50
   4  -3   4  196.38   10.40
  -5   3  -4  116.99   22.90
  -5   3  -4  142.99   14.40
   5  -3   4  169.08   11.10
   5  -3   4  152.58   12.70
  -6   3  -4   16.80    6.60
  -6   3  -4   21.20   12.60
   6  -3   4   19.40    5.40
   6  -3   4   17.80    4.20
  -7   3  -4   -0.70    9.40
  -7   3  -4    2.90    5.20
   7  -3   4    1.80    4.00
   8   2  -4    3.50    5.30
   8   2  -4   -1.60    2.70
  -8  -2   4    0.60    3.10
  -8  -2   4    0.30    4.10
   7   2  -4    5.30    2.70
   7   2  -4    4.30    4.80
  -7  -2   4    4.40    3.20
  -7  -2   4    5.00    2.40
  -7  -2   4    4.70    4.30
   6   2  -4    0.10    1.20
   6   2  -4   -0.80    3.70
   6   2  -4   -0.60    1.70
  -6  -2   4   -0.50    2.90
  -6  -2   4   -0.30    2.10
  -6  -2   4   -0.90    1.50
   5   2  -4  390.76   20.10
   5   2  -4  394.46   21.70
   5   2  -4  409.76   27.70
  -5  -2   4  417.86   22.70
  -5  -2   4  403.86   20.80
   4   2  -4    1.10    2.50
   4   2  -4    2.10    3.00
   4   2  -4    0.60    1.50
  -4  -2   4    2.20    1.50
  -4  -2   4    0.10    1.70
   3   2  -4  153.68   11.30
   3   2  -4  137.39    9.80
   3   2  -4  152.68   13.90
  -3  -2   4  153.78    9.20
  -3  -2   4  154.18    9.80
  -3  -2   4  157.88    8.90
   2   2  -4 1252.77   67.79
   2   2  -4 1352.76   61.99
   2   2  -4 1300.77   61.29
  -2  -2   4 1282.27   59.09
  -2  -2   4 1251.37   59.39
  -2  -2   4 1226.78   59.59
   1   2  -4  249.18   16.90
   1   2  -4  269.97   13.50
   1   2  -4  265.27   16.60
  -1  -2   4  278.47   13.90
  -1  -2   4  266.47   14.00
   0   2  -4   -0.90    4.60
   0   2  -4   16.20    5.50
   0  -2   4   16.80    2.40
   0  -2   4    9.80    3.70
   0  -2   4   13.30    1.80
   0  -2   4   15.80    2.70
  -1   2  -4  711.23   38.80
   1  -2   4  793.92   40.10
   1  -2   4  880.61   41.40
   1  -2   4  833.02   38.10
   1  -2   4  815.92   37.60
   1  -2   4  873.91   38.70
   1  -2   4  837.52   39.50
  -2   2  -4  616.14   36.20
  -2   2  -4  594.44   32.10
   2  -2   4  732.23   31.80
   2  -2   4  688.83   30.80
   2  -2   4  718.33   33.50
   2  -2   4  672.63   34.10
  -3   2  -4   16.70    2.20
  -3   2  -4   19.30    2.50
  -3   2  -4   10.90    6.60
  -3   2  -4   16.00    4.70
   3  -2   4   15.70    3.50
   3  -2   4   19.60    3.60
   3  -2   4   13.70    1.70
   3  -2   4   20.10    2.30
  -4   2  -4   68.59    3.90
  -4   2  -4   58.39    8.90
  -4   2  -4   66.19   15.30
  -4   2  -4   65.19    4.40
   4  -2   4   71.19    4.20
   4  -2   4   76.99    6.80
   4  -2   4   66.69    7.00
  -5   2  -4    4.20    1.70
  -5   2  -4    6.90    4.30
  -5   2  -4    5.20    7.40
   5  -2   4    8.70    3.10
   5  -2   4    8.10    3.40
  -6   2  -4    9.80    9.60
  -6   2  -4   10.60    5.60
   6  -2   4    9.00    3.20
   6  -2   4    5.30    3.50
  -7   2  -4    6.20    9.50
  -7   2  -4    6.30    5.60
   7  -2   4    7.00    4.70
   8   1  -4    5.30    2.90
   8   1  -4   11.30    7.50
  -8  -1   4    3.70    3.00
  -8  -1   4    9.00    5.90
   7   1  -4    5.40    5.30
   7   1  -4    4.80    2.50
  -7  -1   4    3.50    3.10
  -7  -1   4    4.80    4.10
  -7  -1   4    2.50    1.80
   6   1  -4    2.70    1.20
   6   1  -4    1.80    3.60
   6   1  -4    2.70    1.80
  -6  -1   4    1.10    3.20
  -6  -1   4    4.90    3.40
  -6  -1   4    1.30    1.60
   5   1  -4    4.60    1.20
   5   1  -4    3.50    1.70
   5   1  -4    4.00    3.80
   5   1  -4    2.90    1.20
  -5  -1   4    6.90    1.90
  -5  -1   4    4.30    2.50
   4   1  -4   51.49    4.40
   4   1  -4   34.70    3.10
   4   1  -4   35.70    6.10
   4   1  -4   33.80    3.00
   4   1  -4   38.50    7.40
  -4  -1   4   43.60    4.80
  -4  -1   4   37.50    3.70
   3   1  -4  379.46   19.80
   3   1  -4  402.46   22.40
   3   1  -4  368.26   23.90
   3   1  -4  365.76   18.70
  -3  -1   4  377.56   20.50
  -3  -1   4  408.56   19.50
  -3  -1   4  399.06   20.20
  -3  -1   4  394.36   18.70
   2   1  -4  236.68   13.30
   2   1  -4  225.28   12.30
   2   1  -4  247.18   17.90
   2   1  -4  252.27   15.10
  -2  -1   4  239.18   12.80
  -2  -1   4  222.58   13.70
  -2  -1   4  240.18   12.00
   1   1  -4  323.87   17.80
   1   1  -4  291.67   16.20
   1   1  -4  288.27   19.20
   1   1  -4  314.77   15.70
  -1  -1   4  334.47   15.90
  -1  -1   4  327.17   16.20
  -1  -1   4  331.27   15.80
   0   1  -4   68.59   10.50
   0   1  -4   54.79    7.30
   0  -1   4   65.89    9.90
   0  -1   4   77.69    7.80
  -1   1  -4    0.30    2.50
  -1   1  -4    4.20    4.00
  -1   1  -4    4.50    1.60
  -1   1  -4    2.70    1.60
  -1   1  -4   10.10    2.70
   1  -1   4    8.00    1.60
   1  -1   4    3.10    4.00
   1  -1   4    9.00    2.20
   1  -1   4    5.70    1.80
   1  -1   4    5.30    1.70
   1  -1   4   10.30    3.10
  -2   1  -4  298.77   15.20
  -2   1  -4  282.77   18.70
  -2   1  -4  284.97   14.90
   2  -1   4  297.47   15.10
   2  -1   4  320.37   16.80
   2  -1   4  294.97   16.40
   2  -1   4  304.57   14.70
  -3   1  -4  649.93   34.80
  -3   1  -4  608.64   30.20
  -3   1  -4  694.53   29.80
  -3   1  -4  550.24   40.00
   3  -1   4  671.43   30.40
   3  -1   4  592.64   32.10
   3  -1   4  644.04   32.70
   3  -1   4  681.73   30.40
  -4   1  -4    9.80    2.00
  -4   1  -4   11.10    6.60
  -4   1  -4   12.20    4.40
   4  -1   4    8.90    3.00
   4  -1   4    9.40    2.10
   4  -1   4   10.10    1.60
   4  -1   4    9.00    1.40
   4  -1   4    6.30    2.90
  -5   1  -4   77.69   15.10
  -5   1  -4   83.59   10.10
  -5   1  -4   76.99    5.80
   5  -1   4   79.59    7.60
   5  -1   4   78.49    7.90
  -6   1  -4   52.69    5.30
  -6   1  -4   58.89   10.10
  -6   1  -4   81.19   16.50
   6  -1   4   56.29    7.40
   6  -1   4   54.79    7.00
  -7   1  -4    6.00    5.00
  -7   1  -4    0.10    6.30
   7  -1   4    3.80    3.00
   7  -1   4    1.60    3.50
  -8   1  -4   16.00   11.90
  -8   1  -4   20.30    8.60
   8  -1   4    7.50    4.50
   8   0  -4    6.40    6.20
   8   0  -4    5.40    3.00
  -8   0   4    6.70    3.60
  -8   0   4   10.50    6.10
   7   0  -4   -1.40    3.70
   7   0  -4    0.40    2.00
  -7   0   4    0.10    3.50
  -7   0   4    3.90    3.30
   6   0  -4   16.70    6.30
   6   0  -4   11.80    3.00
  -6   0   4   13.30    2.40
  -6   0   4   13.10    3.70
  -6   0   4   13.50    5.20
   5   0  -4    2.20    3.50
   5   0  -4   -0.30    1.20
  -5   0   4    1.80    1.90
  -5   0   4    1.30    1.20
   4   0  -4  840.72   46.00
   4   0  -4  893.41   40.70
   4   0  -4  830.82   44.40
  -4   0   4  869.31   40.20
  -4   0   4  840.32   41.60
   3   0  -4  811.72   43.00
   3   0  -4  931.11   45.70
   3   0  -4  935.11   42.30
   3   0  -4  912.01   47.00
   3   0  -4  831.32   41.50
  -3   0   4  903.41   42.80
  -3   0   4  941.51   41.20
  -3   0   4  974.00   42.60
  -3   0   4  896.01   43.10
   2   0  -4  330.47   16.20
   2   0  -4  299.07   15.90
   2   0  -4  349.87   20.40
   2   0  -4  348.77   19.10
   2   0  -4  307.37   16.90
  -2   0   4  337.37   15.50
  -2   0   4  313.57   16.50
  -2   0   4  335.47   16.80
  -2   0   4  276.87   21.20
  -2   0   4  348.47   16.80
   1   0  -4 2615.54  120.69
   1   0  -4 2640.84  121.19
   1   0  -4 2660.03  124.69
   1   0  -4 2427.96  126.29
   1   0  -4 2915.91  121.39
  -1   0   4 2690.53  120.59
  -1   0   4 2587.74  121.09
  -1   0   4 2555.54  121.79
  -1   0   4 2819.82  120.59
   0   0  -4    9.10    4.60
   0   0  -4   23.30    2.90
   0   0  -4   22.80    2.60
   0   0  -4   13.30    2.90
   0   0  -4   21.80    2.80
   0   0   4   26.50    3.20
   0   0   4   28.90    2.60
   0   0   4   23.50    3.70
   0   0   4   24.60    3.10
   0   0   4   11.40    3.90
  -1   0  -4  408.76   19.30
  -1   0  -4  396.46   20.20
  -1   0  -4  362.36   19.50
  -1   0  -4  412.86   19.10
   1   0   4  368.16   19.50
   1   0   4  422.26   19.40
   1   0   4  447.86   23.00
   1   0   4  347.37   19.90
   1   0   4  337.07   24.70
   1   0   4  408.46   19.60
  -2   0  -4  339.97   16.50
  -2   0  -4  350.76   15.90
  -2   0  -4  263.97   22.40
  -2   0  -4  343.97   20.20
   2   0   4  370.96   19.40
   2   0   4  308.57   16.90
   2   0   4  353.16   16.50
   2   0   4  296.57   16.40
   2   0   4  311.77   17.70
  -3   0  -4   23.80    6.60
  -3   0  -4   24.40    3.00
  -3   0  -4   22.30    4.90
   3   0   4   29.80    3.40
   3   0   4   31.70    3.90
   3   0   4   21.20    3.70
   3   0   4   21.20    2.70
  -4   0  -4   34.70    3.80
  -4   0  -4   52.39   10.50
  -4   0  -4   49.99    6.90
   4   0   4   35.60    3.40
   4   0   4   40.10    3.10
   4   0   4   42.50    4.90
   4   0   4   35.50    5.70
   4   0   4   32.70    5.00
  -5   0  -4  381.36   27.40
  -5   0  -4  303.37   20.60
  -5   0  -4  308.67   16.30
   5   0   4  281.37   17.10
   5   0   4  282.07   15.00
   5   0   4  272.37   17.60
  -6   0  -4  167.08   15.20
  -6   0  -4  189.78   20.50
  -6   0  -4  155.28   10.40
   6   0   4  153.28   11.40
   6   0   4  145.79   11.80
  -7   0  -4    4.80    2.60
  -7   0  -4    3.10    5.00
  -7   0  -4   -0.90    5.90
   7   0   4   -0.90    2.30
   7   0   4    1.20    2.70
  -8   0  -4   -0.60    5.00
  -8   0  -4    0.10    7.50
   8   0   4   -1.70    3.00
   8  -1  -4   -0.70    5.10
  -8   1   4    1.90    2.90
  -8   1   4    2.30    5.00
   7  -1  -4   31.30    8.70
   7  -1  -4   24.10    4.20
  -7   1   4   22.80    7.10
  -7   1   4   30.70    5.50
   6  -1  -4    6.20    2.20
   6  -1  -4    1.50    3.80
  -6   1   4    3.90    1.50
  -6   1   4    3.20    2.60
  -6   1   4    5.10    4.10
   5  -1  -4   24.40    6.60
   5  -1  -4   28.00    3.20
   5  -1  -4   34.20    4.00
  -5   1   4   30.60    4.60
  -5   1   4   29.30    6.40
  -5   1   4   30.50    2.90
   4  -1  -4   20.10    5.40
   4  -1  -4   17.00    2.40
   4  -1  -4   16.40    2.40
   4  -1  -4   15.70    4.30
  -4   1   4   21.90    2.70
  -4   1   4   16.20    2.60
  -4   1   4   18.40    3.10
   3  -1  -4  104.39    6.10
   3  -1  -4  110.99    9.20
   3  -1  -4  101.19    6.40
   3  -1  -4  105.89    9.50
  -3   1   4  101.29    6.30
  -3   1   4  110.29    6.90
  -3   1   4  106.29    7.00
   2  -1  -4   29.80    4.70
   2  -1  -4   33.30    2.30
   2  -1  -4   31.80    1.90
   2  -1  -4   33.50    3.00
   2  -1  -4   31.20    4.80
  -2   1   4   31.10    2.20
  -2   1   4   26.30    3.40
  -2   1   4   30.60    2.60
  -2   1   4   34.50    3.20
  -2   1   4   31.10    5.80
   1  -1  -4   21.50    1.70
   1  -1  -4   20.40    4.30
   1  -1  -4    8.00    2.50
   1  -1  -4   15.60    1.50
   1  -1  -4   19.50    2.30
   1  -1  -4   17.20    4.10
   1  -1  -4   19.40    1.50
  -1   1   4   15.50    2.50
  -1   1   4   16.60    2.00
  -1   1   4    9.00    4.10
  -1   1   4    7.10    3.20
   0  -1  -4 2186.98   94.09
   0  -1  -4 2203.48   93.99
   0  -1  -4 2131.19   93.59
   0   1   4 2090.29   95.59
   0   1   4 2072.99   94.19
   0   1   4 1807.72   94.19
   0   1   4 2018.60   93.69
  -1  -1  -4  704.53   35.00
  -1  -1  -4  757.62   34.30
  -1  -1  -4  769.92   34.00
  -1  -1  -4  720.33   34.10
   1   1   4  681.13   34.10
   1   1   4  723.23   34.50
   1   1   4  739.03   39.30
   1   1   4  772.02   38.30
   1   1   4  757.62   34.80
   1   1   4  712.93   34.10
  -2  -1  -4  114.79    6.90
  -2  -1  -4  112.69    8.50
  -2  -1  -4  118.19    7.10
  -2  -1  -4  109.99    6.80
  -2  -1  -4  106.39    9.50
  -2  -1  -4  103.29   10.80
   2   1   4  115.99    6.90
   2   1   4  119.09    7.20
   2   1   4  118.29    6.40
   2   1   4  110.89    7.10
   2   1   4  115.29    8.90
   2   1   4  122.09    6.80
  -3  -1  -4   35.30    7.00
  -3  -1  -4   34.40    3.60
  -3  -1  -4   29.30    5.30
   3   1   4   36.60    2.80
   3   1   4   33.80    3.10
   3   1   4   35.90    4.00
   3   1   4   37.10    3.80
   3   1   4   37.30    3.60
  -4  -1  -4  263.17   17.70
  -4  -1  -4  274.37   14.80
   4   1   4  266.67   15.00
   4   1   4  273.47   13.70
   4   1   4  268.77   13.20
   4   1   4  259.37   14.80
  -5  -1  -4  670.03   36.70
  -5  -1  -4  641.24   32.40
   5   1   4  625.64   32.80
   5   1   4  616.24   32.60
   5   1   4  664.93   30.50
   5   1   4  671.33   36.70
   5   1   4  658.83   30.90
  -6  -1  -4   31.40    7.20
  -6  -1  -4   34.90    5.00
   6   1   4   28.50    6.80
   6   1   4   28.60    5.00
   6   1   4   27.90    4.50
   6   1   4   35.20    2.90
  -7  -1  -4   39.70    5.80
  -7  -1  -4   37.80    8.60
   7   1   4   41.90    6.10
   7   1   4   33.10    5.90
  -8  -1  -4  103.79    9.40
  -8  -1  -4  121.39   14.60
   8   1   4   77.19    9.80
   8   1   4   91.69   10.40
   8  -2  -4   26.40    9.50
  -8   2   4   19.00    5.00
  -8   2   4   21.60    8.10
   7  -2  -4    4.90    2.90
   7  -2  -4    6.10    5.50
  -7   2   4    9.10    5.20
  -7   2   4   10.10    3.50
   6  -2  -4  100.19    7.90
   6  -2  -4  112.49   13.20
  -6   2   4  106.19   12.20
  -6   2   4  106.59    8.80
   5  -2  -4   34.20    4.00
   5  -2  -4   25.70    7.10
  -5   2   4   34.50    4.70
  -5   2   4   28.20    2.80
  -5   2   4   34.30    7.20
   4  -2  -4    1.50    2.90
   4  -2  -4    1.10    2.20
   4  -2  -4    1.40    1.30
   4  -2  -4    1.20    0.80
  -4   2   4    0.90    1.40
  -4   2   4    5.60    1.70
  -4   2   4    0.50    1.10
   3  -2  -4  524.05   24.10
   3  -2  -4  503.15   27.80
   3  -2  -4  529.75   24.00
   3  -2  -4  512.45   28.40
  -3   2   4  518.55   25.20
  -3   2   4  495.85   24.00
  -3   2   4  467.55   24.90
   2  -2  -4   61.49    3.50
   2  -2  -4   62.09    4.00
   2  -2  -4   63.79    6.30
   2  -2  -4   60.19    6.10
  -2   2   4   61.29    3.50
  -2   2   4   63.69    3.40
  -2   2   4   63.09    4.70
  -2   2   4   58.99    4.60
  -2   2   4   57.19    6.40
  -2   2   4   63.89    3.50
   1  -2  -4  190.88    9.60
   1  -2  -4  229.08   13.60
   1  -2  -4  194.08    9.80
   1  -2  -4  190.98   11.30
  -1   2   4  178.08   12.00
  -1   2   4  196.48    9.50
  -1   2   4  202.38   10.20
  -1   2   4  159.68   12.30
   0  -2  -4  311.77   14.90
   0  -2  -4  317.67   15.60
   0  -2  -4  303.27   17.90
   0   2   4  343.57   16.90
   0   2   4  321.37   15.50
   0   2   4  333.27   16.10
   0   2   4  327.67   15.60
   0   2   4  309.57   14.80
  -1  -2  -4  194.08   10.00
  -1  -2  -4  189.78   10.90
  -1  -2  -4  190.08    9.80
   1   2   4  200.08   10.80
   1   2   4  174.58   10.10
   1   2   4  228.38   12.50
   1   2   4  184.58    9.80
   1   2   4  194.58   13.20
   1   2   4  174.38    9.60
   1   2   4  194.98   10.00
  -2  -2  -4   43.30    4.60
  -2  -2  -4   46.00    6.00
  -2  -2  -4   39.90    3.80
  -2  -2  -4   48.90    3.60
  -2  -2  -4   41.90    3.90
  -2  -2  -4   37.40    6.00
   2   2   4   43.70    3.40
   2   2   4   37.80    3.90
   2   2   4   36.70    3.50
   2   2   4   38.20    3.00
   2   2   4   38.20    5.10
  -3  -2  -4  165.38   12.10
  -3  -2  -4  163.58    9.80
   3   2   4  167.78    9.60
   3   2   4  164.08    9.30
   3   2   4  158.98    9.30
  -4  -2  -4    9.10    3.50
  -4  -2  -4   10.10    2.60
   4   2   4    7.20    3.00
   4   2   4    6.10    2.00
   4   2   4    9.80    2.20
  -5  -2  -4  255.67   14.80
  -5  -2  -4  248.18   17.60
   5   2   4  266.47   18.00
   5   2   4  252.97   14.10
   5   2   4  231.98   12.60
   5   2   4  244.38   14.50
  -6  -2  -4  158.58   11.40
  -6  -2  -4  162.58   14.40
   6   2   4  178.58   11.00
   6   2   4  173.68   11.40
   6   2   4  151.88    8.80
   6   2   4  163.48   14.70
  -7  -2  -4   10.70    3.70
  -7  -2  -4   13.00    5.70
   7   2   4   10.80    3.60
   7   2   4    7.30    3.20
   7   2   4   14.60    6.00
  -8  -2  -4    5.70    3.40
  -8  -2  -4    6.30    5.30
   8   2   4    5.80    3.30
   8   2   4    4.80    3.40
   8   2   4    5.20    5.50
  -9  -2  -4   -0.40    5.60
  -9  -2  -4    0.40    3.50
   9   2   4   -1.50    2.90
   9   2   4    0.20    5.10
   7  -3  -4   -0.60    4.10
  -7   3   4    0.90    2.30
  -7   3   4    1.60    4.20
   6  -3  -4   13.70    6.00
   6  -3  -4   10.20    3.40
  -6   3   4   15.20    3.60
  -6   3   4   12.10    5.40
   5  -3  -4   83.59    7.00
   5  -3  -4   83.09   10.40
  -5   3   4   85.39    7.20
  -5   3   4   97.29    5.90
  -5   3   4   80.89   10.00
   4  -3  -4    6.00    2.00
   4  -3  -4    4.70    3.30
  -4   3   4    4.10    1.90
  -4   3   4    5.10    2.00
  -4   3   4    3.60    3.10
  -4   3   4    5.20    1.60
  -4   3   4    2.70    1.50
   3  -3  -4   22.30    2.70
   3  -3  -4   19.90    4.50
   3  -3  -4   25.10    4.80
  -3   3   4   22.60    3.00
  -3   3   4   20.50    1.60
  -3   3   4   17.40    1.80
  -3   3   4   22.60    2.40
  -3   3   4   19.70    2.60
  -3   3   4   19.20    2.80
   2  -3  -4   26.90    4.10
   2  -3  -4   25.60    4.30
  -2   3   4   25.20    2.90
  -2   3   4   19.90    2.90
  -2   3   4   23.50    1.90
  -2   3   4   30.20    2.70
  -2   3   4   28.00    4.80
  -2   3   4   23.70    2.10
  -2   3   4   21.60    2.10
   1  -3  -4  189.88   11.90
   1  -3  -4  173.58   10.30
  -1   3   4  166.28    8.80
  -1   3   4  176.28   11.00
  -1   3   4  199.78   11.80
  -1   3   4  184.88    9.40
  -1   3   4  181.28    8.60
  -1   3   4  173.08    9.20
  -1   3   4  180.98    9.90
   0  -3  -4   22.00    2.70
   0  -3  -4   21.30    4.00
   0  -3  -4   15.10    4.00
   0  -3  -4   21.00    2.40
   0   3   4   25.00    2.40
   0   3   4   25.60    2.40
   0   3   4   18.40    1.70
   0   3   4   25.60    3.00
   0   3   4   23.20    3.30
  -1  -3  -4  288.17   15.10
  -1  -3  -4  278.17   15.60
  -1  -3  -4  290.17   14.70
  -1  -3  -4  292.67   14.30
  -1  -3  -4  283.17   15.00
   1   3   4  283.87   14.40
   1   3   4  293.47   16.70
   1   3   4  338.77   18.10
   1   3   4  296.67   14.80
  -2  -3  -4  168.78    9.90
  -2  -3  -4  173.48   10.50
  -2  -3  -4  171.58   10.40
  -2  -3  -4  162.78   12.80
  -2  -3  -4  199.38   12.00
  -2  -3  -4  173.98    9.90
   2   3   4  175.38    9.80
   2   3   4  183.98   11.70
   2   3   4  173.98    9.70
  -3  -3  -4   28.60    3.90
  -3  -3  -4   40.40    5.90
  -3  -3  -4   36.80    3.70
  -3  -3  -4   39.50    5.10
   3   3   4   40.60    3.70
   3   3   4   41.50    4.00
   3   3   4   40.70    4.80
  -4  -3  -4  196.78   12.10
  -4  -3  -4  196.58   14.20
  -4  -3  -4  193.38   11.10
   4   3   4  197.38   13.70
   4   3   4  197.18   11.20
   4   3   4  197.28   11.70
  -5  -3  -4    3.30    3.10
  -5  -3  -4    3.70    1.70
  -5  -3  -4    2.60    2.20
   5   3   4    2.50    1.70
   5   3   4    3.40    2.10
   5   3   4    4.70    3.10
  -6  -3  -4   46.40    8.30
  -6  -3  -4   50.39    4.90
  -6  -3  -4   57.19    7.00
   6   3   4   55.29    9.40
   6   3   4   46.90    6.00
   6   3   4   53.79    5.30
  -7  -3  -4  200.08   12.40
  -7  -3  -4  231.78   15.20
  -7  -3  -4  244.18   19.10
   7   3   4  243.28   19.30
   7   3   4  208.88   14.40
   7   3   4  203.28   13.40
  -8  -3  -4   16.60    4.90
  -8  -3  -4   25.90    7.90
   8   3   4   22.00    4.50
   8   3   4   23.20    4.70
   8   3   4   24.40    7.80
  -9  -3  -4    1.80    3.80
  -9  -3  -4    3.30    5.30
   9   3   4    3.30    5.50
   9   3   4    2.70    3.20
   7  -4  -4    0.40    4.20
  -7   4   4    6.20    5.40
   6  -4  -4   33.00    8.20
  -6   4   4   31.40    5.20
  -6   4   4   30.70    7.70
   5  -4  -4    6.90    4.40
   5  -4  -4    8.30    3.10
  -5   4   4    7.50    4.50
  -5   4   4   10.30    2.90
   4  -4  -4  329.97   18.20
   4  -4  -4  349.87   22.00
  -4   4   4  311.47   17.40
  -4   4   4  344.77   18.20
  -4   4   4  344.17   16.10
  -4   4   4  365.16   21.90
   3  -4  -4    9.90    3.50
   3  -4  -4    6.60    1.90
  -3   4   4    8.50    1.90
  -3   4   4    7.60    1.50
  -3   4   4    5.30    1.50
  -3   4   4    6.90    1.70
  -3   4   4    8.90    2.10
   2  -4  -4   28.40    4.50
   2  -4  -4   22.40    3.80
  -2   4   4   24.80    4.50
  -2   4   4   20.40    2.40
  -2   4   4   27.50    2.70
  -2   4   4   24.80    3.80
  -2   4   4   24.50    2.60
  -2   4   4   18.30    2.20
   1  -4  -4   21.50    4.70
   1  -4  -4   39.50    4.40
  -1   4   4   38.50    3.10
  -1   4   4   35.40    3.40
  -1   4   4   29.20    3.10
  -1   4   4   35.40    3.70
  -1   4   4   35.80    3.30
  -1   4   4   38.10    3.00
   0  -4  -4  219.48   13.00
   0  -4  -4  208.08   11.10
   0  -4  -4  157.58   12.40
   0  -4  -4  199.28   12.10
   0   4   4  186.18   10.20
   0   4   4  209.08   10.80
  -1  -4  -4 1708.63   81.79
  -1  -4  -4 1701.63   81.29
  -1  -4  -4 1745.93   81.19
   1   4   4 1721.33   80.49
   1   4   4 1862.31   83.09
   1   4   4 1822.52   81.09
  -2  -4  -4    1.10    2.50
  -2  -4  -4    2.20    1.60
  -2  -4  -4    0.10    1.00
  -2  -4  -4    1.50    1.60
  -2  -4  -4    1.00    1.40
   2   4   4    1.10    1.30
   2   4   4    3.50    2.20
   2   4   4    3.10    1.40
  -3  -4  -4  522.55   28.10
  -3  -4  -4  571.84   27.70
  -3  -4  -4  585.54   30.80
  -3  -4  -4  550.54   28.90
   3   4   4  553.44   27.40
   3   4   4  538.05   27.60
   3   4   4  573.74   28.50
  -4  -4  -4    7.60    3.40
  -4  -4  -4    8.50    2.40
  -4  -4  -4    8.50    2.80
   4   4   4    7.70    3.00
   4   4   4    9.10    2.40
   4   4   4    5.50    2.10
  -5  -4  -4   46.40    5.20
  -5  -4  -4   44.40    7.40
  -5  -4  -4   45.80    6.00
   5   4   4   42.90    5.50
   5   4   4   37.30    4.40
   5   4   4   46.50    6.90
  -6  -4  -4   16.10    4.10
  -6  -4  -4   21.20    3.70
  -6  -4  -4   14.70    5.30
   6   4   4   24.90    3.80
   6   4   4   15.80    5.50
   6   4   4   15.80    3.70
  -7  -4  -4   34.40    4.80
  -7  -4  -4   31.70    6.00
  -7  -4  -4   36.30    8.10
   7   4   4   31.40    4.60
   7   4   4   27.70    7.60
   7   4   4   38.80    6.00
  -8  -4  -4    6.20    5.10
  -8  -4  -4    2.40    2.20
  -8  -4  -4    5.00    3.80
   8   4   4    2.60    2.50
   8   4   4    1.00    4.80
   8   4   4    0.20    2.50
  -9  -4  -4   -1.60    4.70
  -9  -4  -4    1.80    4.10
   9   4   4    4.40    3.70
   9   4   4    0.40    4.90
   9   4   4    2.00    2.60
  -6   5   4    6.40    4.80
  -6   5   4    2.70    6.60
  -5   5   4   16.60    7.80
  -5   5   4   14.90    5.50
  -4   5   4    3.80    5.10
  -4   5   4    1.00    3.10
  -4   5   4    2.70    1.80
  -3   5   4  232.68   11.70
  -3   5   4  189.38   14.70
  -3   5   4  196.28   11.60
  -3   5   4  210.38   12.10
  -3   5   4  228.78   14.90
  -3   5   4  236.78   18.10
  -2   5   4    3.40    1.40
  -2   5   4    0.10    2.50
  -2   5   4    1.30    2.20
  -2   5   4   -1.40    1.80
  -2   5   4    0.70    1.40
  -2   5   4    1.20    1.00
   1  -5  -4  542.85   27.20
   1  -5  -4  528.25   26.70
  -1   5   4  516.55   26.80
  -1   5   4  541.15   26.50
  -1   5   4  569.74   26.70
  -1   5   4  525.85   26.20
   0  -5  -4   34.10    4.10
   0  -5  -4   41.10    4.50
   0  -5  -4   37.30    5.70
   0   5   4   25.60    4.90
   0   5   4   33.00    3.90
   0   5   4   43.70    4.50
  -1  -5  -4   79.69    6.80
  -1  -5  -4   80.69    7.20
  -1  -5  -4   88.49    6.50
   1   5   4   91.49    6.80
   1   5   4   79.79    5.90
   1   5   4   78.29    6.40
  -2  -5  -4   93.59    6.90
  -2  -5  -4   87.59    7.10
   2   5   4   81.39    6.50
   2   5   4   86.59    5.30
   2   5   4   96.39    6.60
   2   5   4   94.99    7.30
  -3  -5  -4   25.30    3.80
  -3  -5  -4   32.90    6.00
  -3  -5  -4   31.50    4.60
  -3  -5  -4   31.10    4.60
   3   5   4   29.30    4.00
   3   5   4   28.70    4.00
   3   5   4   22.90    3.60
  -4  -5  -4  152.08   10.70
  -4  -5  -4  151.28   10.10
  -4  -5  -4  142.59   12.10
   4   5   4  160.78   10.30
   4   5   4  148.09   11.30
   4   5   4  150.08    9.80
  -5  -5  -4   70.39    8.60
  -5  -5  -4   90.79    7.10
  -5  -5  -4   64.59    7.10
   5   5   4   85.19    6.60
   5   5   4   81.19    7.10
   5   5   4   59.99    7.90
  -6  -5  -4   67.69    9.10
  -6  -5  -4   67.19    6.50
  -6  -5  -4   67.89    7.70
   6   5   4   69.69    9.50
   6   5   4   68.19    6.40
   6   5   4   74.79    7.40
  -7  -5  -4    3.90    2.40
  -7  -5  -4   -1.50    2.30
  -7  -5  -4    0.80    3.40
   7   5   4    3.00    2.30
   7   5   4    0.20    2.50
   7   5   4    1.10    3.60
  -8  -5  -4  127.99    9.60
  -8  -5  -4  123.29   14.30
  -8  -5  -4  113.99   11.30
   8   5   4  121.49   14.80
   8   5   4  118.69   10.90
   8   5   4  124.29    9.70
  -9  -5  -4    3.30    5.60
  -9  -5  -4    7.40    4.80
   9   5   4    2.20    6.10
   9   5   4    5.40    3.70
   9   5   4    4.90    3.20
  -4   6   4  120.59   16.60
  -4   6   4  122.79   14.10
  -3   6   4    7.70    3.90
  -3   6   4   18.70    3.10
  -3   6   4   12.60    6.60
  -3   6   4   16.20    4.30
  -3   6   4   15.30    2.50
  -3   6   4   14.40    2.70
  -2   6   4   55.19    5.30
  -2   6   4   57.99    7.20
  -2   6   4   57.69    6.10
  -2   6   4   59.09    4.60
   1  -6  -4   10.90    2.80
   1  -6  -4    6.40    3.30
  -1   6   4   12.20    3.30
  -1   6   4   13.50    3.10
  -1   6   4    3.40    3.10
  -1   6   4    3.90    3.20
  -1   6   4   14.10    3.10
   0  -6  -4   36.70    3.70
   0  -6  -4   34.40    4.70
   0  -6  -4   47.60    6.70
   0   6   4   37.00    4.90
   0   6   4   42.10    4.80
   0   6   4   41.90    5.00
  -1  -6  -4    6.40    2.60
  -1  -6  -4    5.20    2.50
  -1  -6  -4    8.70    2.60
   1   6   4   13.60    3.20
   1   6   4    7.50    2.10
   1   6   4   10.10    2.60
  -2  -6  -4   98.69    8.10
  -2  -6  -4  102.39    7.80
   2   6   4  101.49    7.90
   2   6   4   98.19    7.50
   2   6   4  108.59    7.70
  -3  -6  -4   68.09    6.70
  -3  -6  -4   63.99    6.50
  -3  -6  -4   52.99    8.20
   3   6   4   68.39    6.00
   3   6   4   57.99    5.40
   3   6   4   61.39    6.00
  -4  -6  -4  219.48   16.50
  -4  -6  -4  231.78   14.80
  -4  -6  -4  247.28   14.40
   4   6   4  222.78   14.90
   4   6   4  240.28   14.20
   4   6   4  226.58   14.20
  -5  -6  -4  174.08   12.60
  -5  -6  -4  159.68   12.30
  -5  -6  -4  176.88   14.20
   5   6   4  181.88   11.60
   5   6   4  165.18   11.90
   5   6   4  166.08   13.30
  -6  -6  -4   12.50    3.60
  -6  -6  -4   12.10    3.80
  -6  -6  -4   15.10    5.20
   6   6   4   21.20    4.60
   6   6   4   22.70    4.40
   6   6   4   20.20    6.20
  -7  -6  -4   26.50    7.30
  -7  -6  -4   30.50    5.30
  -7  -6  -4   28.40    5.90
   7   6   4   25.40    4.80
   7   6   4   25.50    5.50
   7   6   4   29.00    7.90
  -8  -6  -4    7.50    5.50
  -8  -6  -4    1.00    3.40
  -8  -6  -4    5.50    3.30
   8   6   4    1.10    3.00
   8   6   4    4.60    5.40
   8   6   4    2.80    2.60
  -2   7   4   59.79    5.10
  -2   7   4   56.99    7.60
  -2   7   4   67.29    6.50
   1  -7  -4   60.09    6.00
  -1   7   4   59.09    7.20
  -1   7   4   62.79    6.40
   0  -7  -4  130.49   11.10
   0  -7  -4  121.49    9.20
   0   7   4  130.79    9.40
   0   7   4  114.79    9.30
  -1  -7  -4   21.40    4.40
  -1  -7  -4   30.10    4.90
   1   7   4   26.60    4.50
   1   7   4   27.00    4.60
  -2  -7  -4  122.09    9.70
  -2  -7  -4  122.99    9.60
   2   7   4  133.69    9.90
   2   7   4  133.59    9.50
  -3  -7  -4  426.46   23.90
  -3  -7  -4  453.75   24.60
   3   7   4  454.35   24.00
   3   7   4  439.96   23.80
   3   7   4  418.06   22.30
  -4  -7  -4  242.58   18.70
  -4  -7  -4  272.37   16.80
  -4  -7  -4  269.47   16.30
   4   7   4  251.57   15.90
   4   7   4  263.67   16.40
   4   7   4  274.97   16.30
  -5  -7  -4   18.00    5.50
  -5  -7  -4   22.00    4.40
  -5  -7  -4   16.90    4.50
   5   7   4   18.40    5.00
   5   7   4   14.60    3.70
   5   7   4   17.70    4.00
  -6  -7  -4    3.10    3.30
  -6  -7  -4    5.30    3.10
  -6  -7  -4    8.00    4.60
   6   7   4    9.30    3.80
   6   7   4    8.60    3.20
   6   7   4    5.50    4.20
  -7  -7  -4   23.00    5.70
  -7  -7  -4   24.10    7.30
  -7  -7  -4   28.90    5.60
   7   7   4   29.20    5.90
   7   7   4   24.70    7.50
   7   7   4   22.90    4.80
  -8  -7  -4   18.50    5.60
  -8  -7  -4   21.80    7.70
  -8  -7  -4   17.30    4.60
   8   7   4   20.50    4.90
   8   7   4   26.70    6.30
   8   7   4   14.90    6.80
  -2   8   4   18.10    3.50
  -2   8   4   20.30    4.20
   1  -8  -4   22.60    4.40
  -1   8   4   20.60    4.90
  -1   8   4   33.80    5.40
   0  -8  -4   38.60    5.70
   0  -8  -4   30.40    6.90
   0   8   4   32.80    5.30
   0   8   4   27.60    5.30
  -1  -8  -4    2.40    2.80
  -1  -8  -4   -0.20    2.40
   1   8   4   -0.40    2.50
   1   8   4   -2.00    1.80
  -2  -8  -4    0.90    2.40
  -2  -8  -4    2.30    2.60
   2   8   4    2.80    2.50
   2   8   4    2.50    2.70
  -3  -8  -4   75.29    7.90
  -3  -8  -4   81.79    8.00
   3   8   4   80.09    8.90
   3   8   4   71.29    8.20
  -4  -8  -4   69.99    8.00
  -4  -8  -4   73.09    8.70
   4   8   4   80.09    8.80
   4   8   4   77.99    8.70
  -5  -8  -4    1.40    2.50
  -5  -8  -4    5.70    3.30
   5   8   4    2.10    2.70
   5   8   4    1.60    2.50
  -6  -8  -4   50.49    7.60
  -6  -8  -4   65.59   11.00
  -6  -8  -4   43.40    7.50
   6   8   4   53.89    7.00
   6   8   4   47.40    7.30
  -7  -8  -4    0.60    3.70
  -7  -8  -4    3.50    3.50
  -7  -8  -4   -2.40    3.70
   7   8   4   -0.10    3.30
   7   8   4   -1.00    3.00
   1  -9  -4    3.40    2.80
  -1   9   4    4.00    3.60
   0  -9  -4    2.10    2.90
   0   9   4   -0.50    2.90
   0   9   4    0.20    3.20
  -1  -9  -4    1.50    2.70
  -1  -9  -4    1.80    3.40
   1   9   4   -1.00    2.60
   1   9   4    3.40    3.30
  -2  -9  -4    6.90    3.60
  -2  -9  -4    6.20    3.60
   2   9   4    5.50    3.10
   2   9   4    4.60    3.40
  -3  -9  -4    0.30    2.80
  -3  -9  -4   -1.10    2.50
   3   9   4    0.80    2.90
   3   9   4   -1.10    2.70
  -4  -9  -4   13.30    4.70
  -4  -9  -4   12.10    4.50
   4   9   4   11.20    4.10
   4   9   4    4.90    3.30
  -5  -9  -4   62.79    9.20
  -5  -9  -4   58.39    8.20
   5   9   4   69.49    8.60
   5   9   4   61.39    8.10
  -6  -9  -4   18.00    5.40
  -6  -9  -4    9.30    4.60
   6   9   4   13.50    4.70
   6   9   4   12.70    4.90
  -1 -10  -4   36.80    6.70
   1  10   4   58.89    8.60
  -2 -10  -4    2.70    3.80
   2  10   4    5.30    3.80
   2  10   4    5.70    4.00
  -3 -10  -4    8.80    4.20
  -3 -10  -4    3.40    3.60
   3  10   4    2.00    3.70
   3  10   4    2.20    3.60
  -4 -10  -4    4.10    3.70
  -4 -10  -4    7.50    4.40
   4  10   4    7.70    4.40
   4  10   4    5.40    4.00
   5   8  -5   10.10    8.60
   5   8  -5   15.10    5.60
   5   8  -5    8.90    5.40
  -5  -8   5    8.70    4.40
  -5  -8   5   13.90    4.90
   4   8  -5   13.90    5.90
   4   8  -5    5.30    7.60
  -4  -8   5    7.20    4.20
  -4  -8   5   12.70    4.60
  -4  -8   5   13.40    5.20
   3   8  -5  104.09   14.60
   3   8  -5  130.69   22.30
  -3  -8   5  115.09   11.20
  -3  -8   5  103.49   10.90
   2   8  -5    0.60    9.40
   2   8  -5    2.70    5.30
  -2  -8   5    1.70    3.60
  -2  -8   5   -1.50    3.00
   1   8  -5    6.30    6.70
   1   8  -5   -3.20    8.00
  -1  -8   5    0.50    3.20
  -1  -8   5    0.20    3.30
   0   8  -5   12.90    7.70
   0   8  -5    5.20   10.00
   0  -8   5   10.40    4.70
   0  -8   5   22.60    5.70
   6   7  -5    6.60    4.30
   6   7  -5   14.10    5.10
   6   7  -5   17.00    9.40
  -6  -7   5   14.10    5.10
  -6  -7   5    9.10    4.80
   5   7  -5   15.30    8.70
   5   7  -5   20.20    6.40
   5   7  -5   11.20    4.50
  -5  -7   5   12.70    4.80
  -5  -7   5   16.70    5.50
   4   7  -5   14.10    5.60
   4   7  -5   22.40    9.20
  -4  -7   5   27.00    5.90
  -4  -7   5   25.50    5.50
  -4  -7   5   16.00    4.70
   3   7  -5  123.29   21.40
   3   7  -5   82.49   12.70
  -3  -7   5   99.79    9.50
  -3  -7   5  103.09    9.30
  -3  -7   5  112.89   10.10
   2   7  -5  162.58   26.90
   2   7  -5  183.48   16.80
  -2  -7   5  149.59   12.30
  -2  -7   5  180.08   13.20
   1   7  -5   -3.00    3.80
   1   7  -5    1.10    7.80
  -1  -7   5    2.00    2.80
  -1  -7   5    3.90    3.00
   0   7  -5   28.90    9.40
   0   7  -5   18.10   11.90
   0  -7   5   41.40    6.40
   0  -7   5   62.39    8.30
  -1   7  -5    4.00    7.20
  -1   7  -5    3.40   10.50
   1  -7   5    1.40    2.90
   1  -7   5    2.70    3.70
  -2   7  -5    1.20    9.20
  -2   7  -5   -0.50    8.40
   2  -7   5    7.30    4.20
   7   6  -5   10.50    5.20
   7   6  -5    5.90    7.70
   7   6  -5    1.60    3.00
  -7  -6   5    4.20    4.60
  -7  -6   5    6.80    4.70
  -7  -6   5    5.60    3.90
   6   6  -5   15.80    4.50
   6   6  -5    6.60    4.40
   6   6  -5    6.40    6.60
  -6  -6   5   14.00    4.90
  -6  -6   5   11.00    4.00
  -6  -6   5    8.20    4.60
   5   6  -5   18.20    8.40
   5   6  -5   11.60    4.60
  -5  -6   5   23.80    5.20
  -5  -6   5   14.50    4.20
  -5  -6   5   14.60    5.00
   4   6  -5   20.10    5.70
   4   6  -5   29.00   10.50
  -4  -6   5   36.20    6.30
  -4  -6   5   25.40    5.10
  -4  -6   5   35.20    5.80
   3   6  -5    9.60    4.80
   3   6  -5   24.80    4.90
   3   6  -5   20.10   10.00
  -3  -6   5   25.40    4.90
  -3  -6   5   20.50    4.30
  -3  -6   5   22.20    4.60
   2   6  -5    4.20    7.80
   2   6  -5    9.10    4.30
   2   6  -5    2.40    2.50
  -2  -6   5    3.60    2.70
  -2  -6   5    6.00    3.20
  -2  -6   5    5.20    2.70
   1   6  -5  103.09   13.90
  -1  -6   5  116.39    9.80
  -1  -6   5  117.19    8.10
  -1  -6   5  122.59    9.60
   0   6  -5   -0.20    3.60
   0   6  -5    2.80    7.10
   0  -6   5   -2.20    2.10
   0  -6   5    2.20    2.60
  -1   6  -5   -3.90    5.40
  -1   6  -5   -1.20    7.10
   1  -6   5    1.40    2.30
   1  -6   5   -1.90    2.00
  -2   6  -5    1.80    6.50
  -2   6  -5    2.10    8.20
   2  -6   5    2.10    2.60
   2  -6   5    2.70    3.00
  -3   6  -5    1.70    8.70
  -3   6  -5   25.70   12.10
   3  -6   5   12.70    4.40
  -4   6  -5    2.40   10.40
  -4   6  -5   -8.30    9.20
   4  -6   5    2.80    3.70
   8   5  -5   23.90    6.10
   8   5  -5   21.10   10.30
  -8  -5   5   25.50    8.40
  -8  -5   5   32.70    7.60
  -8  -5   5   18.80    5.20
   7   5  -5   81.29   10.00
   7   5  -5   88.79    8.30
   7   5  -5   96.89   17.20
  -7  -5   5   82.29   11.50
  -7  -5   5   74.49   10.60
  -7  -5   5   95.99    8.80
   6   5  -5   77.49    9.70
   6   5  -5   98.29    8.60
   6   5  -5   94.29   16.70
  -6  -5   5   75.49   10.10
  -6  -5   5   89.69    8.40
  -6  -5   5   80.39   10.60
   5   5  -5    4.30    3.40
   5   5  -5    6.60    5.80
  -5  -5   5    2.00    3.30
  -5  -5   5    7.10    3.10
  -5  -5   5    7.90    3.50
   4   5  -5   61.09    8.10
   4   5  -5   57.09    8.70
   4   5  -5   89.99   15.40
  -4  -5   5   68.79    6.80
  -4  -5   5   64.79    8.10
  -4  -5   5   67.69    6.70
   3   5  -5    2.60    3.10
   3   5  -5   -1.60    5.50
   3   5  -5    2.30    2.70
  -3  -5   5    1.00    2.10
  -3  -5   5    0.30    2.30
  -3  -5   5    0.90    2.30
   2   5  -5  145.79   13.30
   2   5  -5  149.29   10.90
   2   5  -5  126.09   19.90
  -2  -5   5  151.78   10.60
  -2  -5   5  147.49   10.10
  -2  -5   5  143.89   10.40
   1   5  -5  125.59    9.60
   1   5  -5   95.89   12.60
  -1  -5   5  115.69    9.00
  -1  -5   5  109.29    7.70
  -1  -5   5  109.99    8.70
   0   5  -5    1.10    3.80
   0   5  -5   -1.20    6.50
   0   5  -5    0.80    3.60
   0  -5   5    1.20    2.40
   0  -5   5    1.30    1.30
   0  -5   5   -0.20    1.90
  -1   5  -5    8.00    4.30
  -1   5  -5    9.20    7.90
  -1   5  -5   -2.30    4.60
   1  -5   5    2.10    2.10
   1  -5   5   -1.00    2.10
  -2   5  -5   11.20    8.10
  -2   5  -5    0.90    3.90
  -2   5  -5    0.80    7.60
   2  -5   5    9.10    3.30
   2  -5   5    8.10    2.60
  -3   5  -5    2.90    7.90
  -3   5  -5    1.60    4.10
  -3   5  -5   -0.70    7.70
   3  -5   5   -2.30    2.10
  -4   5  -5    0.10    7.50
   4  -5   5    0.40    2.60
   4  -5   5    3.40    3.50
  -5   5  -5    7.80   12.30
   5  -5   5   19.30    5.80
   5  -5   5   34.00    6.10
   8   4  -5   68.89   15.10
   8   4  -5   64.39    9.20
  -8  -4   5   78.29   10.80
  -8  -4   5   56.09    7.60
  -8  -4   5   68.89   12.80
   7   4  -5   30.80    6.00
   7   4  -5   35.00   10.70
   7   4  -5   29.10    5.70
  -7  -4   5   30.20    5.50
  -7  -4   5   33.70    6.70
  -7  -4   5   30.10    8.00
   6   4  -5   69.49   13.20
   6   4  -5   62.09    8.10
   6   4  -5   72.69    6.80
  -6  -4   5   60.49   10.00
  -6  -4   5   65.59    6.80
  -6  -4   5   61.09    8.20
   5   4  -5   66.49    9.90
   5   4  -5   71.49    8.40
   5   4  -5   68.49   12.50
  -5  -4   5   59.19    7.00
  -5  -4   5   44.70    6.80
   4   4  -5   61.49    8.00
   4   4  -5   77.59   13.60
   4   4  -5   57.19    8.00
  -4  -4   5   68.79    7.00
  -4  -4   5   61.89    6.60
  -4  -4   5   63.49    6.30
   3   4  -5  409.26   24.60
   3   4  -5  410.76   23.90
   3   4  -5  458.75   32.50
  -3  -4   5  396.06   21.80
  -3  -4   5  425.16   22.60
  -3  -4   5  386.56   22.00
   2   4  -5   46.00    7.80
   2   4  -5   41.30    5.70
   2   4  -5   32.00   10.90
  -2  -4   5   34.90    4.80
  -2  -4   5   33.20    4.60
  -2  -4   5   34.30    4.70
   1   4  -5    2.80    7.00
   1   4  -5   -0.80    2.10
   1   4  -5   -1.00    2.40
  -1  -4   5    0.20    1.50
  -1  -4   5    0.70    1.80
  -1  -4   5   -2.40    1.50
   0   4  -5   38.20    8.90
   0   4  -5   17.70    5.30
   0   4  -5   11.20    8.30
   0  -4   5   33.70    4.50
   0  -4   5   37.60    6.50
   0  -4   5   44.80    5.40
   0  -4   5   32.70    3.20
  -1   4  -5  144.49   18.30
   1  -4   5  179.98   10.90
   1  -4   5  185.98   11.80
   2  -4   5  273.97   15.60
   2  -4   5  306.47   17.20
  -3   4  -5   12.90    5.90
  -3   4  -5   12.70    9.60
   3  -4   5   20.80    5.00
   3  -4   5   24.20    3.40
   3  -4   5   27.80    4.80
  -4   4  -5    0.20    4.40
  -4   4  -5    1.80    7.80
   4  -4   5    0.70    2.40
   4  -4   5    2.90    3.40
  -5   4  -5    3.10    4.90
  -5   4  -5    2.20    8.30
   5  -4   5    2.70    2.80
   5  -4   5    3.90    3.40
  -6   4  -5   37.60   10.40
  -6   4  -5   20.20   14.40
   6  -4   5   24.20    7.30
   6  -4   5   48.20    6.80
   8   3  -5    3.30    6.50
   8   3  -5    2.90    3.00
  -8  -3   5   11.90    3.60
  -8  -3   5    5.30    5.70
  -8  -3   5    6.40    4.20
   7   3  -5   27.60    5.40
   7   3  -5   26.30    8.80
  -7  -3   5   25.20    4.70
  -7  -3   5   27.60    7.90
  -7  -3   5   30.00    6.40
   6   3  -5    5.50    5.50
   6   3  -5    7.10    2.90
   6   3  -5    4.10    1.90
  -6  -3   5    9.40    3.60
  -6  -3   5    7.60    4.50
  -6  -3   5    7.60    2.80
   5   3  -5  281.97   16.30
   5   3  -5  282.67   17.60
   5   3  -5  296.37   23.50
   5   3  -5  299.37   20.60
  -5  -3   5  280.77   17.80
  -5  -3   5  305.87   16.80
   4   3  -5   60.19    7.90
   4   3  -5   64.79    7.50
   4   3  -5   60.29   11.10
  -4  -3   5   55.69    5.10
  -4  -3   5   63.79    5.80
  -4  -3   5   56.29    6.10
   3   3  -5   37.60    6.10
   3   3  -5   30.70    5.30
   3   3  -5   45.20   10.30
  -3  -3   5   41.50    5.20
  -3  -3   5   41.60    4.50
  -3  -3   5   32.00    4.30
   2   3  -5   -1.20    1.90
   2   3  -5   -2.10    1.60
   2   3  -5    2.50    5.00
  -2  -3   5    0.10    1.40
  -2  -3   5   -1.40    1.10
  -2  -3   5    1.40    1.50
   1   3  -5   83.19    9.90
   1   3  -5   62.49   14.20
   1   3  -5   68.89    8.70
  -1  -3   5   75.19    5.70
  -1  -3   5   83.19    6.20
  -1  -3   5   86.29    6.30
   0   3  -5   11.20    7.90
   0   3  -5   23.40    6.80
   0   3  -5   13.10    4.80
   0  -3   5   26.00    2.70
   0  -3   5   26.30    3.50
   0  -3   5   24.50    6.10
   0  -3   5   16.90    3.20
   0  -3   5   31.30    4.10
  -1   3  -5    5.80    5.40
  -1   3  -5   -1.40    2.60
  -1   3  -5    2.40    6.00
   1  -3   5    3.60    1.90
   1  -3   5    2.20    1.70
   1  -3   5    6.70    1.50
   1  -3   5    5.10    1.30
   2  -3   5 1047.10   49.20
   2  -3   5 1000.00   51.79
   2  -3   5 1086.49   50.69
  -3   3  -5    4.90    6.90
  -3   3  -5    5.80    4.50
   3  -3   5   17.70    3.80
   3  -3   5   15.30    4.10
   3  -3   5   15.00    2.60
  -4   3  -5  114.39   13.40
  -4   3  -5   89.49   21.00
   4  -3   5  128.09   11.20
   4  -3   5  147.69   10.20
  -5   3  -5   -0.20    4.00
  -5   3  -5   -2.40    6.80
   5  -3   5    2.90    3.30
   5  -3   5   -0.30    2.10
  -6   3  -5    1.60    4.80
  -6   3  -5    3.20    9.30
   6  -3   5   -0.90    3.70
   6  -3   5   -1.60    2.60
   8   2  -5   19.30    4.70
   8   2  -5    7.90    6.60
  -8  -2   5   11.10    6.20
  -8  -2   5   10.20    4.40
   7   2  -5    1.40    4.80
   7   2  -5    4.40    2.80
  -7  -2   5    0.80    1.90
  -7  -2   5    3.30    4.20
  -7  -2   5    2.00    3.10
   6   2  -5   15.30    3.80
   6   2  -5   19.40    7.10
   6   2  -5   16.50    2.60
  -6  -2   5   11.60    3.80
  -6  -2   5   17.40    5.90
  -6  -2   5   15.70    3.30
   5   2  -5   -1.20    1.40
   5   2  -5   -2.40    2.50
   5   2  -5    0.50    3.30
   5   2  -5    0.90    1.40
  -5  -2   5    0.20    1.50
  -5  -2   5    1.40    2.10
   4   2  -5  690.63   41.70
   4   2  -5  737.23   38.90
   4   2  -5  699.43   35.80
  -4  -2   5  730.53   36.20
  -4  -2   5  715.13   34.30
  -4  -2   5  719.63   35.00
   3   2  -5    9.00    3.30
   3   2  -5    4.80    4.20
   3   2  -5    6.50    2.70
  -3  -2   5    6.50    2.10
  -3  -2   5    5.40    1.80
  -3  -2   5    5.30    2.10
   2   2  -5 4308.17  193.08
   2   2  -5 3671.23  200.28
   2   2  -5 4517.85  194.58
  -2  -2   5 4257.07  190.38
  -2  -2   5 4364.06  190.98
  -2  -2   5 4101.59  190.88
   1   2  -5   -0.70    2.00
   1   2  -5    1.10    4.40
   1   2  -5    0.60    2.90
  -1  -2   5   -0.30    1.10
  -1  -2   5    1.30    1.40
  -1  -2   5   -0.10    0.90
   0   2  -5   30.90    6.60
   0   2  -5   31.80    9.80
   0  -2   5   56.69    5.00
   0  -2   5   58.49    7.50
  -1   2  -5    0.10    2.80
  -1   2  -5    1.40    4.70
   1  -2   5    8.80    1.80
   1  -2   5    6.50    2.00
   1  -2   5    7.50    1.40
   1  -2   5    6.00    2.30
   1  -2   5    7.90    2.70
  -2   2  -5    2.90    3.50
  -2   2  -5   -1.30    4.00
   2  -2   5    6.70    2.40
   2  -2   5    2.20    1.40
   2  -2   5    3.90    2.50
   2  -2   5    2.90    1.00
  -3   2  -5   12.60    7.40
  -3   2  -5   26.40    3.00
  -3   2  -5   12.40    2.40
  -3   2  -5   19.90    6.00
   3  -2   5   20.00    4.10
   3  -2   5   25.00    2.90
   3  -2   5   20.40    4.20
  -4   2  -5   68.49    5.30
  -4   2  -5   42.80   13.20
  -4   2  -5   67.39   10.40
   4  -2   5   79.89    7.70
   4  -2   5   59.39    7.40
   4  -2   5   71.29    4.60
  -5   2  -5   24.60   11.50
  -5   2  -5   34.50    8.30
   5  -2   5   26.60    5.70
   5  -2   5   42.90    6.10
  -6   2  -5    5.70    5.10
  -6   2  -5    7.60    8.60
   6  -2   5    3.30    3.50
   6  -2   5   -0.70    2.60
  -7   2  -5    0.90    5.20
  -7   2  -5    6.00   11.20
   7  -2   5    1.20    3.20
   7  -2   5    5.60    4.50
   8   1  -5    7.50    3.60
   8   1  -5    8.20    6.80
  -8  -1   5    3.00    5.30
  -8  -1   5    7.10    4.20
   7   1  -5   29.60    9.50
   7   1  -5   31.40    5.10
  -7  -1   5   27.30    4.00
  -7  -1   5   31.10    8.20
  -7  -1   5   27.20    5.70
   6   1  -5   22.00    7.70
   6   1  -5   18.00    3.70
  -6  -1   5   16.30    4.10
  -6  -1   5   18.00    3.20
  -6  -1   5   21.50    6.60
   5   1  -5   34.20    8.10
   5   1  -5   29.60    2.80
   5   1  -5   24.90    6.10
   5   1  -5   27.60    4.10
  -5  -1   5   33.30    4.00
  -5  -1   5   35.20    5.40
   4   1  -5  606.84   32.80
   4   1  -5  572.84   34.50
   4   1  -5  540.55   27.60
   4   1  -5  594.94   28.80
  -4  -1   5  588.54   29.70
  -4  -1   5  551.64   27.30
  -4  -1   5  590.64   28.40
   3   1  -5 1171.38   56.29
   3   1  -5 1015.20   51.99
   3   1  -5 1159.68   59.19
   3   1  -5 1162.28   53.09
  -3  -1   5 1077.99   53.09
  -3  -1   5 1123.49   52.59
  -3  -1   5 1135.89   51.69
   2   1  -5  232.58   19.20
   2   1  -5  241.78   13.80
   2   1  -5  196.68   12.70
   2   1  -5  265.37   16.50
  -2  -1   5  245.28   13.10
  -2  -1   5  218.28   14.60
  -2  -1   5  241.68   12.30
  -2  -1   5  255.57   13.30
   1   1  -5   85.49    7.30
   1   1  -5   65.99   12.70
   1   1  -5   61.79    5.60
   1   1  -5   60.29    8.50
  -1  -1   5   75.39    5.20
  -1  -1   5   73.59    5.10
  -1  -1   5   73.99    5.60
   0   1  -5   54.79    4.90
   0   1  -5   43.40    7.50
   0  -1   5   48.30    3.70
   0  -1   5   54.49    4.50
   0  -1   5   39.60    4.80
   0  -1   5   55.79    4.80
  -1   1  -5  139.59    9.90
   1  -1   5  152.58    9.80
   1  -1   5  154.88    8.80
   1  -1   5  150.68    9.90
   1  -1   5  154.28    9.20
  -2   1  -5  668.33   42.30
  -2   1  -5  670.93   38.10
  -2   1  -5  819.12   37.60
   2  -1   5  813.62   37.90
   2  -1   5  842.42   39.30
   2  -1   5  880.21   37.30
   2  -1   5  846.52   39.60
  -3   1  -5  260.17   12.90
  -3   1  -5  253.97   13.60
  -3   1  -5  245.48   18.30
   3  -1   5  242.68   15.10
   3  -1   5  241.28   15.50
   3  -1   5  267.07   13.40
   3  -1   5  265.37   13.70
  -4   1  -5  205.08   11.60
  -4   1  -5  206.88   16.70
  -4   1  -5  169.58   21.80
   4  -1   5  208.38   13.90
   4  -1   5  232.78   11.50
   4  -1   5  228.68   14.50
   4  -1   5  226.38   11.90
  -5   1  -5  303.17   16.90
  -5   1  -5  332.77   23.20
  -5   1  -5  326.87   30.50
   5  -1   5  322.77   19.80
   5  -1   5  350.46   15.90
   5  -1   5  303.67   19.40
  -6   1  -5   62.59    5.60
  -6   1  -5   63.19   16.10
  -6   1  -5   68.59   11.40
   6  -1   5   63.49    8.40
   6  -1   5   52.09    7.40
  -7   1  -5   -1.60    7.20
  -7   1  -5   -3.50    3.50
   7  -1   5    1.20    3.80
   7  -1   5    0.80    3.40
  -8   1  -5    9.20    6.90
  -8   1  -5    9.10   10.60
   8   0  -5   10.20    3.60
   8   0  -5    5.80    6.50
  -8   0   5   11.20    6.60
  -8   0   5    9.20    4.20
   7   0  -5   -0.40    4.20
   7   0  -5   -0.10    1.90
  -7   0   5    3.60    4.50
  -7   0   5   -0.30    2.40
   6   0  -5   63.39    5.80
   6   0  -5   59.09   11.30
  -6   0   5   67.59    7.10
  -6   0   5   59.19    5.00
  -6   0   5   57.19    9.80
   5   0  -5  476.65   28.80
   5   0  -5  466.15   23.80
   5   0  -5  461.75   30.30
  -5   0   5  454.05   25.00
  -5   0   5  469.55   23.20
   4   0  -5  627.64   29.10
   4   0  -5  632.04   30.70
   4   0  -5  611.34   34.90
   4   0  -5  622.24   36.50
  -4   0   5  655.23   32.10
  -4   0   5  648.84   30.80
   3   0  -5 2007.30   94.19
   3   0  -5 1950.10   88.29
   3   0  -5 1781.32   87.79
   3   0  -5 1895.01   92.19
  -3   0   5 1819.62   88.99
  -3   0   5 1962.00   87.29
  -3   0   5 2036.50   89.39
  -3   0   5 1976.90   88.89
   2   0  -5 1634.14   76.89
   2   0  -5 1592.94   74.69
   2   0  -5 1441.86   70.39
   2   0  -5 1588.74   70.69
  -2   0   5 1478.15   71.49
  -2   0   5 1584.44   69.89
  -2   0   5 1523.95   71.19
  -2   0   5 1419.36   70.79
   1   0  -5  123.39    7.00
   1   0  -5  116.69    7.60
   1   0  -5  129.39    8.40
   1   0  -5   89.89   11.80
   1   0  -5  108.39   11.10
  -1   0   5  113.79    7.20
  -1   0   5  125.59    7.50
  -1   0   5  124.29    8.10
   0   0  -5  383.16   19.70
   0   0  -5  400.36   19.30
   0   0  -5  369.06   19.60
   0   0   5  433.96   19.60
   0   0   5  385.46   20.00
   0   0   5  350.96   20.60
   0   0   5  382.96   20.00
  -1   0  -5 1952.00  105.39
  -1   0  -5 2304.47  103.99
  -1   0  -5 2404.66  104.19
   1   0   5 2164.38  115.39
   1   0   5 2210.08  104.69
   1   0   5 2272.97  105.29
   1   0   5 2412.36  104.69
   1   0   5 2510.25  104.49
  -2   0  -5  594.94   25.20
  -2   0  -5  440.96   29.90
  -2   0  -5  532.85   26.10
   2   0   5  478.65   25.90
   2   0   5  566.94   25.70
   2   0   5  556.04   26.50
   2   0   5  488.65   27.00
  -3   0  -5   51.69   10.70
  -3   0  -5   66.69    5.20
  -3   0  -5   77.29    4.60
  -3   0  -5   78.79    8.80
   3   0   5   80.39    6.20
   3   0   5   65.59    6.60
   3   0   5   63.99    5.30
   3   0   5   77.19    5.50
  -4   0  -5  121.49    8.10
  -4   0  -5  120.39   15.50
  -4   0  -5  138.39   12.50
   4   0   5  120.49    7.90
   4   0   5  119.09    9.70
   4   0   5  146.39    7.60
   4   0   5  115.49    8.90
  -5   0  -5  105.89    7.60
  -5   0  -5  106.49   15.70
  -5   0  -5  119.39   12.10
   5   0   5  107.09    9.50
   5   0   5  100.69    6.80
   5   0   5  101.09    8.50
  -6   0  -5    6.00    2.60
  -6   0  -5    6.40    6.70
  -6   0  -5    6.90    5.00
   6   0   5    3.80    2.70
   6   0   5    1.60    2.70
  -7   0  -5   -0.30    6.30
  -7   0  -5    5.20    5.30
  -7   0  -5    2.60    2.40
   7   0   5    5.90    3.80
   7   0   5    2.40    2.80
  -8   0  -5   -5.80    7.50
  -8   0  -5    0.70    5.40
   8   0   5    0.40    3.20
   8  -1  -5   22.80    9.10
  -8   1   5   23.20    5.70
  -8   1   5   26.50    8.60
   7  -1  -5   52.89   11.10
   7  -1  -5   48.70    5.90
  -7   1   5   60.29    8.00
  -7   1   5   45.00   10.10
   6  -1  -5   15.40    3.10
   6  -1  -5   16.90    6.50
  -6   1   5   16.90    4.00
  -6   1   5   20.50    2.90
  -6   1   5   13.50    5.70
   5  -1  -5    8.60    4.80
   5  -1  -5    9.90    2.40
   5  -1  -5    8.30    4.20
  -5   1   5   11.20    3.10
  -5   1   5   10.90    2.20
   4  -1  -5    0.90    2.90
   4  -1  -5   -0.10    1.10
   4  -1  -5    1.80    2.60
  -4   1   5    0.10    1.50
  -4   1   5   -0.30    1.20
  -4   1   5    0.00    1.30
   3  -1  -5    2.80    2.60
   3  -1  -5   -0.70    2.30
   3  -1  -5    1.40    0.90
  -3   1   5    1.70    1.60
  -3   1   5    0.50    1.00
  -3   1   5    0.40    1.30
   2  -1  -5   24.60    4.90
   2  -1  -5   31.60    5.70
   2  -1  -5   26.10    2.10
   2  -1  -5   26.60    2.00
  -2   1   5   23.10    2.80
  -2   1   5   18.60    3.20
  -2   1   5   23.30    2.40
  -2   1   5   17.10    2.70
  -2   1   5   15.70    5.40
   1  -1  -5  584.34   33.30
   1  -1  -5  618.94   28.00
   1  -1  -5  639.74   28.60
   1  -1  -5  635.54   27.80
   1  -1  -5  535.25   32.90
   1  -1  -5  563.94   27.40
  -1   1   5  558.94   28.30
  -1   1   5  578.74   29.20
   0  -1  -5 1003.40   46.20
   0  -1  -5 1055.99   46.70
   0  -1  -5 1076.29   46.80
   0   1   5  981.60   48.40
   0   1   5 1027.70   46.50
   0   1   5  978.30   47.10
   0   1   5  923.71   47.30
  -1  -1  -5   45.50    3.40
  -1  -1  -5   46.20    3.40
  -1  -1  -5   42.50    4.90
  -1  -1  -5   40.70    3.50
   1   1   5   39.70    4.00
   1   1   5   43.90    4.00
   1   1   5   39.40    3.70
   1   1   5   47.80    7.40
   1   1   5   42.60    3.50
   1   1   5   49.00    9.00
  -2  -1  -5  885.91   42.10
  -2  -1  -5  949.31   41.10
  -2  -1  -5  732.83   45.90
   2   1   5  888.51   42.30
   2   1   5  877.61   41.40
   2   1   5  881.71   41.70
   2   1   5  957.70   42.20
  -3  -1  -5    4.60    4.20
  -3  -1  -5    2.80    2.80
  -3  -1  -5    1.50    1.40
   3   1   5    2.20    1.10
   3   1   5    0.60    1.30
   3   1   5    2.10    1.70
   3   1   5    0.70    1.30
  -4  -1  -5   32.60    4.10
  -4  -1  -5   38.60    7.00
  -4  -1  -5   34.60    8.60
   4   1   5   33.30    4.30
   4   1   5   33.70    3.20
   4   1   5   32.10    4.60
   4   1   5   35.40    3.40
  -5  -1  -5  220.08   12.80
  -5  -1  -5  210.38   16.70
  -5  -1  -5  218.28   20.70
   5   1   5  211.28   13.80
   5   1   5  220.38   11.70
   5   1   5  207.28   11.40
   5   1   5  205.88   13.20
  -6  -1  -5  109.79    8.70
  -6  -1  -5  119.09   13.00
  -6  -1  -5  149.19   17.90
   6   1   5  116.69    7.30
   6   1   5  118.99    9.50
   6   1   5  112.09    9.80
  -7  -1  -5   36.60    8.70
  -7  -1  -5   36.60    5.50
  -7  -1  -5   33.30   11.20
   7   1   5   40.70    6.70
   7   1   5   35.60    5.90
  -8  -1  -5    0.50    5.70
  -8  -1  -5    2.20    7.20
  -8  -1  -5   -0.90    2.70
   8   1   5    0.40    2.70
   8   1   5    0.60    3.60
   8  -2  -5    7.50    6.40
  -8   2   5    2.40    3.00
   7  -2  -5    0.70    4.60
  -7   2   5    0.50    2.70
  -7   2   5    1.20    4.30
   6  -2  -5   13.40    3.10
   6  -2  -5   11.30    5.70
  -6   2   5    6.40    2.80
  -6   2   5   17.70    6.10
   5  -2  -5    7.60    2.10
   5  -2  -5    7.40    4.30
  -5   2   5   10.10    2.10
  -5   2   5    7.50    2.80
   4  -2  -5  173.18    9.30
   4  -2  -5  166.48   13.50
   4  -2  -5  153.48   13.70
  -4   2   5  154.88    9.20
  -4   2   5  175.08   10.00
  -4   2   5  168.28   10.60
   3  -2  -5  279.57   18.40
   3  -2  -5  284.27   18.10
   3  -2  -5  293.17   13.90
  -3   2   5  300.37   15.60
  -3   2   5  261.07   15.40
  -3   2   5  282.97   14.00
   2  -2  -5  273.57   16.60
   2  -2  -5  268.97   12.90
   2  -2  -5  290.17   17.20
  -2   2   5  266.57   13.10
  -2   2   5  246.98   17.90
  -2   2   5  275.87   14.50
  -2   2   5  259.17   14.60
   1  -2  -5    6.20    2.90
   1  -2  -5   14.00    1.70
   1  -2  -5   19.10    5.00
   1  -2  -5   18.00    3.70
  -1   2   5    8.10    3.80
  -1   2   5   20.10    2.80
  -1   2   5   19.70    2.00
   0  -2  -5 5275.27  228.78
   0  -2  -5 4214.68  232.28
   0  -2  -5 5447.85  229.58
   0   2   5 5166.78  229.78
   0   2   5 5276.57  229.48
   0   2   5 5170.68  228.78
  -1  -2  -5  374.76   18.50
  -1  -2  -5  403.86   20.40
  -1  -2  -5  394.46   18.90
   1   2   5  398.76   22.90
   1   2   5  372.26   18.60
   1   2   5  369.76   18.80
   1   2   5  362.66   18.30
   1   2   5  383.86   23.30
  -2  -2  -5   60.89    8.60
  -2  -2  -5   76.79    5.80
  -2  -2  -5   60.99    8.50
  -2  -2  -5   79.89    6.50
  -2  -2  -5   85.99    5.40
   2   2   5   74.29    4.80
   2   2   5   77.59    5.10
   2   2   5   71.99    5.20
  -3  -2  -5   23.10    5.20
  -3  -2  -5   13.60    2.70
  -3  -2  -5   26.00    6.30
   3   2   5   17.80    2.80
   3   2   5   21.70    3.00
   3   2   5   16.90    2.20
  -4  -2  -5   -0.20    1.40
  -4  -2  -5    4.00    3.70
  -4  -2  -5    1.30    2.60
   4   2   5    0.40    0.90
   4   2   5    2.80    1.60
   4   2   5    1.00    1.60
  -5  -2  -5   17.60    5.30
  -5  -2  -5   16.30    3.50
   5   2   5   22.80    3.60
   5   2   5   19.80    2.50
   5   2   5   20.10    3.50
  -6  -2  -5    1.70    3.50
  -6  -2  -5    0.40    2.00
   6   2   5   -0.40    1.50
   6   2   5   -0.70    0.90
   6   2   5    0.80    2.00
  -7  -2  -5   -0.80    2.30
  -7  -2  -5    0.30    3.50
   7   2   5    4.10    2.70
   7   2   5    5.10    3.00
  -8  -2  -5   -2.10    2.80
  -8  -2  -5   -1.10    3.90
  -8  -2  -5   -0.90    6.30
   8   2   5    1.60    2.90
   8   2   5    0.90    3.20
  -9  -2  -5    0.50    9.20
   7  -3  -5    0.60    4.00
  -7   3   5    1.20    4.60
  -7   3   5    2.80    2.80
   6  -3  -5  104.89   12.90
  -6   3   5   91.79   12.00
  -6   3   5  118.39    9.40
   5  -3  -5    7.80    2.50
   5  -3  -5   11.70    5.00
  -5   3   5    8.90    3.00
  -5   3   5    8.40    4.40
  -5   3   5    8.60    2.00
   4  -3  -5  249.38   18.00
   4  -3  -5  247.08   17.50
   4  -3  -5  252.67   13.30
  -4   3   5  231.08   13.70
  -4   3   5  239.38   12.80
  -4   3   5  265.77   14.40
   3  -3  -5   60.19    7.10
   3  -3  -5   57.09    4.10
   3  -3  -5   65.99    7.40
  -3   3   5   54.99    3.70
  -3   3   5   62.09    5.30
  -3   3   5   70.19    5.40
   2  -3  -5   72.19    7.20
   2  -3  -5   72.09    6.80
  -2   3   5   70.49    7.70
  -2   3   5   73.09    5.60
  -2   3   5   73.99    5.40
  -2   3   5   75.99    4.20
  -2   3   5   70.49    4.40
   1  -3  -5  163.68    9.00
   1  -3  -5  163.28   10.10
   1  -3  -5  161.78   12.30
  -1   3   5  173.78    9.20
  -1   3   5  164.88    8.60
   0  -3  -5   72.49    4.50
   0  -3  -5   83.69    5.30
   0  -3  -5   83.59    7.80
   0  -3  -5   77.69    5.60
   0   3   5   82.09    5.10
   0   3   5   75.49    4.10
   0   3   5   80.79    5.00
  -1  -3  -5 1436.06   64.39
  -1  -3  -5 1390.16   66.29
   1   3   5 1427.86   64.69
   1   3   5 1353.46   64.49
   1   3   5 1369.16   64.09
   1   3   5 1457.65   69.49
  -2  -3  -5    9.60    3.70
  -2  -3  -5   10.60    2.10
  -2  -3  -5    9.20    2.50
  -2  -3  -5    3.90    3.40
  -2  -3  -5   10.10    2.60
   2   3   5    9.10    1.90
   2   3   5   10.50    1.90
   2   3   5    6.30    1.80
  -3  -3  -5  692.73   36.80
  -3  -3  -5  756.52   40.80
  -3  -3  -5  810.72   41.20
  -3  -3  -5  739.43   38.50
   3   3   5  753.42   36.10
   3   3   5  782.52   36.40
  -4  -3  -5   64.19    5.50
  -4  -3  -5   70.29    6.30
  -4  -3  -5   77.99    8.70
   4   3   5   72.49    5.70
   4   3   5   77.59    6.10
  -5  -3  -5    2.10    2.20
  -5  -3  -5    1.90    3.10
   5   3   5    5.10    3.10
   5   3   5    2.40    1.80
   5   3   5    4.00    1.90
  -6  -3  -5   81.69   10.60
  -6  -3  -5   80.19    7.70
   6   3   5   75.99    7.10
   6   3   5   82.79   10.20
   6   3   5   76.79    5.50
   6   3   5   86.39    7.20
  -7  -3  -5  109.19   13.10
  -7  -3  -5  113.09    9.90
   7   3   5  102.99    7.00
   7   3   5  108.99   12.80
   7   3   5  118.89    9.20
   7   3   5  112.39    9.40
  -8  -3  -5   23.10    5.60
  -8  -3  -5   24.60    8.00
   8   3   5   18.80    7.40
   8   3   5   23.50    5.70
   8   3   5   22.50    4.90
  -9  -3  -5    6.70    6.20
  -9  -3  -5    6.70    4.30
   9   3   5    1.20    3.60
   9   3   5    8.30    3.90
   7  -4  -5    0.30    4.10
   6  -4  -5   -0.60    3.90
  -6   4   5    2.00    2.50
  -6   4   5    0.40    3.60
   5  -4  -5   21.00    6.10
  -5   4   5   24.00    4.10
  -5   4   5   19.40    5.90
   4  -4  -5    4.40    3.30
   4  -4  -5    3.10    1.80
  -4   4   5    0.80    1.90
  -4   4   5    2.80    2.90
  -4   4   5    0.40    1.50
   3  -4  -5   46.10    6.30
   3  -4  -5   42.30    5.90
  -3   4   5   35.50    2.70
  -3   4   5   32.60    2.80
  -3   4   5   30.20    4.90
  -3   4   5   38.70    3.00
  -3   4   5   34.40    4.10
  -3   4   5   36.70    4.00
   2  -4  -5   28.70    4.30
   2  -4  -5   29.60    5.00
  -2   4   5   27.30    5.10
  -2   4   5   28.00    2.70
  -2   4   5   23.30    2.00
  -2   4   5   26.90    2.90
  -2   4   5   27.80    2.60
  -2   4   5   27.20    3.10
   1  -4  -5  143.89    8.50
   1  -4  -5  142.69   10.60
  -1   4   5  135.29    8.10
  -1   4   5  145.89    7.10
  -1   4   5  136.89    7.90
  -1   4   5  135.09    7.20
  -1   4   5  146.39    8.10
   0  -4  -5 1334.97   67.09
   0  -4  -5 1425.16   64.59
   0   4   5 1407.76   63.79
   0   4   5 1372.76   62.89
   0   4   5 1368.76   63.69
  -1  -4  -5   84.89    6.40
  -1  -4  -5  101.19    7.60
  -1  -4  -5   83.49    6.10
   1   4   5   93.79    5.70
   1   4   5  103.09    9.20
   1   4   5  100.49    6.40
  -2  -4  -5 1201.58   55.69
  -2  -4  -5 1249.07   54.89
  -2  -4  -5 1166.18   54.79
  -2  -4  -5  983.00   56.19
  -2  -4  -5 1159.38   54.59
   2   4   5 1181.08   54.19
   2   4   5 1217.28   54.59
  -3  -4  -5   15.10    3.40
  -3  -4  -5   16.30    3.00
  -3  -4  -5   16.20    4.90
  -3  -4  -5    8.30    2.40
   3   4   5    8.20    2.10
   3   4   5   14.50    2.70
  -4  -4  -5  152.38   10.60
  -4  -4  -5  157.58   13.20
  -4  -4  -5  154.78    9.80
   4   4   5  160.38    9.80
   4   4   5  150.08   11.30
   4   4   5  153.78   10.00
  -5  -4  -5  120.19    8.60
  -5  -4  -5  137.69   10.00
  -5  -4  -5  111.09   11.80
   5   4   5  126.49   11.10
   5   4   5  134.69    8.80
   5   4   5  132.19    9.40
  -6  -4  -5  206.88   12.80
  -6  -4  -5  206.38   14.50
  -6  -4  -5  204.98   17.40
   6   4   5  228.88   14.10
   6   4   5  223.38   17.00
   6   4   5  218.18   13.10
  -7  -4  -5   -0.20    1.60
  -7  -4  -5   -1.10    2.70
  -7  -4  -5   -0.10    3.60
   7   4   5    0.00    2.00
   7   4   5    2.30    3.90
   7   4   5    0.80    2.30
  -8  -4  -5   11.50    6.10
  -8  -4  -5   16.30    4.80
   8   4   5   18.50    6.90
   8   4   5   20.20    4.90
   8   4   5   13.00    3.70
  -9  -4  -5    6.30    6.10
  -9  -4  -5    1.90    3.60
   9   4   5    3.50    3.10
   9   4   5    4.10    5.70
   9   4   5    2.30    3.50
  -6   5   5   -0.30    4.20
   5  -5  -5    4.90    3.60
  -5   5   5    3.20    4.20
  -5   5   5    0.40    2.20
   4  -5  -5  126.19   11.30
  -4   5   5  113.99   11.30
  -4   5   5  128.29    8.60
  -4   5   5  105.79    9.90
   3  -5  -5   51.29    6.20
  -3   5   5   42.10    5.70
  -3   5   5   48.90    4.40
  -3   5   5   44.00    3.70
  -3   5   5   47.20    4.70
   2  -5  -5   -1.10    1.90
   2  -5  -5    1.80    1.90
  -2   5   5    1.20    1.60
  -2   5   5    1.50    1.30
  -2   5   5    2.10    2.60
  -2   5   5    1.80    1.30
  -2   5   5    0.50    1.00
   1  -5  -5  229.68   14.00
  -1   5   5  213.18   13.00
  -1   5   5  198.78   13.50
  -1   5   5  228.48   12.00
  -1   5   5  235.08   12.40
  -1   5   5  245.28   12.30
  -1   5   5  236.58   11.80
   0  -5  -5  186.28   13.80
   0  -5  -5  155.08   12.30
   0  -5  -5  190.28   13.30
   0  -5  -5  209.58   11.50
   0   5   5  198.48   11.00
   0   5   5  187.68   10.20
  -1  -5  -5   29.20    4.40
  -1  -5  -5   23.20    4.10
  -1  -5  -5   26.60    3.60
   1   5   5   29.10    3.20
   1   5   5   24.20    3.40
   1   5   5   34.60    5.40
  -2  -5  -5  129.09    9.10
  -2  -5  -5  141.99    9.90
   2   5   5  149.29    9.20
   2   5   5  146.09    8.80
  -3  -5  -5  421.16   22.60
  -3  -5  -5  361.86   25.70
  -3  -5  -5  409.16   22.90
  -3  -5  -5  454.75   22.50
   3   5   5  446.26   22.10
   3   5   5  438.16   22.00
  -4  -5  -5    0.00    1.80
  -4  -5  -5    1.40    2.00
  -4  -5  -5   -0.90    2.30
   4   5   5   -0.80    1.70
   4   5   5    0.70    1.90
   4   5   5   -1.00    1.40
  -5  -5  -5  339.97   20.40
  -5  -5  -5  340.87   23.30
  -5  -5  -5  364.96   19.50
   5   5   5  357.36   19.90
   5   5   5  338.47   21.60
   5   5   5  354.66   19.10
  -6  -5  -5  357.06   24.90
  -6  -5  -5  382.66   20.40
  -6  -5  -5  349.87   21.60
   6   5   5  358.66   20.10
   6   5   5  372.36   21.10
   6   5   5  366.56   24.00
  -7  -5  -5  129.69    9.50
  -7  -5  -5  112.19   10.70
  -7  -5  -5  131.39   14.20
   7   5   5  132.49    9.80
   7   5   5  120.99   13.20
   7   5   5  117.79   10.30
  -8  -5  -5   65.69   12.20
  -8  -5  -5   44.80    6.10
  -8  -5  -5   69.39    9.40
   8   5   5   50.79    7.60
   8   5   5   60.49   11.40
   8   5   5   62.29    7.30
  -4   6   5    1.40    3.30
  -3   6   5   25.90    3.40
  -3   6   5   23.70    3.60
  -3   6   5   19.90    6.80
  -3   6   5   22.90    3.30
  -3   6   5   18.60    4.90
  -2   6   5   53.09    5.70
  -2   6   5   54.39    4.90
  -2   6   5   35.50    7.90
  -2   6   5   58.19    4.60
   1  -6  -5   49.60    5.30
   1  -6  -5   28.10    6.30
  -1   6   5   46.50    4.20
  -1   6   5   43.70    4.50
  -1   6   5   44.30    4.90
   0  -6  -5   48.10    5.30
   0  -6  -5   45.10    5.40
   0  -6  -5   54.99    8.00
   0   6   5   48.20    7.10
   0   6   5   59.99    5.40
   0   6   5   49.50    4.60
  -1  -6  -5   23.00    4.50
  -1  -6  -5   15.30    4.40
  -1  -6  -5   25.00    3.80
   1   6   5   20.00    3.10
   1   6   5   26.00    4.40
   1   6   5   21.20    3.60
  -2  -6  -5   65.59    6.60
  -2  -6  -5   80.09    6.70
   2   6   5   65.79    6.90
   2   6   5   72.99    6.30
   2   6   5   67.59    5.60
  -3  -6  -5  212.18   13.30
  -3  -6  -5  203.38   13.70
   3   6   5  228.68   13.20
   3   6   5  202.48   12.70
  -4  -6  -5  335.87   20.40
  -4  -6  -5  340.87   23.60
  -4  -6  -5  360.16   19.90
   4   6   5  345.87   19.90
   4   6   5  356.06   19.50
   4   6   5  372.66   19.80
  -5  -6  -5    9.10    4.50
  -5  -6  -5    0.90    2.70
  -5  -6  -5    6.40    3.20
   5   6   5   10.40    3.10
   5   6   5    4.60    3.30
   5   6   5   12.80    3.30
  -6  -6  -5    1.30    2.70
  -6  -6  -5    4.20    2.70
  -6  -6  -5    5.50    4.20
   6   6   5    0.70    3.20
   6   6   5    1.50    2.10
   6   6   5    2.20    2.60
  -7  -6  -5   55.19    8.10
  -7  -6  -5   68.99    7.20
  -7  -6  -5   68.39   11.50
   7   6   5   73.59    7.10
   7   6   5   56.79    7.60
   7   6   5   64.29    9.90
  -8  -6  -5   22.60    4.50
  -8  -6  -5   28.50    9.00
  -8  -6  -5   14.50    5.40
   8   6   5   15.60    4.10
   8   6   5   22.30    7.50
   8   6   5   18.30    5.00
  -2   7   5  269.27   15.50
  -2   7   5  274.27   14.80
   1  -7  -5    1.40    3.10
  -1   7   5    1.40    2.20
  -1   7   5    0.60    2.20
   0  -7  -5  265.17   15.90
   0  -7  -5  234.78   18.50
   0   7   5  300.37   16.10
   0   7   5  270.97   15.40
  -1  -7  -5  112.79    9.00
  -1  -7  -5  129.79   10.40
  -1  -7  -5  109.49    8.40
   1   7   5  127.29    8.60
   1   7   5  118.39    8.90
  -2  -7  -5   -0.60    2.40
  -2  -7  -5    2.60    2.50
  -2  -7  -5    1.30    2.20
   2   7   5    4.30    2.10
   2   7   5    3.70    4.10
  -3  -7  -5    0.20    2.20
  -3  -7  -5    3.10    3.20
  -3  -7  -5    1.30    2.30
   3   7   5    0.20    2.10
   3   7   5    0.60    2.20
  -4  -7  -5    9.30    3.40
  -4  -7  -5    8.20    3.40
  -4  -7  -5    7.80    5.10
   4   7   5    4.90    2.70
   4   7   5    8.50    3.00
   4   7   5    2.00    2.50
  -5  -7  -5   27.00    5.10
  -5  -7  -5   27.60    7.50
  -5  -7  -5   17.90    4.80
   5   7   5   29.80    5.90
   5   7   5   26.50    4.90
   5   7   5   24.90    4.50
  -6  -7  -5    6.70    3.40
  -6  -7  -5    6.10    5.00
  -6  -7  -5    1.00    2.80
   6   7   5    3.60    3.40
   6   7   5    3.20    2.60
   6   7   5    4.10    3.80
  -7  -7  -5   56.69   11.20
  -7  -7  -5   41.10    6.20
  -7  -7  -5   55.29    8.60
   7   7   5   40.40    6.90
   7   7   5   51.89    6.90
   7   7   5   50.79    9.70
  -8  -7  -5   16.70    7.30
  -8  -7  -5   16.40    5.40
  -8  -7  -5   12.80    4.10
   8   7   5   14.60    5.00
   8   7   5   16.40    4.70
   8   7   5   17.10    7.30
  -2   8   5    1.70    2.60
  -2   8   5    1.50    1.80
  -1   8   5    2.00    2.60
   0  -8  -5    8.40    4.50
   0  -8  -5    9.70    3.30
   0   8   5    5.20    2.80
   0   8   5    3.80    3.00
  -1  -8  -5   63.29    7.40
  -1  -8  -5   67.09    8.90
   1   8   5   70.59    7.90
   1   8   5   57.49    6.70
  -2  -8  -5   58.39    7.20
  -2  -8  -5   40.70    6.50
   2   8   5   44.50    5.90
   2   8   5   59.49    7.10
  -3  -8  -5   29.50    5.60
  -3  -8  -5   45.70    6.40
   3   8   5   32.10    5.40
   3   8   5   40.50    5.60
  -4  -8  -5   -0.20    2.70
  -4  -8  -5   -1.10    2.10
   4   8   5    0.60    2.60
   4   8   5    1.00    2.40
  -5  -8  -5   36.20    6.40
  -5  -8  -5   40.90    9.90
  -5  -8  -5   42.80    7.30
   5   8   5   35.80    5.90
   5   8   5   32.60    5.90
  -6  -8  -5   21.60    5.20
  -6  -8  -5   14.60    4.90
  -6  -8  -5   14.70    6.30
   6   8   5   15.30    4.30
   6   8   5   13.80    4.40
  -7  -8  -5   41.00   10.10
  -7  -8  -5   36.20    7.40
  -7  -8  -5   29.20    6.00
   7   8   5   41.80    7.20
   7   8   5   35.70    6.50
  -1   9   5    3.60    3.40
   0  -9  -5   35.60    5.80
   0   9   5   32.40    5.90
  -1  -9  -5   39.10    7.90
  -1  -9  -5   39.10    6.40
   1   9   5   48.00    7.00
   1   9   5   35.70    5.80
  -2  -9  -5    0.20    2.80
  -2  -9  -5    3.60    2.90
   2   9   5    7.30    3.50
   2   9   5    2.20    2.80
  -3  -9  -5    2.80    2.80
  -3  -9  -5    0.50    2.90
   3   9   5   -2.90    2.30
   3   9   5   -0.20    2.60
  -4  -9  -5   20.90    5.40
  -4  -9  -5   19.30    5.00
   4   9   5   19.90    4.90
   4   9   5   20.40    4.70
  -5  -9  -5    8.20    4.20
  -5  -9  -5    8.10    4.00
   5   9   5   14.80    4.60
   5   9   5   11.90    4.40
  -6  -9  -5    1.60    3.60
  -6  -9  -5    0.00    3.40
   6   9   5    2.40    3.80
   6   9   5    2.70    3.20
  -1 -10  -5   36.60    6.70
   1  10   5   34.80    6.70
  -2 -10  -5   39.20    6.90
   2  10   5   25.10    5.80
   2  10   5   24.10    6.30
  -3 -10  -5    2.60    3.30
  -3 -10  -5    1.90    3.40
   3  10   5    4.50    3.30
   3  10   5    0.70    3.30
  -4 -10  -5   10.70    5.00
  -4 -10  -5   11.40    4.60
   4  10   5   11.70    4.70
   4  10   5   11.30    4.80
   3   8  -6    3.10    9.20
   3   8  -6    1.30    4.40
  -3  -8   6   -1.30    3.20
  -3  -8   6   -1.30    3.60
   2   8  -6    1.20    5.60
   2   8  -6    4.20   10.70
  -2  -8   6    7.10    4.40
  -2  -8   6   10.30    4.90
   1   8  -6   12.20   11.90
  -1  -8   6   35.10    7.10
   6   7  -6   19.60   10.20
  -6  -7   6   32.10    7.20
  -6  -7   6   34.10    6.90
   5   7  -6   38.00    8.90
   5   7  -6   45.70   13.20
  -5  -7   6   26.00    6.50
  -5  -7   6   28.10    6.30
   4   7  -6    1.00    7.00
   4   7  -6    3.90    4.40
  -4  -7   6    0.70    3.00
  -4  -7   6    1.70    3.20
  -4  -7   6    0.70    2.80
   3   7  -6   24.20   12.50
   3   7  -6   16.70    6.30
  -3  -7   6   22.60    5.60
  -3  -7   6   17.50    4.80
  -3  -7   6   18.40    5.10
   2   7  -6   23.90   13.30
   2   7  -6   23.10    7.70
  -2  -7   6   26.30    5.80
  -2  -7   6   30.20    5.80
   1   7  -6    7.50    6.40
   1   7  -6    4.40    9.00
  -1  -7   6    9.60    4.20
  -1  -7   6   14.80    4.90
   0   7  -6    0.40    6.00
   0   7  -6   -1.90    8.40
   0  -7   6    4.60    3.00
   0  -7   6    3.80    3.60
  -1   7  -6    0.10    6.90
  -1   7  -6    0.40    9.30
   1  -7   6    0.70    2.70
   1  -7   6    0.40    3.50
  -2   7  -6   -7.50    8.60
   2  -7   6    0.50    3.50
   7   6  -6    3.60    7.20
   7   6  -6    5.20    4.30
   7   6  -6    6.90    4.00
  -7  -6   6    6.60    4.40
  -7  -6   6    3.40    4.10
  -7  -6   6    4.60    4.70
   6   6  -6  151.38   12.80
   6   6  -6  161.38   20.40
   6   6  -6  189.48   15.30
  -6  -6   6  153.18   15.20
  -6  -6   6  158.58   13.70
  -6  -6   6  157.68   12.90
   5   6  -6   59.19    9.60
   5   6  -6   47.00   13.00
  -5  -6   6   54.49    9.20
  -5  -6   6   59.19    8.00
  -5  -6   6   65.29    8.70
  -5  -6   6   56.09    8.50
   4   6  -6    3.70    3.50
   4   6  -6    0.70    2.90
   4   6  -6    4.20    7.00
  -4  -6   6    4.20    3.00
  -4  -6   6    2.10    2.90
  -4  -6   6    2.50    2.50
   3   6  -6   12.20    9.30
   3   6  -6   19.70    6.30
   3   6  -6   16.00    4.80
  -3  -6   6   10.90    3.90
  -3  -6   6   17.60    4.50
  -3  -6   6    9.40    3.50
   2   6  -6   35.30    8.50
   2   6  -6   27.80   12.40
   2   6  -6   29.60    5.90
  -2  -6   6   35.60    5.80
  -2  -6   6   41.00    5.80
  -2  -6   6   32.00    5.60
   1   6  -6   20.20   11.70
   1   6  -6   39.50    9.70
  -1  -6   6   37.70    6.20
  -1  -6   6   36.10    5.70
   0   6  -6   40.10   10.00
   0  -6   6   60.19    7.40
   0  -6   6   68.29    8.20
  -1   6  -6    1.90    8.40
  -1   6  -6    1.40    5.90
   1  -6   6    1.50    2.90
   1  -6   6    0.20    2.20
  -2   6  -6   13.10   12.50
  -2   6  -6   38.20   11.60
   2  -6   6   38.60    6.50
   2  -6   6   47.90    7.30
  -3   6  -6   10.10   10.60
  -3   6  -6   -2.10    8.20
   3  -6   6    7.90    4.50
   7   5  -6   86.19   10.90
   7   5  -6  112.89   13.00
   7   5  -6  102.39   18.30
  -7  -5   6   68.89    8.80
  -7  -5   6   68.09   12.10
  -7  -5   6   90.69   11.60
   6   5  -6   -1.60    4.80
   6   5  -6    1.30    2.70
   6   5  -6   -1.30    2.60
  -6  -5   6    0.60    2.50
  -6  -5   6    2.10    3.80
  -6  -5   6    1.20    2.80
   5   5  -6   47.90    8.70
   5   5  -6   61.19   13.10
   5   5  -6   37.70    7.10
  -5  -5   6   65.89    7.50
  -5  -5   6   56.89    8.20
  -5  -5   6   58.49    7.60
   4   5  -6    9.90    4.20
   4   5  -6   10.70    7.70
   4   5  -6   20.00    5.70
  -4  -5   6   14.20    4.10
  -4  -5   6   14.20    4.10
  -4  -5   6   17.70    4.10
   3   5  -6   51.49   13.60
   3   5  -6   50.99    7.80
   3   5  -6   51.89    8.90
  -3  -5   6   45.10    6.40
  -3  -5   6   49.99    6.60
  -3  -5   6   46.80    6.30
   2   5  -6   41.90    6.50
   2   5  -6   40.40    8.40
   2   5  -6   28.20   12.20
  -2  -5   6   33.80    5.20
  -2  -5   6   36.10    5.70
  -2  -5   6   32.00    4.90
   1   5  -6   55.39   10.20
   1   5  -6   32.90   13.40
   1   5  -6   67.19    8.10
  -1  -5   6   55.59    6.70
  -1  -5   6   59.99    5.60
  -1  -5   6   71.29    7.90
   0   5  -6   93.49   13.90
   0   5  -6   62.89    9.70
   0  -5   6   66.69    6.80
   0  -5   6   77.59    5.90
   0  -5   6   77.59    7.60
  -1   5  -6  119.69   17.30
   1  -5   6  125.49   10.10
   1  -5   6  128.19    9.40
  -2   5  -6    3.30    8.80
  -2   5  -6    5.10    5.10
  -2   5  -6   -0.20    6.40
   2  -5   6    6.80    3.30
   2  -5   6    3.20    2.40
  -3   5  -6   -2.70    8.00
  -3   5  -6   -7.50    6.70
   3  -5   6   -0.10    2.30
  -4   5  -6    2.80    9.70
   4  -5   6    6.30    3.40
   8   4  -6   38.50    7.30
   8   4  -6   37.90   12.70
  -8  -4   6   24.60    8.50
  -8  -4   6   37.10    6.40
  -8  -4   6   29.70    7.10
   7   4  -6    0.70    6.30
   7   4  -6    5.00    3.30
  -7  -4   6    1.60    3.70
  -7  -4   6    2.20    2.80
  -7  -4   6    4.60    4.00
   6   4  -6   32.70    6.10
   6   4  -6   44.90    5.80
   6   4  -6   38.00   10.50
  -6  -4   6   49.90    7.80
  -6  -4   6   38.90    8.40
  -6  -4   6   30.10    5.30
   5   4  -6   42.10    6.90
   5   4  -6   55.39    9.20
   5   4  -6   36.60   10.40
  -5  -4   6   40.50    6.60
  -5  -4   6   42.80    5.60
  -5  -4   6   45.50    6.30
   4   4  -6  102.39   10.20
   4   4  -6  113.69   15.50
   4   4  -6  100.29   10.70
  -4  -4   6   89.09    7.80
  -4  -4   6  110.99    9.20
  -4  -4   6  107.09    8.60
   3   4  -6  244.38   16.80
   3   4  -6  258.07   17.50
   3   4  -6  237.18   24.40
  -3  -4   6  213.68   14.30
  -3  -4   6  239.78   14.50
  -3  -4   6  232.78   14.20
   2   4  -6    2.10    7.10
   2   4  -6    1.20    2.70
   2   4  -6    1.70    2.90
  -2  -4   6   -0.30    1.50
  -2  -4   6    2.00    1.80
  -2  -4   6    0.90    2.20
   1   4  -6  599.44   35.50
   1   4  -6  622.14   34.10
  -1  -4   6  592.34   30.20
  -1  -4   6  583.54   30.00
  -1  -4   6  556.74   29.20
   0   4  -6    9.40    4.80
   0   4  -6    8.50    5.80
   0   4  -6   11.60    9.30
   0  -4   6   16.30    2.60
   0  -4   6   17.10    3.60
   0  -4   6   13.30    3.20
   0  -4   6   15.60    3.50
  -1   4  -6   -4.50    4.20
  -1   4  -6    7.20    8.20
  -1   4  -6    0.50    3.80
   1  -4   6    2.00    1.10
   1  -4   6   -0.10    1.80
   1  -4   6    2.90    2.40
  -2   4  -6   16.10   10.60
  -2   4  -6   44.10   10.80
  -2   4  -6   22.00    6.90
  -3   4  -6    2.50    4.10
  -3   4  -6   -2.00    7.60
   3  -4   6    0.00    1.70
   3  -4   6   -2.00    2.50
   3  -4   6   -0.30    2.10
  -4   4  -6   -2.30    6.70
  -4   4  -6    1.40    5.10
   4  -4   6    5.50    3.70
   4  -4   6   -1.10    2.40
  -5   4  -6    3.80   10.90
  -5   4  -6    3.50    6.50
   5  -4   6    6.00    3.20
   5  -4   6    4.70    4.20
   8   3  -6    1.10    5.90
   8   3  -6    1.60    2.90
  -8  -3   6   -0.80    3.90
  -8  -3   6   -1.50    3.40
  -8  -3   6    3.50    3.10
   7   3  -6   21.20    8.80
   7   3  -6    6.20    3.20
  -7  -3   6   12.10    4.50
  -7  -3   6   13.90    3.80
  -7  -3   6   13.80    5.80
   6   3  -6   24.90    4.90
   6   3  -6   29.10    9.10
   6   3  -6   20.00    3.70
  -6  -3   6   19.90    3.90
  -6  -3   6   24.20    5.50
   5   3  -6   11.00    3.50
   5   3  -6   14.90    7.10
   5   3  -6    9.20    4.80
  -5  -3   6    7.90    3.10
  -5  -3   6   11.50    2.80
  -5  -3   6   12.60    4.00
   4   3  -6  239.58   16.90
   4   3  -6  241.38   21.20
   4   3  -6  224.68   15.00
  -4  -3   6  218.38   14.20
  -4  -3   6  194.28   12.60
  -4  -3   6  211.88   13.30
   3   3  -6  263.77   23.40
   3   3  -6  257.37   16.30
   3   3  -6  244.18   16.80
  -3  -3   6  217.68   14.10
  -3  -3   6  212.18   13.20
  -3  -3   6  239.68   14.00
   2   3  -6   15.60    4.60
   2   3  -6    8.10    6.90
   2   3  -6   15.10    4.50
  -2  -3   6   20.00    3.40
  -2  -3   6   14.70    3.10
  -2  -3   6   10.60    2.70
   1   3  -6  623.44   38.40
   1   3  -6  646.74   38.20
  -1  -3   6  712.13   34.10
  -1  -3   6  722.53   34.10
  -1  -3   6  707.23   33.50
   0   3  -6   47.90    9.70
   0  -3   6   42.40    5.10
   0  -3   6   44.30    5.20
   0  -3   6   44.60    4.00
  -1   3  -6  224.18   20.50
   1  -3   6  248.58   13.70
   1  -3   6  237.78   12.70
   1  -3   6  228.98   12.20
   1  -3   6  253.27   14.50
   2  -3   6  133.19    8.50
   2  -3   6  115.89   10.10
   2  -3   6  122.99    6.60
   2  -3   6  140.69    9.80
  -3   3  -6    9.60    5.50
  -3   3  -6    3.00    7.60
   3  -3   6   17.70    2.90
   3  -3   6   14.30    3.80
   3  -3   6   16.20    4.40
  -4   3  -6   37.80   10.00
  -4   3  -6   25.60   13.20
   4  -3   6   44.60    7.30
   4  -3   6   58.39    7.10
  -5   3  -6    9.60    6.70
  -5   3  -6    2.90    7.70
   5  -3   6    8.80    3.70
   5  -3   6    6.10    3.50
  -6   3  -6    6.00   11.20
  -6   3  -6    3.80    6.30
   6  -3   6    2.10    4.00
   6  -3   6    1.10    3.10
   8   2  -6    2.60    2.90
   8   2  -6   -0.10    5.80
  -8  -2   6    1.10    4.90
  -8  -2   6    1.90    2.90
  -8  -2   6   -0.50    3.10
   7   2  -6   21.70    8.30
   7   2  -6   26.80    5.10
  -7  -2   6   25.40    4.40
  -7  -2   6   28.00    7.80
  -7  -2   6   24.00    6.00
   6   2  -6    0.10    4.20
   6   2  -6    2.10    2.50
   6   2  -6   -1.60    1.70
  -6  -2   6    1.50    2.00
  -6  -2   6   -1.10    1.90
   5   2  -6  191.98   12.40
   5   2  -6  173.88   17.60
   5   2  -6  196.78   16.20
  -5  -2   6  180.18   12.90
  -5  -2   6  186.98   11.60
   4   2  -6    0.60    3.40
   4   2  -6    0.20    1.50
   4   2  -6    0.60    2.60
  -4  -2   6   -0.20    1.70
  -4  -2   6   -1.10    1.20
  -4  -2   6    0.70    2.00
   3   2  -6  166.08   11.50
   3   2  -6  173.28   17.30
   3   2  -6  170.88   13.20
  -3  -2   6  152.38   10.40
  -3  -2   6  163.28   10.20
  -3  -2   6  147.19    9.40
   2   2  -6  290.17   18.80
   2   2  -6  229.48   23.20
   2   2  -6  262.87   16.80
  -2  -2   6  255.47   14.70
  -2  -2   6  268.67   14.80
  -2  -2   6  268.07   14.30
   1   2  -6  186.78   14.10
   1   2  -6  158.08   15.10
  -1  -2   6  183.78   10.80
  -1  -2   6  195.18   11.10
  -1  -2   6  180.58   10.50
   0   2  -6  237.28   18.90
   0  -2   6  243.38   13.00
   0  -2   6  265.07   14.10
   0  -2   6  247.58   14.20
   1  -2   6   66.39    4.50
   1  -2   6   73.19    6.60
   1  -2   6   72.89    6.40
   1  -2   6   63.19    5.20
   1  -2   6   76.49    5.80
   2  -2   6  438.86   20.90
   2  -2   6  389.46   19.40
   2  -2   6  413.66   22.40
   2  -2   6  395.96   19.70
   2  -2   6  392.66   22.70
  -3   2  -6    3.40    4.60
  -3   2  -6    1.90    1.70
  -3   2  -6    0.40    5.90
   3  -2   6    4.00    1.70
   3  -2   6    0.10    0.80
   3  -2   6    7.20    3.20
   3  -2   6    1.50    2.80
  -4   2  -6   48.90    5.10
  -4   2  -6   34.70   13.30
  -4   2  -6   55.49   10.20
   4  -2   6   57.29    7.40
   4  -2   6   64.99    7.50
  -5   2  -6    2.90    7.70
  -5   2  -6    0.00    4.20
   5  -2   6    5.30    3.30
   5  -2   6    4.90    3.00
  -6   2  -6   -0.70    8.30
  -6   2  -6    9.40    6.20
   6  -2   6   11.20    4.50
   6  -2   6   10.00    4.30
  -7   2  -6    4.60    6.10
  -7   2  -6    4.00   11.30
   7  -2   6    1.10    3.50
   7  -2   6   10.30    4.50
   8   1  -6    3.10    3.00
   8   1  -6    2.20    5.50
  -8  -1   6    2.40    4.60
  -8  -1   6   12.20    4.80
   7   1  -6   -0.90    4.10
   7   1  -6    1.60    2.20
  -7  -1   6   -0.60    1.80
  -7  -1   6   -1.60    2.50
  -7  -1   6    0.40    3.70
   6   1  -6   71.19   12.80
   6   1  -6   63.19    6.30
  -6  -1   6   79.09    8.10
  -6  -1   6   73.29    6.20
   5   1  -6   36.00    4.60
   5   1  -6   35.00    3.30
   5   1  -6   37.80    8.80
   5   1  -6   39.90    8.10
  -5  -1   6   32.60    5.30
  -5  -1   6   37.40    4.60
   4   1  -6  213.38   18.10
   4   1  -6  173.08   11.60
   4   1  -6  225.88   16.40
   4   1  -6  216.08   12.50
  -4  -1   6  213.68   13.30
  -4  -1   6  218.88   12.40
  -4  -1   6  209.48   11.10
   3   1  -6   28.10    5.90
   3   1  -6   20.30    6.10
   3   1  -6   21.10    3.60
   3   1  -6   14.60    2.90
  -3  -1   6   21.90    2.70
  -3  -1   6   32.40    4.10
  -3  -1   6   21.90    3.60
   2   1  -6  446.66   26.50
   2   1  -6  441.76   31.00
   2   1  -6  434.86   23.40
  -2  -1   6  420.56   22.10
  -2  -1   6  437.96   22.40
  -2  -1   6  432.06   21.50
   1   1  -6  215.28   14.00
   1   1  -6  147.39   15.10
  -1  -1   6  200.28   11.70
  -1  -1   6  201.88   11.10
  -1  -1   6  205.68   11.30
   0   1  -6   13.20    7.00
   0   1  -6   19.20    5.70
   0  -1   6   26.20    2.80
   0  -1   6   29.80    4.20
   0  -1   6   21.00    4.30
   0  -1   6   29.00    4.00
   1  -1   6  179.28    9.90
   1  -1   6  167.38   10.60
   1  -1   6  149.19    9.80
   1  -1   6  143.59   10.50
  -2   1  -6   49.20    6.00
   2  -1   6   79.09    5.30
   2  -1   6   73.19    7.00
   2  -1   6   74.39    6.70
   2  -1   6   80.89    6.00
  -3   1  -6  710.63   45.50
  -3   1  -6  790.42   40.10
   3  -1   6  828.02   41.50
   3  -1   6  830.42   41.90
   3  -1   6  860.11   39.60
   3  -1   6  893.61   39.20
  -4   1  -6   88.89   11.60
  -4   1  -6   74.89   17.50
  -4   1  -6  101.99    7.00
   4  -1   6   98.39    6.60
   4  -1   6   95.19    6.80
   4  -1   6   88.89    8.30
   4  -1   6   92.59    9.00
  -5   1  -6  169.28   17.10
  -5   1  -6  182.58   11.10
   5  -1   6  176.38   13.60
   5  -1   6  209.08   11.40
   5  -1   6  196.38   14.10
  -6   1  -6   10.00    9.50
  -6   1  -6   31.20    8.80
   6  -1   6   28.30    5.80
   6  -1   6   25.30    5.50
  -7   1  -6    0.00    9.30
  -7   1  -6    8.20    6.40
   7  -1   6    4.10    4.10
   7  -1   6    9.90    4.60
   8   0  -6    3.00    6.00
  -8   0   6    4.40    3.60
  -8   0   6    7.00    5.80
   7   0  -6   31.70    4.90
   7   0  -6   31.40    9.20
  -7   0   6   22.00    5.30
  -7   0   6   32.10    8.30
  -7   0   6   18.10    4.90
   6   0  -6   61.39    5.80
   6   0  -6   64.69   11.90
  -6   0   6   69.79    5.70
  -6   0   6   59.29    7.60
   5   0  -6  154.48    9.20
   5   0  -6  131.39   14.30
   5   0  -6  135.49   13.40
  -5   0   6  132.79    8.70
  -5   0   6  125.69   10.20
   4   0  -6    9.20    4.80
   4   0  -6    6.80    3.80
   4   0  -6    5.50    1.90
  -4   0   6    6.00    2.60
  -4   0   6    7.00    1.30
  -4   0   6    6.10    2.20
   3   0  -6  106.19   10.90
   3   0  -6   90.49    6.00
   3   0  -6   87.69    9.20
   3   0  -6   87.09    5.90
  -3   0   6   95.29    6.80
  -3   0   6   84.69    5.20
  -3   0   6   84.19    6.60
  -3   0   6   72.19    6.90
   2   0  -6  329.17   16.70
   2   0  -6  278.57   16.10
   2   0  -6  357.06   23.50
   2   0  -6  328.97   20.90
  -2   0   6  269.77   17.60
  -2   0   6  319.27   17.10
  -2   0   6  313.37   15.70
   1   0  -6  584.14   40.10
   1   0  -6  731.93   35.60
   1   0  -6  742.53   35.10
   1   0  -6  848.22   37.40
  -1   0   6  746.93   36.30
  -1   0   6  778.12   35.70
  -1   0   6  732.33   35.40
   0   0  -6   78.99    5.50
   0   0  -6   54.79    6.50
   0   0   6   81.89    6.50
   0   0   6   81.09    6.60
   0   0   6   90.09    5.90
  -1   0  -6    9.40    3.10
   1   0   6   21.20    3.50
   1   0   6   26.20    3.60
   1   0   6   23.10    3.40
   1   0   6   20.40    3.80
  -2   0  -6  273.37   16.40
   2   0   6  264.37   16.60
   2   0   6  326.57   15.60
   2   0   6  286.57   16.00
   2   0   6  271.27   15.70
  -3   0  -6    6.70    2.10
  -3   0  -6    0.60    5.10
  -3   0  -6    6.80    4.40
   3   0   6    3.10    2.50
   3   0   6    4.10    2.10
   3   0   6    4.80    2.00
  -4   0  -6   75.19   15.40
  -4   0  -6   85.99    6.50
  -4   0  -6   90.79   11.10
   4   0   6   95.99    7.80
   4   0   6   82.29    8.40
   4   0   6   78.29    6.30
  -5   0  -6   14.80    6.10
  -5   0  -6   18.30    3.20
   5   0   6   14.40    2.90
   5   0   6   20.70    4.20
   5   0   6   13.00    4.30
  -6   0  -6  113.59   14.00
  -6   0  -6  110.59    8.30
  -6   0  -6  138.39   24.20
   6   0   6   88.19   10.50
   6   0   6  105.39    9.70
  -7   0  -6    8.10    9.50
  -7   0  -6    3.40    5.10
  -7   0  -6    6.10    3.60
   7   0   6    8.70    4.00
   7   0   6    3.40    3.80
  -8   0  -6    6.50   10.40
  -8   0  -6   10.20    7.30
   8   0   6    2.30    4.50
   8   0   6   10.80    4.70
   8  -1  -6   18.80    9.00
  -8   1   6   22.20    5.90
  -8   1   6   31.80    9.80
   7  -1  -6   16.20    7.20
  -7   1   6   11.30    5.80
  -7   1   6   10.80    4.00
   6  -1  -6    4.60    4.70
   6  -1  -6    2.40    1.90
  -6   1   6    3.30    4.00
  -6   1   6    2.10    1.70
  -6   1   6    5.30    2.90
   5  -1  -6  114.19    7.50
   5  -1  -6  110.39   12.10
   5  -1  -6  118.89   13.50
  -5   1   6  105.29    7.50
  -5   1   6  126.19    9.40
   4  -1  -6  267.97   13.60
   4  -1  -6  259.67   18.40
   4  -1  -6  267.37   19.60
  -4   1   6  232.48   14.00
  -4   1   6  266.17   15.30
  -4   1   6  257.27   14.40
   3  -1  -6  169.88    8.80
   3  -1  -6  143.49    8.00
   3  -1  -6  168.18   13.60
   3  -1  -6  178.58   13.30
  -3   1   6  158.88    9.60
  -3   1   6  165.28    8.10
  -3   1   6  171.58   10.30
  -3   1   6  161.18   10.30
   2  -1  -6   31.80    6.30
   2  -1  -6   24.10    2.30
   2  -1  -6   25.60    5.50
   2  -1  -6   25.80    2.30
  -2   1   6   22.00    3.60
  -2   1   6   23.10    2.80
  -2   1   6   22.70    3.40
  -2   1   6   19.30    3.50
   1  -1  -6  143.79    8.30
   1  -1  -6  145.49    7.50
   1  -1  -6  125.29   12.90
   1  -1  -6  141.09   13.80
   1  -1  -6  142.19    7.80
  -1   1   6  127.79    9.10
  -1   1   6  129.99    8.50
   0  -1  -6  241.98   12.10
   0  -1  -6  218.28   11.30
   0   1   6  191.98   12.60
   0   1   6  196.28   12.50
   0   1   6  260.87   12.00
  -1  -1  -6   75.89    7.90
  -1  -1  -6  104.99    6.10
   1   1   6   99.79    6.40
   1   1   6   82.09   11.20
   1   1   6   87.79    6.60
   1   1   6  108.49    7.40
  -2  -1  -6  506.75   25.50
   2   1   6  491.75   25.50
   2   1   6  474.65   24.50
   2   1   6  501.05   24.60
  -3  -1  -6   63.99    9.00
  -3  -1  -6   82.69    6.10
  -3  -1  -6   58.69   12.00
   3   1   6   70.09    5.70
   3   1   6   64.29    5.20
   3   1   6   67.19    6.30
  -4  -1  -6    0.60    2.50
  -4  -1  -6    0.80    4.60
  -4  -1  -6    0.90    1.70
   4   1   6    0.10    1.60
   4   1   6    0.00    1.10
   4   1   6   -0.20    1.80
  -5  -1  -6  214.18   13.10
  -5  -1  -6  216.38   22.10
  -5  -1  -6  223.18   18.10
   5   1   6  219.78   13.60
   5   1   6  208.18   12.10
   5   1   6  210.28   14.40
  -6  -1  -6    8.70    5.70
  -6  -1  -6    9.10    7.20
  -6  -1  -6    6.10    2.70
   6   1   6   10.40    3.20
   6   1   6    5.00    3.10
   6   1   6    6.20    2.10
  -7  -1  -6    1.50    4.30
  -7  -1  -6    4.10    2.90
  -7  -1  -6    3.90    7.60
   7   1   6    5.00    3.70
   7   1   6    2.70    2.90
  -8  -1  -6   22.00    8.80
  -8  -1  -6   11.60   10.40
  -8  -1  -6   18.90    4.70
   8   1   6   19.10    5.90
   8   1   6   21.30    5.80
   7  -2  -6    7.10    5.70
  -7   2   6    7.50    5.50
  -7   2   6    3.90    3.00
   6  -2  -6   44.50    9.80
  -6   2   6   49.60    9.40
  -6   2   6   48.30    6.80
   5  -2  -6  128.29    7.90
   5  -2  -6  127.69   13.10
   5  -2  -6  122.89   13.50
  -5   2   6  132.79    9.80
  -5   2   6  121.89    8.10
   4  -2  -6    1.90    1.20
   4  -2  -6   -1.50    2.40
   4  -2  -6    0.70    2.80
  -4   2   6   -0.30    1.70
  -4   2   6    1.60    1.70
  -4   2   6   -0.80    1.20
   3  -2  -6  243.38   16.70
   3  -2  -6  235.08   11.30
   3  -2  -6  263.07   16.90
  -3   2   6  199.78   13.40
  -3   2   6  234.98   13.50
  -3   2   6  227.58   11.90
   2  -2  -6  137.19   11.40
   2  -2  -6  126.49    6.80
   2  -2  -6  132.09   10.50
  -2   2   6  132.49    8.50
  -2   2   6  120.89    8.60
  -2   2   6  120.49    7.30
   1  -2  -6  443.26   21.40
   1  -2  -6  486.15   26.00
   1  -2  -6  411.36   27.30
  -1   2   6  431.96   22.70
  -1   2   6  454.95   21.80
   0  -2  -6  194.38    9.60
   0  -2  -6  190.58   10.30
   0   2   6  200.38   11.10
   0   2   6  202.08   10.70
   0   2   6  189.28    9.80
  -1  -2  -6  177.68   11.60
  -1  -2  -6  170.98    8.90
   1   2   6  154.28    9.40
   1   2   6  166.88    9.30
   1   2   6  144.59   13.70
   1   2   6  164.88    8.80
  -2  -2  -6  113.09    7.80
   2   2   6   96.29    6.40
   2   2   6  104.19    6.40
   2   2   6   99.39    6.90
  -3  -2  -6    3.60    4.10
  -3  -2  -6    3.30    1.90
  -3  -2  -6    4.90    3.40
   3   2   6    3.50    1.30
   3   2   6    1.10    1.40
   3   2   6    4.10    1.70
  -4  -2  -6   51.89    5.40
  -4  -2  -6   48.30    8.60
  -4  -2  -6   58.79   11.50
   4   2   6   65.39    5.80
   4   2   6   61.59    5.40
   4   2   6   54.79    4.30
  -5  -2  -6    9.60    6.20
  -5  -2  -6   12.50    5.50
  -5  -2  -6   15.30    3.50
   5   2   6   12.20    3.10
   5   2   6   13.40    3.20
   5   2   6   12.80    2.20
  -6  -2  -6    4.30    4.10
  -6  -2  -6    4.70    5.40
  -6  -2  -6    0.40    2.10
   6   2   6    2.70    2.40
   6   2   6    1.80    1.40
   6   2   6    3.30    2.20
  -7  -2  -6   64.39   15.60
  -7  -2  -6   48.60    6.70
  -7  -2  -6   53.99   10.70
   7   2   6   47.50    7.20
   7   2   6   43.70    6.60
  -8  -2  -6   65.59    8.20
  -8  -2  -6   58.89   12.70
  -8  -2  -6   66.19   17.20
   8   2   6   69.19    9.30
   8   2   6   58.19    8.10
   7  -3  -6   36.90    9.90
  -7   3   6   34.80    9.80
  -7   3   6   33.50    6.10
   6  -3  -6   18.60    6.70
  -6   3   6   14.60    6.00
  -6   3   6   15.10    4.10
   5  -3  -6   84.29   10.80
  -5   3   6   85.69    7.60
  -5   3   6   73.29    6.00
   4  -3  -6  220.48   12.40
   4  -3  -6  255.27   18.00
   4  -3  -6  246.08   18.10
  -4   3   6  240.08   14.10
  -4   3   6  255.87   14.50
   3  -3  -6    2.40    2.90
   3  -3  -6    1.90    2.50
  -3   3   6    0.80    1.70
  -3   3   6    2.00    1.50
   2  -3  -6  700.23   36.10
   2  -3  -6  648.84   31.20
   2  -3  -6  669.73   34.80
  -2   3   6  669.13   31.00
  -2   3   6  650.33   32.70
   1  -3  -6  125.79   12.00
   1  -3  -6  135.49    7.80
   1  -3  -6  144.29    9.60
  -1   3   6  137.39    7.50
  -1   3   6  133.99    8.30
   0  -3  -6 2086.19   96.29
   0  -3  -6 2076.39   92.39
   0   3   6 2023.00   93.49
   0   3   6 1979.10   92.19
   0   3   6 2073.09   93.29
  -1  -3  -6  876.91   41.10
  -1  -3  -6  840.22   43.80
   1   3   6  846.32   40.80
   1   3   6 1019.40   45.30
   1   3   6  861.31   41.50
   1   3   6  871.11   41.60
  -2  -3  -6  206.28   12.60
  -2  -3  -6  205.98   11.30
  -2  -3  -6  214.68   12.70
   2   3   6  202.68   11.00
   2   3   6  198.48   11.40
   2   3   6  204.98   11.10
  -3  -3  -6  130.39   13.10
  -3  -3  -6  140.69    9.60
  -3  -3  -6  131.89   13.50
   3   3   6  140.29    8.20
   3   3   6  144.69    8.90
   3   3   6  147.59    8.80
  -4  -3  -6  200.18   17.30
  -4  -3  -6  199.38   16.30
  -4  -3  -6  192.88   12.30
   4   3   6  195.78   11.50
   4   3   6  171.68   10.40
   4   3   6  195.48   11.60
  -5  -3  -6   -1.70    3.50
  -5  -3  -6    0.70    3.30
  -5  -3  -6    1.10    2.20
   5   3   6   -0.70    1.00
   5   3   6    5.40    2.40
   5   3   6    0.50    1.80
  -6  -3  -6   11.90    3.50
  -6  -3  -6   17.90    6.40
  -6  -3  -6   14.80    7.30
   6   3   6   12.40    3.60
   6   3   6   18.80    2.80
   6   3   6   20.90    4.00
  -7  -3  -6    0.80    5.10
  -7  -3  -6    0.60    2.70
  -7  -3  -6    1.10    4.10
   7   3   6    1.40    1.50
   7   3   6    0.40    2.40
   7   3   6    2.30    2.40
  -8  -3  -6   12.90    4.40
  -8  -3  -6   22.20    8.30
  -8  -3  -6   26.60   11.30
   8   3   6   15.90    4.90
   8   3   6   15.90    4.30
   6  -4  -6    0.10    3.60
  -6   4   6    0.50    3.50
  -6   4   6    1.10    2.40
   5  -4  -6    4.60    3.90
  -5   4   6    2.60    2.30
  -5   4   6    1.50    3.40
   4  -4  -6  167.98   13.70
   4  -4  -6  136.19   12.70
  -4   4   6  168.28   10.50
  -4   4   6  126.19    9.90
   3  -4  -6  109.29    9.80
   3  -4  -6   95.79    9.70
  -3   4   6   99.99    7.60
  -3   4   6  108.59    7.70
  -3   4   6  104.09    5.80
  -3   4   6  103.39    5.60
   2  -4  -6   -1.30    2.40
   2  -4  -6    2.30    2.70
   2  -4  -6   -0.40    2.00
  -2   4   6   -0.20    0.80
  -2   4   6    1.00    1.10
  -2   4   6   -0.10    3.00
  -2   4   6    1.10    1.40
   1  -4  -6   20.10    3.20
   1  -4  -6   25.90    5.50
   1  -4  -6   10.90    3.90
  -1   4   6   20.50    2.80
  -1   4   6   20.90    2.50
   0  -4  -6  793.42   36.50
   0  -4  -6  705.63   40.60
   0   4   6  792.32   36.60
   0   4   6  748.53   35.30
   0   4   6  805.02   36.50
  -1  -4  -6  291.77   14.90
  -1  -4  -6  287.17   14.30
  -1  -4  -6  298.97   17.40
   1   4   6  287.97   15.00
   1   4   6  272.27   14.20
   1   4   6  291.67   15.00
  -2  -4  -6   13.70    3.30
  -2  -4  -6    6.30    3.20
  -2  -4  -6   18.80    3.20
  -2  -4  -6    7.00    4.10
  -2  -4  -6   13.80    3.10
   2   4   6   13.80    2.50
   2   4   6   16.40    2.50
   2   4   6   19.10    2.70
  -3  -4  -6 2145.19   95.69
  -3  -4  -6 1834.02   99.69
  -3  -4  -6 1997.40   94.79
  -3  -4  -6 2012.10   98.79
   3   4   6 2118.89   93.59
   3   4   6 2044.90   93.59
  -4  -4  -6  298.37   16.90
  -4  -4  -6  298.57   21.90
  -4  -4  -6  343.27   22.60
  -4  -4  -6  298.47   17.90
   4   4   6  293.57   16.70
   4   4   6  320.87   17.20
  -5  -4  -6  278.57   17.50
  -5  -4  -6  299.27   21.90
   5   4   6  307.47   16.80
   5   4   6  299.27   17.10
  -6  -4  -6  208.28   14.00
  -6  -4  -6  195.38   17.60
   6   4   6  210.88   13.50
   6   4   6  193.18   12.70
  -7  -4  -6   -1.40    2.50
  -7  -4  -6   -0.60    3.50
   7   4   6   -0.40    2.30
   7   4   6    1.60    2.10
   7   4   6    1.10    1.40
  -8  -4  -6   89.99    9.40
  -8  -4  -6   78.79   13.90
   8   4   6   81.59    9.10
   8   4   6   87.69    8.90
  -6   5   6   -0.10    3.80
   5  -5  -6    3.00    3.90
  -5   5   6    1.10    2.00
  -5   5   6   -0.60    3.40
   4  -5  -6   15.00    5.00
  -4   5   6   11.60    3.10
  -4   5   6   13.40    3.10
  -4   5   6   19.70    5.50
   3  -5  -6   21.30    5.20
   3  -5  -6   30.10    5.40
  -3   5   6   27.20    4.10
  -3   5   6   26.70    2.70
  -3   5   6   23.70    3.80
   2  -5  -6    9.60    3.90
   2  -5  -6   25.30    4.00
   2  -5  -6   28.60    5.20
  -2   5   6   19.80    1.90
  -2   5   6   23.60    5.60
  -2   5   6   24.00    2.90
  -2   5   6   23.10    3.10
  -2   5   6   21.60    2.10
   1  -5  -6  164.48   12.10
  -1   5   6  165.88    9.60
  -1   5   6  160.18    9.30
  -1   5   6  164.38    8.20
  -1   5   6  160.78    8.20
   0  -5  -6  203.78   16.20
   0  -5  -6  222.68   16.30
   0   5   6  237.48   12.50
   0   5   6  231.08   11.40
   0   5   6  226.88   12.50
  -1  -5  -6   25.30    4.70
  -1  -5  -6    8.20    4.30
  -1  -5  -6   17.10    3.10
   1   5   6   22.60    2.70
   1   5   6   17.80    2.90
  -2  -5  -6  158.58   10.60
  -2  -5  -6  166.58   11.50
   2   5   6  170.48    9.90
   2   5   6  182.68   10.50
  -3  -5  -6  118.59   10.90
  -3  -5  -6  115.29    9.40
  -3  -5  -6  134.39    9.40
  -3  -5  -6  138.99    9.30
   3   5   6  138.99    8.90
   3   5   6  131.39    8.60
  -4  -5  -6  104.69    8.90
  -4  -5  -6  104.69    8.00
  -4  -5  -6  109.19   10.90
  -4  -5  -6   88.99   11.40
   4   5   6  106.49    7.80
   4   5   6  110.49    8.20
  -5  -5  -6   21.80    3.90
  -5  -5  -6   18.70    6.30
  -5  -5  -6   11.40    3.60
   5   5   6   18.50    3.70
   5   5   6   21.70    5.10
   5   5   6   21.90    4.20
  -6  -5  -6   69.39    8.40
  -6  -5  -6   58.99    6.60
  -6  -5  -6   64.39   11.00
   6   5   6   52.99    6.20
   6   5   6   61.09    7.40
   6   5   6   58.59    8.30
  -7  -5  -6   21.10    7.30
  -7  -5  -6   36.50    6.60
  -7  -5  -6   21.80    4.30
   7   5   6   29.40    7.50
   7   5   6   14.90    4.20
   7   5   6   28.90    4.80
  -8  -5  -6   -0.20    5.10
  -8  -5  -6   -0.50    3.50
   8   5   6    1.30    3.10
   8   5   6    0.40    2.40
   8   5   6   -0.30    3.80
  -4   6   6   23.70    6.30
  -4   6   6   26.10    4.30
  -3   6   6   10.20    2.70
  -3   6   6   12.60    3.10
   2  -6  -6  106.49    9.20
  -2   6   6   95.09    6.80
  -2   6   6  113.89    7.20
  -2   6   6   83.09   14.50
   1  -6  -6    1.40    3.30
   1  -6  -6    1.50    2.10
  -1   6   6    0.70    1.10
  -1   6   6    3.10    1.90
  -1   6   6    1.60    1.30
   0  -6  -6  489.05   26.60
   0  -6  -6  403.46   27.70
   0   6   6  523.35   24.40
   0   6   6  476.25   23.50
   0   6   6  463.65   23.10
   0   6   6  467.75   23.80
  -1  -6  -6   54.39    5.90
  -1  -6  -6   39.20    6.30
   1   6   6   47.40    4.10
   1   6   6   37.90    4.90
  -2  -6  -6   96.19    7.80
  -2  -6  -6  100.49    8.60
   2   6   6   95.79    6.90
   2   6   6   92.69    7.40
  -3  -6  -6  414.66   21.50
  -3  -6  -6  397.06   22.20
  -3  -6  -6  332.77   21.60
   3   6   6  399.06   20.70
   3   6   6  405.96   21.00
  -4  -6  -6  107.79   13.00
  -4  -6  -6  124.49   10.20
  -4  -6  -6  141.19   11.90
  -4  -6  -6  133.59    9.80
   4   6   6  121.59    9.20
   4   6   6  119.29    9.10
  -5  -6  -6  560.84   36.70
  -5  -6  -6  626.74   31.70
  -5  -6  -6  602.74   32.80
   5   6   6  624.94   31.30
   5   6   6  612.34   31.80
   5   6   6  606.14   32.90
  -6  -6  -6    8.20    3.20
  -6  -6  -6    5.60    3.40
  -6  -6  -6    8.60    5.30
   6   6   6    6.00    3.70
   6   6   6    6.30    2.90
   6   6   6   10.50    3.60
  -7  -6  -6   15.10    4.00
  -7  -6  -6   17.70    7.50
  -7  -6  -6   20.00    5.20
   7   6   6   13.20    4.40
   7   6   6   19.90    6.50
   7   6   6   15.90    4.10
  -8  -6  -6    1.00    5.50
  -8  -6  -6   -0.80    2.50
  -8  -6  -6    0.60    3.40
   8   6   6    4.10    4.70
   8   6   6    1.50    3.30
   8   6   6    2.30    3.10
  -2   7   6   93.79    7.10
  -2   7   6   88.39    6.70
   1  -7  -6    0.60    2.90
  -1   7   6   -2.10    1.90
  -1   7   6   -1.80    2.40
  -1   7   6    0.80    1.40
   0  -7  -6    0.80    3.40
   0  -7  -6    7.20    3.10
   0   7   6    5.00    2.00
   0   7   6    4.90    2.40
  -1  -7  -6    9.50    4.00
  -1  -7  -6   12.20    3.30
  -1  -7  -6    7.40    3.60
   1   7   6    4.70    2.60
   1   7   6   10.10    2.50
  -2  -7  -6  166.48   12.70
  -2  -7  -6  179.68   12.00
   2   7   6  183.18   11.70
   2   7   6  158.58   10.60
  -3  -7  -6  393.86   21.70
  -3  -7  -6  354.86   22.10
   3   7   6  368.86   20.70
   3   7   6  413.36   21.50
  -4  -7  -6   47.90    9.90
  -4  -7  -6   43.60    6.70
  -4  -7  -6   40.80    6.00
   4   7   6   55.49    6.40
   4   7   6   56.39    6.50
  -5  -7  -6   47.90    7.20
  -5  -7  -6   46.20    6.50
  -5  -7  -6   47.30   10.00
   5   7   6   39.50    6.00
   5   7   6   49.50    6.30
   5   7   6   54.19    6.30
  -6  -7  -6   82.19    8.30
  -6  -7  -6   60.09    8.50
  -6  -7  -6   84.09   13.60
   6   7   6   72.09    8.80
   6   7   6   77.49    7.50
   6   7   6   74.69    8.60
  -7  -7  -6   31.40    6.60
  -7  -7  -6   33.10    9.80
  -7  -7  -6   27.20    5.40
   7   7   6   40.20    6.70
   7   7   6   42.30    8.50
   7   7   6   45.50    6.60
  -8  -7  -6   37.00    6.50
  -8  -7  -6   47.00   11.70
  -8  -7  -6   27.00    6.90
   8   7   6   33.20    6.50
   8   7   6   38.00    9.10
   8   7   6   40.70    6.70
  -2   8   6    3.20    2.10
   1  -8  -6    6.20    4.60
  -1   8   6   18.10    4.00
  -1   8   6    8.90    2.70
   0  -8  -6   41.60    8.70
   0   8   6   53.99    6.40
  -1  -8  -6   45.00    7.90
  -1  -8  -6   37.40    5.90
   1   8   6   49.10    6.20
   1   8   6   42.80    5.30
  -2  -8  -6  222.08   16.30
  -2  -8  -6  236.98   15.50
   2   8   6  254.97   14.70
   2   8   6  249.48   15.40
  -3  -8  -6   82.89    8.90
  -3  -8  -6   84.79    8.20
   3   8   6   95.99    8.60
   3   8   6   96.29    8.00
  -4  -8  -6    4.50    3.10
  -4  -8  -6    2.30    2.90
   4   8   6    6.80    3.10
   4   8   6    7.80    3.20
  -5  -8  -6   39.60    7.00
  -5  -8  -6   38.70    6.60
  -5  -8  -6   31.60    9.40
   5   8   6   39.00    5.90
   5   8   6   40.10    6.10
  -6  -8  -6    4.40    5.30
  -6  -8  -6    2.00    3.20
  -6  -8  -6    5.80    4.40
   6   8   6    4.00    3.10
   6   8   6    3.30    3.10
  -7  -8  -6   15.80    7.80
  -7  -8  -6   15.40    4.80
  -7  -8  -6   19.10    5.80
   7   8   6   19.60    5.10
   7   8   6   15.10    4.30
  -1   9   6    0.90    2.10
  -1   9   6    0.60    2.90
   0   9   6    2.30    2.90
  -1  -9  -6  119.99   13.20
  -1  -9  -6  103.59    9.80
   1   9   6  125.09   10.30
  -2  -9  -6   52.99    7.60
  -2  -9  -6   50.99    8.40
   2   9   6   60.29    7.40
   2   9   6   59.99    7.10
  -3  -9  -6    4.20    3.50
  -3  -9  -6    8.50    3.40
   3   9   6    2.20    3.20
   3   9   6    3.90    2.80
  -4  -9  -6    7.70    4.00
  -4  -9  -6    8.80    4.20
   4   9   6   15.00    4.20
   4   9   6    9.60    3.90
  -5  -9  -6    0.70    3.50
  -5  -9  -6   -1.10    3.10
   5   9   6    0.80    2.90
   5   9   6   -3.60    2.10
  -6  -9  -6   27.90    6.70
  -6  -9  -6   18.50    5.90
   6   9   6   24.30    5.50
   6   9   6   20.90    5.10
  -2 -10  -6    4.10    4.40
  -2 -10  -6   -1.10    3.50
   2  10   6    3.90    3.80
  -3 -10  -6    0.80    3.30
  -3 -10  -6   -2.60    3.20
   3  10   6   -0.20    3.40
   3  10   6   -1.40    2.60
  -4 -10  -6   25.40    5.90
  -4 -10  -6   29.60    6.70
   4  10   6   30.20    6.70
   4  10   6   33.00    6.30
   5   7  -7   49.80    9.80
   5   7  -7   49.50   15.30
  -5  -7   7   54.89    9.10
  -5  -7   7   42.20    8.00
  -5  -7   7   48.10    8.00
   4   7  -7   21.50   12.50
   4   7  -7   25.40    8.20
  -4  -7   7   13.40    4.80
  -4  -7   7   23.30    5.80
  -4  -7   7   10.70    4.40
   3   7  -7   -3.10    8.40
   3   7  -7   -2.30    3.90
  -3  -7   7   -2.40    2.30
  -3  -7   7    0.70    3.00
   2   7  -7    3.40   11.50
   2   7  -7    1.50    5.20
  -2  -7   7   -1.10    3.20
  -2  -7   7   -3.10    2.80
   1   7  -7   -2.50   10.00
   1   7  -7    3.30    5.90
  -1  -7   7   -1.70    3.40
  -1  -7   7    0.10    3.10
   0   7  -7   25.70   10.10
   0   7  -7    6.30   10.70
   0  -7   7   22.60    5.60
   0  -7   7   22.30    5.80
  -1   7  -7    8.50   12.00
   1  -7   7    9.60    4.90
   1  -7   7    5.40    3.50
   6   6  -7   17.10    9.80
   6   6  -7   13.70    4.60
   6   6  -7   13.90    5.40
  -6  -6   7   12.40    5.10
  -6  -6   7   15.10    5.10
  -6  -6   7   12.90    6.00
   5   6  -7    2.00    4.00
   5   6  -7    6.00    8.40
  -5  -6   7    2.80    3.40
  -5  -6   7    7.20    3.20
  -5  -6   7    2.40    3.20
   4   6  -7   44.30    9.10
   4   6  -7   48.50    8.60
   4   6  -7   48.50   14.80
  -4  -6   7   43.60    6.80
  -4  -6   7   51.99    7.80
  -4  -6   7   48.50    7.40
   3   6  -7   54.99    8.70
   3   6  -7   48.70   16.10
   3   6  -7   32.30    7.90
  -3  -6   7   42.70    6.70
  -3  -6   7   50.59    7.50
  -3  -6   7   43.10    6.80
   2   6  -7   24.20    7.50
   2   6  -7    8.80   10.00
  -2  -6   7   26.30    4.70
  -2  -6   7   22.10    5.20
  -2  -6   7   21.80    4.90
   1   6  -7   42.00   10.30
  -1  -6   7   47.60    7.00
  -1  -6   7   51.49    7.60
   0   6  -7    3.70    9.90
   0   6  -7   -2.30    5.80
   0  -6   7    1.00    2.80
   0  -6   7    0.80    3.00
  -1   6  -7   -3.10    6.40
  -1   6  -7   -1.90    7.50
   1  -6   7   -0.30    2.60
   1  -6   7   -0.80    2.40
  -2   6  -7    1.90   11.20
  -2   6  -7   -1.10    7.30
   2  -6   7    0.10    3.60
  -3   6  -7   -3.30   11.90
   7   5  -7   10.30    8.20
   7   5  -7   17.70    5.80
  -7  -5   7   13.30    4.80
  -7  -5   7    7.50    4.30
  -7  -5   7   11.60    6.70
   6   5  -7   40.50   12.50
   6   5  -7   33.00    6.00
   6   5  -7   24.60    6.30
  -6  -5   7   36.30    8.80
  -6  -5   7   34.50    6.60
  -6  -5   7   23.80    6.20
   5   5  -7    1.10    6.00
   5   5  -7    1.90    3.60
   5   5  -7    0.80    3.70
  -5  -5   7    1.50    2.80
  -5  -5   7    7.40    3.40
  -5  -5   7    0.40    2.20
   4   5  -7   35.80    7.60
   4   5  -7   41.10    8.20
   4   5  -7   39.40   12.50
  -4  -5   7   34.90    6.30
  -4  -5   7   31.00    5.40
  -4  -5   7   42.10    6.80
   3   5  -7   -1.30    2.80
   3   5  -7    6.10    8.60
   3   5  -7    2.60    3.50
  -3  -5   7    3.40    2.80
  -3  -5   7    3.50    2.80
  -3  -5   7    3.90    3.00
   2   5  -7   34.50    6.50
   2   5  -7   32.40    8.20
   2   5  -7   25.80   12.50
  -2  -5   7   29.00    5.00
  -2  -5   7   36.60    5.90
  -2  -5   7   32.70    5.50
   1   5  -7    7.80    9.50
   1   5  -7   36.50    7.50
   1   5  -7   16.40    6.90
  -1  -5   7   32.00    4.60
  -1  -5   7   34.50    5.70
  -1  -5   7   34.10    5.50
   0   5  -7   16.50    7.30
   0   5  -7    0.10    7.90
   0   5  -7    7.10    5.60
   0  -5   7   13.40    3.60
   0  -5   7   13.50    4.00
  -1   5  -7    9.40    6.10
  -1   5  -7    4.80    9.80
  -1   5  -7   30.70   10.50
   1  -5   7   33.00    5.80
   1  -5   7   29.40    4.80
  -2   5  -7    0.70    5.80
  -2   5  -7   -1.40    7.60
  -2   5  -7    3.60    7.40
   2  -5   7   -1.60    2.40
   2  -5   7    2.70    2.30
  -3   5  -7  143.69   22.80
   3  -5   7  151.08   12.40
  -4   5  -7    7.00   11.10
  -4   5  -7    9.10   11.20
   4  -5   7   46.60    7.50
   7   4  -7   23.80    5.70
   7   4  -7   28.00   10.90
  -7  -4   7   25.40    5.20
  -7  -4   7   24.40    6.30
  -7  -4   7   27.90    8.70
   6   4  -7   -1.20    2.00
   6   4  -7   -0.40    2.60
   6   4  -7    0.70    5.30
   6   4  -7    4.50    4.60
  -6  -4   7    2.50    2.80
  -6  -4   7    5.10    3.30
   5   4  -7    8.00    4.80
   5   4  -7   11.20    7.60
   5   4  -7    2.70    3.20
  -5  -4   7    9.20    3.80
  -5  -4   7    6.60    3.00
  -5  -4   7    4.40    2.70
   4   4  -7    5.20    6.20
   4   4  -7    1.50    3.60
   4   4  -7    3.60    3.30
  -4  -4   7    5.40    2.80
  -4  -4   7    3.10    2.40
  -4  -4   7    2.70    2.30
   3   4  -7  102.79   10.80
   3   4  -7  120.49   11.60
   3   4  -7  123.79   21.30
  -3  -4   7  104.89    8.40
  -3  -4   7  103.19    8.80
  -3  -4   7   97.49    8.50
   2   4  -7   25.40    6.40
   2   4  -7   21.10   11.50
   2   4  -7   20.90    6.40
  -2  -4   7   24.10    4.30
  -2  -4   7   34.20    5.20
  -2  -4   7   27.20    4.50
   1   4  -7   20.20    6.60
   1   4  -7   28.70    7.40
   1   4  -7   15.10   11.20
  -1  -4   7   19.00    3.60
  -1  -4   7   17.30    3.70
  -1  -4   7   20.40    3.90
   0   4  -7    5.00    4.90
   0   4  -7    4.00    4.90
   0   4  -7    5.30    8.40
   0  -4   7    6.30    2.80
   0  -4   7    5.10    2.70
   0  -4   7    8.10    2.40
  -1   4  -7  223.58   22.60
   1  -4   7  247.28   14.60
   1  -4   7  249.28   15.50
  -2   4  -7   -0.40    5.70
  -2   4  -7   -2.60    6.40
  -2   4  -7    2.60    5.00
   2  -4   7    3.60    2.80
   2  -4   7    2.20    2.00
  -3   4  -7    3.80    9.40
  -3   4  -7    3.30    5.50
   3  -4   7    7.40    3.70
   3  -4   7   10.90    4.70
   3  -4   7   10.90    3.00
  -4   4  -7    3.00    5.70
  -4   4  -7   -0.90    9.10
   4  -4   7   -1.20    3.40
   4  -4   7   -2.00    3.00
  -5   4  -7    2.30   11.60
  -5   4  -7    5.30    7.50
   5  -4   7   17.80    6.40
   5  -4   7   13.70    4.80
   8   3  -7   60.29   15.00
   8   3  -7   60.69    8.60
  -8  -3   7   55.09    9.30
  -8  -3   7   55.49    7.50
  -8  -3   7   55.39   12.00
   7   3  -7   11.10    7.40
   7   3  -7    5.50    3.50
  -7  -3   7   21.40    7.30
  -7  -3   7   14.10    4.00
  -7  -3   7   17.90    5.60
   6   3  -7  113.79   13.50
   6   3  -7   72.59    7.00
   6   3  -7   99.89    9.20
   6   3  -7  103.69   15.00
  -6  -3   7   90.79    9.40
  -6  -3   7   85.29    8.10
   5   3  -7  177.28   13.10
   5   3  -7  180.88   19.60
   5   3  -7  187.58   16.30
  -5  -3   7  169.58   11.30
  -5  -3   7  184.58   13.50
  -5  -3   7  190.48   12.40
   4   3  -7  606.74   34.20
   4   3  -7  583.74   31.60
   4   3  -7  628.64   40.70
  -4  -3   7  549.25   30.50
  -4  -3   7  552.04   29.70
  -4  -3   7  535.55   28.80
   3   3  -7   34.70    6.50
   3   3  -7   49.00   13.30
   3   3  -7   44.60    8.10
  -3  -3   7   33.30    5.10
  -3  -3   7   44.20    5.20
  -3  -3   7   35.60    5.10
   2   3  -7  351.46   21.20
   2   3  -7  262.67   28.50
   2   3  -7  320.57   21.30
  -2  -3   7  296.47   16.70
  -2  -3   7  295.67   16.90
  -2  -3   7  277.87   16.70
   1   3  -7   20.70   10.80
   1   3  -7   17.00    5.60
   1   3  -7   15.20    6.10
  -1  -3   7   27.90    4.30
  -1  -3   7   29.70    4.50
  -1  -3   7   25.50    3.80
   0   3  -7   -2.50    5.80
   0   3  -7   -0.80    3.50
   0   3  -7    6.00    4.60
   0  -3   7    3.20    1.50
   0  -3   7    1.90    1.70
   0  -3   7    2.50    2.20
  -1   3  -7    0.90    6.80
  -1   3  -7    6.60    5.70
  -1   3  -7   -1.90    3.40
   1  -3   7   -0.70    1.00
   1  -3   7   -0.20    1.90
   1  -3   7    0.30    1.80
   1  -3   7    1.50    1.60
   2  -3   7   59.39    4.00
   2  -3   7   63.29    5.70
   2  -3   7   68.09    7.70
   2  -3   7   52.29    7.70
  -3   3  -7    2.30    4.40
  -3   3  -7   -2.30    7.00
   3  -3   7    1.90    2.50
   3  -3   7   -0.30    2.40
   3  -3   7    3.40    2.00
  -4   3  -7    2.30    5.80
  -4   3  -7    2.50    8.00
   4  -3   7   -1.30    2.60
   4  -3   7    0.60    3.10
  -5   3  -7    6.20    6.30
  -5   3  -7    1.20    9.20
   5  -3   7   -1.90    2.60
   5  -3   7   -1.80    3.20
  -6   3  -7    4.20   10.90
  -6   3  -7    0.30    5.70
   6  -3   7   -0.80    3.20
   6  -3   7   -0.20    4.10
   8   2  -7   28.80    5.60
   8   2  -7   40.90   12.70
  -8  -2   7   20.00    8.00
  -8  -2   7   28.40    6.30
  -8  -2   7   39.50    8.20
   7   2  -7   22.60    9.40
   7   2  -7   19.80    4.60
  -7  -2   7   22.20    4.40
  -7  -2   7   16.60    6.60
  -7  -2   7   27.80    6.40
   6   2  -7   12.20    5.50
   6   2  -7   10.10    3.40
   6   2  -7    8.70    6.30
  -6  -2   7    8.90    3.00
  -6  -2   7   10.50    4.10
   5   2  -7   28.00    8.70
   5   2  -7   40.50    8.60
   5   2  -7   30.70    4.90
  -5  -2   7   27.10    3.80
  -5  -2   7   29.00    4.60
  -5  -2   7   29.00    5.70
   4   2  -7    4.50    4.00
   4   2  -7    1.50    3.90
   4   2  -7    1.50    2.10
  -4  -2   7    4.70    2.50
  -4  -2   7    2.40    2.30
  -4  -2   7    2.40    1.80
   3   2  -7   15.60    7.70
   3   2  -7   13.20    3.60
   3   2  -7   11.00    4.60
  -3  -2   7   16.10    3.50
  -3  -2   7   14.30    3.20
  -3  -2   7   11.90    2.60
   2   2  -7   84.39    8.50
   2   2  -7   56.69   13.50
   2   2  -7   82.59   10.30
  -2  -2   7   74.19    6.20
  -2  -2   7   71.69    6.30
  -2  -2   7   88.49    6.40
   1   2  -7  249.48   21.60
   1   2  -7  300.97   20.30
  -1  -2   7  320.37   16.80
  -1  -2   7  312.17   16.40
  -1  -2   7  286.27   15.80
   0   2  -7   12.20    9.00
   0   2  -7   64.79   10.90
   0   2  -7   22.80    7.00
   0  -2   7   48.80    4.90
   0  -2   7   54.99    5.90
   0  -2   7   36.00    3.60
   1  -2   7  764.82   38.40
   1  -2   7  771.02   37.20
   1  -2   7  756.52   38.00
   1  -2   7  836.92   40.20
   1  -2   7  827.72   39.60
  -2   2  -7    6.90    7.60
   2  -2   7   33.60    5.40
   2  -2   7   27.60    4.10
   2  -2   7   35.40    3.80
   2  -2   7   28.90    2.80
   2  -2   7   34.40    5.80
  -3   2  -7  335.57   25.00
  -3   2  -7  309.57   16.60
  -3   2  -7  240.68   29.20
  -4   2  -7   44.30   10.80
  -4   2  -7   50.29   16.00
   4  -2   7   54.79    7.90
   4  -2   7   69.99    8.20
   4  -2   7   79.19    5.60
  -5   2  -7    9.90    7.10
  -5   2  -7    8.30    9.10
   5  -2   7   11.60    4.50
   5  -2   7    6.70    3.80
  -6   2  -7    0.80    9.00
  -6   2  -7    8.30    6.40
   6  -2   7   -0.20    3.40
   6  -2   7    1.80    3.50
   8   1  -7   11.20    7.40
  -8  -1   7   13.00    7.10
  -8  -1   7    7.20    4.30
   7   1  -7    0.30    2.20
   7   1  -7    2.50    5.10
  -7  -1   7    0.40    2.80
  -7  -1   7    0.00    3.50
  -7  -1   7   -1.30    1.70
   6   1  -7  445.96   31.80
   6   1  -7  422.56   29.00
   6   1  -7  411.66   22.80
  -6  -1   7  409.76   24.60
  -6  -1   7  410.66   22.40
   5   1  -7   23.30    4.00
   5   1  -7   30.60    7.30
   5   1  -7   25.90    8.20
  -5  -1   7   21.60    4.60
  -5  -1   7   32.70    4.70
   4   1  -7  289.87   22.70
   4   1  -7  277.57   15.90
   4   1  -7  283.67   20.20
  -4  -1   7  300.37   16.10
  -4  -1   7  266.97   14.40
  -4  -1   7  261.07   16.50
   3   1  -7  121.49   11.70
   3   1  -7  114.79    8.50
   3   1  -7  116.29   13.90
  -3  -1   7  110.19    8.10
  -3  -1   7  106.09    7.00
  -3  -1   7  104.09    8.20
   2   1  -7  122.69   15.70
   2   1  -7  126.99   12.70
   2   1  -7  130.89    9.80
  -2  -1   7  122.09    8.40
  -2  -1   7  120.99    8.70
  -2  -1   7  124.09    7.90
   1   1  -7   65.29   14.20
   1   1  -7   77.69   12.30
   1   1  -7   97.19    9.30
  -1  -1   7  109.99    7.70
  -1  -1   7  102.09    6.80
  -1  -1   7  105.49    7.30
   0   1  -7  120.09   12.30
   0  -1   7   98.69    7.80
   0  -1   7  114.19    7.10
   0  -1   7  107.39    8.20
  -1   1  -7   10.20    3.30
   1  -1   7   34.30    5.10
   1  -1   7   22.80    3.70
   1  -1   7   26.40    4.20
  -2   1  -7    5.30    2.60
  -2   1  -7    3.10    4.20
  -2   1  -7    1.90    5.20
   2  -1   7    7.70    3.00
   2  -1   7    9.70    3.40
   2  -1   7    7.70    2.50
   2  -1   7   15.10    2.90
  -3   1  -7   51.69    6.80
  -3   1  -7   45.20   10.10
   3  -1   7   75.69    7.20
   3  -1   7   66.09    7.90
   3  -1   7   74.49    6.10
   3  -1   7   67.79    5.60
  -4   1  -7   -0.10    5.70
  -4   1  -7    2.10    2.50
  -4   1  -7    0.40    4.50
   4  -1   7    5.20    3.40
   4  -1   7    4.20    3.10
   4  -1   7    4.50    2.10
  -5   1  -7    7.60    2.80
  -5   1  -7    1.80    5.10
  -5   1  -7    2.20    6.50
   5  -1   7    7.90    4.00
   5  -1   7    8.10    3.60
  -6   1  -7   19.20   12.00
  -6   1  -7    8.90    6.40
   6  -1   7    9.40    4.70
   6  -1   7    7.90    4.10
  -7   1  -7   16.00   13.10
  -7   1  -7    8.50    7.40
   7  -1   7    9.30    5.40
   7  -1   7    5.20    4.20
   8   0  -7    4.70    6.70
  -8   0   7    4.70    4.10
  -8   0   7    4.70    5.60
   7   0  -7   19.60    8.40
  -7   0   7   33.70    6.60
  -7   0   7   25.40    4.10
  -7   0   7   16.50    6.80
   6   0  -7    1.30    4.70
   6   0  -7    0.30    1.80
   6   0  -7   -2.20    3.10
  -6   0   7    0.50    1.70
  -6   0   7    2.00    2.80
   5   0  -7  137.29   13.70
   5   0  -7  134.09    8.80
   5   0  -7  124.59   14.50
  -5   0   7  121.89    8.90
  -5   0   7  136.09   10.50
   4   0  -7  230.58   13.30
   4   0  -7  242.78   18.40
   4   0  -7  233.48   19.40
  -4   0   7  249.68   14.20
  -4   0   7  238.48   12.20
  -4   0   7  258.87   15.20
   3   0  -7  293.97   21.50
   3   0  -7  284.77   15.00
   3   0  -7  299.77   19.90
   3   0  -7  273.57   14.80
  -3   0   7  230.08   16.40
  -3   0   7  277.07   15.90
  -3   0   7  300.57   16.10
  -3   0   7  271.77   14.10
   2   0  -7   35.60    8.40
   2   0  -7   43.80    4.60
   2   0  -7   38.00    3.80
   2   0  -7   46.20    8.40
  -2   0   7   46.90    5.50
  -2   0   7   50.79    4.10
  -2   0   7   48.70    4.60
   1   0  -7  286.87   23.10
   1   0  -7  340.67   19.30
   1   0  -7  318.47   16.90
  -1   0   7  338.57   18.40
  -1   0   7  336.97   17.70
  -1   0   7  331.57   17.40
   0   0  -7    3.90    5.30
   0   0  -7    1.60    2.30
   0   0  -7   -0.50    3.30
   0   0   7    7.60    2.90
   0   0   7    8.20    2.60
   1   0   7 1809.92   91.89
   1   0   7 2155.68   91.59
   1   0   7 1917.41   91.49
  -2   0  -7   63.49    7.40
   2   0   7   85.09    7.00
   2   0   7   92.19    7.20
   2   0   7   85.79    7.90
  -3   0  -7   39.20    5.30
  -3   0  -7   35.10    8.60
  -3   0  -7   18.30    9.00
   3   0   7   52.79    6.30
   3   0   7   48.30    6.60
   3   0   7   45.80    5.30
  -4   0  -7    3.10    4.10
  -4   0  -7    5.60    2.40
  -4   0  -7    5.00    6.30
   4   0   7    2.00    2.20
   4   0   7    1.60    3.10
   4   0   7    4.60    2.40
  -5   0  -7  135.39    9.20
  -5   0  -7  138.79   15.60
  -5   0  -7  109.09   21.70
   5   0   7  131.39   10.50
   5   0   7  128.59   11.50
   5   0   7  123.49    8.80
  -6   0  -7   13.70    3.30
  -6   0  -7   10.60    9.10
  -6   0  -7   15.20    7.00
   6   0   7    8.90    3.60
   6   0   7   14.40    4.90
  -7   0  -7    8.90    6.90
  -7   0  -7    6.60    9.70
   7   0   7    4.90    3.70
   7   0   7    3.40    4.50
   7  -1  -7    9.70    6.70
  -7   1   7    8.30    5.60
  -7   1   7   16.20    4.60
   6  -1  -7   70.09   12.70
   6  -1  -7   72.89   11.90
  -6   1   7   67.79    7.80
  -6   1   7   69.49    5.90
   5  -1  -7   74.19   11.60
   5  -1  -7   61.59   11.00
   5  -1  -7   77.29    5.70
  -5   1   7   73.29    6.30
  -5   1   7   87.09    7.80
   4  -1  -7  233.38   12.30
   4  -1  -7  239.58   18.00
   4  -1  -7  234.98   18.70
  -4   1   7  219.48   13.50
  -4   1   7  247.18   13.90
  -4   1   7  217.48   14.20
   3  -1  -7    2.20    3.30
   3  -1  -7    2.10    1.10
   3  -1  -7    3.10    1.00
   3  -1  -7    4.40    3.20
  -3   1   7    3.20    2.10
  -3   1   7    3.10    1.80
  -3   1   7    2.00    2.20
  -3   1   7    2.50    1.10
   2  -1  -7   39.40    3.30
   2  -1  -7   38.30    7.80
   2  -1  -7   32.80    2.90
   2  -1  -7   33.10    6.50
   2  -1  -7   39.80    3.20
  -2   1   7   39.10    3.90
  -2   1   7   40.30    5.40
  -2   1   7   37.30    4.20
   1  -1  -7   85.59    6.10
   1  -1  -7   94.69    6.50
   1  -1  -7   60.69   10.60
   1  -1  -7   77.09    5.00
   1  -1  -7   71.29   11.00
  -1   1   7   78.99    7.00
  -1   1   7   75.19    6.30
   0  -1  -7    1.30    4.40
   0  -1  -7    1.90    3.20
   0  -1  -7    4.40    1.40
   0  -1  -7    0.00    2.20
   0   1   7    1.00    1.30
   0   1   7    3.10    2.00
   0   1   7    4.20    2.00
  -1  -1  -7  531.75   33.50
   1   1   7  668.73   32.60
   1   1   7  712.13   31.50
   1   1   7  638.44   32.00
  -2  -1  -7    0.00    3.80
  -2  -1  -7    0.70    2.00
  -2  -1  -7   -0.50    3.00
   2   1   7    0.50    1.50
   2   1   7    0.10    2.00
   2   1   7   -0.30    1.40
  -3  -1  -7    2.50    5.00
  -3  -1  -7    0.40    1.70
  -3  -1  -7   -1.00    3.20
   3   1   7    0.10    1.50
   3   1   7    0.50    1.50
   3   1   7    2.40    1.90
  -4  -1  -7  145.59   19.20
  -4  -1  -7  175.58   11.30
  -4  -1  -7  174.48   16.80
   4   1   7  198.68   11.90
   4   1   7  180.68   11.10
   4   1   7  186.48   12.90
  -5  -1  -7   33.40    4.70
  -5  -1  -7   27.80   10.50
  -5  -1  -7   37.20    9.20
   5   1   7   32.00    4.40
   5   1   7   30.60    5.00
   5   1   7   25.90    5.40
  -6  -1  -7   56.99    6.30
  -6  -1  -7   70.29   17.40
  -6  -1  -7   52.09   10.90
   6   1   7   57.99    5.60
   6   1   7   45.30    6.60
   6   1   7   52.79    7.90
  -7  -1  -7   -0.50    5.00
  -7  -1  -7    3.00    2.50
  -7  -1  -7    5.30    7.50
   7   1   7    1.00    3.50
   7   1   7    1.90    2.80
  -8  -1  -7    4.80    6.70
  -8  -1  -7    8.60   10.70
   8   1   7   -2.00    3.50
   8   1   7    6.60    4.50
   7  -2  -7    5.70    5.50
  -7   2   7    4.70    3.40
  -7   2   7    2.10    5.20
   6  -2  -7   38.50    9.30
  -6   2   7   29.60    5.60
   5  -2  -7   33.00    8.10
   5  -2  -7   27.30    7.00
  -5   2   7   34.70    4.50
  -5   2   7   35.20    5.50
   4  -2  -7  209.48   16.70
   4  -2  -7  211.28   10.70
   4  -2  -7  215.08   17.30
  -4   2   7  204.08   12.90
  -4   2   7  177.18   12.30
  -4   2   7  233.08   13.50
   3  -2  -7  508.15   28.80
   3  -2  -7  482.85   28.50
   3  -2  -7  477.55   21.90
  -3   2   7  499.05   24.90
  -3   2   7  460.55   25.00
  -3   2   7  416.26   22.80
  -3   2   7  476.65   22.20
   2  -2  -7    1.10    1.00
   2  -2  -7   -0.20    2.30
   2  -2  -7    0.70    2.40
  -2   2   7   -1.00    1.70
  -2   2   7   -2.10    1.10
  -2   2   7    0.10    1.30
   1  -2  -7   87.49    4.70
   1  -2  -7   84.49    5.40
   1  -2  -7   97.29   10.20
   1  -2  -7   68.89   11.20
   1  -2  -7   82.59    4.30
  -1   2   7   82.49    6.20
  -1   2   7   73.19    6.60
   0  -2  -7  211.68   10.60
   0   2   7  200.08   12.40
   0   2   7  220.58   12.20
   0   2   7  213.58   11.00
  -1  -2  -7 1724.03   72.09
  -1  -2  -7 1519.75   75.89
   1   2   7 1580.44   72.89
   1   2   7 1635.54   73.09
   1   2   7 1595.64   72.09
   1   2   7 1326.27   79.39
  -2  -2  -7   65.29    6.60
   2   2   7   62.39    5.10
   2   2   7   70.89    6.00
   2   2   7   73.09    5.40
  -3  -2  -7    4.70    2.10
  -3  -2  -7    4.30    4.90
  -3  -2  -7    2.40    3.60
   3   2   7    4.50    1.70
   3   2   7    7.80    2.60
   3   2   7    5.40    2.00
  -4  -2  -7   20.80    7.90
  -4  -2  -7   20.40    6.50
  -4  -2  -7   22.60    4.00
   4   2   7   23.70    3.20
   4   2   7   34.60    5.20
   4   2   7   24.10    3.80
  -5  -2  -7  171.28   11.60
  -5  -2  -7  158.48   19.20
  -5  -2  -7  159.88   16.30
   5   2   7  168.48   12.20
   5   2   7  182.28   11.90
   5   2   7  168.88   10.10
  -6  -2  -7   10.60    3.40
  -6  -2  -7   12.00    6.10
  -6  -2  -7   10.00    7.50
   6   2   7   10.10    2.40
   6   2   7    8.10    3.70
   6   2   7    6.40    2.90
  -7  -2  -7  125.69   10.60
  -7  -2  -7  126.49   22.60
  -7  -2  -7  134.89   16.30
   7   2   7  124.79   11.70
   7   2   7  130.59   10.80
  -8  -2  -7    0.60    4.90
  -8  -2  -7    3.10    3.40
  -8  -2  -7    2.00    8.90
   8   2   7    1.30    3.50
   8   2   7    1.90    3.70
   7  -3  -7    1.50    5.10
  -7   3   7    1.50    2.90
  -7   3   7   -2.40    4.60
   6  -3  -7    7.00    5.00
  -6   3   7    2.90    4.20
  -6   3   7    4.20    2.80
   5  -3  -7    1.80    3.30
   5  -3  -7    0.00    3.80
  -5   3   7    1.70    2.00
  -5   3   7    3.20    2.40
   4  -3  -7  113.19   11.60
   4  -3  -7  106.99   11.60
  -4   3   7  111.39    8.70
  -4   3   7   97.99    8.40
   3  -3  -7    7.50    3.60
   3  -3  -7    2.60    3.00
  -3   3   7    7.80    2.50
  -3   3   7    7.00    1.20
  -3   3   7    6.40    2.70
  -3   3   7    7.30    1.60
   2  -3  -7  220.48   15.00
   2  -3  -7  240.08   16.90
   2  -3  -7  224.08   11.60
  -2   3   7  213.28   13.30
  -2   3   7  213.78   11.60
  -2   3   7  226.28   13.30
   1  -3  -7   48.20    3.70
   1  -3  -7   22.20    5.80
   1  -3  -7   41.90    5.30
   1  -3  -7   42.30    8.60
  -1   3   7   39.50    3.50
  -1   3   7   34.30    4.30
   0  -3  -7  510.35   23.40
   0  -3  -7  464.75   28.70
   0   3   7  503.15   23.40
   0   3   7  513.35   24.60
   0   3   7  518.95   25.10
  -1  -3  -7  386.36   23.10
  -1  -3  -7  413.66   19.40
   1   3   7  383.46   19.90
   1   3   7  385.96   19.90
   1   3   7  387.16   19.10
   1   3   7  411.06   24.70
  -2  -3  -7   55.99    5.80
  -2  -3  -7   57.89    6.10
   2   3   7   57.59    4.50
   2   3   7   52.39    4.20
   2   3   7   57.39    4.90
  -3  -3  -7  135.49    9.30
  -3  -3  -7   89.49   12.20
  -3  -3  -7   87.19   12.60
   3   3   7  134.09    8.60
   3   3   7  131.49    8.10
   3   3   7  132.79    7.70
  -4  -3  -7  477.55   32.40
  -4  -3  -7  494.15   26.70
  -4  -3  -7  489.15   34.20
   4   3   7  513.05   25.00
   4   3   7  530.55   26.30
   4   3   7  521.55   26.00
  -5  -3  -7   -0.20    6.60
  -5  -3  -7    3.30    4.00
  -5  -3  -7   -0.50    2.10
   5   3   7   -1.40    1.80
   5   3   7    1.50    1.40
   5   3   7   -0.90    1.70
  -6  -3  -7   34.30    5.60
  -6  -3  -7   32.60   10.60
  -6  -3  -7   33.20    8.80
   6   3   7   29.80    5.10
   6   3   7   28.10    3.60
   6   3   7   24.30    4.80
  -7  -3  -7   -0.90    2.80
  -7  -3  -7    0.90    5.10
  -7  -3  -7   -0.80    3.90
   7   3   7    2.50    1.70
   7   3   7    2.30    2.80
   7   3   7   -0.30    2.20
  -8  -3  -7   59.99   16.60
  -8  -3  -7   31.50   10.20
  -8  -3  -7   43.70    7.30
   8   3   7   41.70    7.20
   8   3   7   43.70    7.20
   6  -4  -7   29.90    8.20
  -6   4   7   29.40    5.40
  -6   4   7   33.00    8.50
   5  -4  -7    4.70    4.00
  -5   4   7    5.40    2.70
   4  -4  -7    5.00    3.60
   4  -4  -7    6.20    4.30
  -4   4   7    5.00    2.60
  -4   4   7    1.20    2.10
   3  -4  -7   63.59    7.80
   3  -4  -7   56.49    8.50
  -3   4   7   58.49    4.10
  -3   4   7   66.29    6.30
  -3   4   7   68.09    6.20
   2  -4  -7   42.50    5.60
   2  -4  -7   54.09    7.20
  -2   4   7   42.20    5.00
  -2   4   7   42.00    3.40
  -2   4   7   40.70    3.70
   1  -4  -7   16.00    3.20
   1  -4  -7    9.80    4.20
   1  -4  -7    4.50    3.40
  -1   4   7   14.30    2.20
  -1   4   7    2.70    3.60
  -1   4   7   15.40    2.80
   0  -4  -7   35.70    7.20
   0  -4  -7   64.79    5.10
   0   4   7   57.39    4.50
   0   4   7   54.69    3.20
   0   4   7   55.09    4.70
  -1  -4  -7  398.36   23.40
  -1  -4  -7  399.56   19.80
   1   4   7  379.06   19.20
   1   4   7  412.66   20.20
   1   4   7  410.76   20.30
  -2  -4  -7  340.67   18.20
  -2  -4  -7  312.37   19.00
   2   4   7  322.37   16.90
   2   4   7  337.77   17.40
   2   4   7  320.57   16.60
  -3  -4  -7   10.40    3.10
  -3  -4  -7   11.60    5.50
  -3  -4  -7    9.50    4.90
   3   4   7   13.70    2.80
   3   4   7   10.70    2.40
   3   4   7   13.60    2.50
  -4  -4  -7  218.38   14.00
  -4  -4  -7  222.18   19.10
  -4  -4  -7  204.98   18.80
   4   4   7  231.38   13.00
   4   4   7  209.28   12.80
   4   4   7  201.78   12.00
  -5  -4  -7  157.48   11.80
  -5  -4  -7  159.68   16.20
  -5  -4  -7  149.69   16.50
   5   4   7  162.78    9.90
   5   4   7  161.88   11.00
   5   4   7  175.98   11.10
  -6  -4  -7  185.98   19.60
  -6  -4  -7  152.28   16.90
  -6  -4  -7  171.08   12.70
   6   4   7  171.98   11.90
   6   4   7  170.98   10.50
   6   4   7  192.18   12.50
  -7  -4  -7   27.50    8.50
  -7  -4  -7   41.60   11.90
  -7  -4  -7   42.00    6.80
   7   4   7   32.50    4.20
   7   4   7   37.70    5.80
   7   4   7   28.90    5.40
  -8  -4  -7   27.40    9.50
  -8  -4  -7   25.80   11.70
  -8  -4  -7   17.10    5.40
   8   4   7   15.80    4.40
   8   4   7   23.10    5.20
  -6   5   7    2.00    4.00
  -5   5   7    1.20    2.10
  -5   5   7    1.40    3.70
   4  -5  -7  297.07   20.60
   4  -5  -7  293.77   19.80
  -4   5   7  227.38   16.20
  -4   5   7  311.77   17.10
   3  -5  -7   15.90    5.10
   3  -5  -7   10.70    3.60
  -3   5   7   10.00    2.90
  -3   5   7   10.50    2.90
   2  -5  -7   17.00    4.70
   2  -5  -7    6.60    3.90
   2  -5  -7   17.60    3.60
  -2   5   7   13.40    2.80
  -2   5   7   17.80    2.40
   1  -5  -7   14.00    2.40
   1  -5  -7   16.80    4.90
   1  -5  -7    9.00    4.50
  -1   5   7   17.90    2.90
  -1   5   7   11.10    2.20
   0  -5  -7   41.10    8.50
   0  -5  -7   31.40    7.20
   0   5   7   44.10    4.10
   0   5   7   33.30    3.90
   0   5   7   42.30    2.80
  -1  -5  -7  610.94   32.60
  -1  -5  -7  594.64   29.10
   1   5   7  555.74   28.70
   1   5   7  569.44   27.80
   1   5   7  614.94   29.10
  -2  -5  -7   93.89    8.60
   2   5   7  104.69    7.30
   2   5   7  100.69    6.60
   2   5   7   92.69    6.90
  -3  -5  -7   16.40    6.20
  -3  -5  -7   22.10    4.20
  -3  -5  -7   32.50    4.60
  -3  -5  -7   18.60    5.80
   3   5   7   29.40    3.80
   3   5   7   30.00    4.10
   3   5   7   29.20    3.70
  -4  -5  -7    1.40    3.40
  -4  -5  -7    1.20    2.30
  -4  -5  -7   -0.70    3.20
   4   5   7   -1.30    1.60
   4   5   7   -0.10    1.60
  -5  -5  -7  228.78   19.30
  -5  -5  -7  197.08   18.80
  -5  -5  -7  205.08   14.30
   5   5   7  197.58   12.90
   5   5   7  202.48   13.20
  -6  -5  -7   31.40    5.90
  -6  -5  -7   30.80    9.70
  -6  -5  -7   24.60    7.90
   6   5   7   25.00    4.60
   6   5   7   24.00    4.50
   6   5   7   22.20    3.60
  -7  -5  -7    6.50    5.40
  -7  -5  -7    7.10    6.20
  -7  -5  -7    5.40    3.70
   7   5   7    3.00    2.80
   7   5   7    4.60    2.40
   7   5   7    1.30    2.50
  -8  -5  -7   25.20    9.40
  -8  -5  -7   16.40    5.40
  -8  -5  -7   12.50    8.70
   8   5   7   21.00    3.90
   8   5   7   16.20    4.60
   8   5   7   19.80    5.20
  -4   6   7   36.00    5.20
  -4   6   7   42.30    8.30
   3  -6  -7   13.30    4.40
  -3   6   7   11.30    3.10
  -3   6   7   13.80    3.50
   2  -6  -7   10.30    3.60
   2  -6  -7    1.50    3.50
  -2   6   7   10.60    2.60
  -2   6   7    6.00    2.00
   1  -6  -7   96.89    9.10
  -1   6   7   88.39    6.60
  -1   6   7   95.79    6.80
   0  -6  -7   17.60    6.60
   0  -6  -7   23.20    5.80
   0   6   7   26.70    2.60
   0   6   7   25.50    3.70
   0   6   7   28.20    3.80
  -1  -6  -7   53.79    8.00
   1   6   7   48.70    4.90
   1   6   7   49.30    4.80
   1   6   7   45.90    4.00
  -2  -6  -7   73.69    8.00
   2   6   7   76.19    6.60
   2   6   7   83.79    6.10
  -3  -6  -7  528.75   28.10
  -3  -6  -7  488.05   28.80
   3   6   7  568.64   27.80
   3   6   7  553.84   27.30
  -4  -6  -7  428.86   24.70
  -4  -6  -7  398.06   27.00
  -4  -6  -7  447.66   23.70
   4   6   7  441.36   23.30
   4   6   7  444.26   23.20
  -5  -6  -7  101.19   12.00
  -5  -6  -7   90.59   14.60
  -5  -6  -7  101.79    8.70
  -5  -6  -7  100.09    9.50
   5   6   7  101.59    8.60
   5   6   7  101.09    8.40
  -6  -6  -7   51.79   11.10
  -6  -6  -7   44.40    7.20
  -6  -6  -7   44.80   10.50
  -6  -6  -7   57.59    7.00
   6   6   7   44.80    6.10
   6   6   7   47.50    6.80
  -7  -6  -7   26.80    6.00
  -7  -6  -7   32.00   10.20
  -7  -6  -7   40.90   10.70
   7   6   7   41.10    6.40
   7   6   7   27.30    5.10
  -8  -6  -7   27.50   10.50
  -8  -6  -7   28.30    6.70
  -8  -6  -7   28.50    9.80
   8   6   7   32.70    6.00
   8   6   7   37.20    7.00
   8   6   7   32.30    4.70
  -3   7   7    1.10    2.10
  -2   7   7   -0.30    1.60
  -2   7   7    2.80    1.90
   1  -7  -7   11.50    5.20
  -1   7   7   23.00    3.70
  -1   7   7   18.30    3.40
   0  -7  -7   46.20    6.30
   0  -7  -7   29.40    7.70
   0   7   7   44.50    4.10
   0   7   7   47.10    4.90
   0   7   7   60.09    6.10
  -1  -7  -7   89.59   10.20
  -1  -7  -7   73.69   10.00
   1   7   7   92.19    6.40
   1   7   7   94.69    7.40
  -2  -7  -7   -0.20    3.50
  -2  -7  -7    1.20    2.60
  -2  -7  -7   -1.70    1.90
   2   7   7    0.10    1.60
   2   7   7   -1.30    1.80
  -3  -7  -7    5.80    2.70
  -3  -7  -7    5.20    3.10
  -3  -7  -7    1.70    3.70
   3   7   7   -0.80    2.10
   3   7   7    1.40    2.00
  -4  -7  -7    3.70    4.00
  -4  -7  -7    1.70    2.60
  -4  -7  -7    4.30    2.90
   4   7   7    6.00    2.70
   4   7   7    1.10    2.30
  -5  -7  -7   70.79    8.10
  -5  -7  -7   53.19   11.80
  -5  -7  -7   70.29    9.40
   5   7   7   77.89    7.40
   5   7   7   75.99    7.30
  -6  -7  -7    1.20    3.20
  -6  -7  -7    1.90    5.40
  -6  -7  -7   -0.10    2.30
   6   7   7    3.00    3.00
   6   7   7    2.90    2.60
  -7  -7  -7    9.20    6.40
  -7  -7  -7    2.20    3.20
  -7  -7  -7    4.90    4.00
   7   7   7    8.50    3.80
   7   7   7    3.30    3.00
  -2   8   7    0.70    2.00
   1  -8  -7    2.80    4.20
  -1   8   7    3.00    2.40
  -1   8   7    9.00    2.70
   0  -8  -7   -0.40    4.00
   0   8   7    0.10    2.10
   0   8   7    1.40    1.80
  -1  -8  -7    1.20    3.50
   1   8   7    1.50    2.20
   1   8   7    2.20    2.20
  -2  -8  -7  142.99   10.80
  -2  -8  -7  130.09   12.00
   2   8   7  138.59   10.40
   2   8   7  134.99    9.50
  -3  -8  -7   19.40    4.80
  -3  -8  -7   26.00    5.80
   3   8   7   24.70    4.70
   3   8   7   18.40    3.90
  -4  -8  -7   -0.90    2.50
  -4  -8  -7    2.00    3.70
  -4  -8  -7   -0.80    2.10
   4   8   7    3.70    2.90
   4   8   7    0.40    2.10
  -5  -8  -7   -1.60    2.40
  -5  -8  -7    0.00    2.90
  -5  -8  -7    0.70    5.10
   5   8   7    1.60    2.70
   5   8   7   -0.40    2.50
  -6  -8  -7   15.70    8.00
  -6  -8  -7   17.00    5.30
  -6  -8  -7   13.70    4.80
   6   8   7   14.50    4.30
   6   8   7   13.50    4.40
  -7  -8  -7    2.90    3.70
  -7  -8  -7    5.50    3.70
  -7  -8  -7    1.20    5.40
   7   8   7    1.80    3.20
   7   8   7    6.30    3.90
  -1   9   7    3.10    4.00
  -1   9   7    0.80    1.90
   0  -9  -7    4.00    5.10
   0   9   7    3.80    2.60
   0   9   7    5.30    3.40
  -1  -9  -7    9.70    5.20
   1   9   7    1.40    2.60
  -2  -9  -7    0.60    2.90
  -2  -9  -7    5.00    4.30
   2   9   7    0.40    2.60
  -3  -9  -7   50.59    7.40
  -3  -9  -7   38.70    7.10
   3   9   7   54.49    6.80
   3   9   7   39.20    6.30
  -4  -9  -7    4.80    3.60
  -4  -9  -7   -0.90    2.90
   4   9   7    1.30    3.10
   4   9   7    0.90    2.90
  -5  -9  -7    1.80    3.20
  -5  -9  -7   -0.90    3.00
   5   9   7   -1.30    2.60
   5   9   7    0.20    3.20
  -6  -9  -7    0.60    3.20
  -6  -9  -7    2.20    3.90
   6   9   7    0.30    3.20
   6   9   7    1.90    3.50
  -2 -10  -7  173.88   16.80
  -2 -10  -7  186.68   14.50
   2  10   7  191.68   14.20
  -3 -10  -7   17.70    5.30
  -3 -10  -7    6.60    4.80
   3  10   7    9.70    4.10
   3   7  -8   -6.50   10.30
   3   7  -8    8.50    5.80
  -3  -7   8   -0.10    3.50
  -3  -7   8   -1.10    3.20
   2   7  -8    1.30    5.40
   2   7  -8   -1.90   12.10
  -2  -7   8    1.70    3.40
  -2  -7   8    0.40    3.60
   1   7  -8   -1.30    5.60
   1   7  -8   -1.10   11.00
  -1  -7   8    5.60    3.90
  -1  -7   8    3.10    4.30
   5   6  -8   55.29   10.20
   5   6  -8   42.50   14.50
   5   6  -8   51.09   10.00
  -5  -6   8   37.00    6.80
  -5  -6   8   59.09    8.90
  -5  -6   8   46.20    8.20
   4   6  -8    1.90    8.80
   4   6  -8   -3.20    4.20
   4   6  -8    1.90    4.40
  -4  -6   8    7.70    4.10
  -4  -6   8    1.10    3.00
  -4  -6   8    2.10    3.10
   3   6  -8   39.20   15.00
   3   6  -8   34.40    8.80
  -3  -6   8   28.60    6.00
  -3  -6   8   30.50    6.60
  -3  -6   8   26.00    5.40
   2   6  -8    7.70   11.00
   2   6  -8    0.70    5.60
  -2  -6   8    3.60    3.10
  -2  -6   8    2.90    3.50
   1   6  -8   20.60    7.90
   1   6  -8   21.00   12.70
  -1  -6   8   37.20    6.40
  -1  -6   8   36.40    6.50
   0   6  -8    0.10    9.70
   0   6  -8   -3.00    5.40
   0  -6   8    5.10    3.70
   0  -6   8    6.60    3.70
  -1   6  -8   12.30    9.30
  -1   6  -8   -7.40    9.50
   1  -6   8    3.10    3.70
   1  -6   8   -0.30    2.80
  -2   6  -8   -0.80    8.40
  -2   6  -8    3.40   12.00
   2  -6   8   -4.20    3.10
   6   5  -8   16.80    9.90
   6   5  -8   14.10    5.30
  -6  -5   8    8.70    4.40
  -6  -5   8    6.10    3.90
   5   5  -8    0.00    3.90
   5   5  -8   -2.30    2.80
   5   5  -8   -5.60    5.80
  -5  -5   8    1.30    2.90
  -5  -5   8   -2.50    2.70
  -5  -5   8   -1.00    2.30
   4   5  -8   30.90    7.80
   4   5  -8   35.00    8.00
   4   5  -8   25.40   11.30
  -4  -5   8   30.20    6.00
  -4  -5   8   30.70    5.60
  -4  -5   8   34.70    6.20
   3   5  -8    0.00    2.70
   3   5  -8   -1.00    8.30
   3   5  -8   -2.60    3.40
  -3  -5   8   -2.00    2.10
  -3  -5   8   -1.10    2.10
  -3  -5   8   -1.50    2.20
   2   5  -8  160.68   13.80
   2   5  -8   79.19   20.50
   2   5  -8  121.99   16.20
  -2  -5   8  133.09   10.80
  -2  -5   8  139.39   10.40
  -2  -5   8  135.99   11.00
   1   5  -8   18.40   11.80
   1   5  -8   39.60    8.40
   1   5  -8   60.39   12.10
  -1  -5   8   42.50    5.50
  -1  -5   8   46.90    6.80
  -1  -5   8   60.29    7.80
   0   5  -8    4.00    8.90
   0   5  -8   -0.10    5.30
   0   5  -8    4.00    5.30
   0  -5   8    1.90    2.40
   0  -5   8   -0.20    2.30
  -1   5  -8    0.70   10.10
  -1   5  -8   -0.90    5.90
  -1   5  -8   -1.80    5.90
   1  -5   8    0.20    2.40
   1  -5   8   -0.90    2.30
  -2   5  -8    1.90    7.70
  -2   5  -8    1.50    9.50
   2  -5   8    0.80    3.10
   2  -5   8    4.00    2.80
  -3   5  -8   -0.20   10.50
  -3   5  -8    0.10    9.70
   3  -5   8    2.30    3.70
   7   4  -8    0.30    3.20
   7   4  -8    0.60    6.80
  -7  -4   8    5.10    4.00
  -7  -4   8    1.00    5.00
  -7  -4   8    3.60    3.20
   6   4  -8   36.30    7.20
   6   4  -8   32.30    8.60
   6   4  -8   41.30   12.40
  -6  -4   8   38.90    6.90
  -6  -4   8   41.30    7.70
   5   4  -8    5.20    6.10
   5   4  -8    4.20    3.20
   5   4  -8    4.10    4.60
  -5  -4   8    1.20    2.90
  -5  -4   8    3.40    2.80
  -5  -4   8    4.80    3.30
   4   4  -8  284.57   27.70
   4   4  -8  244.88   18.40
   4   4  -8  253.27   19.70
  -4  -4   8  248.98   16.80
  -4  -4   8  242.28   15.50
  -4  -4   8  258.27   16.30
   3   4  -8   52.59    8.70
   3   4  -8   61.39   16.90
   3   4  -8   50.99    8.90
  -3  -4   8   43.70    6.30
  -3  -4   8   48.80    6.70
  -3  -4   8   38.80    5.90
   2   4  -8   57.59   10.00
   2   4  -8   39.90   14.80
   2   4  -8   58.19    9.60
  -2  -4   8   68.49    7.80
  -2  -4   8   60.09    6.40
  -2  -4   8   63.69    7.60
   1   4  -8  259.97   21.40
   1   4  -8  294.67   22.00
   1   4  -8  171.98   27.40
  -1  -4   8  259.67   15.90
  -1  -4   8  262.57   15.10
  -1  -4   8  276.37   16.30
   0   4  -8    1.80    5.60
   0   4  -8   -0.10    7.70
   0   4  -8   -1.50    4.40
   0  -4   8   -0.90    2.20
   0  -4   8   -0.60    1.60
   0  -4   8   -1.70    1.70
  -1   4  -8   65.99   13.80
   1  -4   8   85.39    8.20
   1  -4   8   84.59    7.40
  -2   4  -8   11.20   12.10
  -2   4  -8   26.40   10.70
  -2   4  -8    2.00    5.70
   2  -4   8   19.10    4.60
   2  -4   8   20.10    4.00
  -3   4  -8   12.70   10.80
   3  -4   8   57.19    6.60
   3  -4   8   51.29    7.00
  -4   4  -8    4.70   11.00
  -4   4  -8    3.60    6.90
   4  -4   8   13.90    4.80
   4  -4   8    9.50    5.00
   7   3  -8   41.60   12.80
   7   3  -8   57.19    7.90
  -7  -3   8   52.09    7.30
  -7  -3   8   54.29    8.70
   6   3  -8    0.20    2.70
   6   3  -8    1.60    4.50
   6   3  -8   -0.10    5.10
  -6  -3   8    1.80    2.40
  -6  -3   8    1.50    2.90
   5   3  -8    0.10    3.60
   5   3  -8   -1.20    2.30
   5   3  -8   -1.70    4.60
  -5  -3   8    1.80    2.60
  -5  -3   8   -1.00    1.60
  -5  -3   8   -0.40    1.60
   4   3  -8    0.50    2.60
   4   3  -8   -2.50    4.20
   4   3  -8    0.70    3.70
  -4  -3   8   -0.60    2.20
  -4  -3   8    1.40    2.40
  -4  -3   8    2.20    2.10
   3   3  -8   14.40    4.50
   3   3  -8   17.60    5.80
   3   3  -8   10.20    7.90
  -3  -3   8   14.40    3.80
  -3  -3   8   10.20    3.30
  -3  -3   8   13.70    3.30
   2   3  -8    4.60    4.20
   2   3  -8    6.20    4.50
   2   3  -8    6.10    7.40
  -2  -3   8    3.90    2.40
  -2  -3   8    7.50    2.80
  -2  -3   8    3.20    2.30
   1   3  -8   64.09   17.70
   1   3  -8  106.39   14.00
   1   3  -8   96.39   13.50
  -1  -3   8  124.19    8.70
  -1  -3   8   99.59    7.60
  -1  -3   8  112.29    8.50
   0   3  -8    0.20    4.60
   0   3  -8    1.30    7.60
   0   3  -8   -2.80    4.10
   0  -3   8    3.40    2.50
   0  -3   8    3.40    1.80
   0  -3   8    7.90    2.90
  -1   3  -8  190.78   20.10
   1  -3   8  214.88   13.20
   1  -3   8  241.78   14.50
   1  -3   8  205.58   11.80
   2  -3   8   73.29    8.40
   2  -3   8   64.99    8.50
   2  -3   8   68.39    6.20
   3  -3   8  159.88   13.50
   3  -3   8  189.68   13.30
   3  -3   8  177.38   11.10
  -4   3  -8   24.50    9.30
  -4   3  -8   14.40   12.40
   4  -3   8   43.80    6.50
   4  -3   8   47.10    7.90
  -5   3  -8   14.00    8.40
  -5   3  -8    8.70   12.50
   5  -3   8   30.30    6.10
   5  -3   8   13.20    5.60
   7   2  -8    1.70    5.50
   7   2  -8    1.10    2.60
  -7  -2   8    3.60    4.00
  -7  -2   8    3.20    2.70
   6   2  -8   32.90   10.00
   6   2  -8   40.00    6.10
   6   2  -8   44.60   10.10
  -6  -2   8   40.80    7.10
  -6  -2   8   43.10    6.00
   5   2  -8    2.90    4.80
   5   2  -8    1.40    2.50
   5   2  -8    6.20    4.60
  -5  -2   8    7.50    2.30
  -5  -2   8    4.10    3.00
  -5  -2   8    0.00    2.10
   4   2  -8   15.60    3.90
   4   2  -8    8.10    6.60
   4   2  -8   11.20    5.20
  -4  -2   8   15.20    3.00
  -4  -2   8   19.00    5.20
  -4  -2   8   12.60    4.00
   3   2  -8   93.49   11.20
   3   2  -8   74.39   14.60
   3   2  -8   78.99    9.30
  -3  -2   8   98.39    7.80
  -3  -2   8   85.09    6.80
  -3  -2   8   90.79    7.90
   2   2  -8    2.60    6.20
   2   2  -8    2.70    3.00
   2   2  -8    4.30    4.10
  -2  -2   8    2.40    2.10
  -2  -2   8    0.40    1.90
  -2  -2   8    1.40    1.80
   1   2  -8   26.00    7.90
   1   2  -8   25.70    6.40
   1   2  -8   12.60    9.00
  -1  -2   8   31.80    4.20
  -1  -2   8   28.00    4.50
  -1  -2   8   42.90    5.20
   0   2  -8   54.79   10.30
   0   2  -8   24.50   11.60
   0  -2   8   59.59    5.00
   0  -2   8   65.79    6.10
   0  -2   8   68.59    6.50
   1  -2   8  368.76   20.20
   1  -2   8  331.87   18.90
   1  -2   8  337.67   17.60
  -2   2  -8    8.50    8.80
  -2   2  -8    4.30    5.00
   2  -2   8   19.40    2.70
   2  -2   8   23.20    4.90
   2  -2   8   17.90    3.60
   2  -2   8   13.30    4.00
   3  -2   8   83.59    6.70
   3  -2   8   73.59    9.00
   3  -2   8   82.19    9.20
  -4   2  -8    4.80    8.70
  -4   2  -8   11.20    7.30
   4  -2   8   29.80    5.90
   4  -2   8   34.00    4.30
   4  -2   8   34.20    6.10
  -5   2  -8    3.90   10.20
  -5   2  -8    3.40    6.30
   5  -2   8    2.00    3.30
   5  -2   8    1.70    3.00
  -6   2  -8   10.70    8.60
  -6   2  -8    6.20   11.90
   6  -2   8   16.00    5.60
   6  -2   8   12.60    4.90
   7   1  -8    1.20    6.10
  -7  -1   8    3.60    3.80
  -7  -1   8    1.60    2.50
   6   1  -8    1.10    2.10
   6   1  -8    6.80    6.10
   6   1  -8    3.50    4.70
  -6  -1   8    2.60    2.30
  -6  -1   8    3.00    2.90
   5   1  -8    5.50    2.50
   5   1  -8    3.50    5.00
   5   1  -8   13.10    5.60
  -5  -1   8    5.40    2.90
  -5  -1   8    7.40    2.00
  -5  -1   8    5.20    2.50
   4   1  -8   11.30    6.10
   4   1  -8   13.00    3.10
   4   1  -8   18.20    6.40
  -4  -1   8    9.10    3.10
  -4  -1   8   13.00    3.30
  -4  -1   8   15.50    2.70
   3   1  -8  153.68   10.90
   3   1  -8  153.58   14.50
   3   1  -8  154.18   17.40
  -3  -1   8  156.18    9.40
  -3  -1   8  145.19   10.50
  -3  -1   8  152.88   10.60
   2   1  -8   79.09    7.70
   2   1  -8  104.19   18.10
   2   1  -8   77.89   11.80
  -2  -1   8   69.99    6.30
  -2  -1   8   82.29    6.20
  -2  -1   8   62.29    6.40
   1   1  -8   34.20    9.00
   1   1  -8   51.39    8.00
   1   1  -8   31.30   10.90
  -1  -1   8   47.80    5.80
  -1  -1   8   43.30    5.10
  -1  -1   8   50.79    4.60
   0   1  -8   46.40    9.10
   0   1  -8   23.50   10.40
   0  -1   8   48.40    4.50
   0  -1   8   55.89    6.50
   0  -1   8   52.19    6.20
  -1   1  -8   -2.50    3.30
  -1   1  -8   -1.10    5.10
   1  -1   8    0.90    2.10
   1  -1   8    0.70    2.30
   1  -1   8    1.70    2.20
  -2   1  -8   21.40   10.10
  -2   1  -8   38.50    6.00
   2  -1   8   63.89    6.00
   2  -1   8   67.99    6.60
   2  -1   8   56.09    7.00
  -3   1  -8   15.40    8.90
  -3   1  -8    7.10    5.70
  -3   1  -8   13.30    4.00
   3  -1   8   25.00    5.40
   3  -1   8   23.60    4.80
   3  -1   8   22.90    3.80
  -4   1  -8    0.90    7.60
  -4   1  -8   11.00    3.90
  -4   1  -8    5.50    5.80
   4  -1   8    7.70    3.60
   4  -1   8    8.80    2.60
   4  -1   8    1.90    3.40
  -5   1  -8    8.80    9.90
  -5   1  -8   19.50    8.60
   5  -1   8   15.20    4.70
   5  -1   8   23.40    5.70
  -6   1  -8   11.40   11.30
  -6   1  -8   33.50   10.60
   6  -1   8   14.20    5.10
   6  -1   8   19.30    5.30
  -7   1  -8    6.10   11.90
  -7   1  -8    6.70    7.50
   7  -1   8    1.40    4.90
   7  -1   8    3.40    4.60
   7   0  -8  170.18   20.20
  -7   0   8  165.08   11.50
  -7   0   8  163.88   14.00
   6   0  -8  117.69    9.40
   6   0  -8  124.69   14.50
   6   0  -8  112.79   15.10
  -6   0   8  116.69    8.80
  -6   0   8  124.39   10.90
   5   0  -8   41.50    5.00
   5   0  -8   48.30   10.30
   5   0  -8   56.99   10.60
  -5   0   8   42.20    6.50
  -5   0   8   43.20    5.60
   4   0  -8  297.57   16.40
   4   0  -8  303.87   23.70
   4   0  -8  308.27   22.30
  -4   0   8  307.17   15.40
  -4   0   8  311.97   17.50
  -4   0   8  300.67   18.00
   3   0  -8    1.50    1.60
   3   0  -8    5.00    4.30
   3   0  -8    5.80    5.00
  -3   0   8    5.70    2.50
  -3   0   8    2.10    2.60
  -3   0   8    3.00    1.40
   2   0  -8   36.80    8.00
   2   0  -8   53.59   11.50
   2   0  -8   55.79    6.10
  -2   0   8   49.90    4.70
  -2   0   8   46.10    5.80
  -2   0   8   47.00    4.90
   1   0  -8    7.00    3.10
   1   0  -8   11.50    5.80
   1   0  -8    1.80    5.30
  -1   0   8    8.20    2.80
  -1   0   8    7.80    2.70
  -1   0   8    7.50    2.20
   0   0  -8   88.59   16.90
   0   0  -8   99.89   13.30
   0   0  -8  131.99   10.60
  -1   0  -8   11.50    5.70
  -1   0  -8   24.10    5.00
   1   0   8   34.40    5.00
   1   0   8   44.70    5.40
   1   0   8   41.10    5.80
  -2   0  -8   -0.50    4.90
  -2   0  -8   -1.30    3.60
  -2   0  -8    2.70    2.80
   2   0   8    1.80    2.40
   2   0   8    1.90    2.70
   2   0   8    1.30    2.00
  -3   0  -8   74.39    8.20
  -3   0  -8   54.79   11.80
   3   0   8   73.09    8.50
   3   0   8   91.39    7.80
   3   0   8   81.99    7.20
  -4   0  -8  222.48   13.90
  -4   0  -8  180.58   21.00
   4   0   8  194.28   12.80
   4   0   8  210.68   14.20
   4   0   8  208.38   15.30
  -5   0  -8    0.40    2.10
  -5   0  -8    2.10    4.90
  -5   0  -8   -1.50    6.00
   5   0   8    1.30    2.10
   5   0   8   -0.30    3.30
   5   0   8    0.40    2.50
  -6   0  -8   45.90    6.10
  -6   0  -8   43.30   11.10
  -6   0  -8   25.10   12.90
   6   0   8   43.20    7.40
   6   0   8   53.79    8.20
  -7   0  -8    7.40   10.40
  -7   0  -8    4.80    7.10
   7   0   8   -0.60    4.20
   7   0   8    7.20    4.50
   7  -1  -8   20.90    8.40
  -7   1   8   19.40    5.40
  -7   1   8   21.50    7.70
   6  -1  -8    6.40    4.90
   6  -1  -8    1.80    4.90
  -6   1   8    5.50    2.50
  -6   1   8    2.50    2.90
   5  -1  -8    2.50    4.50
   5  -1  -8   -0.70    3.70
   5  -1  -8    1.30    1.50
  -5   1   8    2.90    2.50
  -5   1   8    0.00    1.80
   4  -1  -8   74.09   10.20
   4  -1  -8   76.99   10.80
   4  -1  -8   84.59    5.60
  -4   1   8   87.09    7.70
  -4   1   8   77.89    4.60
  -4   1   8   78.49    7.10
   3  -1  -8 1789.62   88.99
   3  -1  -8 1727.93   80.39
   3  -1  -8 1748.72   80.19
   3  -1  -8 1901.11   88.49
  -3   1   8 1693.63   82.59
  -3   1   8 1734.43   80.19
  -3   1   8 1719.63   82.89
   2  -1  -8   17.10    2.50
   2  -1  -8    7.30    4.20
   2  -1  -8   17.30    6.30
   2  -1  -8   10.20    2.00
  -2   1   8   10.90    3.30
  -2   1   8   10.70    2.80
  -2   1   8   13.00    2.80
   1  -1  -8  164.68   17.60
   1  -1  -8  234.88   13.10
   1  -1  -8  220.98   11.20
   1  -1  -8  203.98   20.00
  -1   1   8  188.28   13.10
  -1   1   8  206.68   12.60
   0  -1  -8  639.64   30.20
   0   1   8  587.34   31.90
   0   1   8  565.74   32.00
   0   1   8  709.73   30.90
   1   1   8  174.18   11.70
   1   1   8  185.88   11.00
   1   1   8  168.38   12.00
  -2  -1  -8  618.44   33.60
   2   1   8  590.84   31.30
   2   1   8  638.34   31.10
   2   1   8  605.64   32.30
  -3  -1  -8   20.10    4.30
  -3  -1  -8    8.30    5.80
  -3  -1  -8    6.10    6.20
   3   1   8   15.90    3.40
   3   1   8   13.70    4.00
   3   1   8   14.00    3.20
  -4  -1  -8   27.50   10.80
  -4  -1  -8   58.69   11.80
  -4  -1  -8   62.59    6.50
   4   1   8   60.89    6.00
   4   1   8   61.29    8.00
   4   1   8   58.49    6.70
  -5  -1  -8    4.30    7.10
  -5  -1  -8   10.50    6.30
  -5  -1  -8    8.40    3.10
   5   1   8    7.80    4.20
   5   1   8    9.30    3.30
   5   1   8    6.10    2.50
  -6  -1  -8    2.60    8.40
  -6  -1  -8    3.90    5.50
  -6  -1  -8    0.30    2.20
   6   1   8   -2.30    2.80
   6   1   8    0.00    2.50
  -7  -1  -8   13.80   11.50
  -7  -1  -8    3.00    5.90
  -7  -1  -8    5.10    3.10
   7   1   8    1.20    3.60
   7   1   8    5.70    3.50
   7  -2  -8   12.00    7.20
  -7   2   8    8.00    4.00
  -7   2   8   12.70    6.90
   6  -2  -8    2.40    4.10
   6  -2  -8    2.40    4.10
  -6   2   8   -2.10    2.50
  -6   2   8   -1.00    2.50
   5  -2  -8    5.30    5.00
   5  -2  -8    1.80    4.00
  -5   2   8    5.10    2.30
  -5   2   8    2.40    2.50
   4  -2  -8    7.70    4.40
   4  -2  -8    7.80    4.70
  -4   2   8    6.00    2.70
  -4   2   8   -1.90    3.80
   3  -2  -8  372.16   25.30
   3  -2  -8  419.06   26.10
  -3   2   8  396.16   19.20
  -3   2   8  388.26   22.10
  -3   2   8  394.46   21.60
   2  -2  -8  341.67   21.80
   2  -2  -8  317.67   15.60
   2  -2  -8  349.77   23.30
  -2   2   8  303.37   17.40
  -2   2   8  276.37   16.40
  -2   2   8  287.07   18.00
   1  -2  -8  267.37   22.90
   1  -2  -8  322.17   15.50
   1  -2  -8  355.86   23.70
  -1   2   8  282.27   17.50
  -1   2   8  296.17   16.80
   0  -2  -8  522.95   23.10
   0   2   8  421.56   24.90
   0   2   8  508.15   23.50
   0   2   8  453.45   24.70
  -1  -2  -8  110.19   11.20
  -1  -2  -8  141.49    8.00
   1   2   8  126.09    9.10
   1   2   8  143.09    8.50
   1   2   8  133.39    9.30
  -2  -2  -8  245.78   16.10
   2   2   8  244.88   13.40
   2   2   8  231.58   13.80
   2   2   8  237.18   14.50
  -3  -2  -8  391.16   21.80
   3   2   8  380.36   20.40
   3   2   8  389.86   20.40
   3   2   8  380.56   21.60
  -4  -2  -8  541.85   28.50
  -4  -2  -8  509.45   35.70
   4   2   8  536.95   27.80
   4   2   8  571.24   29.30
   4   2   8  523.15   27.10
  -5  -2  -8  318.17   25.60
  -5  -2  -8  261.87   28.00
  -5  -2  -8  322.77   18.50
   5   2   8  304.37   19.40
   5   2   8  312.87   17.30
   5   2   8  340.17   18.70
  -6  -2  -8   -0.70    2.10
  -6  -2  -8   -0.40    4.60
  -6  -2  -8   -0.60    6.20
   6   2   8    3.90    2.70
   6   2   8    0.10    1.60
   6   2   8    0.90    3.00
  -7  -2  -8    5.10    8.80
  -7  -2  -8    7.20    6.10
  -7  -2  -8    4.90    3.50
   7   2   8    3.90    2.90
   7   2   8    9.20    4.60
  -8  -2  -8   -0.90    3.00
  -8  -2  -8   -1.90    6.20
  -8  -2  -8    4.80   10.30
   8   2   8   -3.10    4.10
   8   2   8   -2.40    3.10
   6  -3  -8   22.20    7.70
  -6   3   8   26.60    5.60
   5  -3  -8    7.40    4.80
   5  -3  -8   18.50    6.40
  -5   3   8   11.30    3.30
  -5   3   8   17.20    4.30
   4  -3  -8   19.90    6.00
   4  -3  -8   18.00    5.80
  -4   3   8   10.80    3.80
  -4   3   8   12.10    3.50
   3  -3  -8  101.89   10.60
   3  -3  -8   87.19   10.60
  -3   3   8   88.59    8.20
  -3   3   8   80.59    5.80
  -3   3   8  103.19    8.00
   2  -3  -8   57.89    4.40
   2  -3  -8   68.69    9.20
   2  -3  -8   61.79    7.50
  -2   3   8   48.10    6.20
  -2   3   8   67.29    6.20
  -2   3   8   58.29    5.00
   1  -3  -8   55.29   10.10
   1  -3  -8   68.69    7.70
  -1   3   8   58.39    5.90
  -1   3   8   59.29    5.10
   0  -3  -8  354.56   25.70
   0   3   8  423.26   19.20
   0   3   8  408.86   21.20
   0   3   8  405.36   20.60
  -1  -3  -8   26.70    3.00
  -1  -3  -8   16.70    5.00
  -1  -3  -8   10.80    5.50
   1   3   8   29.50    3.90
   1   3   8   26.00    7.00
   1   3   8   29.00    2.90
   1   3   8   25.40    3.60
  -2  -3  -8   78.39    8.00
   2   3   8   79.39    5.70
   2   3   8   84.69    6.60
   2   3   8   77.29    6.10
  -3  -3  -8  353.86   20.60
   3   3   8  361.96   19.60
   3   3   8  355.86   18.60
   3   3   8  357.36   18.80
  -4  -3  -8  257.97   23.10
  -4  -3  -8  304.77   17.30
  -4  -3  -8  208.98   23.00
   4   3   8  292.47   16.70
   4   3   8  292.57   15.30
   4   3   8  301.87   16.20
  -5  -3  -8   28.60   10.20
  -5  -3  -8   24.80    4.80
  -5  -3  -8   22.70    7.70
   5   3   8   30.90    4.90
   5   3   8   32.80    4.00
   5   3   8   30.90    5.10
  -6  -3  -8    2.80    2.70
  -6  -3  -8    0.60    4.50
  -6  -3  -8    3.00    6.40
   6   3   8    1.80    2.90
   6   3   8    4.30    2.90
   6   3   8    3.90    1.90
  -7  -3  -8   11.80    7.30
  -7  -3  -8   15.40   10.20
  -7  -3  -8   11.10    4.20
   7   3   8    1.60    2.90
   7   3   8    6.00    3.80
   7   3   8   12.20    3.30
  -8  -3  -8    1.00    3.20
  -8  -3  -8   -5.10    7.50
  -8  -3  -8    3.50    6.90
   8   3   8   -1.00    4.10
   8   3   8   -0.20    3.40
   6  -4  -8    3.80    4.60
  -6   4   8    1.70    2.70
  -6   4   8    4.90    4.80
   5  -4  -8    0.60    3.50
   5  -4  -8   -3.40    3.10
  -5   4   8    2.20    2.60
   4  -4  -8   23.50    6.10
   4  -4  -8   27.90    7.00
  -4   4   8   19.70    4.70
  -4   4   8   26.70    4.70
   3  -4  -8  604.44   33.60
   3  -4  -8  547.95   31.90
  -3   4   8  495.35   29.20
  -3   4   8  561.54   27.20
  -3   4   8  595.74   29.60
   2  -4  -8   49.90    8.40
   2  -4  -8   45.60    6.20
  -2   4   8   42.60    5.50
  -2   4   8   50.29    4.00
   1  -4  -8  402.86   22.00
   1  -4  -8  401.26   27.10
  -1   4   8  390.86   21.00
  -1   4   8  390.56   19.80
   0  -4  -8  137.89    9.80
   0  -4  -8   80.89   13.40
   0  -4  -8  108.09   11.90
   0   4   8  127.79    7.90
   0   4   8  125.69    8.20
  -1  -4  -8  180.78    9.60
  -1  -4  -8  163.08   13.70
   1   4   8  157.48    9.00
   1   4   8  194.58   13.20
   1   4   8  164.18   10.10
   1   4   8  163.38   10.20
  -2  -4  -8    2.70    2.80
  -2  -4  -8    2.70    4.10
  -2  -4  -8   -1.80    3.60
  -2  -4  -8    1.10    2.00
   2   4   8    0.60    1.40
   2   4   8    2.50    1.90
   2   4   8    1.00    1.20
  -3  -4  -8   77.69    7.70
   3   4   8   86.09    6.70
   3   4   8   73.69    5.70
   3   4   8   78.39    6.00
  -4  -4  -8    4.70    5.20
  -4  -4  -8    9.50    6.00
  -4  -4  -8    1.80    2.50
   4   4   8    8.80    2.40
   4   4   8    8.60    2.60
   4   4   8    7.00    2.80
  -5  -4  -8    3.30    4.90
  -5  -4  -8   -0.20    2.50
  -5  -4  -8    0.70    5.00
   5   4   8   -1.40    1.90
   5   4   8    1.60    1.70
   5   4   8   -0.80    2.10
  -6  -4  -8   12.60    7.00
  -6  -4  -8   21.10   10.00
  -6  -4  -8   13.10    4.00
   6   4   8   10.50    3.70
   6   4   8   17.20    4.20
   6   4   8   11.70    2.70
  -7  -4  -8    3.70    5.60
  -7  -4  -8    5.60    3.40
  -7  -4  -8    7.20    7.70
   7   4   8    3.70    2.10
   7   4   8    4.70    3.20
   7   4   8    1.40    2.60
  -8  -4  -8   26.60    9.90
  -8  -4  -8   27.90    6.30
  -8  -4  -8   21.50   12.10
   8   4   8   21.00    5.60
   8   4   8   23.70    5.40
  -5   5   8    7.00    3.20
   4  -5  -8   26.20    6.90
  -4   5   8   24.20    4.80
  -4   5   8   22.60    4.60
   3  -5  -8   29.50    6.30
   3  -5  -8   24.70    6.20
  -3   5   8   24.70    4.60
  -3   5   8   24.80    4.50
   2  -5  -8    3.70    2.40
   2  -5  -8   -0.30    3.00
   2  -5  -8    4.30    3.30
  -2   5   8    5.20    2.50
  -2   5   8    4.20    1.60
   1  -5  -8    5.80    3.70
   1  -5  -8    0.90    1.50
   1  -5  -8    1.00    2.90
  -1   5   8   -0.40    3.50
  -1   5   8    3.40    1.60
  -1   5   8   -0.80    1.50
   0  -5  -8   60.99   10.80
   0  -5  -8   60.39    9.90
   0   5   8   65.19    5.20
   0   5   8   63.69    5.40
  -1  -5  -8   30.50    3.80
  -1  -5  -8   30.80    6.50
   1   5   8   35.90    4.20
   1   5   8   36.20    4.20
   1   5   8   30.50    2.80
  -2  -5  -8  234.88   15.60
   2   5   8  202.58   12.50
   2   5   8  220.08   12.00
   2   5   8  240.78   13.20
  -3  -5  -8  151.88   11.60
   3   5   8  143.79    9.30
   3   5   8  169.38   10.40
   3   5   8  144.19    9.40
  -4  -5  -8 2020.30   95.69
   4   5   8 1993.10   93.89
   4   5   8 2016.10   93.59
   4   5   8 2020.30   93.19
  -5  -5  -8  207.28   21.10
  -5  -5  -8  233.78   21.60
  -5  -5  -8  247.28   16.10
   5   5   8  229.28   13.50
   5   5   8  242.58   14.60
   5   5   8  231.68   14.50
  -6  -5  -8    9.30    6.30
  -6  -5  -8    9.10    3.80
  -6  -5  -8    9.70    6.60
   6   5   8   13.40    3.70
   6   5   8    9.30    3.30
   6   5   8   11.00    2.80
  -7  -5  -8   15.80    4.90
  -7  -5  -8   16.60    8.40
  -7  -5  -8   10.40    7.40
   7   5   8   21.50    5.00
   7   5   8   15.00    4.10
   7   5   8   19.60    3.60
  -8  -5  -8   -1.20    3.70
  -8  -5  -8    3.90    6.60
  -8  -5  -8    2.70    6.50
   8   5   8    1.70    3.50
   8   5   8    3.10    3.40
   8   5   8   -2.90    2.60
  -4   6   8   59.49    6.70
   3  -6  -8  136.49   12.70
  -3   6   8  133.99   10.20
  -3   6   8  137.39   10.30
   2  -6  -8    9.40    5.00
   2  -6  -8   35.90    6.60
  -2   6   8   27.50    3.50
  -2   6   8   31.20    4.40
   1  -6  -8    4.10    3.50
   1  -6  -8    6.00    4.10
  -1   6   8    1.10    1.70
  -1   6   8   -0.20    1.50
   0  -6  -8    3.90    4.30
   0  -6  -8    7.10    4.60
   0   6   8    5.90    2.20
   0   6   8    4.30    1.10
   0   6   8    8.50    2.40
  -1  -6  -8   47.80    8.40
   1   6   8   60.39    5.40
   1   6   8   64.19    5.70
   1   6   8   53.89    4.20
  -2  -6  -8   56.59    8.10
   2   6   8   60.49    5.00
   2   6   8   65.89    6.00
   2   6   8   58.09    5.50
  -3  -6  -8  222.18   15.60
   3   6   8  224.98   13.30
   3   6   8  221.38   13.10
   3   6   8  234.78   13.90
  -4  -6  -8    4.90    4.40
  -4  -6  -8    0.10    4.70
  -4  -6  -8    3.50    3.10
   4   6   8    5.10    2.10
   4   6   8    7.00    2.60
   4   6   8    6.60    2.90
  -5  -6  -8   26.80    8.80
  -5  -6  -8   27.40    5.80
  -5  -6  -8   38.50    9.80
   5   6   8   45.70    5.40
   5   6   8   38.00    5.40
   5   6   8   34.80    5.10
  -6  -6  -8   28.40    9.70
  -6  -6  -8   33.90    9.90
  -6  -6  -8   47.40    7.80
   6   6   8   37.80    5.10
   6   6   8   50.19    6.40
   6   6   8   45.80    6.20
  -7  -6  -8    2.40    3.80
  -7  -6  -8    0.90    5.00
  -7  -6  -8    1.30    5.50
   7   6   8   -0.30    2.80
   7   6   8    0.80    2.70
   7   6   8    2.00    2.40
  -8  -6  -8    6.00    8.00
  -8  -6  -8    9.30    5.20
  -8  -6  -8    5.30    7.30
   8   6   8    7.20    2.90
   8   6   8   11.40    4.30
   8   6   8    9.50    4.20
  -3   7   8    8.00    5.00
  -3   7   8   10.80    3.50
  -2   7   8    8.00    2.90
   1  -7  -8   24.80    7.10
   1  -7  -8   56.49    8.40
  -1   7   8   44.50    5.10
  -1   7   8   37.60    4.70
   0  -7  -8  121.99   11.50
   0  -7  -8   78.29   12.70
   0   7   8  126.29    8.50
   0   7   8  118.89    8.40
  -1  -7  -8  106.79   13.40
  -1  -7  -8   81.59   11.50
   1   7   8  108.09    8.00
   1   7   8   98.39    7.60
   1   7   8   95.09    6.40
  -2  -7  -8    9.80    5.70
  -2  -7  -8   21.40    5.60
   2   7   8   18.90    3.10
   2   7   8   20.40    3.60
   2   7   8   14.40    3.40
  -3  -7  -8  311.17   20.70
   3   7   8  344.57   19.00
   3   7   8  330.47   18.10
  -4  -7  -8  198.68   14.90
   4   7   8  207.38   13.20
   4   7   8  215.18   13.70
  -5  -7  -8    5.30    5.80
  -5  -7  -8   14.20    4.40
  -5  -7  -8   12.90    4.60
   5   7   8   23.60    4.60
   5   7   8   11.70    3.50
  -6  -7  -8    1.50    5.30
  -6  -7  -8    1.40    3.30
   6   7   8    3.70    2.80
   6   7   8    7.10    3.50
  -7  -7  -8    3.90    6.00
  -7  -7  -8   -2.00    3.20
   7   7   8    6.80    4.10
   7   7   8    1.60    3.20
  -2   8   8   -0.10    2.00
   1  -8  -8    1.10    4.10
  -1   8   8    0.70    2.10
  -1   8   8    2.10    2.10
   0  -8  -8   16.00    7.10
   0   8   8   23.70    4.30
   0   8   8   16.70    3.60
  -1  -8  -8    0.80    4.50
   1   8   8    2.70    2.20
   1   8   8   -1.10    2.10
  -2  -8  -8   45.00    8.40
   2   8   8   42.50    5.20
   2   8   8   43.00    5.80
   2   8   8   49.50    5.90
  -3  -8  -8    3.90    5.70
  -3  -8  -8    6.50    3.00
  -3  -8  -8    9.00    4.20
   3   8   8    5.30    2.90
   3   8   8    7.10    2.70
  -4  -8  -8    7.00    3.60
  -4  -8  -8   12.80    4.70
  -4  -8  -8    5.60    5.60
   4   8   8    8.10    3.10
   4   8   8   12.80    4.10
  -5  -8  -8    6.40    5.70
  -5  -8  -8   11.80    4.70
  -5  -8  -8   18.70    4.80
   5   8   8    9.30    3.60
   5   8   8   10.20    3.80
  -6  -8  -8    1.60    3.30
  -6  -8  -8    5.30    4.10
  -6  -8  -8    3.90    6.60
   6   8   8    0.20    2.60
   6   8   8    4.70    3.70
  -7  -8  -8    8.80    7.30
  -7  -8  -8    3.10    3.70
  -1   9   8    4.70    2.60
   0  -9  -8    2.10    4.60
   0   9   8   -1.40    1.80
   0   9   8   -0.30    2.50
  -1  -9  -8   18.60    7.30
   1   9   8   17.70    4.00
   1   9   8   24.10    4.70
  -2  -9  -8   28.10    7.60
   2   9   8   40.60    6.10
  -3  -9  -8   35.90    7.40
  -3  -9  -8   36.10    6.50
   3   9   8   32.20    5.90
  -4  -9  -8   45.30    8.10
  -4  -9  -8   54.39    8.20
   4   9   8   43.00    6.60
   4   9   8   39.60    6.00
  -5  -9  -8    0.90    3.60
  -5  -9  -8   -0.70    3.50
   5   9   8    3.80    3.00
   5   9   8    0.60    3.20
   4   6  -9   -1.70    4.70
   4   6  -9    0.00    9.60
  -4  -6   9   -2.00    2.80
  -4  -6   9    0.90    2.90
  -4  -6   9    2.50    3.60
   3   6  -9    5.60   13.00
   3   6  -9   12.40    6.80
  -3  -6   9   17.80    5.30
  -3  -6   9   17.10    5.20
  -3  -6   9   12.10    5.20
   2   6  -9   -1.70   10.70
   2   6  -9   -2.10    4.40
  -2  -6   9   -2.00    3.20
  -2  -6   9    0.00    3.50
   1   6  -9   14.00    8.00
   1   6  -9    9.30   14.00
  -1  -6   9    2.00    3.10
  -1  -6   9    1.10    3.90
   0   6  -9   -1.80    5.40
   0   6  -9    4.10   12.40
   0  -6   9    0.00    2.90
   0  -6   9   -0.70    3.00
  -1   6  -9    0.10   10.50
   1  -6   9    1.70    3.60
   1  -6   9    3.10    3.50
   5   5  -9   39.50    9.60
   5   5  -9   40.00   13.80
   5   5  -9   46.40    9.30
  -5  -5   9   36.90    7.00
  -5  -5   9   35.30    6.20
  -5  -5   9   27.90    6.60
   4   5  -9   14.80   11.10
   4   5  -9   20.80    6.90
   4   5  -9   17.70    6.50
  -4  -5   9   15.00    4.50
  -4  -5   9   18.70    5.10
  -4  -5   9   16.00    4.90
   3   5  -9   52.09   17.10
   3   5  -9   48.60   10.00
   3   5  -9   54.09    9.80
  -3  -5   9   56.49    8.00
  -3  -5   9   56.29    7.90
  -3  -5   9   56.99    7.90
   2   5  -9   -2.40    8.70
   2   5  -9    1.60    5.20
   2   5  -9   -1.40    3.50
  -2  -5   9    2.50    2.50
  -2  -5   9    0.60    2.60
  -2  -5   9    2.00    3.00
   1   5  -9   10.90   11.00
   1   5  -9   21.00    7.70
   1   5  -9   17.00    7.30
  -1  -5   9   14.10    4.30
  -1  -5   9   12.50    4.10
   0   5  -9    4.70    5.90
   0   5  -9   -1.90    9.30
   0   5  -9   -2.50    6.00
   0  -5   9   -2.80    2.30
   0  -5   9   -0.20    2.50
  -1   5  -9   -1.80   10.40
  -1   5  -9    7.30    8.00
   1  -5   9    1.00    2.90
   1  -5   9    1.70    3.20
  -2   5  -9   49.90   15.10
   2  -5   9   45.10    6.60
   2  -5   9   45.90    7.80
  -3   5  -9   -1.10   11.90
   6   4  -9   79.19   17.80
   6   4  -9   51.49    8.40
   6   4  -9   50.19   11.00
  -6  -4   9   60.59    8.30
  -6  -4   9   43.40    8.30
   5   4  -9   31.50    8.60
   5   4  -9   23.10    6.00
   5   4  -9   40.20   12.80
  -5  -4   9   28.10    6.30
  -5  -4   9   31.80    5.60
  -5  -4   9   19.80    4.80
   4   4  -9    7.80    4.50
   4   4  -9    4.40    4.70
   4   4  -9    2.70    7.80
  -4  -4   9    5.90    3.50
  -4  -4   9   -0.50    1.90
  -4  -4   9    1.00    2.50
   3   4  -9   61.29   10.50
   3   4  -9   53.69   17.00
   3   4  -9   76.99   11.60
  -3  -4   9   57.49    7.70
  -3  -4   9   59.19    7.30
  -3  -4   9   58.89    7.50
   2   4  -9  230.88   30.80
   2   4  -9  217.58   19.40
   2   4  -9  280.57   21.30
  -2  -4   9  240.08   15.50
  -2  -4   9  258.67   16.10
  -2  -4   9  241.28   15.90
   1   4  -9   13.20   11.90
   1   4  -9    1.90    5.30
   1   4  -9    1.10    4.30
  -1  -4   9    6.70    3.40
  -1  -4   9    4.90    2.40
  -1  -4   9   -0.50    2.60
   0   4  -9    1.90    9.10
   0   4  -9    2.30    5.70
   0   4  -9    3.70    5.90
   0  -4   9   -0.90    2.40
   0  -4   9    4.60    3.10
   0  -4   9    2.10    2.00
  -1   4  -9   -0.80    8.40
  -1   4  -9   -0.70    5.00
  -1   4  -9    5.10    6.80
   1  -4   9   -0.30    2.20
   1  -4   9    2.20    2.60
  -2   4  -9   21.10    9.70
  -2   4  -9    0.30    6.00
  -2   4  -9   -1.50    9.60
   2  -4   9    7.20    3.80
   2  -4   9    7.50    3.00
  -3   4  -9    6.60   11.50
  -3   4  -9   25.80   12.30
  -3   4  -9    9.00    7.50
   3  -4   9   13.70    4.90
  -4   4  -9   -0.10   12.50
  -4   4  -9   -1.40    8.00
   4  -4   9    0.10    3.70
   4  -4   9    1.00    4.00
   7   3  -9    8.10    8.00
   7   3  -9    4.70    4.10
  -7  -3   9    5.50    4.00
  -7  -3   9    2.10    3.60
   6   3  -9    0.40    4.60
   6   3  -9   -1.00    2.20
   6   3  -9   -2.60    5.70
  -6  -3   9   -0.70    2.40
  -6  -3   9    0.20    2.90
   5   3  -9    4.40    6.60
   5   3  -9   10.10    4.00
   5   3  -9    2.10    4.30
  -5  -3   9    2.40    3.20
  -5  -3   9    4.30    2.40
  -5  -3   9    3.30    3.00
   4   3  -9   27.30    6.20
   4   3  -9   28.20   11.10
   4   3  -9   24.40    7.50
  -4  -3   9   24.40    4.80
  -4  -3   9   15.80    4.50
  -4  -3   9   24.50    4.50
   3   3  -9   13.70    5.90
   3   3  -9   13.70    4.70
   3   3  -9    5.00    6.80
  -3  -3   9    6.20    2.90
  -3  -3   9   10.60    3.60
  -3  -3   9    6.00    2.60
   2   3  -9    3.20    4.90
   2   3  -9   12.40    5.30
   2   3  -9   13.50   11.30
  -2  -3   9    8.40    3.00
  -2  -3   9    9.60    3.70
  -2  -3   9   12.20    3.60
   1   3  -9  105.69   23.60
   1   3  -9  180.48   16.80
   1   3  -9  182.98   19.40
  -1  -3   9  188.88   12.30
  -1  -3   9  189.38   12.40
  -1  -3   9  177.28   11.50
   0   3  -9   76.89   13.80
   0  -3   9   83.39    6.70
   0  -3   9   78.99    7.60
   0  -3   9   93.99    8.50
  -1   3  -9  443.86   34.60
   1  -3   9  468.25   26.50
   1  -3   9  519.25   26.10
   1  -3   9  474.55   24.20
  -2   3  -9   -4.20    7.40
  -2   3  -9   -1.50    5.40
   2  -3   9    0.50    2.20
   2  -3   9    3.30    2.40
  -3   3  -9   -1.30    9.90
  -3   3  -9    3.00    5.90
   3  -3   9   -1.40    2.70
   3  -3   9   -1.10    2.50
   3  -3   9   -0.10    1.90
  -4   3  -9    4.30    6.70
  -4   3  -9    7.60   11.50
   4  -3   9    2.60    4.10
   4  -3   9    1.40    3.50
  -5   3  -9    8.40    7.10
  -5   3  -9    3.30   11.40
   5  -3   9   10.00    5.10
   5  -3   9   16.80    5.60
   7   2  -9    7.60    6.70
   7   2  -9    6.30    7.10
  -7  -2   9    6.50    3.40
  -7  -2   9   11.00    4.50
   6   2  -9   -0.20    4.20
   6   2  -9    5.30    6.70
   6   2  -9    1.80    2.70
  -6  -2   9    3.80    3.50
  -6  -2   9    1.50    2.30
   5   2  -9  183.48   12.90
   5   2  -9  190.68   17.80
   5   2  -9  170.28   20.40
  -5  -2   9  178.88   12.40
  -5  -2   9  157.48   10.80
  -5  -2   9  180.28   13.60
   4   2  -9    3.90    5.70
   4   2  -9    4.00    2.80
   4   2  -9    6.40    4.80
  -4  -2   9    1.00    2.60
  -4  -2   9    3.00    2.60
  -4  -2   9    3.20    2.10
   3   2  -9   66.99   15.80
   3   2  -9   73.09    9.20
   3   2  -9   83.19   12.60
  -3  -2   9   65.89    6.90
  -3  -2   9   70.29    6.30
  -3  -2   9   70.09    7.10
   2   2  -9  135.19   15.30
   2   2  -9  132.29   23.60
   2   2  -9  144.99   12.50
  -2  -2   9  127.39    9.60
  -2  -2   9  125.39    9.20
  -2  -2   9  125.69    9.80
   1   2  -9  105.39   13.90
   1   2  -9   64.39   12.80
   1   2  -9   65.09   17.20
  -1  -2   9  109.49    8.10
  -1  -2   9  101.89    7.50
  -1  -2   9   90.49    8.00
   0   2  -9  105.79   15.40
   0  -2   9  123.19    8.40
   0  -2   9  122.19    9.90
   0  -2   9  132.79    9.80
  -1   2  -9    0.40    5.00
  -1   2  -9    3.30    7.80
  -1   2  -9    1.40    5.40
   1  -2   9    5.40    2.80
   1  -2   9    1.60    2.80
   1  -2   9    4.00    1.80
  -2   2  -9    0.90    4.90
  -2   2  -9    3.70    7.80
   2  -2   9   11.90    3.80
   2  -2   9   10.80    2.30
   2  -2   9   14.60    4.40
   2  -2   9   12.90    3.40
  -3   2  -9    1.10    6.60
  -3   2  -9    2.70    5.90
   3  -2   9    1.10    3.00
   3  -2   9    0.20    2.70
   3  -2   9    0.90    1.80
  -4   2  -9    0.30    7.10
  -4   2  -9    4.90    6.00
   4  -2   9    6.30    3.80
   4  -2   9   -0.60    2.90
   4  -2   9    2.40    2.20
  -5   2  -9    6.20   11.10
  -5   2  -9   10.60    8.00
   5  -2   9   11.90    4.90
   5  -2   9   20.80    5.60
  -6   2  -9   -1.50    7.10
  -6   2  -9   -1.40   12.10
   6  -2   9    4.60    4.30
   7   1  -9   32.50   10.10
   7   1  -9   21.90    9.70
  -7  -1   9   20.30    5.90
  -7  -1   9   26.50    5.00
   6   1  -9   26.50    4.80
   6   1  -9   29.90    9.80
   6   1  -9   33.70    9.20
  -6  -1   9   37.70    5.80
  -6  -1   9   34.30    6.70
   5   1  -9   14.80    3.40
   5   1  -9   11.40    5.90
   5   1  -9   11.20    6.60
  -5  -1   9   13.90    3.70
  -5  -1   9   15.40    4.40
  -5  -1   9   20.30    3.60
   4   1  -9   45.80    5.90
   4   1  -9   47.70   11.30
   4   1  -9   47.10    9.50
  -4  -1   9   48.40    6.70
  -4  -1   9   48.10    6.40
  -4  -1   9   43.70    4.80
   3   1  -9    1.90    4.70
   3   1  -9    4.30    2.90
   3   1  -9    4.30    5.90
  -3  -1   9    4.30    3.10
  -3  -1   9    0.80    1.80
  -3  -1   9   -0.90    2.20
   2   1  -9   19.00    4.60
   2   1  -9   26.50    8.00
   2   1  -9   26.10   10.40
  -2  -1   9   23.70    4.50
  -2  -1   9   20.30    3.50
  -2  -1   9   24.20    4.20
   1   1  -9    2.90    7.50
   1   1  -9    0.60    4.70
   1   1  -9    2.40    3.30
  -1  -1   9    2.00    1.80
  -1  -1   9    2.10    2.40
  -1  -1   9    2.20    1.70
   0   1  -9  150.38   15.20
   0  -1   9  156.38   11.00
   0  -1   9  157.38   11.10
   0  -1   9  148.49    9.60
   1  -1   9   72.79    7.20
   1  -1   9   62.89    5.30
   1  -1   9   65.29    6.60
   1  -1   9   60.29    7.50
  -2   1  -9  151.08   18.40
  -2   1  -9  137.59   22.30
  -2   1  -9  251.97   14.70
  -3   1  -9    8.00    3.40
  -3   1  -9    1.60    4.70
  -3   1  -9    5.80    9.30
   3  -1   9   11.90    4.20
   3  -1   9   16.40    3.70
   3  -1   9   14.50    4.70
  -4   1  -9    7.90    9.00
  -4   1  -9    9.30    7.10
  -4   1  -9   12.20    4.10
   4  -1   9   13.70    4.50
   4  -1   9   27.30    4.40
   4  -1   9   22.00    5.60
  -5   1  -9  100.49   18.40
   5  -1   9  143.79   13.00
   5  -1   9  137.09   12.10
  -6   1  -9    9.00   10.90
  -6   1  -9   15.60    9.70
   6  -1   9   23.00    6.50
   6  -1   9   14.30    5.20
   7   0  -9  106.49   18.00
   7   0  -9  113.29   17.40
  -7   0   9  105.19   11.30
  -7   0   9   97.69    8.70
   6   0  -9   77.19   14.40
   6   0  -9   75.79   13.00
  -6   0   9   88.49    9.40
  -6   0   9   77.29    7.50
   5   0  -9   75.39    6.70
   5   0  -9  102.79   12.70
   5   0  -9   87.69   14.90
  -5   0   9   91.89    8.80
  -5   0   9   88.39    7.90
   4   0  -9   10.10    6.10
   4   0  -9    9.00    5.30
   4   0  -9    5.50    2.30
  -4   0   9    8.30    3.20
  -4   0   9    6.80    1.90
  -4   0   9    7.60    3.10
   3   0  -9   59.99   12.40
   3   0  -9   63.29   11.30
   3   0  -9   59.89    5.80
  -3   0   9   56.29    6.20
  -3   0   9   62.69    5.10
  -3   0   9   58.69    7.10
   2   0  -9  383.16   21.20
   2   0  -9  355.76   30.40
   2   0  -9  390.56   27.90
  -2   0   9  398.26   21.60
  -2   0   9  384.96   19.90
  -2   0   9  345.17   20.40
   1   0  -9   29.50    6.00
   1   0  -9   26.40    8.80
   1   0  -9   16.30    8.90
  -1   0   9   16.90    4.10
  -1   0   9   19.80    3.60
  -1   0   9   17.70    3.80
   0   0  -9    8.30    5.90
   0   0  -9   28.00    7.10
   0   0  -9   10.10    7.30
   0   0   9   27.70    4.70
   0   0   9   30.90    5.20
  -1   0  -9   95.89    9.10
  -1   0  -9   53.49   13.90
  -1   0  -9   64.19   12.50
  -2   0  -9  125.39   11.10
  -3   0  -9    3.80    7.00
  -3   0  -9   -0.40    2.70
  -3   0  -9   -0.40    4.30
   3   0   9    4.10    3.10
   3   0   9    3.60    3.30
   3   0   9    0.10    2.20
  -4   0  -9   13.30   10.00
  -4   0  -9   25.20    5.60
  -4   0  -9    6.00    6.00
   4   0   9   29.20    5.80
   4   0   9   23.80    4.30
   4   0   9   25.90    6.20
  -5   0  -9    9.60    7.40
  -5   0  -9   17.60    4.80
  -5   0  -9    1.70    7.10
   5   0   9   14.40    5.00
   5   0   9   17.60    4.90
   5   0   9   12.10    3.60
  -6   0  -9    5.30   10.80
  -6   0  -9    0.70    6.50
   6   0   9    3.30    3.80
   6   0   9    0.60    3.80
  -7   0  -9    8.20    7.90
  -7   0  -9    7.80   11.80
   7   0   9   10.90    5.80
   7   0   9    3.20    4.50
   7  -1  -9    3.30    6.10
  -7   1   9    8.20    4.20
   6  -1  -9    0.70    4.40
   6  -1  -9    0.40    4.40
  -6   1   9    0.40    2.10
  -6   1   9    0.80    2.60
   5  -1  -9   -2.60    3.30
   5  -1  -9   -3.20    3.20
  -5   1   9    0.80    2.30
  -5   1   9    1.70    2.40
   4  -1  -9  142.69   15.30
   4  -1  -9  158.48   15.20
   4  -1  -9  137.99    8.40
  -4   1   9  129.99   10.60
  -4   1   9  139.09    7.80
  -4   1   9  165.48   11.10
   3  -1  -9  102.89   13.40
   3  -1  -9   95.39    6.30
   3  -1  -9   96.99   12.30
  -3   1   9   93.99    6.40
  -3   1   9  102.09    8.80
  -3   1   9   91.89    8.10
   2  -1  -9  232.48   20.20
   2  -1  -9  208.68   12.10
   2  -1  -9  238.18   12.90
   2  -1  -9  235.98   21.10
  -2   1   9  229.78   14.80
  -2   1   9  233.78   13.40
  -2   1   9  223.08   13.80
   1  -1  -9  190.68   20.00
   1  -1  -9  245.88   14.40
   1  -1  -9  179.58   21.10
   1  -1  -9  227.08   11.90
  -1   1   9  229.88   13.40
  -1   1   9  215.18   13.70
  -1   1   9  215.28   14.40
   0  -1  -9   18.30    7.30
   0  -1  -9   18.40    8.80
   0  -1  -9   30.90    6.30
   0   1   9   37.70    5.50
   0   1   9   37.10    5.50
   1   1   9  107.99    9.60
   1   1   9  115.49    9.50
   1   1   9  129.99    8.80
  -2  -1  -9  113.19   11.20
   2   1   9  131.19    9.20
   2   1   9  113.49   10.20
   2   1   9  121.99    9.60
  -3  -1  -9   76.49    8.70
   3   1   9   81.59    7.40
   3   1   9   66.89    7.00
   3   1   9   66.99    8.60
  -4  -1  -9    0.80    4.70
  -4  -1  -9    2.10    5.90
  -4  -1  -9    5.50    3.10
   4   1   9   -0.70    2.30
   4   1   9    0.90    2.30
   4   1   9    2.20    3.30
  -5  -1  -9  510.95   27.90
  -5  -1  -9  460.35   36.40
   5   1   9  543.95   28.70
   5   1   9  499.45   27.20
   5   1   9  517.75   30.10
  -6  -1  -9   10.70   10.80
  -6  -1  -9   14.50    8.20
  -6  -1  -9   20.40    4.50
   6   1   9   20.00    5.10
   6   1   9   17.90    5.60
  -7  -1  -9   12.50    8.60
  -7  -1  -9    9.90   11.10
   7   1   9    3.80    5.00
   7   1   9   17.10    5.60
   7  -2  -9    2.60    5.70
   6  -2  -9   -0.30    4.70
   6  -2  -9    6.50    5.80
  -6   2   9    3.40    3.40
  -6   2   9   -1.00    2.20
   5  -2  -9   13.00    5.90
   5  -2  -9    6.80    5.10
  -5   2   9    5.30    2.80
  -5   2   9   10.30    3.70
   4  -2  -9   76.59   12.00
   4  -2  -9   73.29   10.70
  -4   2   9   72.79    7.40
  -4   2   9   75.19    7.60
   3  -2  -9   26.80    7.40
   3  -2  -9   15.30    5.80
  -3   2   9   16.10    4.10
  -3   2   9   19.60    2.90
  -3   2   9   11.90    3.60
   2  -2  -9  408.16   19.30
   2  -2  -9  497.55   30.50
   2  -2  -9  435.16   27.80
  -2   2   9  382.56   21.50
  -2   2   9  420.76   22.70
  -2   2   9  362.76   23.00
   1  -2  -9  118.19    7.20
   1  -2  -9  106.99   13.80
   1  -2  -9   75.59   13.30
  -1   2   9  104.59    9.10
  -1   2   9  104.89    8.30
   0  -2  -9  120.69    6.70
   0  -2  -9   73.39   14.70
   0   2   9  119.09    8.90
   0   2   9  101.69    8.80
  -1  -2  -9   79.79   10.70
   1   2   9   88.29    7.90
   1   2   9   94.79    7.80
   1   2   9   83.09    6.50
  -2  -2  -9  177.18   14.30
   2   2   9  192.28   12.70
   2   2   9  165.88   11.60
   2   2   9  175.48   11.10
  -3  -2  -9   12.50    6.80
  -3  -2  -9    6.30    6.30
  -3  -2  -9   13.80    4.20
   3   2   9   15.10    4.20
   3   2   9   18.40    3.70
   3   2   9   11.30    3.10
  -4  -2  -9   14.50    7.80
  -4  -2  -9   26.30    5.00
  -4  -2  -9   12.90    8.30
   4   2   9   26.40    5.10
   4   2   9   23.70    4.30
   4   2   9   26.70    4.40
  -5  -2  -9    9.90    8.40
  -5  -2  -9    8.60    6.30
  -5  -2  -9    4.60    3.10
   5   2   9    7.40    3.40
   5   2   9    5.90    2.70
   5   2   9    6.40    3.90
  -6  -2  -9   -0.30    4.50
  -6  -2  -9    0.50    2.60
  -6  -2  -9   -0.40    6.40
   6   2   9   -0.20    1.90
   6   2   9    1.60    3.20
   6   2   9    0.50    2.60
  -7  -2  -9    3.70    3.20
  -7  -2  -9    0.70    6.50
  -7  -2  -9   -2.60    9.00
   7   2   9    2.60    3.20
   7   2   9    4.40    4.40
   6  -3  -9   -0.30    4.70
   6  -3  -9   -1.00    4.50
  -6   3   9   -1.80    2.50
   5  -3  -9   42.90    9.60
   5  -3  -9   43.80    9.70
  -5   3   9   42.80    6.10
  -5   3   9   43.50    6.90
   4  -3  -9    2.30    4.10
   4  -3  -9    2.00    3.10
  -4   3   9    1.90    2.60
  -4   3   9    4.50    2.70
   3  -3  -9  798.52   44.60
   3  -3  -9  904.11   46.90
  -3   3   9  773.72   41.40
  -3   3   9  754.32   38.20
  -3   3   9  839.72   41.10
   2  -3  -9  107.49   10.60
   2  -3  -9  103.29   12.70
  -2   3   9   98.79    8.80
  -2   3   9   85.39    7.20
  -2   3   9   99.39    8.30
   1  -3  -9   61.49   10.00
   1  -3  -9   99.69   10.40
   1  -3  -9   69.49   12.30
  -1   3   9   93.99    8.00
  -1   3   9   92.89    7.10
   0  -3  -9  513.25   36.70
   0   3   9  616.24   31.50
   0   3   9  667.43   28.90
   0   3   9  623.04   30.70
  -1  -3  -9   17.50    5.90
  -1  -3  -9   26.10    3.10
  -1  -3  -9   10.00    6.10
  -1  -3  -9    5.40    4.80
   1   3   9   24.60    3.90
   1   3   9   21.10    3.00
   1   3   9   20.00    3.60
  -2  -3  -9  144.39   13.00
   2   3   9  158.38    9.60
   2   3   9  168.68   10.60
   2   3   9  157.18   10.90
  -3  -3  -9   94.59    9.10
   3   3   9   99.89    8.30
   3   3   9   93.79    7.30
   3   3   9   84.39    6.80
  -4  -3  -9   18.70    4.30
  -4  -3  -9   20.50    8.30
  -4  -3  -9   17.00    8.60
   4   3   9   23.50    4.20
   4   3   9   18.40    4.30
   4   3   9   24.70    3.80
  -5  -3  -9  839.32   42.60
  -5  -3  -9  731.83   50.69
   5   3   9  848.52   41.80
   5   3   9  851.71   40.80
   5   3   9  856.51   43.00
  -6  -3  -9    7.20    6.30
  -6  -3  -9    7.50    3.40
  -6  -3  -9    3.90    7.40
   6   3   9   10.10    3.60
   6   3   9    5.10    2.30
   6   3   9    5.00    3.40
  -7  -3  -9    3.50    6.50
  -7  -3  -9    6.10    7.90
  -7  -3  -9    1.40    3.30
   7   3   9    0.40    3.10
   7   3   9    2.70    3.40
  -8  -3  -9   -6.10    8.20
  -8  -3  -9    1.80    6.50
  -8  -3  -9    4.00    3.70
   8   3   9    2.30    4.00
  -6   4   9   15.80    4.80
   5  -4  -9    8.20    5.20
   5  -4  -9   11.30    5.60
  -5   4   9    8.40    3.80
   4  -4  -9   11.40    5.20
   4  -4  -9    5.80    4.10
  -4   4   9    9.00    3.80
  -4   4   9   10.50    3.50
   3  -4  -9  102.09   11.90
   3  -4  -9   95.29   10.30
  -3   4   9  102.09    9.30
  -3   4   9  104.69    8.70
   2  -4  -9   62.69   10.40
   2  -4  -9   39.90    6.10
  -2   4   9   31.20    5.10
  -2   4   9   36.70    4.30
   1  -4  -9   19.10    4.40
   1  -4  -9   12.10    5.80
   1  -4  -9    6.90    4.10
  -1   4   9   17.00    2.90
  -1   4   9   11.90    3.30
  -1   4   9    6.70    5.70
   0  -4  -9  163.58   13.10
   0   4   9  164.48   10.30
   0   4   9  182.18   11.20
  -1  -4  -9   99.39   12.00
  -1  -4  -9  130.59    7.80
   1   4   9  129.79    7.60
   1   4   9  138.99    9.10
   1   4   9  140.29    9.00
   1   4   9  147.49   13.00
  -2  -4  -9  712.63   39.00
   2   4   9  733.83   35.50
   2   4   9  723.53   35.10
   2   4   9  691.03   34.20
  -3  -4  -9  246.38   16.30
   3   4   9  226.58   13.50
   3   4   9  232.78   13.50
   3   4   9  257.17   14.70
  -4  -4  -9  413.36   24.90
   4   4   9  445.06   23.20
   4   4   9  448.46   22.80
   4   4   9  443.86   24.00
  -5  -4  -9  342.07   29.70
  -5  -4  -9  289.37   29.70
  -5  -4  -9  403.36   22.90
   5   4   9  406.66   22.20
   5   4   9  411.86   21.60
   5   4   9  409.66   20.50
  -6  -4  -9  160.18   12.20
  -6  -4  -9  133.79   17.70
  -6  -4  -9  115.69   21.50
   6   4   9  128.79   11.30
   6   4   9  142.69   10.90
   6   4   9  148.89    9.70
  -7  -4  -9   12.90    4.60
  -7  -4  -9   15.60   10.00
  -7  -4  -9    9.60    8.20
   7   4   9   13.50    4.30
   7   4   9    9.30    4.30
   7   4   9   10.00    3.00
  -8  -4  -9   21.10   12.30
  -8  -4  -9   29.40   11.40
  -8  -4  -9   42.10    7.80
   8   4   9   48.20    8.40
   8   4   9   45.50    7.50
   5  -5  -9   21.90    7.00
  -5   5   9    5.70    3.60
   4  -5  -9   22.20    6.90
  -4   5   9   17.70    4.50
  -4   5   9    9.60    3.90
   3  -5  -9  118.59   12.30
  -3   5   9  121.39    9.50
  -3   5   9   79.49    8.80
   2  -5  -9    7.00    4.20
  -2   5   9    0.90    2.30
  -2   5   9    2.90    1.70
   1  -5  -9    2.30    3.60
   1  -5  -9    0.60    1.80
   1  -5  -9    4.00    4.60
  -1   5   9    2.00    2.10
  -1   5   9    1.90    1.50
   0  -5  -9    0.30    3.80
   0  -5  -9   11.40    2.60
   0  -5  -9    6.80    5.60
   0   5   9    8.90    2.70
   0   5   9   10.40    2.50
  -1  -5  -9  128.09   13.20
  -1  -5  -9  141.69   10.40
   1   5   9  131.99    8.90
   1   5   9  126.59    7.50
   1   5   9  134.29    8.90
  -2  -5  -9  397.06   24.10
   2   5   9  391.46   20.10
   2   5   9  375.66   20.30
   2   5   9  360.26   19.00
  -3  -5  -9    7.90    4.00
  -3  -5  -9    2.20    5.30
  -3  -5  -9    3.20    4.40
   3   5   9    9.90    2.50
   3   5   9    9.50    2.90
   3   5   9    9.00    2.40
  -4  -5  -9   76.69    8.70
  -4  -5  -9   47.10   11.70
   4   5   9   95.89    8.00
   4   5   9   88.49    6.80
   4   5   9   87.19    7.00
  -5  -5  -9    7.50    6.50
  -5  -5  -9   10.30    7.10
  -5  -5  -9   10.70    4.00
   5   5   9    9.90    3.40
   5   5   9    7.70    3.10
   5   5   9    2.30    2.00
  -6  -5  -9  154.68   19.30
  -6  -5  -9  147.39   20.00
  -6  -5  -9  151.98   12.80
   6   5   9  173.28   10.80
   6   5   9  157.98   11.60
   6   5   9  162.38   12.00
  -7  -5  -9    1.90    6.20
  -7  -5  -9   -0.90    6.30
  -7  -5  -9   -0.20    3.30
   7   5   9    0.00    2.60
   7   5   9    1.60    2.00
   7   5   9    1.50    3.10
  -8  -5  -9    8.70    9.50
   4  -6  -9   12.60    5.70
  -4   6   9    9.80    3.80
   3  -6  -9   67.89   10.40
  -3   6   9   61.29    7.00
  -3   6   9   48.40    6.90
   2  -6  -9    7.60    4.30
  -2   6   9    6.10    2.40
  -2   6   9   10.20    3.20
   1  -6  -9    5.50    4.60
   1  -6  -9    5.20    4.00
  -1   6   9    9.60    2.30
  -1   6   9    8.70    2.80
   0  -6  -9   53.99   10.70
   0  -6  -9   90.29   13.50
   0   6   9   93.29    7.20
   0   6   9   98.99    7.00
  -1  -6  -9   88.69   12.60
   1   6   9   98.59    7.30
   1   6   9  103.39    7.40
   1   6   9   83.79    5.50
  -2  -6  -9    5.00    3.90
  -2  -6  -9    2.70    4.60
   2   6   9    3.90    2.10
   2   6   9    2.70    2.10
   2   6   9    3.70    1.70
  -3  -6  -9    4.90    3.60
  -3  -6  -9    1.20    4.20
   3   6   9    4.80    2.20
   3   6   9    4.50    2.10
   3   6   9    6.10    2.80
  -4  -6  -9   72.29    8.20
  -4  -6  -9   36.50   10.50
   4   6   9   75.79    6.50
   4   6   9   71.09    7.10
   4   6   9   73.39    6.50
  -5  -6  -9    3.30    3.30
  -5  -6  -9   -2.00    4.70
  -5  -6  -9    2.60    4.90
   5   6   9    5.70    2.90
   5   6   9    6.60    3.00
   5   6   9    7.50    2.40
  -6  -6  -9   10.40    4.50
  -6  -6  -9    9.10    7.30
  -6  -6  -9   11.10    8.10
   6   6   9   11.10    3.80
   6   6   9   11.10    3.70
   6   6   9    6.60    2.70
  -7  -6  -9    5.10    6.50
  -7  -6  -9    2.80    4.00
  -7  -6  -9    3.30    7.10
   7   6   9    4.60    3.60
   7   6   9    3.40    2.50
   7   6   9    0.90    3.10
  -3   7   9   68.89    8.80
  -3   7   9   76.49    7.90
  -2   7   9    8.90    3.20
   1  -7  -9   14.30    5.10
   1  -7  -9    5.70    5.10
  -1   7   9    7.00    2.70
  -1   7   9    9.50    2.60
   0  -7  -9    5.70    5.00
   0  -7  -9   14.80    5.30
   0   7   9   18.00    3.40
   0   7   9   13.50    3.00
  -1  -7  -9    4.80    4.90
  -1  -7  -9   -0.20    4.20
   1   7   9    1.80    1.90
   1   7   9    2.70    2.30
  -2  -7  -9    1.00    4.90
  -2  -7  -9   -0.70    3.00
   2   7   9    1.60    1.70
   2   7   9    0.70    2.20
   2   7   9    1.70    1.80
  -3  -7  -9   35.40    7.10
  -3  -7  -9   10.40    6.70
   3   7   9   31.70    4.80
   3   7   9   33.10    4.40
   3   7   9   31.40    5.00
  -4  -7  -9   60.79    8.50
   4   7   9   82.29    7.10
   4   7   9   70.99    6.90
   4   7   9   78.99    7.60
  -5  -7  -9   10.80    4.50
  -5  -7  -9    0.20    5.50
   5   7   9   13.80    3.60
   5   7   9   16.20    4.10
   5   7   9    5.60    2.80
  -6  -7  -9   14.60    8.40
  -6  -7  -9    8.10    4.40
   6   7   9    6.40    3.70
   6   7   9    7.70    3.00
   6   7   9    9.50    3.50
  -7  -7  -9    6.20    7.60
  -7  -7  -9    6.30    4.50
   7   7   9    5.10    3.70
   7   7   9    5.10    3.60
   7   7   9   10.60    3.60
  -2   8   9   20.60    4.50
   1  -8  -9   -3.00    4.00
  -1   8   9    4.20    2.50
  -1   8   9    3.90    2.90
   0  -8  -9   35.90    9.70
   0   8   9   60.29    6.00
   0   8   9   56.59    6.40
  -1  -8  -9    9.50    6.00
   1   8   9    5.60    2.70
   1   8   9    5.20    2.70
  -2  -8  -9   43.70    8.80
   2   8   9   49.99    6.20
   2   8   9   60.39    7.10
  -3  -8  -9  114.89   11.80
   3   8   9   95.79    8.10
   3   8   9  116.09    8.90
   3   8   9  116.09    9.50
  -4  -8  -9    0.70    3.30
  -4  -8  -9    0.70    4.90
   4   8   9    1.40    2.60
   4   8   9    1.10    2.40
   4   8   9    2.10    2.60
  -5  -8  -9   -0.10    3.00
  -5  -8  -9    6.00    6.50
   5   8   9    2.20    2.70
   5   8   9   -2.00    2.10
   5   8   9   -1.70    2.50
  -6  -8  -9    1.60    5.70
  -6  -8  -9    2.50    4.00
   6   8   9    1.40    2.40
   6   8   9    7.30    3.40
   6   8   9    4.50    3.30
   0  -9  -9    0.60    4.60
   0   9   9   -0.70    2.60
   0   9   9    0.70    2.50
  -1  -9  -9   35.50    9.70
   1   9   9   52.99    6.80
   1   9   9   44.10    6.10
  -2  -9  -9   -2.30    4.00
   2   9   9   -2.70    2.10
   2   9   9   -1.10    2.90
  -3  -9  -9  142.19   15.10
   3   9   9  148.59   11.70
   3   9   9  150.18   11.20
  -4  -9  -9   22.10    6.60
   4   9   9   12.00    3.60
   4   9   9   13.70    4.60
  -5  -9  -9   16.70    5.90
   5   9   9    8.00    4.00
   5   9   9   14.90    4.50
   2   6 -10    3.80   13.70
  -2  -6  10    3.50    4.10
   5   5 -10   -1.20    4.60
   5   5 -10   -3.70    8.20
   4   5 -10   -4.10    4.20
   4   5 -10    3.40   10.00
   4   5 -10    3.90    5.10
  -4  -5  10   -1.70    2.90
  -4  -5  10    0.90    2.90
  -4  -5  10    4.20    3.60
   3   5 -10   33.90   16.60
   3   5 -10    3.00    4.50
   3   5 -10   19.50    7.30
  -3  -5  10   15.90    5.00
  -3  -5  10   20.10    5.40
  -3  -5  10   18.80    4.90
   2   5 -10  174.18   20.60
   2   5 -10  168.78   16.60
  -2  -5  10  156.28   12.60
  -2  -5  10  142.09   12.40
  -2  -5  10  141.89   12.50
   1   5 -10    0.50    4.80
   1   5 -10    5.10   13.80
   1   5 -10    3.90    6.20
  -1  -5  10    1.30    3.60
  -1  -5  10    2.80    3.40
   0   5 -10   62.49   14.10
   0  -5  10   64.29    9.00
   0  -5  10   72.49    8.90
  -1   5 -10   -0.50    6.90
  -1   5 -10   -2.80   10.50
   1  -5  10    4.40    3.20
   1  -5  10    3.70    3.80
  -2   5 -10   12.40   14.50
   5   4 -10    2.90    7.60
   5   4 -10    2.40    3.70
   5   4 -10    6.10    5.90
  -5  -4  10   -0.30    3.20
  -5  -4  10    4.30    3.00
  -5  -4  10    3.20    3.30
   4   4 -10    7.90    5.90
   4   4 -10   15.30    5.80
   4   4 -10   17.30   11.40
  -4  -4  10   14.70    4.20
  -4  -4  10    9.40    4.20
  -4  -4  10   12.00    4.50
   3   4 -10   37.40    8.80
   3   4 -10   44.50   17.40
   3   4 -10   36.30    8.80
  -3  -4  10   29.50    5.60
  -3  -4  10   34.40    6.30
  -3  -4  10   37.20    6.50
   2   4 -10    1.10    9.00
   2   4 -10    1.40    5.30
   2   4 -10    3.40    4.80
  -2  -4  10    3.10    3.20
  -2  -4  10   -0.10    2.40
  -2  -4  10    7.60    3.30
   1   4 -10   30.60   15.60
   1   4 -10   42.40   11.50
   1   4 -10   41.10   10.50
  -1  -4  10   38.00    6.40
  -1  -4  10   43.90    6.70
  -1  -4  10   38.60    6.00
   0   4 -10    7.80   11.20
   0   4 -10   -6.00    3.50
   0   4 -10   -0.70    6.70
   0  -4  10    0.30    2.50
   0  -4  10    0.80    2.90
  -1   4 -10   -0.10   10.90
  -1   4 -10    3.40    6.50
  -1   4 -10    1.10    6.60
   1  -4  10   -0.20    2.70
   1  -4  10    1.20    2.50
  -2   4 -10    1.90    7.30
  -2   4 -10    1.50    8.10
  -2   4 -10   -0.80   10.50
   2  -4  10    0.20    2.50
   2  -4  10    0.30    2.80
  -3   4 -10   -1.60   12.00
  -3   4 -10   -3.00    8.20
  -3   4 -10    0.40    7.00
   3  -4  10    2.70    3.70
   6   3 -10    4.10    5.60
   6   3 -10   -0.60    6.60
   6   3 -10   -0.60    3.00
  -6  -3  10    4.40    4.10
  -6  -3  10   -0.40    2.90
   5   3 -10   36.00    7.10
   5   3 -10   46.70   10.70
   5   3 -10   54.49   14.40
  -5  -3  10   43.70    7.10
  -5  -3  10   38.40    7.20
  -5  -3  10   37.80    5.90
   4   3 -10    0.90    6.30
   4   3 -10    2.20    4.80
   4   3 -10    0.90    3.00
  -4  -3  10    3.00    2.50
  -4  -3  10    5.10    2.90
  -4  -3  10    2.50    2.60
   3   3 -10    1.80    4.60
   3   3 -10    3.70    4.30
   3   3 -10    1.90    7.30
  -3  -3  10    6.30    3.30
  -3  -3  10    7.80    3.10
  -3  -3  10    3.60    2.80
   2   3 -10  278.07   23.40
   2   3 -10  269.17   20.70
   2   3 -10  223.18   30.40
  -2  -3  10  270.17   16.70
  -2  -3  10  252.57   16.40
  -2  -3  10  275.47   16.50
   1   3 -10   68.09   13.50
   1   3 -10   37.80   14.90
   1   3 -10   67.29   12.20
  -1  -3  10   83.09    7.10
  -1  -3  10   80.49    8.00
  -1  -3  10   71.79    7.60
   0   3 -10   67.29   14.30
   0   3 -10  119.29   16.80
   0  -3  10  114.89    9.40
   0  -3  10  117.99    9.90
   0  -3  10  122.39    8.50
  -1   3 -10   71.49   15.00
   1  -3  10   90.29    8.90
   1  -3  10   83.79    7.90
  -2   3 -10   -1.40    6.30
  -2   3 -10    1.00    6.30
  -2   3 -10    9.40   11.50
   2  -3  10   -0.70    2.10
   2  -3  10    1.70    3.00
  -3   3 -10    3.40   11.60
  -3   3 -10   -0.10    6.40
   3  -3  10    1.20    2.20
   3  -3  10    7.00    4.10
   3  -3  10    2.80    3.50
  -4   3 -10    4.40    7.50
  -4   3 -10   -3.70   10.40
   4  -3  10    0.30    3.70
   4  -3  10    6.30    4.60
   6   2 -10   27.00    5.60
   6   2 -10   29.30   11.20
   6   2 -10   28.50    9.60
  -6  -2  10   31.00    7.10
  -6  -2  10   29.60    5.80
   5   2 -10   16.20    4.60
   5   2 -10   15.30    6.70
   5   2 -10   17.90    9.10
  -5  -2  10   19.80    4.80
  -5  -2  10   13.70    3.50
  -5  -2  10   19.30    4.90
   4   2 -10    0.60    5.90
   4   2 -10   -0.10    4.40
   4   2 -10    0.00    2.50
  -4  -2  10    0.60    2.30
  -4  -2  10    1.20    1.80
  -4  -2  10   -0.40    2.30
   3   2 -10   10.70    4.60
   3   2 -10   17.30    6.90
   3   2 -10   16.00    9.50
  -3  -2  10   17.40    4.60
  -3  -2  10   23.30    4.30
  -3  -2  10   14.70    4.10
   2   2 -10  180.48   18.70
   2   2 -10  156.68   27.30
   2   2 -10  140.19   13.40
  -2  -2  10  140.39   10.30
  -2  -2  10  138.39   10.60
  -2  -2  10  152.58   11.20
   1   2 -10  384.36   26.50
   1   2 -10  350.86   30.10
  -1  -2  10  388.46   21.00
  -1  -2  10  360.36   21.50
  -1  -2  10  415.16   21.70
   0   2 -10  145.19   18.60
   0  -2  10  161.58   10.60
   0  -2  10  173.08   12.00
   0  -2  10  170.38   12.10
  -1   2 -10   10.70    7.60
  -1   2 -10    3.30    8.90
  -1   2 -10    5.80    6.10
   1  -2  10    6.10    3.20
   1  -2  10   13.50    4.30
   1  -2  10    9.00    2.50
  -2   2 -10    0.70    5.80
  -2   2 -10    1.90    7.70
   2  -2  10   -0.20    2.20
   2  -2  10    1.30    1.40
   2  -2  10    0.90    2.80
   2  -2  10    2.00    3.00
  -3   2 -10    5.50    6.50
  -3   2 -10    2.00    9.00
   3  -2  10    8.50    4.30
   3  -2  10    3.60    3.70
   3  -2  10   10.40    3.20
  -4   2 -10    8.10    7.60
  -4   2 -10    6.70   11.40
   4  -2  10    6.50    4.50
   4  -2  10    8.80    4.60
  -5   2 -10   -4.00    8.40
  -5   2 -10    7.30    7.50
   5  -2  10    8.00    5.10
   5  -2  10   19.90    6.70
   7   1 -10   85.39   17.00
   6   1 -10    9.10    7.40
   6   1 -10   11.20    7.00
  -6  -1  10   13.50    4.20
  -6  -1  10   12.20    4.90
   5   1 -10   32.40    5.20
   5   1 -10   40.10   11.50
   5   1 -10   36.40    9.30
  -5  -1  10   28.90    6.30
  -5  -1  10   27.10    5.20
   4   1 -10   17.80    8.30
   4   1 -10   15.60    7.10
   4   1 -10   10.40    3.20
  -4  -1  10   11.00    2.70
  -4  -1  10    9.60    3.60
  -4  -1  10    8.20    3.30
   3   1 -10    3.70    2.90
   3   1 -10    5.20    5.10
   3   1 -10   11.60    8.50
  -3  -1  10    5.90    2.50
  -3  -1  10    5.30    3.00
  -3  -1  10    7.50    3.10
   2   1 -10  321.37   27.00
   2   1 -10  316.87   19.90
   2   1 -10  263.67   29.60
  -2  -1  10  286.17   17.30
  -2  -1  10  270.97   17.50
  -2  -1  10  309.37   17.00
   1   1 -10   50.09    9.00
   1   1 -10   35.20   14.00
   1   1 -10   42.70   11.30
  -1  -1  10   40.70    5.40
  -1  -1  10   39.70    6.00
  -1  -1  10   44.60    5.70
   0   1 -10   66.29   12.40
   0  -1  10   59.69    7.50
   0  -1  10   79.89    7.90
   0  -1  10   69.69    6.00
  -1   1 -10   -7.00    4.90
  -1   1 -10    1.30    5.50
   1  -1  10    3.00    1.80
   1  -1  10    2.80    3.30
   1  -1  10    1.20    2.60
   2  -1  10  209.48   13.60
   2  -1  10  206.08   14.50
   2  -1  10  190.28   14.70
  -3   1 -10   -3.20    5.90
  -3   1 -10    3.20    6.10
  -3   1 -10    2.50    3.00
   3  -1  10    9.50    3.40
   3  -1  10   12.00    4.50
   3  -1  10   13.10    4.30
  -4   1 -10    5.60    6.30
  -4   1 -10    3.60    8.10
   4  -1  10    8.00    3.10
   4  -1  10    5.30    3.90
   4  -1  10    6.60    4.00
  -5   1 -10   33.70   11.30
  -5   1 -10    9.80   12.10
   5  -1  10   82.49   10.40
   5  -1  10   78.39   10.30
  -6   1 -10    6.80   12.40
  -6   1 -10   24.40   11.90
   6  -1  10   39.40    8.00
   6  -1  10   22.80    6.70
   6   0 -10   12.70    7.40
   6   0 -10    5.70    6.30
  -6   0  10    6.10    3.00
  -6   0  10    4.70    3.70
   5   0 -10   -4.80    3.90
   5   0 -10    4.70    4.80
  -5   0  10    0.30    2.20
  -5   0  10   -1.50    2.00
   4   0 -10  135.39   16.80
   4   0 -10  124.59    8.90
   4   0 -10  132.79   14.90
  -4   0  10  115.59    8.00
  -4   0  10  141.49   10.90
  -4   0  10  141.39   10.60
   3   0 -10   41.00    9.70
   3   0 -10   40.90   10.90
   3   0 -10   32.80    4.90
  -3   0  10   27.60    5.20
  -3   0  10   43.90    6.30
  -3   0  10   33.70    4.30
   2   0 -10 1602.24   92.89
   2   0 -10 1723.33   79.79
   2   0 -10 1724.43   89.09
  -2   0  10 1619.64   78.89
  -2   0  10 1645.54   79.69
  -2   0  10 1676.33   78.09
   1   0 -10   -1.70    2.50
   1   0 -10    0.80    6.10
   1   0 -10    0.40    5.20
  -1   0  10   -0.10    2.10
  -1   0  10    3.80    2.10
  -1   0  10   -0.80    2.10
   0   0 -10   10.30    8.80
   0   0 -10   12.00    7.50
   0   0 -10    1.90    4.30
   0   0  10   16.10    3.30
   0   0  10    9.80    3.50
   0   0  10   12.80    4.20
  -1   0 -10    2.00    5.40
  -1   0 -10    2.60    7.70
  -1   0 -10    5.70    3.60
   1   0  10   10.80    4.00
   1   0  10   12.60    3.80
   1   0  10   17.20    3.90
  -2   0 -10    1.50    5.20
  -2   0 -10    0.80    2.90
  -2   0 -10   -0.20    6.50
   2   0  10    0.20    2.30
   2   0  10    1.10    3.20
   2   0  10    0.40    2.50
  -3   0 -10   77.89   10.50
   3   0  10   96.59    9.40
   3   0  10  126.59   11.40
   3   0  10  120.39    9.50
  -4   0 -10    0.60    3.30
  -4   0 -10    6.60    7.70
  -4   0 -10    0.90    5.40
   4   0  10    7.00    4.30
   4   0  10    4.70    2.80
   4   0  10    2.90    3.40
  -5   0 -10    3.50    6.80
  -5   0 -10    7.30    9.60
  -5   0 -10   14.50    5.20
   5   0  10   15.00    4.90
   5   0  10   16.30    5.90
   5   0  10   18.90    4.30
  -6   0 -10    5.60   11.90
  -6   0 -10    6.10    8.50
   6   0  10   13.50    5.90
   6   0  10    9.00    4.60
   6  -1 -10   -2.30    4.50
   6  -1 -10    0.30    5.00
  -6   1  10   -0.30    2.50
  -6   1  10   -1.30    2.80
   5  -1 -10    5.80    5.10
   5  -1 -10    7.50    5.80
  -5   1  10    3.10    2.70
  -5   1  10    5.70    3.20
   4  -1 -10    1.00    4.00
   4  -1 -10   -0.40    3.80
  -4   1  10    1.00    2.50
  -4   1  10    6.10    3.10
   3  -1 -10   76.19   13.20
   3  -1 -10   64.79   11.30
   3  -1 -10   61.29    4.90
  -3   1  10   53.09    7.10
  -3   1  10   61.49    6.70
  -3   1  10   59.99    5.10
   2  -1 -10  342.07   28.50
   2  -1 -10  363.66   27.70
   2  -1 -10  352.16   18.50
  -2   1  10  326.37   19.30
  -2   1  10  311.47   20.30
  -2   1  10  339.17   18.70
   1  -1 -10   18.80    4.60
   1  -1 -10   16.20    8.90
   1  -1 -10   28.00    9.30
  -1   1  10   28.80    4.90
  -1   1  10   24.30    4.20
  -1   1  10   29.70    5.60
   0  -1 -10   30.70    7.30
   0  -1 -10   15.90    7.50
   0  -1 -10   16.50    5.30
   0  -1 -10   19.50    9.40
   0   1  10   23.00    4.70
   0   1  10   38.30    5.90
  -1  -1 -10   13.50    9.10
  -1  -1 -10   30.20    6.50
   1   1  10   37.90    6.10
   1   1  10   41.50    6.10
   1   1  10   39.40    5.10
  -2  -1 -10  156.58   15.30
   2   1  10  249.08   14.10
   2   1  10  210.78   15.10
   2   1  10  217.58   14.40
  -3  -1 -10    5.40    4.30
  -3  -1 -10   -0.10    5.90
  -3  -1 -10    7.00    6.00
   3   1  10    7.70    3.10
   3   1  10    5.80    3.60
   3   1  10    4.90    3.40
  -4  -1 -10   76.19    9.60
  -4  -1 -10   32.30   10.90
  -4  -1 -10   30.00   13.30
   4   1  10   48.50    8.00
   4   1  10   61.89    7.50
   4   1  10   69.29    8.10
  -5  -1 -10  160.68   13.00
   5   1  10  150.18   12.30
   5   1  10  155.88   14.20
   5   1  10  137.19   11.20
  -6  -1 -10    1.60    6.60
  -6  -1 -10   -0.70    8.60
  -6  -1 -10   -0.20    3.20
   6   1  10   -1.70    2.90
   6   1  10    3.30    4.20
  -7  -1 -10    3.80   10.70
  -7  -1 -10    2.00    7.10
   7   1  10    3.90    5.50
   7   1  10    7.70    4.80
   6  -2 -10    6.70    5.80
   6  -2 -10    2.20    4.90
  -6   2  10    4.20    3.00
  -6   2  10   10.60    4.50
   5  -2 -10    2.50    4.40
   5  -2 -10    1.50    4.40
  -5   2  10    0.30    2.40
  -5   2  10    2.10    2.80
   4  -2 -10   35.60    8.80
   4  -2 -10   32.70    8.50
  -4   2  10   33.60    5.90
  -4   2  10   35.00    6.00
   3  -2 -10   35.50    8.80
   3  -2 -10   34.40    8.30
  -3   2  10   31.60    5.90
  -3   2  10   29.00    3.80
  -3   2  10   26.20    4.80
   2  -2 -10 1274.07   58.29
   2  -2 -10 1381.06   71.09
   2  -2 -10 1371.36   69.39
  -2   2  10 1226.58   62.59
  -2   2  10 1156.28   61.29
  -2   2  10 1261.87   60.69
   1  -2 -10   25.30    3.70
   1  -2 -10   23.40    8.90
   1  -2 -10    9.10    4.50
   1  -2 -10   20.90    8.50
  -1   2  10   14.50    3.80
  -1   2  10   16.90    4.50
   0  -2 -10   92.09   10.40
   0  -2 -10   96.49    5.80
   0  -2 -10   59.29   10.10
   0  -2 -10   59.79   14.00
   0   2  10   82.29    8.40
   0   2  10   76.69    7.80
  -1  -2 -10   -0.50    2.90
  -1  -2 -10   -3.40    4.50
  -1  -2 -10    2.20    4.90
   1   2  10    0.00    2.70
   1   2  10    1.90    2.30
   1   2  10    4.10    2.10
  -2  -2 -10   -1.50    4.30
  -2  -2 -10   -2.00    3.70
  -2  -2 -10    1.70    3.70
   2   2  10    2.50    2.30
   2   2  10    3.00    3.20
   2   2  10    2.20    2.30
  -3  -2 -10   -1.00    5.20
  -3  -2 -10   -2.50    4.10
  -3  -2 -10    1.00    3.10
   3   2  10    1.40    2.40
   3   2  10    1.30    2.30
   3   2  10    4.40    3.40
  -4  -2 -10   35.30   10.80
  -4  -2 -10   22.40   11.40
  -4  -2 -10   47.30    7.40
   4   2  10   42.40    7.20
   4   2  10   54.99    6.90
   4   2  10   67.89    7.60
  -5  -2 -10   12.30    7.60
  -5  -2 -10   28.00    5.70
  -5  -2 -10   11.90    8.90
   5   2  10   13.90    3.90
   5   2  10   13.40    3.90
   5   2  10   19.90    5.80
  -6  -2 -10    3.40    6.20
  -6  -2 -10    6.20    3.60
  -6  -2 -10    1.20    7.50
   6   2  10    0.90    3.10
   6   2  10    1.30    2.50
   6   2  10    6.00    4.30
  -7  -2 -10    5.40   10.90
  -7  -2 -10    3.80    3.40
  -7  -2 -10    0.60    6.60
   7   2  10    1.40    2.80
   7   2  10    1.90    4.70
   6  -3 -10    6.00    6.10
   6  -3 -10   15.90    7.00
  -6   3  10   14.60    4.90
   5  -3 -10   16.90    6.80
   5  -3 -10   24.10    8.00
  -5   3  10   17.30    4.50
  -5   3  10   17.00    4.70
   4  -3 -10   -0.80    2.90
   4  -3 -10   -2.00    3.70
  -4   3  10   -3.20    2.30
  -4   3  10    0.20    2.10
   3  -3 -10   12.40    5.00
   3  -3 -10   22.30    7.10
  -3   3  10   12.90    4.30
  -3   3  10   22.80    4.60
  -3   3  10   11.20    3.10
   2  -3 -10    8.10    4.50
   2  -3 -10    3.40    4.90
  -2   3  10    9.20    3.10
  -2   3  10    7.00    3.60
  -2   3  10    8.40    2.90
   1  -3 -10  300.57   21.60
   1  -3 -10  269.57   24.30
  -1   3  10  244.68   16.70
  -1   3  10  257.77   15.90
   0  -3 -10   11.20    6.70
   0  -3 -10    7.30    4.60
   0  -3 -10   25.10    8.60
   0   3  10   33.60    5.30
   0   3  10   25.30    4.40
  -1  -3 -10   22.30    6.30
  -1  -3 -10    9.90    6.50
  -1  -3 -10    4.90    5.50
   1   3  10   29.50    4.70
   1   3  10   16.80    3.80
   1   3  10   25.40    3.40
  -2  -3 -10   39.60    8.30
   2   3  10   39.40    4.70
   2   3  10   37.80    5.80
   2   3  10   33.10    5.10
  -3  -3 -10   -0.40    5.10
  -3  -3 -10   -1.50    4.10
  -3  -3 -10    3.70    3.60
   3   3  10    2.50    2.40
   3   3  10    2.00    2.10
   3   3  10    1.90    2.80
  -4  -3 -10  104.29   10.40
   4   3  10  108.89    8.80
   4   3  10  107.19    8.60
   4   3  10  122.59   10.40
  -5  -3 -10  201.08   24.10
  -5  -3 -10  288.27   18.60
   5   3  10  302.57   17.50
   5   3  10  312.97   19.20
   5   3  10  283.37   16.90
  -6  -3 -10   38.50   15.00
  -6  -3 -10   53.09   14.20
  -6  -3 -10   85.79    9.10
   6   3  10   75.69    8.50
   6   3  10   64.39    7.40
   6   3  10   63.59    9.10
  -7  -3 -10    3.80    3.60
  -7  -3 -10    4.60    9.60
  -7  -3 -10    4.60    7.40
   7   3  10   -0.70    2.90
   7   3  10    3.60    4.10
   5  -4 -10    0.50    4.90
  -5   4  10    1.90    3.00
   4  -4 -10    3.30    3.80
   4  -4 -10    8.50    4.90
  -4   4  10    1.90    2.60
  -4   4  10    0.80    2.90
   3  -4 -10  103.39   11.30
   3  -4 -10  108.89   13.00
  -3   4  10  113.29    9.50
   2  -4 -10  231.58   16.60
   2  -4 -10  228.18   19.50
  -2   4  10  225.08   14.60
  -2   4  10  208.58   13.20
  -2   4  10  218.88   15.10
   1  -4 -10   34.50    9.40
   1  -4 -10   42.90    7.30
  -1   4  10   41.70    5.00
  -1   4  10   42.90    6.30
   0  -4 -10  281.17   19.90
   0  -4 -10  207.08   22.40
   0   4  10  277.17   15.30
   0   4  10  261.47   16.00
  -1  -4 -10   -0.40    4.10
  -1  -4 -10   -3.20    3.90
  -1  -4 -10    0.80    4.00
   1   4  10    1.50    2.00
   1   4  10    3.00    2.20
   1   4  10    3.00    1.60
  -2  -4 -10  843.92   45.60
   2   4  10  844.02   41.00
   2   4  10  811.72   40.50
   2   4  10  789.32   39.20
  -3  -4 -10   95.79   10.70
   3   4  10  118.09    9.30
   3   4  10  111.19    7.90
   3   4  10  120.39    8.60
  -4  -4 -10   24.40    9.30
  -4  -4 -10   29.60    6.20
  -4  -4 -10   15.00    8.00
   4   4  10   32.20    4.70
   4   4  10   37.40    5.80
   4   4  10   32.70    4.70
  -5  -4 -10    3.20    5.70
  -5  -4 -10    2.50    3.00
  -5  -4 -10    2.80    5.90
   5   4  10   -0.80    2.70
   5   4  10   -1.90    2.00
   5   4  10   -2.20    1.80
  -6  -4 -10    9.00    7.10
  -6  -4 -10   10.90    4.40
  -6  -4 -10    3.50    6.70
   6   4  10   13.30    4.00
   6   4  10   13.00    4.50
   6   4  10   13.40    3.60
  -7  -4 -10    2.20    7.90
  -7  -4 -10    5.70    3.80
  -7  -4 -10    8.00    8.40
   7   4  10    3.80    2.50
   7   4  10    4.20    3.90
   7   4  10    4.20    3.80
   5  -5 -10   -1.90    4.40
  -5   5  10    1.70    2.80
   4  -5 -10   51.29   10.20
  -4   5  10   38.70    6.30
  -4   5  10   46.30    7.30
   3  -5 -10    9.10    5.20
  -3   5  10    1.30    2.20
  -3   5  10    2.80    3.20
   2  -5 -10   33.70    8.30
  -2   5  10   21.50    4.60
  -2   5  10   21.00    3.50
   1  -5 -10   36.20    8.90
   1  -5 -10   22.50    7.10
  -1   5  10   29.80    5.10
  -1   5  10   29.20    4.00
   0  -5 -10   10.50    5.60
   0  -5 -10   18.50    8.00
   0   5  10   27.30    3.80
   0   5  10   23.70    4.10
  -1  -5 -10   13.40    6.80
  -1  -5 -10   28.70    6.40
  -1  -5 -10   31.20    8.20
   1   5  10   28.70    2.90
   1   5  10   27.90    4.30
   1   5  10   30.60    4.40
  -2  -5 -10  108.59   12.50
   2   5  10  115.89    7.70
   2   5  10  127.59    8.90
   2   5  10  138.79    9.50
  -3  -5 -10   -3.00    4.00
  -3  -5 -10    4.00    3.70
  -3  -5 -10    0.40    4.90
   3   5  10    1.80    2.00
   3   5  10    3.70    1.90
   3   5  10   -1.10    2.00
  -4  -5 -10   42.50    7.20
   4   5  10   63.59    7.10
   4   5  10   61.09    5.80
   4   5  10   68.09    6.10
  -5  -5 -10  140.79   12.60
   5   5  10  162.58   11.70
   5   5  10  142.09   10.60
   5   5  10  153.28   10.30
  -6  -5 -10   16.40    9.20
  -6  -5 -10   20.40    5.30
  -6  -5 -10   23.90   11.40
   6   5  10   18.40    4.30
   6   5  10   26.70    4.40
   6   5  10   20.40    4.80
  -7  -5 -10    2.10    7.30
  -7  -5 -10    1.10    7.90
  -7  -5 -10    5.20    4.10
   7   5  10    6.20    2.80
   7   5  10    6.30    3.70
   7   5  10    3.50    3.70
   4  -6 -10    0.70    4.20
  -4   6  10    3.10    3.00
   3  -6 -10    7.60    4.70
  -3   6  10    2.70    2.90
  -3   6  10    1.70    3.00
   2  -6 -10   76.39   10.40
  -2   6  10   73.19    8.40
   1  -6 -10   -1.90    3.40
   1  -6 -10    2.50    4.10
  -1   6  10   -0.40    1.70
  -1   6  10   -3.60    1.90
   0  -6 -10    1.20    5.40
   0  -6 -10    5.10    4.90
   0   6  10    6.20    2.30
   0   6  10    9.50    2.80
  -1  -6 -10    5.70    6.00
  -1  -6 -10   11.70    6.00
   1   6  10   27.50    4.20
   1   6  10   20.40    3.70
  -2  -6 -10   89.29   12.50
   2   6  10   88.99    6.30
   2   6  10   97.29    7.80
   2   6  10  101.69    7.70
  -3  -6 -10   23.20    6.10
  -3  -6 -10    6.70    6.10
   3   6  10   24.30    3.60
   3   6  10   27.20    4.50
   3   6  10   36.70    4.80
  -4  -6 -10    2.60    5.20
  -4  -6 -10    7.70    3.90
   4   6  10    7.60    2.70
   4   6  10    2.20    2.10
   4   6  10    3.10    2.90
  -5  -6 -10   66.59    9.30
   5   6  10   88.79    8.50
   5   6  10   92.99    7.50
   5   6  10   96.29    8.10
  -6  -6 -10   42.50   13.20
  -6  -6 -10   78.39   10.20
   6   6  10   84.49    8.00
   6   6  10   76.49    7.00
   6   6  10   84.29    9.30
  -7  -6 -10    8.90    8.30
  -7  -6 -10    4.80   13.30
  -7  -6 -10   16.80    5.80
   7   6  10   11.00    4.50
   7   6  10   14.30    4.80
   7   6  10   10.40    3.50
  -3   7  10    8.30    3.70
  -3   7  10    9.50    4.10
  -2   7  10    1.90    2.70
   1  -7 -10   -2.40    4.20
   1  -7 -10   -1.80    3.30
  -1   7  10   -0.40    1.90
  -1   7  10   -1.60    2.10
   0  -7 -10   12.40    6.50
   0  -7 -10   31.80    8.30
   0   7  10   22.80    4.00
   0   7  10   27.00    4.30
  -1  -7 -10    1.20    4.10
  -1  -7 -10    1.00    4.80
   1   7  10   -0.60    1.70
   1   7  10   -0.60    1.90
  -2  -7 -10    3.10    4.30
  -2  -7 -10    1.60    5.00
   2   7  10    2.30    2.30
   2   7  10    1.30    2.10
  -3  -7 -10   42.60    8.20
   3   7  10   40.80    4.90
   3   7  10   47.90    6.30
   3   7  10   36.40    5.00
  -4  -7 -10    1.90    3.40
  -4  -7 -10    2.10    5.90
   4   7  10    5.30    2.60
   4   7  10    2.30    2.40
   4   7  10    5.80    3.20
  -5  -7 -10   16.50    8.00
  -5  -7 -10   30.60    7.10
   5   7  10   27.70    4.60
   5   7  10   16.00    4.20
   5   7  10   24.60    4.90
  -6  -7 -10   11.60    4.80
  -6  -7 -10    8.30    7.70
   6   7  10    6.40    3.30
   6   7  10   11.40    4.10
   6   7  10   12.90    3.70
  -1   8  10   74.59    7.70
   0  -8 -10    6.30    5.40
   0   8  10    2.40    2.50
   0   8  10    6.80    2.80
  -1  -8 -10   -2.90    3.60
   1   8  10    1.60    2.40
   1   8  10    1.30    2.20
  -2  -8 -10    0.70    4.60
  -2  -8 -10   -2.00    7.00
   2   8  10    2.30    2.60
   2   8  10    4.20    2.70
  -3  -8 -10   24.70    7.00
   3   8  10   36.30    5.90
   3   8  10   30.50    5.10
  -4  -8 -10  118.59   12.50
   4   8  10  109.39    9.20
   4   8  10  116.19   10.00
   4   8  10  110.49    9.00
  -5  -8 -10   -3.30    3.10
  -5  -8 -10   -2.90    5.10
   5   8  10    0.80    2.50
   5   8  10    0.80    3.10
   5   8  10    1.50    2.40
  -6  -8 -10   55.29   14.50
  -6  -8 -10   59.59    9.70
   6   8  10   76.09    9.00
   6   8  10   90.69    9.90
   6   8  10   96.29    8.40
  -1  -9 -10   10.90    7.10
   1   9  10    3.90    3.00
   1   9  10    1.30    2.80
  -2  -9 -10    2.80    6.20
   2   9  10    0.60    2.80
   2   9  10   -2.50    2.20
  -3  -9 -10   10.30    5.80
   3   9  10   13.20    4.50
   3   9  10   12.40    3.90
  -4  -9 -10   -0.20    4.20
   4   9  10   -1.20    3.00
   4   9  10    5.60    3.10
   3   5 -11   21.10    7.90
   3   5 -11   10.40    6.90
   3   5 -11   11.60   13.20
  -3  -5  11   17.40    5.30
  -3  -5  11    7.70    4.20
  -3  -5  11   14.50    5.10
   2   5 -11   16.30   15.60
   2   5 -11   13.20    7.50
   2   5 -11   19.90    8.30
  -2  -5  11   19.50    5.40
  -2  -5  11   27.60    6.20
   1   5 -11    9.80    6.60
   1   5 -11    1.00   13.20
  -1  -5  11   -1.70    2.80
  -1  -5  11    3.40    3.70
   0   5 -11    5.10    8.00
   0   5 -11    3.60   13.70
   0  -5  11    6.10    4.10
   0  -5  11    7.00    4.20
   5   4 -11   -7.10    8.00
   5   4 -11   -1.00    5.50
  -5  -4  11    2.50    3.60
   4   4 -11    3.40    9.70
   4   4 -11   15.20    6.10
   4   4 -11   11.70    7.10
  -4  -4  11    0.80    3.50
  -4  -4  11    5.20    3.70
  -4  -4  11   10.70    4.00
   3   4 -11    9.70    6.40
   3   4 -11   14.40    6.30
   3   4 -11   11.00   13.50
  -3  -4  11   14.90    4.90
  -3  -4  11    6.40    3.80
  -3  -4  11    7.90    3.60
   2   4 -11   83.49   13.90
   2   4 -11   66.59   22.00
   2   4 -11   92.29   15.00
  -2  -4  11   95.29    9.60
  -2  -4  11   81.69    9.50
  -2  -4  11   78.59    8.40
   1   4 -11  211.28   22.20
   1   4 -11  201.98   20.10
  -1  -4  11  181.18   13.90
  -1  -4  11  194.78   17.30
  -1  -4  11  184.98   14.00
   0   4 -11  148.99   21.30
   0  -4  11  123.69   11.50
   0  -4  11  136.69   11.40
  -1   4 -11    8.40   12.80
  -1   4 -11   10.70    9.50
  -1   4 -11    2.40    7.70
   1  -4  11   -1.10    2.40
   1  -4  11    6.20    4.20
  -2   4 -11    0.80    9.70
  -2   4 -11   -1.50    7.50
  -2   4 -11    6.80   13.50
   2  -4  11   12.70    3.90
   2  -4  11    9.90    5.00
   5   3 -11   31.10    9.40
   5   3 -11   20.60   11.40
   5   3 -11   18.60    5.50
  -5  -3  11   27.80    5.90
  -5  -3  11   24.10    5.20
  -5  -3  11   20.00    5.80
   4   3 -11    0.90    3.10
   4   3 -11    1.10    4.70
   4   3 -11   -5.20    6.40
  -4  -3  11   -0.60    2.50
  -4  -3  11    1.70    2.70
  -4  -3  11    1.70    2.60
   3   3 -11    1.30    5.50
   3   3 -11    2.70    3.50
   3   3 -11   -2.90    6.50
  -3  -3  11   -2.00    2.30
  -3  -3  11   -1.30    2.40
  -3  -3  11    0.00    2.60
   2   3 -11   -1.20    8.50
   2   3 -11    5.70    5.00
   2   3 -11    6.60    6.90
  -2  -3  11    1.30    2.80
  -2  -3  11    0.10    2.50
  -2  -3  11    3.40    2.90
   1   3 -11   12.60    6.50
   1   3 -11   16.50    8.90
   1   3 -11   17.40   13.30
  -1  -3  11   18.30    4.40
  -1  -3  11   14.50    4.40
  -1  -3  11   13.20    3.60
   0   3 -11  174.28   21.70
   0  -3  11  185.68   13.50
   0  -3  11  161.58   12.50
   0  -3  11  179.58   11.80
  -1   3 -11   21.80   14.10
  -1   3 -11   48.50   13.40
   1  -3  11   79.09    9.40
   1  -3  11   59.69    7.60
  -2   3 -11   -0.90   10.60
  -2   3 -11    9.10    8.90
  -2   3 -11    2.50    9.50
   2  -3  11    4.50    3.10
   2  -3  11    1.40    3.40
  -3   3 -11    4.60    7.80
  -3   3 -11   -0.60   12.00
   3  -3  11   17.00    5.60
   3  -3  11    8.50    3.80
   6   2 -11    9.70    8.80
   6   2 -11   13.60    8.00
  -6  -2  11   14.40    4.80
  -6  -2  11    5.90    4.40
   5   2 -11    1.60    5.70
   5   2 -11    0.10    6.50
   5   2 -11   -1.20    2.30
  -5  -2  11   -1.60    2.40
  -5  -2  11    1.30    3.20
   4   2 -11   10.80    6.40
   4   2 -11   19.20   10.50
   4   2 -11   17.10    5.20
  -4  -2  11   13.90    4.30
  -4  -2  11   13.60    3.50
  -4  -2  11   18.20    4.70
   3   2 -11   11.50    4.80
   3   2 -11   12.00    6.80
   3   2 -11    0.70    7.30
  -3  -2  11    7.20    2.90
  -3  -2  11    7.70    3.40
  -3  -2  11    2.80    2.60
   2   2 -11    5.20    9.40
   2   2 -11    5.90    6.60
   2   2 -11    5.00    4.40
  -2  -2  11    6.90    3.20
  -2  -2  11   10.20    3.40
  -2  -2  11    7.60    3.70
   1   2 -11  159.88   21.00
   1   2 -11  100.19   23.60
   1   2 -11  183.88   17.00
  -1  -2  11  166.48   11.60
  -1  -2  11  185.98   12.80
  -1  -2  11  198.48   12.70
   0   2 -11  262.47   23.30
   0  -2  11  274.17   17.10
   0  -2  11  271.57   16.90
   0  -2  11  248.78   15.30
  -1   2 -11   -1.20    5.70
  -1   2 -11   -7.40    6.40
  -1   2 -11    4.40    6.80
   1  -2  11    8.90    2.60
   1  -2  11    1.10    2.60
   1  -2  11    4.10    3.40
  -2   2 -11    7.20    7.90
  -2   2 -11    8.30   10.60
   2  -2  11   18.80    4.90
   2  -2  11   20.60    4.70
  -3   2 -11   -1.60    6.80
  -3   2 -11    0.20   10.60
   3  -2  11   -0.90    2.70
   3  -2  11    1.80    3.70
   3  -2  11   -1.00    2.30
  -4   2 -11    2.00   11.00
  -4   2 -11    2.80    7.80
   4  -2  11    2.10    3.90
   4  -2  11   -0.20    4.20
   6   1 -11   16.60    9.50
   6   1 -11   22.20    9.50
  -6  -1  11   10.80    4.70
  -6  -1  11   13.30    4.50
   5   1 -11   22.10    8.60
   5   1 -11   17.20    9.10
  -5  -1  11   15.00    4.20
  -5  -1  11   12.70    4.80
   4   1 -11   25.10    5.10
   4   1 -11   16.30    8.60
   4   1 -11   27.30    8.50
  -4  -1  11   16.10    4.30
  -4  -1  11   25.40    5.30
  -4  -1  11   21.10    3.80
   3   1 -11   13.00    7.30
   3   1 -11    8.90    8.30
   3   1 -11    6.30    3.50
  -3  -1  11    5.70    3.10
  -3  -1  11    7.40    3.60
  -3  -1  11    8.20    2.80
   2   1 -11    0.40    3.00
   2   1 -11    1.10    6.00
   2   1 -11    1.70    7.50
  -2  -1  11    4.20    2.80
  -2  -1  11   -0.50    2.10
  -2  -1  11   -0.90    1.80
   1   1 -11  106.89   23.00
   1   1 -11  157.28   14.90
   1   1 -11  149.88   19.90
  -1  -1  11  174.68   11.90
  -1  -1  11  176.88   11.40
  -1  -1  11  155.28   11.80
   0   1 -11   25.70   10.20
   0   1 -11   25.90   13.70
   0   1 -11   56.99   11.60
   0  -1  11   59.39    7.50
   0  -1  11   46.60    5.10
   0  -1  11   50.59    6.70
  -1   1 -11   26.70    9.60
   1  -1  11   36.10    6.00
   1  -1  11   41.80    7.00
   1  -1  11   38.10    5.30
  -2   1 -11    1.20    5.70
  -2   1 -11    0.90    8.00
   2  -1  11    9.30    2.60
   2  -1  11   11.90    4.60
   2  -1  11    3.20    2.90
   2  -1  11    0.70    3.00
  -3   1 -11    5.60    6.70
  -3   1 -11    3.20    9.70
  -3   1 -11    7.10    4.40
   3  -1  11   16.90    4.80
   3  -1  11   21.60    4.60
   3  -1  11   20.00    5.50
  -4   1 -11    5.50    6.60
  -4   1 -11    7.20   11.10
   4  -1  11    2.60    2.70
   4  -1  11    2.00    4.00
   4  -1  11    0.60    3.20
  -5   1 -11   -4.70   10.20
  -5   1 -11    0.70    6.90
   5  -1  11    0.80    4.00
   5  -1  11    5.20    4.80
   6   0 -11   40.80   12.50
   6   0 -11   31.00   10.10
  -6   0  11   30.10    5.70
  -6   0  11   31.10    7.00
   5   0 -11   22.40    8.40
   5   0 -11   15.50    8.00
  -5   0  11   21.20    5.60
  -5   0  11   17.60    4.60
   4   0 -11   24.50    8.70
   4   0 -11   44.40   10.40
  -4   0  11   34.80    5.40
  -4   0  11   31.90    5.90
  -4   0  11   44.90    7.10
   3   0 -11   77.79   14.00
   3   0 -11   92.39   17.40
   3   0 -11   65.09    7.50
  -3   0  11   71.39    7.50
  -3   0  11   69.19    8.60
  -3   0  11   70.89    6.20
   2   0 -11   36.60    6.00
   2   0 -11   35.50   10.80
   2   0 -11   36.30   12.50
  -2   0  11   35.40    5.10
  -2   0  11   27.00    5.70
  -2   0  11   41.00    6.10
   1   0 -11  578.84   49.20
   1   0 -11  591.54   45.10
   1   0 -11  722.43   38.20
  -1   0  11  698.53   36.20
  -1   0  11  707.23   34.90
  -1   0  11  730.43   35.40
   0   0 -11    5.70    8.40
   0   0 -11   10.50    6.00
   0   0 -11    5.00    6.30
   0   0  11    8.00    3.60
   0   0  11    8.80    3.60
   0   0  11   13.40    3.20
  -1   0 -11    6.20    8.40
  -1   0 -11    2.00    6.00
  -1   0 -11   21.00    5.70
   1   0  11   35.20    6.50
   1   0  11   35.60    5.60
   1   0  11   35.30    5.80
  -2   0 -11   19.60    8.80
  -2   0 -11   46.10    7.90
  -2   0 -11   21.40   11.70
   2   0  11   82.69    7.80
   2   0  11   79.19    9.50
  -3   0 -11   19.60    5.80
  -3   0 -11    3.50    7.60
  -3   0 -11    6.90    7.00
   3   0  11   21.10    5.00
   3   0  11   37.10    6.60
   3   0  11   28.50    6.40
  -4   0 -11    0.50    5.80
  -4   0 -11   -0.70    7.30
  -4   0 -11    6.50    4.20
   4   0  11    5.50    3.60
   4   0  11    8.00    3.40
   4   0  11    6.20    4.30
  -5   0 -11    2.40    6.90
  -5   0 -11    1.80    9.70
   5   0  11    6.70    4.80
   5   0  11    2.50    3.70
  -6   0 -11   15.80   14.70
  -6   0 -11   16.40   10.30
   6   0  11   32.70    7.80
   6   0  11   51.69    9.10
   6  -1 -11   85.39   15.90
   6  -1 -11   49.60   13.20
  -6   1  11   52.99    7.20
  -6   1  11   48.50    8.40
   5  -1 -11   -0.20    4.00
   5  -1 -11    1.60    5.00
  -5   1  11    0.90    2.80
  -5   1  11   -0.90    2.60
   4  -1 -11   37.10    9.30
   4  -1 -11   41.10   10.60
  -4   1  11   47.40    7.00
  -4   1  11   48.10    7.20
   3  -1 -11   -2.30    3.60
   3  -1 -11   -1.10    3.40
  -3   1  11    0.30    2.20
  -3   1  11    3.60    2.00
  -3   1  11    0.00    2.90
   2  -1 -11  129.89    9.30
   2  -1 -11  149.39   18.70
   2  -1 -11  143.99   17.60
  -2   1  11  124.09    9.50
  -2   1  11  138.29   11.40
  -2   1  11  118.39    9.80
   1  -1 -11  350.56   20.00
   1  -1 -11  289.37   29.40
   1  -1 -11  293.47   27.70
  -1   1  11  275.87   19.00
  -1   1  11  305.37   18.70
  -1   1  11  332.67   18.50
   0  -1 -11    8.70    8.10
   0  -1 -11    1.30    3.80
   0  -1 -11    0.90    3.50
   0  -1 -11    5.10    6.40
   0   1  11    2.90    3.20
   0   1  11   11.50    3.80
  -1  -1 -11   59.79    9.20
  -1  -1 -11   35.00   10.50
  -1  -1 -11   51.99   14.80
  -2  -1 -11   12.70    9.20
  -2  -1 -11    8.30    7.00
  -2  -1 -11   10.90    5.10
   2   1  11   23.00    4.70
   2   1  11   15.70    5.20
   2   1  11   25.50    5.50
  -3  -1 -11    3.70    4.20
  -3  -1 -11    0.40    7.40
  -3  -1 -11    5.60    6.20
   3   1  11    2.10    3.00
   3   1  11    1.00    3.40
   3   1  11    0.00    2.90
  -4  -1 -11    2.00    4.40
  -4  -1 -11    1.90    6.00
  -4  -1 -11    2.00    7.60
   4   1  11    2.70    4.00
   4   1  11    2.90    3.10
   4   1  11    0.70    2.50
  -5  -1 -11    9.50    5.10
  -5  -1 -11   -2.50    6.40
  -5  -1 -11    2.50    6.90
   5   1  11    9.20    4.10
   5   1  11    8.00    5.00
   5   1  11    5.80    3.50
  -6  -1 -11   18.30   10.50
  -6  -1 -11    6.70   12.00
   6   1  11   10.30    5.90
   6   1  11   19.50    5.80
   6  -2 -11   -1.70    5.20
   6  -2 -11    3.80    6.30
  -6   2  11    1.50    2.80
  -6   2  11   -0.60    3.00
   5  -2 -11   39.20   10.70
   5  -2 -11   44.40   11.10
  -5   2  11   49.00    8.10
  -5   2  11   41.60    6.50
   4  -2 -11   14.60    6.90
   4  -2 -11   20.00    7.20
  -4   2  11   17.60    4.60
  -4   2  11   19.80    5.20
   3  -2 -11  203.98   19.40
   3  -2 -11  194.18   18.40
  -3   2  11  163.38   13.50
  -3   2  11  213.08   13.80
  -3   2  11  179.38   11.10
   2  -2 -11  225.68   20.50
   2  -2 -11  203.68   21.00
  -2   2  11  199.28   15.00
  -2   2  11  215.58   14.00
  -2   2  11  198.68   13.20
   1  -2 -11   58.89   14.10
   1  -2 -11   47.40    5.70
   1  -2 -11   56.19   13.50
  -1   2  11   47.10    6.80
  -1   2  11   43.80    6.90
   0  -2 -11   43.80    9.10
   0  -2 -11   87.59   10.60
   0  -2 -11   32.20   10.40
   0  -2 -11   47.50   13.50
   0   2  11   64.89    8.10
   0   2  11   86.19    8.90
   1   2  11  397.96   19.70
   1   2  11  315.97   20.90
   1   2  11  322.57   20.90
  -2  -2 -11  144.39   15.60
   2   2  11  242.58   13.70
   2   2  11  202.28   14.30
   2   2  11  209.48   15.10
  -3  -2 -11    1.20    5.40
  -3  -2 -11    0.70    4.30
  -3  -2 -11   -0.30    5.70
   3   2  11   -1.20    2.20
   3   2  11    1.00    2.30
   3   2  11   -1.80    3.20
  -4  -2 -11  170.48   14.80
   4   2  11  133.49   13.00
   4   2  11  164.68   12.40
   4   2  11  165.28   12.20
  -5  -2 -11   -1.00    5.50
  -5  -2 -11   -0.10    7.80
  -5  -2 -11    1.30    3.60
   5   2  11    3.10    3.90
   5   2  11    2.50    3.10
   5   2  11    1.30    2.90
  -6  -2 -11  145.69   13.40
  -6  -2 -11  128.79   22.80
   6   2  11  141.39   14.40
   6   2  11  145.29   12.40
   6   2  11  157.18   13.00
   5  -3 -11    4.00    4.80
   5  -3 -11    1.00    4.90
  -5   3  11    3.30    3.40
  -5   3  11    1.90    3.40
   4  -3 -11   12.30    6.00
   4  -3 -11   12.30    6.40
  -4   3  11   13.80    4.20
  -4   3  11   11.40    4.10
   3  -3 -11   19.80    6.50
   3  -3 -11   22.50    7.80
  -3   3  11   14.80    3.90
  -3   3  11   14.40    4.60
   2  -3 -11    3.80    4.90
   2  -3 -11    1.60    3.30
  -2   3  11    2.20    3.20
  -2   3  11    2.80    2.70
  -2   3  11    4.70    2.90
   1  -3 -11    0.50    3.60
   1  -3 -11   -0.20    3.40
   1  -3 -11    6.10    6.60
  -1   3  11    3.00    2.80
  -1   3  11    2.70    3.00
   0  -3 -11  148.59   10.90
   0  -3 -11   79.49   12.50
   0  -3 -11  108.49   16.30
   0   3  11  139.49   11.00
   0   3  11  135.69   10.50
  -1  -3 -11    5.30    4.50
  -1  -3 -11    2.10    5.00
  -1  -3 -11    1.30    5.60
   1   3  11    0.30    2.50
   1   3  11    4.60    3.20
   1   3  11    3.40    2.30
  -2  -3 -11   97.99   13.90
   2   3  11  111.89    8.40
   2   3  11  114.79   10.60
   2   3  11  102.89    9.40
  -3  -3 -11    1.30    5.40
  -3  -3 -11   -2.10    3.60
  -3  -3 -11   -1.20    4.10
   3   3  11   -0.10    2.90
   3   3  11    2.90    2.50
   3   3  11   -0.20    2.20
  -4  -3 -11    3.00    6.90
  -4  -3 -11    1.20    3.40
  -4  -3 -11    1.90    5.40
   4   3  11    5.90    3.10
   4   3  11   10.50    4.10
   4   3  11    8.20    3.30
  -5  -3 -11    0.30    7.20
  -5  -3 -11    7.60    4.00
  -5  -3 -11    2.80    5.60
   5   3  11    5.90    2.90
   5   3  11    3.70    3.90
   5   3  11    5.90    3.40
  -6  -3 -11    0.10    6.90
  -6  -3 -11    3.40    7.00
  -6  -3 -11    2.30    3.40
   6   3  11   -1.40    4.10
   6   3  11    2.30    3.30
   6   3  11    5.70    3.00
  -7  -3 -11   73.89   10.10
  -7  -3 -11   33.40   16.40
  -7  -3 -11   63.19   16.40
   7   3  11   70.89    9.70
   7   3  11   64.79   10.70
   5  -4 -11    5.70    6.00
  -5   4  11    8.10    4.20
   4  -4 -11   45.70   10.30
  -4   4  11   44.80    7.30
  -4   4  11   37.10    7.10
   3  -4 -11   48.40    9.00
   3  -4 -11   57.19   11.00
  -3   4  11   48.10    7.00
  -3   4  11   49.80    7.70
   2  -4 -11   67.29   12.60
   2  -4 -11   58.69    9.50
  -2   4  11   52.99    7.00
  -2   4  11   50.59    6.30
  -2   4  11   43.30    7.10
   1  -4 -11   35.60    7.30
   1  -4 -11    9.10    5.20
   1  -4 -11   24.60    9.30
  -1   4  11   20.10    5.00
  -1   4  11   24.00    4.30
   0  -4 -11  178.18   21.80
   0  -4 -11  238.48   19.90
   0   4  11  266.17   15.20
   0   4  11  247.48   15.90
  -1  -4 -11   73.09   12.10
  -1  -4 -11   89.39   14.20
   1   4  11  117.79    9.60
   1   4  11  122.69    7.60
   1   4  11  137.69    9.90
  -2  -4 -11   76.79   12.00
   2   4  11  100.29    8.60
   2   4  11   98.69    7.40
   2   4  11  110.99    9.20
  -3  -4 -11   10.00    5.40
  -3  -4 -11    2.30    5.40
  -3  -4 -11    0.00    5.40
   3   4  11    9.70    4.00
   3   4  11   11.40    3.40
   3   4  11    8.00    2.60
  -4  -4 -11   -1.70    3.30
  -4  -4 -11    2.70    5.80
  -4  -4 -11   -0.60    4.80
   4   4  11   -0.40    2.10
   4   4  11   -1.50    1.70
   4   4  11    0.80    2.40
  -5  -4 -11   -2.10    6.20
  -5  -4 -11    5.10    6.30
  -5  -4 -11    6.20    4.30
   5   4  11    8.50    4.10
   5   4  11    6.10    3.10
   5   4  11   14.20    3.90
  -6  -4 -11   14.80    4.80
  -6  -4 -11   11.40    9.10
  -6  -4 -11    8.50    9.60
   6   4  11   18.70    4.80
   6   4  11   20.50    4.40
   6   4  11   16.60    5.20
  -7  -4 -11    6.80    4.90
  -7  -4 -11    8.50    9.00
  -7  -4 -11    6.00   10.90
   7   4  11    6.10    4.50
   7   4  11    0.50    3.70
   7   4  11    5.50    3.00
   4  -5 -11   18.20    7.20
  -4   5  11   11.90    4.80
  -4   5  11   21.40    5.20
   3  -5 -11    4.00    4.80
  -3   5  11    3.00    3.50
  -3   5  11   -2.30    1.80
   2  -5 -11    2.00    4.60
  -2   5  11    2.30    2.90
  -2   5  11    4.40    3.00
   1  -5 -11    0.30    4.30
   1  -5 -11    7.50    6.50
  -1   5  11    9.70    3.10
  -1   5  11    5.70    3.00
   0  -5 -11    5.70    6.80
   0  -5 -11    1.30    4.30
   0   5  11    9.30    3.00
   0   5  11    2.50    2.70
  -1  -5 -11  181.08   18.30
   1   5  11  220.78   14.00
   1   5  11  217.98   13.50
  -2  -5 -11   96.39   13.60
   2   5  11   96.19    8.10
   2   5  11  115.79    8.90
   2   5  11   98.79    7.10
  -3  -5 -11    6.30    6.70
  -3  -5 -11   26.60    7.00
  -3  -5 -11    6.90    5.90
   3   5  11   25.10    3.70
   3   5  11   24.50    4.80
   3   5  11   22.30    4.30
  -4  -5 -11    2.80    3.80
  -4  -5 -11    2.70    5.20
  -4  -5 -11    2.50    6.00
   4   5  11    3.80    2.80
   4   5  11    9.60    3.20
   4   5  11    9.00    3.00
  -5  -5 -11    6.10    4.00
  -5  -5 -11    3.80    6.90
  -5  -5 -11    4.60    5.60
   5   5  11    4.10    2.40
   5   5  11    8.40    3.90
   5   5  11    4.90    2.70
  -6  -5 -11    5.90    4.10
  -6  -5 -11    5.10    7.40
  -6  -5 -11    9.20    8.50
   6   5  11    8.00    3.30
   6   5  11   11.00    4.50
   6   5  11    9.10    3.70
  -7  -5 -11  120.99   22.60
  -7  -5 -11  162.28   14.40
  -7  -5 -11  120.99   25.80
   7   5  11  151.18   12.80
   7   5  11  168.38   14.20
   7   5  11  163.38   11.60
   3  -6 -11   68.29   11.70
  -3   6  11   74.29    8.20
  -3   6  11   56.89    8.50
   2  -6 -11    0.10    4.10
  -2   6  11    0.90    2.90
   1  -6 -11   -0.40    4.20
   1  -6 -11   -2.20    3.60
  -1   6  11    2.20    2.90
  -1   6  11    0.80    2.00
   0  -6 -11   23.80    8.20
   0  -6 -11   47.20   12.00
   0   6  11   53.19    6.70
   0   6  11   47.60    5.60
  -1  -6 -11  169.58   18.80
   1   6  11  246.38   14.60
   1   6  11  239.48   14.10
  -2  -6 -11    3.80    4.80
  -2  -6 -11    1.10    5.50
   2   6  11    4.90    2.80
   2   6  11    6.00    3.00
  -3  -6 -11   96.49   12.80
   3   6  11  115.79    8.10
   3   6  11  114.39    8.90
   3   6  11  122.09    9.60
  -4  -6 -11    0.10    3.60
  -4  -6 -11   -0.80    4.40
   4   6  11   -0.50    2.00
   4   6  11    5.10    2.90
   4   6  11    0.90    2.00
  -5  -6 -11   -1.60    4.80
  -5  -6 -11    5.00    4.30
   5   6  11    8.50    3.00
   5   6  11   13.00    3.70
   5   6  11    6.80    3.50
  -6  -6 -11    4.30    7.40
  -6  -6 -11    1.10    3.80
   6   6  11    0.30    2.90
   6   6  11    2.20    2.70
   6   6  11   -0.60    2.50
   2  -7 -11    0.00    4.50
  -2   7  11    0.40    2.90
   1  -7 -11   75.29   12.10
   1  -7 -11   41.90   10.30
  -1   7  11   91.99    8.40
   0  -7 -11  133.29   16.60
   0   7  11  140.19   10.60
   0   7  11  135.89    9.80
  -1  -7 -11   -1.30    5.20
  -1  -7 -11    4.50    4.90
   1   7  11    4.20    2.60
   1   7  11    0.10    1.90
  -2  -7 -11   52.69   10.80
   2   7  11   76.69    7.10
   2   7  11   64.69    7.50
  -3  -7 -11    4.80    4.50
  -3  -7 -11   -1.00    5.70
   3   7  11    1.40    2.60
   3   7  11    3.40    2.60
  -4  -7 -11   39.70    8.10
   4   7  11   62.89    7.50
   4   7  11   54.89    6.70
   4   7  11   56.99    6.30
  -5  -7 -11    6.10    7.00
  -5  -7 -11   16.60    5.70
   5   7  11    9.10    3.90
   5   7  11   16.20    3.90
   5   7  11    6.20    3.00
  -6  -7 -11    0.60    3.80
  -6  -7 -11    4.10    7.60
   6   7  11    2.30    2.90
   6   7  11   -1.10    2.40
   6   7  11   -2.20    2.90
   1  -8 -11    1.00    5.50
  -1   8  11    3.10    2.90
   0  -8 -11   -2.00    5.70
   0   8  11    5.60    3.20
   0   8  11    8.30    3.30
  -1  -8 -11   16.10    7.80
   1   8  11   33.80    5.60
   1   8  11   35.70    5.50
  -2  -8 -11    3.50    6.80
  -2  -8 -11    1.40    5.70
   2   8  11    0.50    2.50
   2   8  11    1.30    2.50
  -3  -8 -11   54.49   10.80
   3   8  11   89.79    7.90
   3   8  11   62.69    7.80
  -4  -8 -11    3.30    6.20
  -4  -8 -11    9.20    5.40
   4   8  11    9.20    3.50
   4   8  11    1.80    3.10
  -5  -8 -11   55.49    9.90
   5   8  11   39.70    6.80
   5   8  11   45.50    6.60
   5   8  11   43.60    6.50
  -2  -9 -11   -3.60    5.50
   3   4 -12   34.30   16.80
   3   4 -12   32.90    9.10
   3   4 -12   26.30    9.20
  -3  -4  12   20.70    5.80
  -3  -4  12   27.20    6.50
  -3  -4  12   28.40    5.90
   2   4 -12   43.80   11.20
   2   4 -12   36.90   10.60
   2   4 -12   50.49   21.30
  -2  -4  12   43.40    7.40
  -2  -4  12   45.30    7.30
  -2  -4  12   48.70    8.00
   1   4 -12   33.20   11.50
   1   4 -12   40.60   11.40
   1   4 -12   17.90   15.50
  -1  -4  12   40.80    7.10
  -1  -4  12   37.90    7.10
   0   4 -12    1.50    8.50
   0   4 -12   -3.10   11.30
   0   4 -12    3.70    7.00
   0  -4  12    6.50    4.10
   0  -4  12    0.70    4.00
  -1   4 -12    5.50    9.40
  -1   4 -12    0.10   10.10
   4   3 -12   -6.30    7.60
   4   3 -12    5.50    6.70
   4   3 -12    0.30    3.50
  -4  -3  12    0.00    3.40
  -4  -3  12    2.80    3.10
   3   3 -12   21.40    6.90
   3   3 -12   23.60   14.00
   3   3 -12   19.00    8.50
  -3  -3  12   16.60    4.60
  -3  -3  12   14.50    4.50
  -3  -3  12   18.70    5.30
   2   3 -12   68.59   14.40
   2   3 -12   39.90   18.00
   2   3 -12   47.10   11.00
  -2  -3  12   48.60    7.40
  -2  -3  12   49.10    7.20
  -2  -3  12   54.19    8.00
   1   3 -12   17.90    9.90
   1   3 -12    5.60   13.10
   1   3 -12   22.70    8.50
  -1  -3  12   17.20    4.30
  -1  -3  12   20.30    4.80
  -1  -3  12   21.70    5.50
   0   3 -12    5.90    7.00
   0   3 -12    3.40    8.60
   0   3 -12    8.20   12.50
   0  -3  12    1.10    3.00
   0  -3  12    0.10    3.20
  -1   3 -12    2.50   10.90
  -1   3 -12    0.70    7.20
  -1   3 -12   14.00    9.00
   1  -3  12    9.50    3.90
   1  -3  12    4.00    3.70
  -2   3 -12   -0.70    7.00
  -2   3 -12    8.80   11.20
  -2   3 -12    5.90    9.60
   2  -3  12    1.60    2.60
   2  -3  12   -0.90    3.20
   5   2 -12   16.50   10.50
   5   2 -12   21.10    9.30
  -5  -2  12    3.60    4.20
  -5  -2  12   19.20    5.40
   4   2 -12    4.30    7.80
   4   2 -12    4.60    3.90
   4   2 -12    4.30    6.30
  -4  -2  12    5.30    4.20
  -4  -2  12    0.60    2.30
  -4  -2  12    1.70    3.20
   3   2 -12   98.19   12.70
   3   2 -12  124.59   16.90
   3   2 -12  119.69   23.80
  -3  -2  12  107.99   10.20
  -3  -2  12  106.29    9.30
  -3  -2  12  122.49   10.50
   2   2 -12  144.79   28.30
   2   2 -12  158.68   15.20
   2   2 -12  174.18   20.40
  -2  -2  12  130.39   11.50
  -2  -2  12  159.28   11.50
  -2  -2  12  143.79   11.50
   1   2 -12  185.38   17.50
   1   2 -12  133.59   28.50
   1   2 -12  197.98   23.80
  -1  -2  12  191.98   13.20
  -1  -2  12  174.28   12.30
  -1  -2  12  158.58   12.60
   0   2 -12    8.80    7.10
   0   2 -12    1.00    9.80
   0   2 -12    7.50    8.30
   0  -2  12    1.60    2.70
   0  -2  12    1.70    2.80
   0  -2  12    3.00    2.20
  -1   2 -12    8.10   11.10
  -1   2 -12   17.90    9.30
  -1   2 -12    4.30    7.40
   1  -2  12   14.80    4.30
   1  -2  12   19.00    4.00
   1  -2  12   22.60    5.70
  -2   2 -12   18.90   10.50
  -2   2 -12    5.90   11.40
  -2   2 -12    2.60    8.20
   2  -2  12   26.40    5.20
   2  -2  12   29.40    6.10
  -3   2 -12    5.40    8.10
  -3   2 -12   -2.40    9.50
   3  -2  12   14.90    5.60
   3  -2  12   11.40    4.80
   3  -2  12   14.80    4.30
   5   1 -12    8.90    8.50
   5   1 -12    4.50    6.70
  -5  -1  12    4.10    4.00
  -5  -1  12    2.90    3.40
   4   1 -12   31.10   12.20
   4   1 -12   23.20    9.00
  -4  -1  12   23.90    5.60
  -4  -1  12   35.10    6.30
  -4  -1  12   26.10    4.50
   3   1 -12   -0.60    5.40
   3   1 -12    3.90    6.70
   3   1 -12    9.60    4.40
  -3  -1  12    0.90    3.00
  -3  -1  12    2.30    2.50
  -3  -1  12    7.50    3.50
   2   1 -12   36.40   15.20
   2   1 -12   36.60   11.30
   2   1 -12   39.30    8.00
  -2  -1  12   32.70    5.30
  -2  -1  12   38.00    6.00
  -2  -1  12   41.00    6.90
   1   1 -12   13.50    9.30
   1   1 -12    2.00    9.40
   1   1 -12    8.80    5.40
  -1  -1  12    1.50    2.10
  -1  -1  12    4.00    3.30
  -1  -1  12    0.40    2.90
   0   1 -12  157.68   19.50
   0  -1  12  112.89    9.30
   0  -1  12  128.99   10.90
   0  -1  12  135.89   11.40
  -1   1 -12   10.70    8.10
  -1   1 -12    8.30    7.90
  -1   1 -12    3.40    9.30
   1  -1  12   17.60    5.30
   1  -1  12   16.90    3.80
   1  -1  12   14.50    4.50
  -2   1 -12   14.90   11.70
   2  -1  12   50.59    7.90
   2  -1  12   56.29    8.10
   2  -1  12   46.90    7.10
   2  -1  12   49.00    5.30
  -3   1 -12   -1.30    5.40
  -3   1 -12   -7.00    9.60
   3  -1  12    6.50    3.40
   3  -1  12    3.10    4.10
   3  -1  12    0.00    3.50
  -4   1 -12   -1.30   10.50
  -4   1 -12    5.20    8.50
   4  -1  12    4.90    4.10
   4  -1  12    6.30    4.90
   4  -1  12    2.20    3.10
   5   0 -12   57.99   13.10
   5   0 -12   64.39   15.10
  -5   0  12   42.60    6.90
  -5   0  12   58.89    8.90
   4   0 -12   32.50   10.70
   4   0 -12   30.10    9.50
  -4   0  12   40.20    7.10
  -4   0  12   30.40    6.00
   3   0 -12   42.00   11.40
   3   0 -12   18.00    8.90
  -3   0  12   27.80    5.80
  -3   0  12   24.40    5.10
  -3   0  12   24.80    4.30
   2   0 -12    0.20    2.80
   2   0 -12    6.10    8.00
   2   0 -12    5.70    6.70
  -2   0  12    2.90    2.50
  -2   0  12    4.20    2.70
  -2   0  12    2.40    3.10
   1   0 -12  409.76   24.50
   1   0 -12  333.17   31.70
   1   0 -12  259.07   33.10
  -1   0  12  379.56   20.70
  -1   0  12  363.96   21.80
  -1   0  12  351.86   20.90
   0   0 -12   14.10   10.90
   0   0 -12   10.00    8.30
   0   0 -12   25.60    7.90
   0   0  12   20.40    4.90
   0   0  12   21.70    4.30
   0   0  12   25.00    5.50
  -1   0 -12    1.00    6.70
  -1   0 -12    2.20    7.90
  -1   0 -12    5.50    6.70
   1   0  12    3.30    3.10
   1   0  12    4.10    2.60
   1   0  12    3.60    3.30
  -2   0 -12    9.90   10.30
  -2   0 -12   13.50    8.50
  -2   0 -12   26.50    7.10
   2   0  12   32.30    6.50
   2   0  12   41.90    6.80
   2   0  12   41.20    6.40
  -3   0 -12    4.30    4.00
  -3   0 -12    5.00    8.30
  -3   0 -12    1.20    6.80
   3   0  12    9.70    3.70
   3   0  12    5.40    4.00
   3   0  12   12.50    4.90
  -4   0 -12   -2.20    6.20
  -4   0 -12    1.80    4.00
  -4   0 -12    3.10   10.50
   4   0  12    2.40    4.30
   4   0  12    1.90    3.20
   4   0  12    2.90    3.00
  -5   0 -12    3.40    8.20
  -5   0 -12   -1.00    9.50
   5   0  12   -1.10    4.30
   5   0  12    4.80    4.60
   5  -1 -12    1.30    5.40
   5  -1 -12   -0.60    4.90
  -5   1  12    1.40    3.40
  -5   1  12    3.90    3.40
   4  -1 -12   24.50    9.00
   4  -1 -12   24.70    9.20
  -4   1  12   14.00    4.50
  -4   1  12   21.90    5.40
   3  -1 -12  136.19   17.80
   3  -1 -12  156.98   17.90
  -3   1  12  129.09   11.40
  -3   1  12  132.59   10.90
  -3   1  12  123.99    9.00
   2  -1 -12  213.58   22.50
   2  -1 -12  207.18   23.60
  -2   1  12  195.68   14.90
  -2   1  12  193.38   13.10
  -2   1  12  205.78   14.00
   1  -1 -12   78.79   18.10
   1  -1 -12   66.49   14.80
   1  -1 -12   78.79    9.70
  -1   1  12   71.69    7.30
  -1   1  12   87.29    9.40
  -1   1  12   64.19    8.80
   0  -1 -12    0.20    7.00
   0  -1 -12    3.80    4.40
   0  -1 -12   -1.80    5.50
   0   1  12    3.20    3.30
   0   1  12    3.60    3.40
  -1  -1 -12    0.90    6.00
  -1  -1 -12    0.80    7.30
  -1  -1 -12    2.90    4.30
   1   1  12   -0.70    2.40
   1   1  12    0.30    3.30
   1   1  12    2.80    3.20
  -2  -1 -12   47.00   15.20
  -2  -1 -12   62.39   15.10
  -2  -1 -12   87.09   11.30
  -3  -1 -12    7.60    7.60
  -3  -1 -12    3.60    4.10
  -3  -1 -12    7.00    8.50
   3   1  12    5.10    4.30
   3   1  12    9.50    4.10
   3   1  12    4.60    3.50
  -4  -1 -12    3.10    8.10
  -4  -1 -12   16.60    6.10
  -4  -1 -12    4.10    7.60
   4   1  12   20.70    5.40
   4   1  12   19.70    5.10
   4   1  12   25.10    7.10
  -5  -1 -12    2.40    4.90
  -5  -1 -12    4.20    7.70
  -5  -1 -12    0.80   10.00
   5   1  12    1.70    4.50
   5   1  12    7.00    4.30
   5   1  12    5.50    3.60
   5  -2 -12    8.20    6.60
   5  -2 -12    8.80    6.50
  -5   2  12    5.90    3.60
  -5   2  12    1.70    3.40
   4  -2 -12    8.80    7.00
   4  -2 -12   11.90    7.10
  -4   2  12   12.40    4.20
  -4   2  12   11.30    4.20
   3  -2 -12  111.89   14.80
   3  -2 -12  124.09   16.20
  -3   2  12  102.79   10.50
  -3   2  12  115.89   10.00
   2  -2 -12   10.20    6.50
   2  -2 -12   18.90    8.60
  -2   2  12    7.00    3.10
  -2   2  12   10.20    4.30
  -2   2  12   14.60    4.10
   1  -2 -12  173.08   21.70
   1  -2 -12  163.08   21.40
  -1   2  12  191.08   12.60
  -1   2  12  163.88   13.60
  -1   2  12  149.88   12.40
   0  -2 -12   24.30   11.30
   0  -2 -12   17.20    8.30
   0  -2 -12   25.20    7.50
   0  -2 -12   36.80    7.40
   0   2  12   36.80    6.50
   0   2  12   40.60    7.00
  -1  -2 -12   20.00   10.00
  -1  -2 -12   31.20    7.90
  -1  -2 -12   24.80   10.30
   1   2  12   52.69    7.50
   1   2  12   44.10    7.20
   2   2  12  228.58   16.40
   2   2  12  234.78   17.20
   2   2  12  247.58   15.40
  -3  -2 -12   15.10    8.60
  -3  -2 -12   46.80    9.60
   3   2  12   51.19    6.80
   3   2  12   48.90    8.30
   3   2  12   37.10    6.60
  -4  -2 -12   28.70    7.80
  -4  -2 -12    5.10    6.90
  -4  -2 -12    4.10    6.80
   4   2  12   19.50    5.20
   4   2  12   19.60    5.70
   4   2  12   16.90    4.80
  -5  -2 -12    6.80   10.20
  -5  -2 -12   16.40    9.80
  -5  -2 -12   18.30    6.60
   5   2  12   33.70    6.30
   5   2  12   20.90    5.10
   5   2  12   25.70    7.00
  -6  -2 -12    6.20    5.10
  -6  -2 -12   -3.00    9.10
  -6  -2 -12   -1.20    6.90
   6   2  12    1.30    4.30
   6   2  12    1.60    5.10
   5  -3 -12    2.30    5.40
   5  -3 -12    2.70    5.90
  -5   3  12    1.20    3.60
  -5   3  12    0.90    2.90
   4  -3 -12   -2.40    3.70
   4  -3 -12    1.00    5.30
  -4   3  12   -1.20    2.50
  -4   3  12   -1.00    2.60
   3  -3 -12   11.00    6.80
   3  -3 -12    7.40    5.20
  -3   3  12   13.20    4.30
  -3   3  12    6.70    4.30
   2  -3 -12   29.10    8.10
   2  -3 -12   41.30   11.00
  -2   3  12   25.70    5.20
  -2   3  12   16.00    4.30
  -2   3  12   32.90    6.50
   1  -3 -12  296.67   24.50
   1  -3 -12  259.97   26.80
  -1   3  12  246.88   16.90
  -1   3  12  269.37   18.50
   0  -3 -12   94.89   17.70
   0  -3 -12   51.99   13.80
   0  -3 -12   59.89   10.90
   0   3  12   93.19   10.30
   0   3  12   94.09    9.20
  -1  -3 -12   13.60    8.50
  -1  -3 -12   35.10    8.60
  -1  -3 -12   16.10    8.90
   1   3  12   45.20    5.20
   1   3  12   42.40    7.00
   1   3  12   47.00    7.00
  -2  -3 -12  220.28   20.90
   2   3  12  321.27   17.20
   2   3  12  270.57   18.40
   2   3  12  330.47   19.90
  -3  -3 -12    0.80    4.50
  -3  -3 -12   -0.30    5.30
  -3  -3 -12   -0.30    6.20
   3   3  12    3.00    2.70
   3   3  12   -0.40    3.20
   3   3  12    1.60    2.90
  -4  -3 -12   74.09   11.10
   4   3  12   63.09    8.10
   4   3  12   68.69    9.70
   4   3  12   64.49    7.90
  -5  -3 -12   -1.20    6.20
  -5  -3 -12    4.10    8.10
  -5  -3 -12    0.30    4.00
   5   3  12    0.90    2.80
   5   3  12    2.00    4.70
   5   3  12    0.90    3.00
  -6  -3 -12   30.20    7.40
  -6  -3 -12   18.00    9.80
  -6  -3 -12    9.80   12.00
   6   3  12   37.50    8.30
   6   3  12   42.30    7.50
   6   3  12   31.30    6.10
   4  -4 -12   10.50    6.90
  -4   4  12   14.80    5.20
  -4   4  12   13.80    4.60
   3  -4 -12   23.60    7.90
  -3   4  12   21.50    5.90
  -3   4  12   24.70    5.20
   2  -4 -12    2.80    3.70
   2  -4 -12    3.30    5.50
  -2   4  12    7.80    3.40
  -2   4  12   -0.70    3.30
  -2   4  12    4.00    3.00
   1  -4 -12    0.30    6.00
   1  -4 -12    0.40    4.20
   1  -4 -12   -0.80    3.30
  -1   4  12    0.20    2.60
  -1   4  12    1.40    3.00
   0  -4 -12    0.50    4.70
   0  -4 -12   -1.20    3.50
   0  -4 -12   -0.10    5.40
   0   4  12   -0.70    2.70
   0   4  12    0.40    2.70
  -1  -4 -12  146.29   16.50
  -1  -4 -12  164.88   19.90
   1   4  12  224.88   14.30
  -2  -4 -12    9.10    5.90
  -2  -4 -12    3.40    5.90
  -2  -4 -12    4.80    6.30
   2   4  12    6.00    3.50
   2   4  12    5.70    2.50
   2   4  12   11.80    3.90
  -3  -4 -12   38.00    9.10
   3   4  12   33.70    5.10
   3   4  12   30.40    5.40
   3   4  12   32.80    6.20
  -4  -4 -12   -2.20    3.90
  -4  -4 -12   -2.40    4.10
  -4  -4 -12    2.80    6.40
   4   4  12    0.40    3.30
   4   4  12    0.70    2.10
   4   4  12    0.30    2.40
  -5  -4 -12   21.80   10.70
  -5  -4 -12   17.30   11.10
  -5  -4 -12   42.10    7.80
   5   4  12   55.49    7.30
   5   4  12   53.99    8.30
   5   4  12   46.90    6.60
  -6  -4 -12    5.60    4.80
  -6  -4 -12    2.30    8.20
  -6  -4 -12    3.60    7.30
   6   4  12   11.10    4.50
   6   4  12    7.00    3.60
   6   4  12   19.30    6.20
   4  -5 -12   -0.30    4.50
  -4   5  12    0.90    3.90
  -4   5  12   -1.80    2.90
   3  -5 -12   15.90    7.40
  -3   5  12   14.00    4.60
  -3   5  12   11.60    4.70
   2  -5 -12   19.40    7.70
  -2   5  12   18.70    4.50
  -2   5  12   12.40    4.70
   1  -5 -12   13.40    6.00
   1  -5 -12   35.90   10.30
  -1   5  12   37.00    5.50
  -1   5  12   36.30    6.50
   0  -5 -12    1.60    4.00
   0  -5 -12    2.30    6.80
   0   5  12    0.90    2.70
   0   5  12   -0.70    2.50
  -1  -5 -12   84.89   13.80
   1   5  12   88.59    8.60
   1   5  12   92.19    8.80
  -2  -5 -12   32.20    9.20
  -2  -5 -12    5.70    7.10
   2   5  12   27.50    5.40
   2   5  12   35.50    5.90
   2   5  12   32.20    5.50
  -3  -5 -12    3.60    9.40
  -3  -5 -12    6.70    6.90
  -3  -5 -12   29.10    7.70
   3   5  12   32.00    4.40
   3   5  12   30.00    5.80
   3   5  12   27.60    5.00
  -4  -5 -12   19.30    6.50
  -4  -5 -12    2.90    6.70
  -4  -5 -12    3.10    6.10
   4   5  12   23.20    4.30
   4   5  12   15.20    5.00
   4   5  12   30.90    5.20
  -5  -5 -12   -0.40    6.60
  -5  -5 -12   -1.20    6.70
  -5  -5 -12    6.90    4.80
   5   5  12    1.10    2.60
   5   5  12    0.30    3.20
   5   5  12    1.10    2.60
  -6  -5 -12   -2.80    6.10
  -6  -5 -12    2.00    7.70
  -6  -5 -12    1.60    4.00
   6   5  12    2.50    3.10
   6   5  12   -1.60    3.70
   6   5  12    1.30    2.90
   3  -6 -12    1.00    5.10
  -3   6  12    1.50    3.60
  -3   6  12    1.00    3.00
   2  -6 -12   16.20    7.20
  -2   6  12   14.20    4.60
  -2   6  12    7.80    4.10
   1  -6 -12    0.10    5.00
   1  -6 -12    7.40    5.80
  -1   6  12    4.00    3.30
  -1   6  12    4.50    2.80
   0  -6 -12   18.10    7.50
   0  -6 -12   53.29   13.30
   0   6  12   42.30    6.50
   0   6  12   48.80    6.10
  -1  -6 -12    9.90    5.50
  -1  -6 -12    4.80    7.10
   1   6  12    4.80    2.90
   1   6  12    7.50    3.60
  -2  -6 -12    3.90    7.10
  -2  -6 -12    5.00    5.00
   2   6  12   -1.20    2.30
   2   6  12    0.90    2.40
  -3  -6 -12    2.30    6.90
  -3  -6 -12   10.10    6.00
   3   6  12   16.50    4.10
   3   6  12   17.30    4.40
  -4  -6 -12    3.50    4.70
  -4  -6 -12    2.90    6.20
   4   6  12    0.90    2.50
   4   6  12   -0.30    2.80
   4   6  12   -1.70    2.10
  -5  -6 -12    4.60    7.60
  -5  -6 -12    0.10    4.00
   5   6  12   -1.90    2.00
   5   6  12    2.60    3.30
   5   6  12   -1.90    2.20
  -6  -6 -12    0.70    3.90
  -6  -6 -12   -0.10    6.50
   6   6  12   -3.00    2.50
   6   6  12    3.80    3.70
   6   6  12    0.00    2.80
   2  -7 -12   -0.20    4.40
  -2   7  12    6.80    3.80
  -2   7  12    2.60    3.70
   1  -7 -12   12.30    7.30
   1  -7 -12    8.80    6.00
  -1   7  12   13.70    4.60
   0  -7 -12    7.40    6.90
   0  -7 -12    8.00    6.80
   0   7  12    9.70    3.80
   0   7  12   11.80    3.40
  -1  -7 -12    2.10    6.30
  -1  -7 -12   -1.20    6.40
   1   7  12    2.30    2.60
   1   7  12    3.30    3.00
  -2  -7 -12   35.50   10.70
  -2  -7 -12   29.50   11.40
   2   7  12   53.19    7.00
   2   7  12   46.90    6.50
  -3  -7 -12   -4.70    6.10
  -3  -7 -12    0.00    5.10
   3   7  12    3.60    3.30
   3   7  12    3.20    2.80
  -4  -7 -12   47.60    9.60
   4   7  12   50.69    6.70
   4   7  12   51.29    7.50
  -5  -7 -12   26.60    7.50
  -5  -7 -12    3.80    8.10
   5   7  12   21.10    5.40
   5   7  12   18.70    4.40
   5   7  12   23.70    5.00
   0   8  12   75.29    8.90
   0   8  12   82.39    8.30
  -1  -8 -12    7.20    7.20
   1   8  12    3.60    2.80
   1   8  12    1.80    2.90
  -2  -8 -12    7.00    7.20
  -2  -8 -12    0.60    6.70
   2   8  12    3.60    3.00
   2   8  12    0.10    2.80
  -3  -8 -12    1.90    7.20
  -3  -8 -12   12.60    7.10
   3   8  12    6.20    3.80
   3   8  12   11.80    3.80
  -4  -8 -12    7.50    5.60
  -4  -8 -12    5.60    7.40
   4   8  12    9.00    3.40
   4   8  12   14.20    4.70
   3   3 -13   56.69   13.40
   3   3 -13   67.19   11.80
   3   3 -13   98.99   25.00
  -3  -3  13   65.89    9.40
  -3  -3  13   70.79    9.10
  -3  -3  13   67.29    9.50
   2   3 -13  122.99   28.90
   2   3 -13  146.19   18.20
   2   3 -13  144.09   21.00
  -2  -3  13  106.49   10.30
  -2  -3  13  121.89   11.20
  -2  -3  13  111.79   11.00
   1   3 -13   -2.50    5.50
   1   3 -13    4.80    8.20
   1   3 -13   -6.70   10.80
  -1  -3  13    1.20    2.50
  -1  -3  13    1.70    3.60
  -1  -3  13    7.70    3.80
   0   3 -13   64.79   14.40
   0   3 -13   27.80   16.60
   0  -3  13   59.99    8.80
   0  -3  13   59.29    8.60
  -1   3 -13    2.40    9.00
  -1   3 -13    0.60    7.80
  -1   3 -13    9.70   13.10
   1  -3  13   10.70    4.70
   1  -3  13    9.30    4.00
   4   2 -13   16.70   11.50
   4   2 -13   11.50    7.90
  -4  -2  13   10.10    4.60
  -4  -2  13    9.40    4.50
  -4  -2  13    7.40    3.80
   3   2 -13    4.80    7.40
   3   2 -13    7.10    4.80
   3   2 -13    6.10    9.90
  -3  -2  13    6.00    4.10
  -3  -2  13    5.00    3.70
  -3  -2  13    2.30    2.80
   2   2 -13   19.10   14.30
   2   2 -13   24.40    7.50
   2   2 -13   34.40   11.70
  -2  -2  13   14.10    4.10
  -2  -2  13   27.90    6.30
  -2  -2  13   21.10    5.10
   1   2 -13   10.20    6.50
   1   2 -13   12.50    9.70
   1   2 -13    5.70   11.70
  -1  -2  13   11.30    4.80
  -1  -2  13    8.30    4.00
  -1  -2  13   12.60    4.00
   0   2 -13    0.80   11.20
   0   2 -13    2.70    6.50
   0   2 -13    5.50    8.30
   0  -2  13   11.50    4.40
   0  -2  13    7.30    3.10
   0  -2  13    5.20    3.80
  -1   2 -13    2.00    7.50
  -1   2 -13   10.00   13.10
  -1   2 -13   -1.60    6.30
   1  -2  13   10.60    4.30
   1  -2  13    3.10    4.20
  -2   2 -13   42.90   14.30
  -2   2 -13   17.90   15.40
   2  -2  13   70.89    9.80
   2  -2  13   63.69    8.10
   4   1 -13   -2.00    5.20
   4   1 -13   -2.10    6.00
  -4  -1  13    4.30    3.50
  -4  -1  13   -1.00    2.90
   3   1 -13    7.00    9.50
   3   1 -13    7.10    7.70
  -3  -1  13   -0.50    2.60
  -3  -1  13    2.20    3.00
  -3  -1  13   -1.30    3.00
   2   1 -13   -4.00    7.60
   2   1 -13    4.60    7.40
   2   1 -13   -0.50    3.40
  -2  -1  13   -0.20    2.30
  -2  -1  13   -0.40    2.30
  -2  -1  13    2.10    3.50
   1   1 -13   17.30   13.20
   1   1 -13   16.50    6.80
   1   1 -13   25.60   11.70
  -1  -1  13   30.10    6.10
  -1  -1  13   29.20    5.50
  -1  -1  13   29.20    5.80
   0   1 -13  105.29   16.30
   0  -1  13  118.89    9.80
   0  -1  13  138.69   11.70
   0  -1  13  129.89   11.30
  -1   1 -13   -1.60    6.70
  -1   1 -13    4.90   11.50
  -1   1 -13    2.10    7.20
   1  -1  13    1.00    2.30
   1  -1  13   -1.00    2.50
   1  -1  13   -1.00    3.20
  -2   1 -13    2.10    7.00
  -2   1 -13   -2.40    7.70
  -2   1 -13    3.60   11.10
   2  -1  13   -0.20    2.70
   2  -1  13    1.10    2.00
   2  -1  13    0.70    3.80
  -3   1 -13    4.30    8.00
  -3   1 -13   -4.20    9.90
   3  -1  13   11.50    5.50
   3  -1  13   10.60    5.20
   3  -1  13    9.30    4.20
   4   0 -13    0.40    6.00
   4   0 -13   -0.30    6.00
  -4   0  13    1.40    3.20
  -4   0  13   -1.90    3.30
   3   0 -13   68.29   14.60
   3   0 -13   58.89   15.60
  -3   0  13   48.90    7.70
  -3   0  13   54.09    6.50
  -3   0  13   53.99    8.00
   2   0 -13   52.99   16.70
   2   0 -13   73.19   16.20
  -2   0  13   48.40    7.30
  -2   0  13   57.19    7.10
  -2   0  13   50.19    7.80
   1   0 -13   33.00   15.40
   1   0 -13   48.30   14.20
   1   0 -13   56.39    9.70
  -1   0  13   56.59    8.40
  -1   0  13   57.49    7.70
  -1   0  13   53.99    7.40
   0   0 -13    4.90    5.20
   0   0 -13    0.60    7.90
   0   0 -13    3.30    9.40
   0   0  13   10.10    4.20
   0   0  13    5.80    2.90
   0   0  13   -1.50    3.10
  -1   0 -13   10.40    9.30
  -1   0 -13   26.70   10.20
  -1   0 -13    8.90   10.00
   1   0  13   33.00    6.40
   1   0  13   24.40    5.80
   1   0  13   32.60    5.20
   2   0  13   74.59   10.50
   2   0  13   80.19    9.70
   2   0  13   98.09    9.80
  -3   0 -13    5.80    8.70
  -3   0 -13    8.10   11.60
  -3   0 -13    3.50    4.60
   3   0  13    1.30    4.40
   3   0  13    5.70    3.80
   3   0  13    7.00    4.00
  -4   0 -13   -4.60   10.50
  -4   0 -13    4.40    8.50
   4   0  13    0.00    4.70
   4   0  13   -3.90    2.30
   4   0  13   -2.60    3.60
   5  -1 -13  135.89   19.20
  -5   1  13  122.39   12.40
   4  -1 -13   18.50    8.50
   4  -1 -13   17.70    9.00
  -4   1  13   18.80    5.70
  -4   1  13   13.40    4.80
   3  -1 -13   38.90   11.70
   3  -1 -13   35.60   11.30
  -3   1  13   36.50    6.40
  -3   1  13   35.70    8.00
  -3   1  13   29.60    6.30
   2  -1 -13    5.30    7.00
   2  -1 -13    3.10    6.70
  -2   1  13    4.10    2.80
  -2   1  13    2.10    2.50
  -2   1  13    4.60    3.70
   1  -1 -13   29.60   13.60
   1  -1 -13   31.60   11.90
  -1   1  13   24.20    5.70
  -1   1  13   34.00    5.80
  -1   1  13   34.30    6.00
   0  -1 -13    8.00    5.50
   0  -1 -13    3.40    8.60
   0  -1 -13   10.00    7.90
   0   1  13    8.90    4.00
   0   1  13    4.20    3.70
   0   1  13   12.30    3.60
  -1  -1 -13  133.69   18.00
   1   1  13  123.49   11.50
   1   1  13   97.49   11.80
  -2  -1 -13    0.00    6.10
  -2  -1 -13    0.30    8.50
  -2  -1 -13    2.50    4.30
   2   1  13    2.70    3.30
   2   1  13    2.40    3.10
   2   1  13   -1.30    3.60
  -3  -1 -13    2.40    6.50
  -3  -1 -13   -2.70    6.40
  -3  -1 -13   -0.20    4.30
   3   1  13    5.80    4.30
   3   1  13    4.10    3.70
   3   1  13    0.80    3.00
  -4  -1 -13   -0.20    6.80
  -4  -1 -13    8.60    5.10
  -4  -1 -13    8.60   12.00
   4   1  13    8.40    4.50
   4   1  13   16.00    6.30
   4   1  13   15.10    4.80
  -5  -1 -13    1.10    7.20
  -5  -1 -13    0.10    9.60
   5   1  13    4.00    5.70
   5   1  13   -0.10    4.00
   5   1  13   -0.60    3.40
   4  -2 -13   15.20    8.00
   4  -2 -13   10.30    7.60
  -4   2  13   17.20    5.10
  -4   2  13   26.40    6.20
   3  -2 -13    1.30    5.50
   3  -2 -13   13.00    8.10
  -3   2  13   19.00    5.70
  -3   2  13   15.20    4.90
   2  -2 -13   -2.80    4.80
   2  -2 -13    3.80    5.90
  -2   2  13    2.30    2.80
  -2   2  13    8.60    3.70
  -2   2  13   -1.00    3.10
   1  -2 -13   -1.90    6.20
   1  -2 -13    0.40    6.50
  -1   2  13   -1.80    2.70
  -1   2  13    1.30    2.20
  -1   2  13    2.10    3.00
   0  -2 -13    4.70    8.00
   0  -2 -13    1.70    4.30
   0  -2 -13   -0.60    5.90
   0   2  13   -0.40    3.30
   0   2  13    4.60    3.60
  -1  -2 -13    6.20    8.40
  -1  -2 -13    8.30    5.40
  -1  -2 -13    1.00    6.60
   1   2  13   19.10    5.70
   1   2  13   13.80    4.60
  -2  -2 -13   15.00    6.50
  -2  -2 -13    7.50    8.60
  -2  -2 -13    3.20    6.60
   2   2  13   13.80    4.10
   2   2  13   23.30    6.30
   2   2  13   15.30    4.70
  -3  -2 -13    2.00    7.30
  -3  -2 -13    3.80    5.00
  -3  -2 -13    7.70    9.20
   3   2  13   13.40    5.80
   3   2  13   11.10    4.20
   3   2  13   17.00    4.70
  -4  -2 -13   -2.90    6.30
  -4  -2 -13    2.70    4.80
  -4  -2 -13    2.20    8.70
   4   2  13   -3.20    3.50
   4   2  13   -0.20    2.80
   4   2  13    1.00    3.20
  -5  -2 -13   13.90   10.40
  -5  -2 -13   -1.50    5.00
  -5  -2 -13    5.10    9.50
   5   2  13   -1.40    4.50
   5   2  13    0.70    3.40
   5   2  13   -1.20    3.10
   4  -3 -13   51.79   12.70
   4  -3 -13   47.20   11.20
  -4   3  13   49.00    7.90
  -4   3  13   37.20    7.10
   3  -3 -13   52.39   11.40
   3  -3 -13   57.39   12.90
  -3   3  13   53.79    8.50
  -3   3  13   49.90    8.10
   2  -3 -13    2.10    4.70
   2  -3 -13    0.20    5.40
  -2   3  13    1.50    3.10
  -2   3  13   -0.60    2.10
  -2   3  13   -1.10    2.60
   1  -3 -13   42.10   13.10
   1  -3 -13   27.30    9.50
  -1   3  13   29.40    5.70
  -1   3  13   31.60    6.50
  -1   3  13   24.40    5.50
   0  -3 -13    0.40    6.00
   0  -3 -13    0.20    4.10
   0  -3 -13   -4.20    5.70
   0   3  13    0.90    3.20
   0   3  13    0.30    3.40
  -1  -3 -13   46.80   10.70
  -1  -3 -13   72.39   17.20
   1   3  13  108.59   11.70
   1   3  13   97.39    7.50
   1   3  13   90.99   10.70
  -2  -3 -13   15.00    6.90
  -2  -3 -13   -1.70    6.90
  -2  -3 -13    3.00    6.60
   2   3  13   15.60    5.30
   2   3  13   15.30    4.60
   2   3  13   16.30    4.10
  -3  -3 -13    3.50    6.50
  -3  -3 -13    9.00    5.80
  -3  -3 -13    5.10    8.30
   3   3  13   15.60    5.60
   3   3  13   13.30    4.50
   3   3  13   11.20    3.60
  -4  -3 -13   -0.10    7.10
  -4  -3 -13   -3.40    6.80
  -4  -3 -13    2.60    4.90
   4   3  13    0.10    3.80
   4   3  13   -0.60    3.10
   4   3  13   -0.30    3.20
  -5  -3 -13    1.90    8.20
  -5  -3 -13    3.70    5.60
  -5  -3 -13    1.60    7.60
   5   3  13    3.30    3.60
   5   3  13    4.40    4.80
   5   3  13    8.10    3.90
  -4   4  13   -0.40    3.20
   3  -4 -13   41.40   11.30
  -3   4  13   21.10    6.00
  -3   4  13   22.10    5.30
   2  -4 -13    9.50    7.80
  -2   4  13    8.90    3.90
  -2   4  13    8.80    4.30
   1  -4 -13   72.19   15.70
   1  -4 -13   29.40    8.50
  -1   4  13   43.80    7.00
  -1   4  13   44.20    7.70
   0  -4 -13   -3.40    5.60
   0  -4 -13   -2.10    4.10
   0  -4 -13    2.10    4.30
   0   4  13    1.60    3.30
   0   4  13    1.60    3.40
  -1  -4 -13   50.19   13.80
  -1  -4 -13   24.50   10.70
  -1  -4 -13   22.10    7.90
   1   4  13   47.30    7.40
   1   4  13   76.69    9.20
  -2  -4 -13   18.40    7.40
  -2  -4 -13   11.90    8.50
  -2  -4 -13   22.70   10.20
   2   4  13   48.10    7.70
   2   4  13   38.80    6.60
   2   4  13   41.60    5.40
  -3  -4 -13   -1.90    4.30
  -3  -4 -13   -2.50    5.40
  -3  -4 -13   -3.80    5.90
   3   4  13   -1.20    2.10
   3   4  13    6.50    3.20
   3   4  13    1.90    3.70
  -4  -4 -13   73.79   12.30
   4   4  13   70.39    9.80
   4   4  13   85.19    8.20
   4   4  13   63.69    8.60
  -5  -4 -13   53.59   10.20
   5   4  13   52.99    7.60
   5   4  13   52.89    9.60
   5   4  13   57.19    8.10
   3  -5 -13    9.50    6.70
  -3   5  13    6.60    4.70
  -3   5  13    6.90    3.80
   2  -5 -13   15.70    7.90
  -2   5  13   14.90    5.60
  -2   5  13   22.60    5.40
   1  -5 -13  237.98   24.30
  -1   5  13  199.68   14.30
  -1   5  13  190.68   15.50
   0  -5 -13    5.90    8.30
   0  -5 -13    0.70    5.00
   0   5  13    3.80    3.60
   0   5  13    7.60    4.10
  -1  -5 -13  107.69   16.30
  -1  -5 -13   85.69   18.20
   1   5  13  185.48   12.60
   1   5  13  150.98   12.30
  -2  -5 -13   54.89   11.60
   2   5  13   63.79    8.60
   2   5  13   78.59    9.20
  -3  -5 -13   12.10    7.10
  -3  -5 -13    6.00    7.90
   3   5  13   24.10    6.10
   3   5  13   18.20    5.00
   3   5  13    9.70    3.80
  -4  -5 -13   14.00    6.70
  -4  -5 -13    8.70    9.10
   4   5  13   18.10    4.20
   4   5  13   17.70    5.80
   4   5  13   20.10    5.10
  -5  -5 -13    1.10    7.80
  -5  -5 -13    3.90    5.50
   5   5  13    3.20    3.10
   5   5  13    6.00    3.50
   5   5  13    0.40    3.90
   2  -6 -13   -1.80    5.30
  -2   6  13    5.10    4.40
  -2   6  13    3.60    3.30
   1  -6 -13    2.30    5.90
   1  -6 -13    3.40    6.10
  -1   6  13    4.40    3.70
   0  -6 -13    1.00    5.50
   0  -6 -13    3.50    8.30
   0   6  13    2.30    3.30
   0   6  13    1.60    3.10
  -1  -6 -13   -1.80    5.10
  -1  -6 -13   -0.80    6.30
   1   6  13   -0.60    2.70
   1   6  13   -0.70    2.90
  -2  -6 -13   -1.10    5.00
  -2  -6 -13    1.90    6.90
   2   6  13    5.70    3.40
   2   6  13    7.00    3.60
  -3  -6 -13   -1.70    6.70
  -3  -6 -13    6.10    6.30
   3   6  13    3.20    3.30
   3   6  13    0.50    2.40
  -4  -6 -13   22.70    8.10
  -4  -6 -13    6.00    9.10
   4   6  13   24.20    6.20
   4   6  13   27.10    5.40
  -5  -6 -13    0.00    4.60
  -5  -6 -13    2.70    8.10
   5   6  13   -0.80    3.80
   5   6  13    1.60    2.80
   5   6  13   -1.10    2.80
   1  -7 -13    1.80    6.30
   1  -7 -13   -2.70    5.20
  -1   7  13    1.00    3.70
   0  -7 -13    8.60    6.90
   0  -7 -13   15.40    8.50
   0   7  13   19.20    5.30
   0   7  13   25.90    5.00
  -1  -7 -13   61.19   15.90
  -1  -7 -13   38.20   11.40
   1   7  13   83.19    8.10
   1   7  13   72.49    9.00
  -2  -7 -13   -2.50    6.20
  -2  -7 -13    7.80    7.30
   2   7  13    6.30    3.40
   2   7  13    2.70    3.40
  -3  -7 -13   -2.70    7.30
  -3  -7 -13    5.30    6.60
   3   7  13    0.30    3.00
   3   7  13    2.00    3.00
  -4  -7 -13    9.60    9.40
  -4  -7 -13   30.40    9.40
   4   7  13   43.70    7.30
   4   7  13   42.50    6.50
   2   2 -14    0.80    7.70
   2   2 -14   -0.90    4.10
   2   2 -14    0.00   10.90
  -2  -2  14    2.20    3.20
  -2  -2  14    0.00    3.30
  -2  -2  14    2.90    3.50
   1   2 -14    9.20    6.50
   1   2 -14    4.80   13.30
   1   2 -14    0.70    9.50
  -1  -2  14   14.30    5.00
  -1  -2  14    9.10    3.80
  -1  -2  14   10.10    4.70
   0   2 -14    0.80   12.00
   0   2 -14    1.80   10.10
   0   2 -14    5.10    7.90
   0  -2  14    2.90    3.70
   0  -2  14    3.70    3.70
   0  -2  14    6.80    3.30
   3   1 -14   44.70   16.50
   3   1 -14   40.60   12.80
  -3  -1  14   38.60    6.20
  -3  -1  14   54.19    8.50
  -3  -1  14   31.60    6.70
   2   1 -14   49.90   18.40
   2   1 -14   57.99   15.90
  -2  -1  14   50.99    7.90
  -2  -1  14   34.40    7.00
  -2  -1  14   39.00    6.40
   1   1 -14   71.49   23.00
   1   1 -14   74.39   17.90
   1   1 -14  104.79   14.70
  -1  -1  14   77.99    9.90
  -1  -1  14   86.69    8.50
  -1  -1  14   90.79    9.20
   0   1 -14   -0.10    5.70
   0   1 -14   -2.40    7.20
   0   1 -14   -2.10   10.40
   0  -1  14   -1.00    2.10
   0  -1  14    2.90    3.60
   0  -1  14    1.00    3.40
  -1   1 -14    4.50    7.50
  -1   1 -14    2.00   11.70
  -1   1 -14   -4.20    7.70
   1  -1  14    3.50    2.60
   1  -1  14    7.90    4.40
   1  -1  14    8.10    4.40
  -2   1 -14    3.00   11.90
  -2   1 -14   -1.00    9.10
  -2   1 -14   -3.30    7.90
   2  -1  14    6.40    4.90
   2  -1  14    2.50    3.70
   3   0 -14   13.50    9.20
   3   0 -14   21.10   11.60
  -3   0  14   23.80    5.90
  -3   0  14   19.00    5.90
  -3   0  14   36.80    7.30
   2   0 -14   25.90   14.00
   2   0 -14   30.50   12.10
  -2   0  14   29.90    5.40
  -2   0  14   24.60    5.60
  -2   0  14   23.20    6.00
   1   0 -14   48.80   18.70
   1   0 -14   49.40   15.10
  -1   0  14   64.99    8.40
  -1   0  14   64.49    9.30
  -1   0  14   56.79    7.80
   0   0 -14   23.60   13.60
   0   0 -14   27.60    9.20
   0   0 -14   19.10   10.70
   0   0  14   34.10    6.80
   0   0  14   25.90    5.70
   0   0  14   41.30    6.20
  -1   0 -14    3.90   11.00
  -1   0 -14   11.30    8.00
  -1   0 -14    0.00    7.00
   1   0  14    6.50    4.70
   1   0  14    5.10    4.40
   1   0  14    3.70    2.70
  -2   0 -14   -2.20    9.90
  -2   0 -14    0.00    8.50
   2   0  14    5.00    2.70
   2   0  14    6.10    4.80
   2   0  14    3.30    4.00
  -3   0 -14    3.30   10.70
  -3   0 -14    1.90    8.30
   3   0  14    6.40    4.20
   3   0  14    9.40    5.60
   3   0  14   10.20    4.60
   4  -1 -14    8.20    7.60
   4  -1 -14    9.50    8.00
  -4   1  14   12.60    5.00
  -4   1  14    7.50    4.00
   3  -1 -14    4.60    6.60
   3  -1 -14   -3.40    5.60
  -3   1  14    1.30    3.70
  -3   1  14   -0.60    2.80
   2  -1 -14   39.90   13.90
   2  -1 -14   51.09   13.80
  -2   1  14   38.80    6.90
  -2   1  14   58.29    9.20
  -2   1  14   46.40    6.60
   1  -1 -14   22.80   12.70
   1  -1 -14   12.50   10.10
  -1   1  14   17.50    4.70
  -1   1  14   23.00    5.50
  -1   1  14   13.40    4.90
   0  -1 -14    5.30   10.10
   0  -1 -14   -0.50    7.10
   0   1  14    2.30    2.40
   0   1  14    1.20    3.50
   0   1  14   -0.10    3.60
  -1  -1 -14   38.10   16.60
  -1  -1 -14   67.99   12.90
  -1  -1 -14   28.00   11.50
   1   1  14   49.30    8.40
   1   1  14   65.69    9.40
  -2  -1 -14   -0.50    4.70
  -2  -1 -14    4.90    8.50
  -2  -1 -14   -2.80    9.10
   2   1  14    4.00    4.30
   2   1  14   -2.40    3.10
   2   1  14   -0.70    3.40
  -3  -1 -14   34.90   17.10
  -3  -1 -14   89.69   13.30
   3   1  14  157.88   14.20
   3   1  14  148.09   12.20
  -4  -1 -14    4.20    5.70
  -4  -1 -14   -2.50   11.00
  -4  -1 -14    5.30    9.10
   4   1  14   -1.50    3.70
   4   1  14    1.50    4.00
   4   1  14   -4.40    4.20
   3  -2 -14   42.20   12.30
   3  -2 -14   31.20   10.30
  -3   2  14   41.30    7.80
  -3   2  14   54.39    8.60
   2  -2 -14    9.00    8.10
   2  -2 -14    9.40    7.60
  -2   2  14    5.50    4.40
  -2   2  14   12.90    4.40
  -2   2  14    9.20    3.90
   1  -2 -14   15.30   10.50
   1  -2 -14   14.70   11.10
  -1   2  14   20.50    5.10
  -1   2  14   22.50    5.70
  -1   2  14   16.10    5.50
   0  -2 -14   37.10   15.00
   0  -2 -14   26.00   11.90
   0   2  14   48.00    8.10
   0   2  14   40.20    7.90
  -1  -2 -14   70.59   19.10
  -1  -2 -14   50.29   14.60
  -1  -2 -14   55.69   10.50
   1   2  14  105.19   11.80
  -2  -2 -14    7.50    9.50
  -2  -2 -14    9.30    5.70
  -2  -2 -14   -1.80    7.10
   2   2  14    4.00    3.60
   2   2  14    4.70    4.80
   2   2  14    4.50    3.40
  -3  -2 -14   18.40    6.80
  -3  -2 -14    6.30    8.70
  -3  -2 -14    2.30    8.40
   3   2  14   29.50    7.80
   3   2  14   44.40    7.10
   3   2  14   31.30    6.70
  -4  -2 -14    3.00    8.10
  -4  -2 -14    5.40    5.70
  -4  -2 -14   -2.00    9.30
   4   2  14   24.10    6.40
   4   2  14   13.40    5.30
   4   2  14    7.20    5.50
   3  -3 -14    4.00    5.60
   3  -3 -14    2.40    6.50
  -3   3  14   -1.60    2.80
  -3   3  14    2.20    4.50
   2  -3 -14    0.90    6.50
   2  -3 -14    0.10    4.50
  -2   3  14    2.40    4.30
  -2   3  14   -1.00    2.30
   1  -3 -14   15.50    8.90
   1  -3 -14   15.00   11.40
  -1   3  14   13.30    5.30
  -1   3  14   16.70    4.80
  -1   3  14    6.30    4.80
   0  -3 -14    8.40    8.90
   0  -3 -14    2.90    7.90
   0  -3 -14    2.50    5.10
   0   3  14    3.30    4.10
   0   3  14   13.80    5.30
  -1  -3 -14   -2.30    4.10
  -1  -3 -14   -2.70    5.80
  -1  -3 -14   -1.90    7.10
   1   3  14   -0.30    3.00
   1   3  14    3.20    4.20
  -2  -3 -14    6.00    8.20
  -2  -3 -14   -2.00    7.50
  -2  -3 -14   -0.90    5.00
   2   3  14    1.00    2.60
   2   3  14    2.80    3.60
   2   3  14   -2.70    3.50
  -3  -3 -14   12.50    9.10
  -3  -3 -14   10.30    9.50
  -3  -3 -14   19.60    7.80
   3   3  14   28.60    6.90
   3   3  14   37.80    6.40
   3   3  14   23.50    6.10
  -4  -3 -14    2.80    7.80
  -4  -3 -14   20.50    7.90
  -4  -3 -14    7.70    9.40
   4   3  14   26.20    6.60
   4   3  14   28.10    7.40
   4   3  14   27.20    5.80
   3  -4 -14   32.60   10.70
  -3   4  14   44.40    7.80
  -3   4  14   40.40    8.30
   2  -4 -14   -0.50    6.50
  -2   4  14    0.80    4.00
  -2   4  14    4.40    3.60
   1  -4 -14  241.78   27.10
  -1   4  14  171.28   15.70
  -1   4  14  191.88   14.90
   0  -4 -14   -3.10    4.60
   0  -4 -14   -2.30    7.50
   0   4  14    0.90    3.80
   0   4  14    2.80    4.00
  -1  -4 -14   11.80   10.10
  -1  -4 -14   11.40    6.40
   1   4  14   27.70    6.70
   1   4  14   36.10    7.10
  -2  -4 -14   -1.50    6.90
  -2  -4 -14    4.40    5.70
  -2  -4 -14   -1.10    6.30
   2   4  14    4.30    4.10
   2   4  14    1.10    3.90
  -3  -4 -14    9.20    7.10
  -3  -4 -14    4.00    8.60
  -3  -4 -14   -5.80    6.00
   3   4  14    1.70    4.10
   3   4  14    2.60    3.40
   3   4  14    0.30    3.40
  -4  -4 -14    0.60    7.20
  -4  -4 -14    2.70    6.40
  -4  -4 -14    2.20    8.10
   4   4  14    4.50    3.50
   4   4  14    0.20    3.40
   4   4  14    0.10    4.70
  -5  -4 -14   -1.30    9.00
   2  -5 -14   56.39   13.90
  -2   5  14   54.09    8.40
  -2   5  14   40.00    8.60
   1  -5 -14    8.10    9.30
  -1   5  14    4.10    4.50
   0  -5 -14   -0.70    4.80
   0  -5 -14   -0.40    8.10
   0   5  14    3.40    4.20
   0   5  14    4.10    4.00
  -1  -5 -14    0.90    5.50
  -1  -5 -14    2.70    7.20
   1   5  14    2.30    3.70
   1   5  14    2.60    3.90
  -2  -5 -14    3.60    5.70
  -2  -5 -14   -2.40    8.40
   2   5  14    4.10    3.60
   2   5  14    1.90    3.80
  -3  -5 -14    4.90    6.30
  -3  -5 -14    1.20    8.30
   3   5  14    7.40    5.00
   3   5  14    3.10    3.50
  -4  -5 -14    7.70    8.80
  -4  -5 -14   15.60    8.30
   4   5  14   14.20    4.80
   4   5  14    8.80    4.80
   1  -6 -14    0.20    6.30
   1  -6 -14    4.00    6.20
  -1   6  14    3.00    4.10
   0  -6 -14   10.80    7.20
   0  -6 -14   25.70   12.20
   0   6  14   29.20    7.10
   0   6  14   31.90    6.10
  -1  -6 -14   33.00   13.30
  -1  -6 -14   11.30    7.20
   1   6  14   36.30    6.40
   1   6  14   42.80    7.80
  -2  -6 -14    8.10    7.30
  -2  -6 -14    3.10    8.60
   2   6  14    1.70    3.20
   2   6  14    0.70    3.70
  -3  -6 -14    3.80    8.50
  -3  -6 -14    3.80    6.80
   3   6  14   10.80    4.60
   3   6  14    7.80    4.70
  -4  -6 -14    4.90    6.60
  -4  -6 -14    4.70    8.50
   4   6  14    3.20    4.00
   4   6  14    3.50    3.50
  -1  -7 -14   36.80   14.20
  -1  -7 -14   24.00    9.80
   1   7  14   44.20    7.20
  -2  -7 -14   13.90   10.70
  -2  -7 -14    9.00    7.70
   2   7  14   32.30    6.40
   2   7  14   45.00    7.40
   2   0 -15    1.90    9.10
   2   0 -15    8.40    9.30
  -2   0  15    5.40    3.60
  -2   0  15   10.30    5.10
  -2   0  15    8.70    4.10
   1   0 -15    7.80   10.30
   1   0 -15    1.40   10.90
  -1   0  15    7.80    4.00
  -1   0  15    8.00    4.00
  -1   0  15   11.20    5.10
   0   0 -15    0.40    9.40
   0   0 -15   -2.10   10.20
   0   0  15    1.00    2.50
   0   0  15   -1.90    3.50
   0   0  15    1.00    3.50
  -1   0 -15    7.10   11.90
  -1   0 -15   13.70   11.40
  -1   0 -15   10.90    8.30
   1   0  15   25.00    6.80
   1   0  15   23.70    5.10
   1   0  15   16.70    5.40
   2  -1 -15   38.70   13.80
   2  -1 -15   24.60   12.50
  -2   1  15   28.10    6.90
  -2   1  15   26.80    5.70
  -2   1  15   31.50    6.80
   1  -1 -15    9.90   10.90
   1  -1 -15   13.80   13.40
  -1   1  15    9.30    4.50
  -1   1  15   12.20    4.30
  -1   1  15   13.90    5.20
   0  -1 -15    6.50   10.20
   0  -1 -15   -1.60    9.50
   0   1  15   13.40    5.60
   0   1  15    5.40    4.50
   0   1  15   11.40    4.10
  -1  -1 -15    5.10   10.50
  -1  -1 -15    4.00   10.10
   1   1  15    4.80    2.90
   1   1  15    7.20    4.60
   1   1  15    9.70    5.20
  -2  -1 -15    4.40   10.90
  -2  -1 -15   14.10    9.30
  -2  -1 -15    8.00   10.00
   2   1  15   15.00    5.50
   2   1  15   15.20    6.00
   2  -2 -15   77.69   17.50
   2  -2 -15  104.29   20.10
  -2   2  15   65.09   10.30
  -2   2  15   86.79   10.80
   1  -2 -15    0.30    8.60
   1  -2 -15   -1.30    7.10
  -1   2  15    0.20    2.70
  -1   2  15    3.10    4.40
  -1   2  15    1.40    3.40
   0  -2 -15   53.99   18.70
   0  -2 -15   46.60   14.90
   0   2  15   52.99    8.90
   0   2  15   56.99    8.10
   0   2  15   60.49    9.80
  -1  -2 -15    9.90    6.40
  -1  -2 -15   13.30   10.70
  -1  -2 -15   10.70   11.00
   1   2  15   21.20    6.20
   1   2  15   24.00    7.10
  -2  -2 -15   10.20    5.90
  -2  -2 -15   11.00   11.60
  -2  -2 -15    1.80    8.90
   2   2  15   22.70    6.50
   2   2  15    8.80    5.50
  -3  -2 -15   10.40    9.90
  -3  -2 -15   12.20    7.20
  -3  -2 -15    9.30   12.20
   3   2  15   23.40    5.90
   3   2  15   28.00    7.50
   3   2  15   21.20    6.20
   2  -3 -15    2.10    7.50
  -2   3  15   -1.10    2.30
  -2   3  15   -0.50    4.20
   1  -3 -15   -1.80    6.00
   1  -3 -15    1.80    9.00
  -1   3  15    2.70    4.60
  -1   3  15   -0.60    3.50
  -1   3  15    1.50    2.90
   0  -3 -15   -4.30    6.40
   0  -3 -15   -1.00    8.30
   0   3  15    2.50    4.00
   0   3  15    4.30    4.20
  -1  -3 -15    6.70    6.50
  -1  -3 -15   -2.50    8.20
  -1  -3 -15   17.00   11.10
   1   3  15   14.10    5.40
   1   3  15   14.60    6.40
  -2  -3 -15    6.20    9.30
  -2  -3 -15    9.50   10.30
  -2  -3 -15    3.90    6.20
   2   3  15    7.30    4.60
   2   3  15   22.20    7.50
  -3  -3 -15    7.20    9.20
  -3  -3 -15   10.80    7.40
  -3  -3 -15    3.00    8.70
   3   3  15   12.50    6.90
   3   3  15   18.70    7.10
   3   3  15   11.90    5.70
   1  -4 -15   63.49   17.20
  -1   4  15   60.69    8.90
  -1   4  15   58.59   10.00
   0  -4 -15   -1.50    5.40
   0  -4 -15    3.50    9.70
   0   4  15   11.10    5.60
   0   4  15    9.40    5.00
  -1  -4 -15    5.60    6.80
  -1  -4 -15    0.50    8.40
   1   4  15    5.20    4.60
   1   4  15   10.70    5.80
  -2  -4 -15    1.70    5.70
  -2  -4 -15    0.00    7.90
   2   4  15    1.40    4.80
   2   4  15    5.40    4.70
  -3  -4 -15    4.70    8.50
  -3  -4 -15    0.20    5.80
   3   4  15    9.50    6.10
   3   4  15   12.10    5.60
   0  -5 -15    6.90    6.40
   0  -5 -15   -1.10    8.40
   0   5  15    1.90    4.50
   0   5  15   -0.10    4.30
  -1  -5 -15    0.70    8.80
  -1  -5 -15    4.70    7.60
   1   5  15   18.60    6.00
   1   5  15   12.20    5.80
  -2  -5 -15   10.40    8.10
  -2  -5 -15    6.20    8.90
   2   5  15   10.00    5.80
   2   5  15   14.10    5.70
  -3  -5 -15    3.80    6.50
  -3  -5 -15   -1.70    8.00
   3   5  15    0.70    3.80
   3   5  15   10.30    5.20

_computing_structure_solution     'SHELXT 2014/4 (Sheldrick, 2014)'
;
_shelx_hkl_checksum              5232
loop_
_space_group_symop_operation_xyz
'x, y, z'
'-x, -y, -z'
loop_
_atom_site_type_symbol
_atom_site_label
_atom_site_fract_x
_atom_site_fract_y
_atom_site_fract_z
_atom_site_U_iso_or_equiv
_atom_site_adp_type
_atom_site_calc_flag
_atom_site_refinement_flags_adp
_atom_site_refinement_flags_posn
_atom_site_occupancy
O O1 0.6826(2) 0.9498(2) 0.24895(15) 0.0595(5) Uani d . . 1
S S2 0.72499(8) 0.79147(9) 0.18484(5) 0.0538(3) Uani d U . 1
C C3 0.4974(3) 0.7564(3) 0.22754(17) 0.0400(5) Uani d . . 1
C C4 0.4596(3) 0.8320(3) 0.32380(17) 0.0400(5) Uani d . . 1
N N5 0.5520(3) 0.9351(3) 0.33477(16) 0.0511(5) Uani d . . 1
O O6 0.8669(2) 0.6377(3) 0.24525(16) 0.0704(6) Uani d U . 1
C C7 0.3576(3) 0.8677(3) 0.13117(17) 0.0416(5) Uani d . . 1
C C8 0.3056(3) 0.7421(3) 0.08614(16) 0.0373(5) Uani d . . 1
C C9 0.1919(3) 0.7767(3) -0.00449(18) 0.0463(5) Uani d . . 1
H H9 0.1358 0.8916 -0.044 0.056 Uiso calc U R 1
C C10 0.1657(3) 0.6358(4) -0.0333(2) 0.0534(6) Uani d . . 1
H H10 0.0931 0.6553 -0.0941 0.064 Uiso calc U R 1
C C11 0.2462(3) 0.4651(3) 0.0272(2) 0.0515(6) Uani d . . 1
H H11 0.2251 0.372 0.0067 0.062 Uiso calc U R 1
C C12 0.3568(3) 0.4300(3) 0.11721(18) 0.0435(5) Uani d . . 1
H H12 0.4101 0.3149 0.1573 0.052 Uiso calc U R 1
C C13 0.3867(3) 0.5708(3) 0.14647(17) 0.0365(5) Uani d . . 1
C C14 0.5030(3) 0.5641(3) 0.24007(17) 0.0408(5) Uani d . . 1
H H14A 0.6291 0.4914 0.2364 0.049 Uiso calc U R 1
H H14B 0.4514 0.5172 0.3086 0.049 Uiso calc U R 1
O O15 0.3132(3) 1.0254(2) 0.10213(15) 0.0681(5) Uani d . . 1
C C16 0.3173(3) 0.8013(3) 0.40496(17) 0.0395(5) Uani d . . 1
C C17 0.1681(3) 0.7490(3) 0.38056(18) 0.0457(5) Uani d . . 1
H H17 0.1591 0.73 0.3128 0.055 Uiso calc U R 1
C C18 0.0338(3) 0.7252(3) 0.45640(19) 0.0455(5) Uani d . . 1
H H18 -0.0641 0.6876 0.4409 0.055 Uiso calc U R 1
C C19 0.0474(3) 0.7579(3) 0.55508(18) 0.0415(5) Uani d . . 1
C C20 0.1923(3) 0.8121(3) 0.58168(17) 0.0421(5) Uani d . . 1
H H20 0.1976 0.8347 0.6487 0.05 Uiso calc U R 1
C C21 0.3278(3) 0.8316(3) 0.50721(17) 0.0405(5) Uani d . . 1
H H21 0.4274 0.8651 0.5245 0.049 Uiso calc U R 1
N N22 -0.0990(3) 0.7381(3) 0.63478(16) 0.0512(5) Uani d . . 1
O O23 -0.0893(3) 0.7781(3) 0.71925(15) 0.0705(5) Uani d . . 1
O O24 -0.2223(2) 0.6847(3) 0.61144(17) 0.0702(5) Uani d . . 1
loop_
_atom_site_aniso_label
_atom_site_aniso_U_11
_atom_site_aniso_U_22
_atom_site_aniso_U_33
_atom_site_aniso_U_12
_atom_site_aniso_U_13
_atom_site_aniso_U_23
O1 0.0716(10) 0.0691(11) 0.0592(11) -0.0483(9) 0.0172(8) -0.0245(9)
S2 0.0597(4) 0.0696(5) 0.0463(4) -0.0362(3) 0.0127(3) -0.0216(3)
C3 0.0465(11) 0.0415(11) 0.0362(11) -0.0196(9) 0.0018(8) -0.0096(9)
C4 0.0456(11) 0.0414(12) 0.0372(11) -0.0177(9) -0.0035(9) -0.0107(9)
N5 0.0609(11) 0.0608(13) 0.0473(11) -0.0356(10) 0.0108(9) -0.0222(10)
O6 0.0450(9) 0.0844(13) 0.0858(15) -0.0156(9) -0.0026(9) -0.0315(11)
C7 0.0557(12) 0.0338(11) 0.0358(11) -0.0154(9) -0.0009(9) -0.0069(9)
C8 0.0408(10) 0.0405(11) 0.0331(10) -0.0152(9) 0.0020(8) -0.0101(9)
C9 0.0420(11) 0.0568(14) 0.0394(12) -0.0153(10) -0.0016(9) -0.0093(10)
C10 0.0474(12) 0.0816(18) 0.0455(13) -0.0335(12) 0.0037(10) -0.0247(13)
C11 0.0569(13) 0.0620(15) 0.0555(14) -0.0354(11) 0.0139(11) -0.0309(12)
C12 0.0468(11) 0.0422(12) 0.0495(13) -0.0223(9) 0.0140(9) -0.0175(10)
C13 0.0358(10) 0.0374(11) 0.0404(11) -0.0157(8) 0.0091(8) -0.0130(9)
C14 0.0453(11) 0.0372(11) 0.0410(12) -0.0148(9) 0.0029(9) -0.0093(9)
O15 0.1066(14) 0.0338(10) 0.0596(12) -0.0144(9) -0.0161(10) -0.0074(8)
C16 0.0442(11) 0.0379(11) 0.0386(11) -0.0153(9) -0.0012(9) -0.0094(9)
C17 0.0503(12) 0.0546(13) 0.0404(12) -0.0235(10) 0.0009(9) -0.0168(10)
C18 0.0421(11) 0.0481(13) 0.0498(13) -0.0185(10) -0.0013(9) -0.0120(10)
C19 0.0443(11) 0.0345(11) 0.0416(12) -0.0099(9) 0.0030(9) -0.0051(9)
C20 0.0533(12) 0.0388(11) 0.0333(11) -0.0121(9) -0.0028(9) -0.0084(9)
C21 0.0447(11) 0.0405(11) 0.0390(11) -0.0163(9) -0.0038(9) -0.0096(9)
N22 0.0512(11) 0.0476(11) 0.0481(12) -0.0122(9) 0.0053(9) -0.0046(9)
O23 0.0791(12) 0.0845(14) 0.0508(11) -0.0280(10) 0.0193(9) -0.0212(10)
O24 0.0552(10) 0.0878(14) 0.0742(13) -0.0343(10) 0.0127(9) -0.0193(11)
loop_
_atom_type_symbol
_atom_type_description
_atom_type_scat_dispersion_real
_atom_type_scat_dispersion_imag
_atom_type_scat_source
C C 0.0033 0.0016 'International Tables Vol C Tables 4.2.6.8 and 6.1.1.4'
H H 0.0000 0.0000 'International Tables Vol C Tables 4.2.6.8 and 6.1.1.4'
N N 0.0061 0.0033 'International Tables Vol C Tables 4.2.6.8 and 6.1.1.4'
O O 0.0106 0.0060 'International Tables Vol C Tables 4.2.6.8 and 6.1.1.4'
S S 0.1246 0.1234 'International Tables Vol C Tables 4.2.6.8 and 6.1.1.4'
loop_
_geom_angle_atom_site_label_1
_geom_angle_atom_site_label_2
_geom_angle_atom_site_label_3
_geom_angle
N5 O1 S2 114.08(12)
O6 S2 O1 109.17(10)
O6 S2 C3 106.93(10)
O1 S2 C3 89.61(8)
C4 C3 C14 119.84(17)
C4 C3 C7 111.99(17)
C14 C3 C7 105.57(16)
C4 C3 S2 101.54(13)
C14 C3 S2 110.94(14)
C7 C3 S2 106.31(13)
N5 C4 C16 117.70(19)
N5 C4 C3 118.04(18)
C16 C4 C3 124.21(17)
C4 N5 O1 109.98(17)
O15 C7 C8 129.7(2)
O15 C7 C3 123.61(19)
C8 C7 C3 106.63(17)
C13 C8 C9 121.1(2)
C13 C8 C7 110.56(18)
C9 C8 C7 128.3(2)
C10 C9 C8 118.0(2)
C10 C9 H9 121.0
C8 C9 H9 121.0
C9 C10 C11 120.8(2)
C9 C10 H10 119.6
C11 C10 H10 119.6
C12 C11 C10 121.6(2)
C12 C11 H11 119.2
C10 C11 H11 119.2
C11 C12 C13 118.3(2)
C11 C12 H12 120.8
C13 C12 H12 120.8
C12 C13 C8 120.2(2)
C12 C13 C14 127.6(2)
C8 C13 C14 112.23(17)
C13 C14 C3 104.65(16)
C13 C14 H14A 110.8
C3 C14 H14A 110.8
C13 C14 H14B 110.8
C3 C14 H14B 110.8
H14A C14 H14B 108.9
C17 C16 C21 119.1(2)
C17 C16 C4 121.19(19)
C21 C16 C4 119.67(18)
C18 C17 C16 120.5(2)
C18 C17 H17 119.8
C16 C17 H17 119.8
C19 C18 C17 118.84(19)
C19 C18 H18 120.6
C17 C18 H18 120.6
C18 C19 C20 122.28(19)
C18 C19 N22 118.92(19)
C20 C19 N22 118.8(2)
C21 C20 C19 118.7(2)
C21 C20 H20 120.6
C19 C20 H20 120.6
C20 C21 C16 120.54(19)
C20 C21 H21 119.7
C16 C21 H21 119.7
O24 N22 O23 124.6(2)
O24 N22 C19 117.9(2)
O23 N22 C19 117.55(19)
loop_
_geom_bond_atom_site_label_1
_geom_bond_atom_site_label_2
_geom_bond_distance
O1 N5 1.439(2)
O1 S2 1.6610(19)
S2 O6 1.458(2)
S2 C3 1.854(2)
C3 C4 1.499(3)
C3 C14 1.535(3)
C3 C7 1.568(3)
C4 N5 1.284(3)
C4 C16 1.480(3)
C7 O15 1.199(3)
C7 C8 1.461(3)
C8 C13 1.389(3)
C8 C9 1.401(3)
C9 C10 1.374(3)
C9 H9 0.93
C10 C11 1.385(4)
C10 H10 0.93
C11 C12 1.379(3)
C11 H11 0.93
C12 C13 1.388(3)
C12 H12 0.93
C13 C14 1.506(3)
C14 H14A 0.97
C14 H14B 0.97
C16 C17 1.396(3)
C16 C21 1.406(3)
C17 C18 1.383(3)
C17 H17 0.93
C18 C19 1.375(3)
C18 H18 0.93
C19 C20 1.387(3)
C19 N22 1.476(3)
C20 C21 1.373(3)
C20 H20 0.93
C21 H21 0.93
N22 O24 1.222(2)
N22 O23 1.222(3)
loop_
_geom_hbond_atom_site_label_D
_geom_hbond_atom_site_label_H
_geom_hbond_atom_site_label_A
_geom_hbond_distance_DH
_geom_hbond_distance_HA
_geom_hbond_distance_DA
_geom_hbond_angle_DHA
C14 H14A O6 0.97 2.46 2.992(3) 114.1
loop_
_geom_torsion_atom_site_label_1
_geom_torsion_atom_site_label_2
_geom_torsion_atom_site_label_3
_geom_torsion_atom_site_label_4
_geom_torsion
N5 O1 S2 O6 -83.98(17)
N5 O1 S2 C3 23.84(16)
O6 S2 C3 C4 88.02(15)
O1 S2 C3 C4 -21.93(14)
O6 S2 C3 C14 -40.44(18)
O1 S2 C3 C14 -150.38(16)
O6 S2 C3 C7 -154.72(14)
O1 S2 C3 C7 95.33(14)
C14 C3 C4 N5 140.2(2)
C7 C3 C4 N5 -95.4(2)
S2 C3 C4 N5 17.7(2)
C14 C3 C4 C16 -42.3(3)
C7 C3 C4 C16 82.1(2)
S2 C3 C4 C16 -164.87(17)
C16 C4 N5 O1 -179.77(17)
C3 C4 N5 O1 -2.1(3)
S2 O1 N5 C4 -17.6(2)
C4 C3 C7 O15 44.5(3)
C14 C3 C7 O15 176.6(2)
S2 C3 C7 O15 -65.5(2)
C4 C3 C7 C8 -137.79(17)
C14 C3 C7 C8 -5.8(2)
S2 C3 C7 C8 112.15(15)
O15 C7 C8 C13 -179.0(2)
C3 C7 C8 C13 3.6(2)
O15 C7 C8 C9 1.2(4)
C3 C7 C8 C9 -176.27(19)
C13 C8 C9 C10 -1.2(3)
C7 C8 C9 C10 178.6(2)
C8 C9 C10 C11 1.5(3)
C9 C10 C11 C12 -0.8(3)
C10 C11 C12 C13 0.0(3)
C11 C12 C13 C8 0.3(3)
C11 C12 C13 C14 -179.31(18)
C9 C8 C13 C12 0.4(3)
C7 C8 C13 C12 -179.45(18)
C9 C8 C13 C14 -179.97(17)
C7 C8 C13 C14 0.2(2)
C12 C13 C14 C3 175.72(19)
C8 C13 C14 C3 -3.9(2)
C4 C3 C14 C13 133.13(18)
C7 C3 C14 C13 5.7(2)
S2 C3 C14 C13 -109.06(15)
N5 C4 C16 C17 156.1(2)
C3 C4 C16 C17 -21.4(3)
N5 C4 C16 C21 -21.5(3)
C3 C4 C16 C21 161.0(2)
C21 C16 C17 C18 -0.8(3)
C4 C16 C17 C18 -178.36(19)
C16 C17 C18 C19 1.5(3)
C17 C18 C19 C20 -0.8(3)
C17 C18 C19 N22 178.06(18)
C18 C19 C20 C21 -0.8(3)
N22 C19 C20 C21 -179.59(17)
C19 C20 C21 C16 1.5(3)
C17 C16 C21 C20 -0.8(3)
C4 C16 C21 C20 176.84(18)
C18 C19 N22 O24 3.5(3)
C20 C19 N22 O24 -177.6(2)
C18 C19 N22 O23 -175.7(2)
C20 C19 N22 O23 3.1(3)
