#------------------------------------------------------------------------------
#$Date: 2019-11-17 15:15:56 +0200 (Sun, 17 Nov 2019) $
#$Revision: 230794 $
#$URL: file:///home/coder/svn-repositories/cod/cif/7/15/60/7156023.cif $
#------------------------------------------------------------------------------
#
# This file is available in the Crystallography Open Database (COD),
# http://www.crystallography.net/
#
# All data on this site have been placed in the public domain by the
# contributors.
#
data_7156023
loop_
_publ_author_name
'Samanta, Sadhanendu'
'Mondal, Susmita'
'Hajra, Alakananda'
_publ_section_title
;
 A convergent synthesis of vinyloxyimidazopyridine via Cu(i)-catalyzed
 three-component coupling.
;
_journal_issue                   7
_journal_name_full               'Organic &amp; biomolecular chemistry'
_journal_page_first              1088
_journal_page_last               1092
_journal_paper_doi               10.1039/c7ob02883k
_journal_volume                  16
_journal_year                    2018
_chemical_formula_moiety         'C18 H16 N2 O3'
_chemical_formula_sum            'C18 H16 N2 O3'
_chemical_formula_weight         308.33
_chemical_name_common            vbchem162_0m_a
_space_group_crystal_system      triclinic
_space_group_IT_number           2
_space_group_name_Hall           '-P 1'
_space_group_name_H-M_alt        'P -1'
_symmetry_space_group_name_Hall  '-P 1'
_symmetry_space_group_name_H-M   'P -1'
_atom_sites_solution_hydrogens   geom
_audit_creation_method           SHELXL-2014/7
_cell_angle_alpha                98.745(2)
_cell_angle_beta                 102.654(2)
_cell_angle_gamma                102.432(2)
_cell_formula_units_Z            2
_cell_length_a                   8.2376(4)
_cell_length_b                   8.7359(4)
_cell_length_c                   11.8649(6)
_cell_measurement_reflns_used    2996
_cell_measurement_temperature    296(2)
_cell_measurement_theta_max      28.614
_cell_measurement_theta_min      2.441
_cell_volume                     795.58(7)
_computing_structure_refinement  'SHELXL-2014/7 (Sheldrick, 2014)'
_diffrn_ambient_temperature      296(2)
_diffrn_measured_fraction_theta_full 0.999
_diffrn_measured_fraction_theta_max 0.995
_diffrn_measurement_device_type  char
_diffrn_radiation_type           MoK\a
_diffrn_radiation_wavelength     0.71073
_diffrn_reflns_av_R_equivalents  0.0650
_diffrn_reflns_av_unetI/netI     0.0419
_diffrn_reflns_Laue_measured_fraction_full 0.999
_diffrn_reflns_Laue_measured_fraction_max 0.995
_diffrn_reflns_limit_h_max       11
_diffrn_reflns_limit_h_min       -11
_diffrn_reflns_limit_k_max       11
_diffrn_reflns_limit_k_min       -11
_diffrn_reflns_limit_l_max       15
_diffrn_reflns_limit_l_min       -15
_diffrn_reflns_number            24863
_diffrn_reflns_point_group_measured_fraction_full 0.999
_diffrn_reflns_point_group_measured_fraction_max 0.995
_diffrn_reflns_theta_full        25.242
_diffrn_reflns_theta_max         28.614
_diffrn_reflns_theta_min         2.441
_exptl_absorpt_coefficient_mu    0.089
_exptl_crystal_density_diffrn    1.287
_exptl_crystal_description       vbchem162_0m_a
_exptl_crystal_F_000             324
_refine_diff_density_max         0.298
_refine_diff_density_min         -0.433
_refine_diff_density_rms         0.076
_refine_ls_extinction_method     none
_refine_ls_goodness_of_fit_ref   1.158
_refine_ls_hydrogen_treatment    constr
_refine_ls_matrix_type           full
_refine_ls_number_parameters     210
_refine_ls_number_reflns         4065
_refine_ls_number_restraints     0
_refine_ls_restrained_S_all      1.158
_refine_ls_R_factor_all          0.0913
_refine_ls_R_factor_gt           0.0670
_refine_ls_shift/su_max          0.013
_refine_ls_shift/su_mean         0.000
_refine_ls_structure_factor_coef Fsqd
_refine_ls_weighting_details
'w=1/[\s^2^(Fo^2^)+(0.1000P)^2^+0.2595P] where P=(Fo^2^+2Fc^2^)/3'
_refine_ls_weighting_scheme      calc
_refine_ls_wR_factor_gt          0.1789
_refine_ls_wR_factor_ref         0.2103
_reflns_Friedel_coverage         0.000
_reflns_number_gt                2996
_reflns_number_total             4065
_reflns_threshold_expression     'I > 2\s(I)'
_cod_data_source_file            c7ob02883k4.cif
_cod_data_source_block           vbchem162_0m_a
_cod_depositor_comments
'Adding full bibliography for 7156023--7156024.cif.'
_cod_database_code               7156023
_shelx_shelxl_version_number     2014/7
_shelx_space_group_comment
;
The symmetry employed for this shelxl refinement is uniquely defined
by the following loop, which should always be used as a source of
symmetry information in preference to the above space-group names.
They are only intended as comments.
;
_shelx_res_file
;

    vbchem162_0m_a.res created by SHELXL-2014/7

TITL vbchem162_0m_a.res in P-1
CELL  0.71073   8.2376   8.7359  11.8649   98.745  102.654  102.432
ZERR    2.000   0.0004   0.0004   0.0006    0.002    0.002    0.002
LATT 1
SFAC C  H  N  O
UNIT 36  32  4  6
REM Old TITL vbchem162_0m in P-1
REM SHELXT solution in P-1
REM R1 0.166,  Rweak 0.003,  Alpha 0.026,  Orientation as input
REM Formula found by SHELXT:  C18 N2 O3
L.S. 10
ACTA
BOND $H
FMAP 2
PLAN 20
TEMP 23.000
WGHT    0.100000    0.259540
FVAR       0.85791
O1    4    0.258316    0.186530    0.295325    11.00000    0.03833    0.04355 =
         0.04792   -0.00179   -0.00095    0.00710
O2    4   -0.239082    0.053163    0.067089    11.00000    0.04155    0.06056 =
         0.04975    0.00550   -0.00094    0.01228
O3    4   -0.012960   -0.040628    0.133730    11.00000    0.05116    0.04501 =
         0.08433    0.00900   -0.00790    0.01002
N2    3    0.630432    0.333388    0.543862    11.00000    0.03547    0.03818 =
         0.03834    0.01287    0.00835    0.01070
N1    3    0.369430    0.160992    0.489247    11.00000    0.03994    0.03048 =
         0.04852    0.00861    0.01462    0.00737
C8    1    0.637462    0.434559    0.360531    11.00000    0.03642    0.03174 =
         0.03758    0.00983    0.00779    0.00920
C17   1   -0.079182    0.068664    0.133430    11.00000    0.03582    0.04929 =
         0.04094    0.01535    0.00557    0.00737
C7    1    0.549542    0.338013    0.429761    11.00000    0.03519    0.03061 =
         0.03735    0.00811    0.00704    0.00809
C14   1    0.388352    0.234390    0.397432    11.00000    0.03752    0.03369 =
         0.04057    0.00425    0.00534    0.00729
C6    1    0.521726    0.226137    0.578173    11.00000    0.03934    0.03385 =
         0.04388    0.01158    0.01422    0.01348
C9    1    0.805924    0.526259    0.408985    11.00000    0.03857    0.05044 =
         0.04218    0.01138    0.00586    0.00501
AFIX  43
H9    2    0.860397    0.526802    0.486537    11.00000   -1.20000
AFIX   0
C16   1   -0.004698    0.232237    0.202361    11.00000    0.04753    0.04722 =
         0.04951    0.01130    0.00343    0.01623
AFIX  43
H16   2   -0.070349    0.305747    0.191786    11.00000   -1.20000
AFIX   0
C15   1    0.148719    0.283991    0.278606    11.00000    0.04625    0.03700 =
         0.04359    0.00738    0.00702    0.00734
AFIX  43
H15   2    0.183139    0.388867    0.321900    11.00000   -1.20000
AFIX   0
C2    1    0.538903    0.170079    0.684559    11.00000    0.05603    0.05100 =
         0.05179    0.02376    0.02539    0.02509
C5    1    0.236664    0.041767    0.498444    11.00000    0.04671    0.03698 =
         0.07180    0.00930    0.02368    0.00546
AFIX  43
H5    2    0.137007    0.000781    0.437050    11.00000   -1.20000
AFIX   0
C10   1    0.894368    0.616237    0.345481    11.00000    0.04172    0.05386 =
         0.06022    0.01837    0.01235    0.00199
AFIX  43
H10   2    1.006970    0.676723    0.380280    11.00000   -1.20000
AFIX   0
C13   1    0.561470    0.436674    0.244513    11.00000    0.04808    0.06567 =
         0.04630    0.02270   -0.00180   -0.00118
AFIX  43
H13   2    0.449094    0.376205    0.208850    11.00000   -1.20000
AFIX   0
C18   1   -0.322981   -0.101415   -0.007425    11.00000    0.04562    0.06691 =
         0.05987   -0.00036   -0.00049    0.00439
AFIX 137
H18A  2   -0.260348   -0.123581   -0.064671    11.00000   -1.50000
H18B  2   -0.438196   -0.102750   -0.047303    11.00000   -1.50000
H18C  2   -0.326650   -0.181552    0.039740    11.00000   -1.50000
AFIX   0
C3    1    0.405792    0.050404    0.691830    11.00000    0.07216    0.05515 =
         0.06915    0.03187    0.04073    0.02645
AFIX  43
H3    2    0.415278    0.010238    0.760549    11.00000   -1.20000
AFIX   0
C4    1    0.255269   -0.013843    0.598979    11.00000    0.06311    0.04745 =
         0.08299    0.02302    0.03875    0.01104
AFIX  43
H4    2    0.167970   -0.095369    0.607161    11.00000   -1.20000
AFIX   0
C11   1    0.816637    0.616895    0.230740    11.00000    0.05883    0.05730 =
         0.06616    0.03342    0.01981    0.01118
AFIX  43
H11   2    0.875879    0.677207    0.187215    11.00000   -1.20000
AFIX   0
C12   1    0.650831    0.527538    0.181459    11.00000    0.06488    0.08833 =
         0.05455    0.03982    0.00275    0.00626
AFIX  43
H12   2    0.597280    0.528036    0.103937    11.00000   -1.20000
AFIX   0
C1    1    0.700092    0.242021    0.781406    11.00000    0.06485    0.09138 =
         0.05492    0.03756    0.01326    0.02621
AFIX 137
H1A   2    0.685542    0.207187    0.852337    11.00000   -1.50000
H1B   2    0.724156    0.356779    0.795014    11.00000   -1.50000
H1C   2    0.794176    0.208334    0.759110    11.00000   -1.50000
AFIX   0
HKLF 4

REM  vbchem162_0m_a.res in P-1
REM R1 =  0.0670 for    2996 Fo > 4sig(Fo)  and  0.0913 for all    4065 data
REM    210 parameters refined using      0 restraints

END

WGHT      0.0969      0.4375

REM Highest difference peak  0.298,  deepest hole -0.433,  1-sigma level  0.076
Q1    1   0.7484  0.4379  0.3651  11.00000  0.05    0.30
Q2    1  -0.4413 -0.1235  0.0034  11.00000  0.05    0.27
Q3    1   0.4280  0.3276  0.4238  11.00000  0.05    0.27
Q4    1   0.7478  0.1135  0.7796  11.00000  0.05    0.26
Q5    1   0.7037  0.5139  0.4010  11.00000  0.05    0.24
Q6    1  -0.3473 -0.0705 -0.0978  11.00000  0.05    0.23
Q7    1  -0.6225 -0.2435 -0.0638  11.00000  0.05    0.23
Q8    1   0.7934  0.3214  0.7451  11.00000  0.05    0.22
Q9    1   0.7392  0.3238  0.5398  11.00000  0.05    0.22
Q10   1  -0.2560 -0.1810 -0.0219  11.00000  0.05    0.22
Q11   1   0.4909  0.2445  0.3984  11.00000  0.05    0.22
Q12   1  -0.0377 -0.0234  0.2014  11.00000  0.05    0.21
Q13   1   0.6606  0.3690  0.8404  11.00000  0.05    0.21
Q14   1   0.7203  0.6014  0.2212  11.00000  0.05    0.21
Q15   1   0.2386  0.3965  0.3047  11.00000  0.05    0.21
Q16   1   0.7058  0.2376  0.5227  11.00000  0.05    0.21
Q17   1   0.0322  0.2413  0.2663  11.00000  0.05    0.20
Q18   1  -0.0342  0.1606  0.1663  11.00000  0.05    0.20
Q19   1   0.3903  0.4965  0.2783  11.00000  0.05    0.20
Q20   1  -0.1044  0.2646  0.2197  11.00000  0.05    0.20
;
_shelx_res_checksum              79067
_shelx_hkl_file
;
   2   0   0  176.58   13.30
   2   0   0  185.58   13.40
   2   0   0  164.18   13.20
   2   0   0  183.78   13.20
   2   0   0  182.68   13.30
   2   0   0  178.78   13.20
   2   0   0  172.08   13.30
   2   0   0  187.78   13.20
   2   0   0  157.88   13.30
  -3   0   0  191.88   14.10
  -3   0   0  171.48   14.10
  -3   0   0  200.58   14.00
  -3   0   0  175.48   14.00
  -3   0   0  199.38   14.20
   3   0   0  198.08   14.20
   3   0   0  166.48   14.10
   3   0   0  192.68   14.00
   3   0   0  182.78   14.10
   3   0   0  180.38   14.10
   3   0   0  186.68   14.00
   3   0   0  198.68   14.00
   3   0   0  175.78   14.00
   3   0   0  191.18   14.10
  -4   0   0   17.20    1.70
  -4   0   0   16.60    1.40
  -4   0   0   16.40    1.50
  -4   0   0   17.40    1.40
  -4   0   0   14.20    1.60
   4   0   0   17.60    1.70
   4   0   0   15.80    1.50
   4   0   0   16.30    1.50
   4   0   0   18.40    1.40
   4   0   0   16.30    1.60
   4   0   0   16.70    1.40
   4   0   0   17.30    1.40
   4   0   0   15.70    1.40
   4   0   0   12.60    1.60
  -5   0   0  149.88   11.70
  -5   0   0  133.69   11.80
  -5   0   0  160.78   11.60
  -5   0   0  157.18   11.90
  -5   0   0  156.38   11.60
   5   0   0  159.28   11.60
   5   0   0  144.69   11.70
   5   0   0  156.58   11.90
   5   0   0  156.68   11.80
   5   0   0  150.48   11.60
   5   0   0  147.79   11.80
   5   0   0  150.78   11.80
   5   0   0  161.58   11.70
   5   0   0  158.38   11.60
  -6   0   0    2.20    0.60
  -6   0   0    2.60    0.50
  -6   0   0    3.00    0.70
  -6   0   0    2.50    0.80
  -6   0   0    2.90    0.50
  -6   0   0    3.10    0.80
   6   0   0    2.20    0.50
   6   0   0    1.70    0.70
   6   0   0    2.40    0.60
   6   0   0    2.50    0.50
   6   0   0    2.50    0.60
   6   0   0    1.80    0.90
   6   0   0    2.50    0.70
   6   0   0    1.80    0.70
   6   0   0    1.70    0.80
  -7   0   0    4.10    0.90
  -7   0   0    7.20    0.90
  -7   0   0    4.50    1.20
   7   0   0    3.80    1.00
   7   0   0    5.50    1.30
   7   0   0    5.60    0.80
   7   0   0    3.60    0.90
   7   0   0    6.70    1.20
   7   0   0    4.40    0.90
  -8   0   0   44.60    4.10
  -8   0   0   39.60    4.10
  -8   0   0   41.80    3.90
   8   0   0   45.70    3.80
   8   0   0   48.00    4.30
   8   0   0   43.40    4.10
   8   0   0   44.00    4.00
  -9   0   0    2.40    1.20
  -9   0   0    3.00    0.90
  -9   0   0    1.70    1.00
   9   0   0    4.40    1.10
   9   0   0    3.30    1.30
   9   0   0    2.40    1.00
   9   0   0    3.10    0.90
 -10   0   0    3.40    1.30
 -10   0   0    3.50    1.10
 -10   0   0    3.50    1.10
  10   0   0    2.50    1.10
  10   0   0    4.50    1.80
  10   0   0    3.20    1.40
  10  -1   0    0.40    1.00
  10  -1   0   -0.30    0.90
 -10   1   0   -0.40    0.90
 -10   1   0   -0.70    0.90
   9  -1   0    0.40    0.70
   9  -1   0    1.20    1.00
   9  -1   0    0.00    0.90
   9  -1   0   -0.70    0.80
  -9   1   0   -1.60    0.80
  -9   1   0    0.80    0.70
  -9   1   0    0.50    0.70
  -9   1   0   -0.20    0.80
   8  -1   0  102.79    8.20
   8  -1   0  107.09    7.90
   8  -1   0   98.59    8.20
   8  -1   0  108.09    8.00
   8  -1   0  102.19    8.10
  -8   1   0   86.49    8.00
  -8   1   0  100.69    7.90
  -8   1   0  102.39    7.90
  -8   1   0   98.99    8.10
  -8   1   0   92.29    8.00
   7  -1   0   30.00    2.80
   7  -1   0   28.90    2.60
   7  -1   0   28.60    2.80
   7  -1   0   30.70    2.70
   7  -1   0   30.30    2.40
   7  -1   0   29.00    2.70
   7  -1   0   30.70    3.50
   7  -1   0   27.80    2.60
   7  -1   0   27.40    2.80
  -7   1   0   30.20    2.40
  -7   1   0   28.20    2.70
  -7   1   0   25.50    2.70
  -7   1   0   26.10    2.50
  -7   1   0   29.60    2.50
  -7   1   0   29.20    2.60
  -7   1   0   30.00    3.10
  -7   1   0   26.30    2.70
   6  -1   0   13.80    1.50
   6  -1   0   13.30    1.90
   6  -1   0   12.60    1.30
   6  -1   0   12.10    1.60
   6  -1   0   14.10    1.20
   6  -1   0   13.40    1.50
   6  -1   0   14.00    1.60
   6  -1   0   11.10    1.50
   6  -1   0   13.30    1.30
  -6   1   0   14.00    1.20
  -6   1   0   13.40    1.50
  -6   1   0   13.70    1.60
  -6   1   0   12.80    1.30
  -6   1   0   10.10    1.40
  -6   1   0   12.80    1.50
  -6   1   0   13.80    1.80
   5  -1   0  151.88   11.20
   5  -1   0  138.59   11.00
   5  -1   0  152.78   10.70
   5  -1   0  131.59   10.90
   5  -1   0  151.78   10.90
   5  -1   0  138.59   10.80
   5  -1   0  147.09   10.90
   5  -1   0  136.79   10.80
   5  -1   0  142.49   10.90
  -5   1   0  157.58   10.70
  -5   1   0  135.39   10.90
  -5   1   0  147.69   11.20
  -5   1   0  147.69   10.90
  -5   1   0  128.09   10.90
  -5   1   0  126.29   10.80
   4  -1   0  907.91   64.69
   4  -1   0  822.92   64.49
   4  -1   0  941.21   64.39
   4  -1   0  788.12   64.49
   4  -1   0  837.72   64.39
   4  -1   0  927.91   64.39
   4  -1   0  850.81   64.49
   4  -1   0  794.92   64.39
   4  -1   0  871.01   64.39
  -4   1   0  881.61   64.39
  -4   1   0  803.92   64.39
  -4   1   0  802.02   64.49
  -4   1   0  897.71   64.69
  -4   1   0  932.21   64.49
   3  -1   0   92.79    6.40
   3  -1   0   81.69    6.50
   3  -1   0   84.59    6.50
   3  -1   0   84.29    6.50
   3  -1   0   92.79    6.70
   3  -1   0   75.39    6.50
   3  -1   0   85.99    6.50
   3  -1   0   78.19    6.60
   3  -1   0   92.29    6.50
  -3   1   0   91.49    6.50
  -3   1   0   89.29    6.70
  -3   1   0   79.49    6.50
  -3   1   0   76.59    6.50
   2  -1   0   57.59    4.40
   2  -1   0   56.39    4.40
   2  -1   0   50.39    4.40
   2  -1   0   52.89    4.40
   2  -1   0   64.19    4.30
   2  -1   0   55.39    4.40
   2  -1   0   58.49    4.40
   2  -1   0   62.69    4.60
  -2   1   0   57.69    4.50
   1  -1   0  494.15   37.20
   1  -1   0  481.25   37.10
   0   1   0  532.85   40.10
  -1  -1   0   22.60    1.60
   1   1   0   15.50    1.60
  -2  -1   0  481.75   36.50
  -2  -1   0  457.95   36.50
   2   1   0  457.95   36.60
   2   1   0  471.55   36.60
   2   1   0  473.05   36.60
   2   1   0  517.95   36.50
   2   1   0  482.35   36.50
   2   1   0  559.74   36.60
   2   1   0  490.15   36.50
  -3  -1   0  449.16   34.20
  -3  -1   0  484.65   34.10
  -3  -1   0  488.05   34.20
   3   1   0  424.56   34.20
   3   1   0  477.65   34.20
   3   1   0  460.05   34.10
   3   1   0  423.56   34.10
   3   1   0  452.65   34.20
   3   1   0  432.86   34.10
   3   1   0  437.96   34.30
   3   1   0  484.95   34.10
  -4  -1   0  599.54   41.60
  -4  -1   0  549.25   41.80
  -4  -1   0  479.05   41.60
  -4  -1   0  503.15   41.80
  -4  -1   0  579.54   41.60
   4   1   0  532.05   41.80
   4   1   0  596.64   41.60
   4   1   0  606.74   41.70
   4   1   0  534.15   41.60
   4   1   0  571.64   41.80
   4   1   0  540.95   41.90
   4   1   0  542.85   41.70
   4   1   0  561.34   41.80
   4   1   0  593.04   41.60
  -5  -1   0   61.49    5.70
  -5  -1   0   74.19    5.50
  -5  -1   0   72.09    5.70
  -5  -1   0   74.69    5.40
  -5  -1   0   68.69    5.60
  -5  -1   0   63.49    5.50
   5   1   0   67.99    5.80
   5   1   0   67.99    5.60
   5   1   0   71.39    5.50
   5   1   0   74.19    5.40
   5   1   0   71.49    5.70
   5   1   0   69.09    5.70
   5   1   0   77.89    5.50
   5   1   0   72.89    5.70
   5   1   0   72.09    5.50
  -6  -1   0  134.39   10.90
  -6  -1   0  144.59   10.70
  -6  -1   0  127.69   11.00
   6   1   0  140.59   10.70
   6   1   0  134.09   11.00
   6   1   0  140.89   10.80
   6   1   0  146.99   11.00
   6   1   0  136.69   11.10
   6   1   0  157.08   10.80
  -7  -1   0   42.00    3.30
  -7  -1   0   41.40    3.60
  -7  -1   0   35.40    3.70
   7   1   0   37.30    3.80
   7   1   0   43.80    3.50
   7   1   0   39.80    3.70
   7   1   0   40.50    3.70
  -8  -1   0    0.00    0.60
  -8  -1   0    0.90    0.80
  -8  -1   0   -0.50    1.00
   8   1   0   -0.10    0.80
   8   1   0    0.90    1.00
   8   1   0   -0.20    0.70
   8   1   0    0.60    0.80
  -9  -1   0    0.80    0.80
  -9  -1   0    0.10    0.90
  -9  -1   0   -0.40    0.80
   9   1   0   -0.20    0.80
   9   1   0   -0.60    1.00
   9   1   0    1.30    0.90
   9   1   0    0.30    0.80
 -10  -1   0    1.10    1.10
 -10  -1   0    1.00    1.00
 -10  -1   0    1.90    1.00
  10   1   0    0.80    1.20
  10   1   0    1.70    1.00
  10   1   0    1.10    1.10
  10  -2   0   -1.10    1.00
 -10   2   0   -0.50    0.90
 -10   2   0    0.40    1.30
   9  -2   0   50.69    4.80
   9  -2   0   52.49    4.70
   9  -2   0   58.69    4.60
   9  -2   0   61.19    4.80
  -9   2   0   45.40    4.60
  -9   2   0   52.29    4.70
  -9   2   0   51.79    4.50
  -9   2   0   55.29    4.50
   8  -2   0    0.60    0.90
   8  -2   0    0.20    0.60
   8  -2   0   -1.00    0.70
   8  -2   0    0.00    0.70
   8  -2   0    0.80    0.90
  -8   2   0    0.10    0.70
  -8   2   0    0.20    0.70
  -8   2   0    0.10    0.60
  -8   2   0   -0.10    0.70
  -8   2   0    0.60    0.80
  -8   2   0    0.10    0.80
   7  -2   0   45.80    3.70
   7  -2   0   40.00    3.50
   7  -2   0   43.70    3.90
   7  -2   0   44.50    3.60
   7  -2   0   43.20    3.40
   7  -2   0   39.30    3.80
   7  -2   0   44.60    3.70
   7  -2   0   45.50    3.80
   7  -2   0   47.00    4.30
  -7   2   0   45.20    3.80
  -7   2   0   45.70    3.40
  -7   2   0   40.70    3.60
  -7   2   0   40.20    3.50
  -7   2   0   45.80    4.20
  -7   2   0   39.50    3.70
  -7   2   0   40.80    3.60
  -7   2   0   42.10    3.60
   6  -2   0   -0.40    0.40
   6  -2   0    0.00    0.30
   6  -2   0   -0.60    0.50
   6  -2   0   -0.40    0.50
   6  -2   0    0.00    0.80
   6  -2   0    0.20    0.70
   6  -2   0    0.00    0.40
   6  -2   0    0.20    0.40
   6  -2   0   -0.40    0.50
  -6   2   0   -0.10    0.40
  -6   2   0   -0.20    0.70
  -6   2   0    0.10    0.40
  -6   2   0    0.20    0.30
  -6   2   0   -0.20    0.50
  -6   2   0    0.10    0.50
   5  -2   0   44.20    3.50
   5  -2   0   41.10    3.50
   5  -2   0   40.10    3.70
   5  -2   0   39.30    3.50
   5  -2   0   43.60    3.60
   5  -2   0   46.60    4.00
   5  -2   0   45.80    3.40
   5  -2   0   45.20    3.50
  -5   2   0   44.30    3.40
  -5   2   0   50.39    3.50
  -5   2   0   41.60    3.50
  -5   2   0   40.00    3.50
  -5   2   0   43.90    3.90
  -5   2   0   40.10    3.50
   4  -2   0   85.49    6.60
   4  -2   0   90.69    6.90
   4  -2   0   97.59    6.50
   4  -2   0   73.69    6.50
   4  -2   0   84.39    6.50
   4  -2   0   78.59    6.60
   4  -2   0   84.39    6.50
   4  -2   0   84.79    6.50
   4  -2   0   91.89    6.40
  -4   2   0   77.39    6.50
  -4   2   0   90.99    6.90
  -4   2   0   83.39    6.50
  -4   2   0   78.69    6.50
  -4   2   0   84.19    6.50
   3  -2   0   75.59    5.80
   3  -2   0   83.69    6.00
   3  -2   0   75.29    5.90
   3  -2   0   85.99    6.20
   3  -2   0   66.19    5.90
   3  -2   0   80.49    5.90
   3  -2   0   78.49    5.90
   3  -2   0   78.99    5.90
  -3   2   0   74.39    5.90
  -3   2   0   67.49    5.80
  -3   2   0   76.79    5.90
  -3   2   0   80.19    6.20
  -3   2   0   76.89    5.80
   2  -2   0 4294.17  351.06
   2  -2   0 5258.47  352.56
   2  -2   0 4516.85  351.46
   2  -2   0 5295.97  354.76
   2  -2   0 4057.49  350.36
   2  -2   0 4578.84  350.86
  -2   2   0 4535.25  350.86
  -2   2   0 5073.99  352.46
   1  -2   0  632.64   47.40
   1  -2   0  648.34   47.70
  -1   2   0  568.84   47.60
  -1   2   0  689.93   47.40
   0  -2   0  134.09    9.90
   0  -2   0  128.99    9.90
   0   2   0  137.29   10.00
   0   2   0  127.09    9.90
   0   2   0  131.19    9.90
  -1  -2   0   20.60    1.50
  -1  -2   0   19.90    1.60
   1   2   0   18.50    1.50
   1   2   0   14.90    1.50
   1   2   0   16.40    1.50
   1   2   0   17.40    1.50
   1   2   0   21.30    1.40
  -2  -2   0 1051.79   75.89
  -2  -2   0 1061.29   76.19
  -2  -2   0 1031.70   75.99
   2   2   0  985.40   76.09
   2   2   0  993.10   75.99
   2   2   0  944.71   75.99
   2   2   0 1048.70   76.39
  -3  -2   0   23.10    1.80
  -3  -2   0   21.10    1.80
  -3  -2   0   19.50    1.90
   3   2   0   18.70    1.90
   3   2   0   19.50    1.90
   3   2   0   23.20    1.80
   3   2   0   25.20    1.80
   3   2   0   18.80    2.00
  -4  -2   0   -0.20    0.40
  -4  -2   0    0.70    0.30
  -4  -2   0   -0.10    0.30
   4   2   0    0.50    0.30
   4   2   0   -0.10    0.40
   4   2   0   -0.20    0.30
   4   2   0    0.20    0.30
   4   2   0   -0.30    0.50
   4   2   0   -0.10    0.40
  -5  -2   0   44.70    3.90
  -5  -2   0   51.59    3.70
  -5  -2   0   42.80    4.00
  -5  -2   0   47.50    3.70
   5   2   0   41.30    3.90
   5   2   0   45.20    3.80
   5   2   0   47.80    4.00
   5   2   0   43.10    4.10
   5   2   0   53.39    3.80
  -6  -2   0   67.89    5.50
  -6  -2   0   74.09    5.30
  -6  -2   0   58.09    5.60
   6   2   0   62.39    5.50
   6   2   0   62.99    5.70
   6   2   0   67.79    5.30
   6   2   0   68.49    5.50
  -7  -2   0    3.60    0.80
  -7  -2   0    4.10    1.00
  -7  -2   0    2.50    1.10
   7   2   0    3.50    1.00
   7   2   0    3.90    0.90
   7   2   0    4.30    1.10
   7   2   0    3.10    1.30
  -8  -2   0   12.60    1.80
  -8  -2   0    8.70    1.70
  -8  -2   0   11.10    1.30
   8   2   0    7.90    1.50
   8   2   0    9.50    1.80
   8   2   0    9.80    1.80
   8   2   0   11.40    1.60
  -9  -2   0    0.10    1.00
  -9  -2   0    1.20    1.00
   9   2   0    0.10    0.90
   9   2   0    1.30    1.00
   9   2   0    0.00    1.10
  10  -3   0    2.00    1.00
 -10   3   0    0.50    1.10
 -10   3   0    2.00    0.90
   9  -3   0   -0.70    1.00
   9  -3   0   -0.30    0.90
   9  -3   0   -0.30    0.80
   9  -3   0   -0.50    0.80
  -9   3   0   -0.70    0.70
  -9   3   0    1.70    0.90
  -9   3   0    0.90    0.80
  -9   3   0   -0.50    0.80
   8  -3   0   -1.20    0.60
   8  -3   0   -1.90    0.80
   8  -3   0   -0.80    0.60
   8  -3   0   -0.40    0.70
   8  -3   0    1.00    1.10
   8  -3   0   -0.20    0.90
  -8   3   0   -0.30    0.60
  -8   3   0    0.50    1.00
  -8   3   0   -0.70    0.70
  -8   3   0   -1.10    0.60
  -8   3   0   -1.70    0.80
   7  -3   0  119.89    9.70
   7  -3   0  107.99    9.40
   7  -3   0  123.19    9.20
   7  -3   0  125.69   10.10
   7  -3   0  124.99    9.40
   7  -3   0  118.39    9.50
   7  -3   0  123.89    9.50
   7  -3   0  123.69    9.50
  -7   3   0  123.59    9.30
  -7   3   0  123.19   10.00
  -7   3   0  117.79    9.40
  -7   3   0  130.79    9.20
  -7   3   0  118.29    9.50
  -7   3   0  113.09    9.40
   6  -3   0   52.39    4.70
   6  -3   0   57.59    4.50
   6  -3   0   56.39    4.50
   6  -3   0   61.49    4.40
   6  -3   0   47.50    4.40
   6  -3   0   51.99    4.50
   6  -3   0   57.79    4.40
   6  -3   0   56.49    4.30
   6  -3   0   58.29    5.10
  -6   3   0   58.59    4.40
  -6   3   0   48.10    4.40
  -6   3   0   56.59    5.00
  -6   3   0   55.49    4.40
  -6   3   0   52.69    4.50
  -6   3   0   52.89    4.40
   5  -3   0    2.20    0.50
   5  -3   0    2.30    0.40
   5  -3   0    1.40    0.50
   5  -3   0    2.20    0.60
   5  -3   0    1.90    0.50
   5  -3   0    2.60    0.50
   5  -3   0    1.50    0.70
   5  -3   0    2.50    0.40
   5  -3   0    1.80    1.00
  -5   3   0    2.10    0.50
  -5   3   0    2.50    0.50
  -5   3   0    1.80    0.50
  -5   3   0    1.20    0.90
  -5   3   0    1.90    0.40
  -5   3   0    3.00    0.50
   4  -3   0   11.00    1.10
   4  -3   0   11.10    1.40
   4  -3   0   13.40    1.30
   4  -3   0   13.50    1.20
   4  -3   0   13.30    1.80
   4  -3   0   12.80    1.20
   4  -3   0   13.60    1.20
   4  -3   0   10.80    1.30
   4  -3   0   14.30    1.10
  -4   3   0   11.80    1.20
  -4   3   0   12.10    1.70
  -4   3   0   11.60    1.10
  -4   3   0   13.80    1.20
  -4   3   0   11.30    1.10
   3  -3   0   59.69    4.50
   3  -3   0   59.39    4.10
   3  -3   0   49.30    4.00
   3  -3   0   45.90    4.20
   3  -3   0   48.30    4.20
   3  -3   0   52.09    4.10
  -3   3   0   49.99    4.00
  -3   3   0   50.49    4.10
  -3   3   0   56.09    4.00
  -3   3   0   53.49    4.50
   2  -3   0    8.40    0.80
   2  -3   0    8.70    1.00
   2  -3   0    8.20    1.00
   2  -3   0    8.70    0.90
  -2   3   0    9.60    0.80
  -2   3   0    9.70    1.30
  -2   3   0    8.20    0.90
  -2   3   0    9.80    0.80
   1  -3   0  645.24   47.60
   1  -3   0  594.74   47.50
   1  -3   0  571.34   47.60
   1  -3   0  653.23   47.70
   1  -3   0  626.94   47.50
  -1   3   0  674.63   47.70
  -1   3   0  695.03   47.80
  -1   3   0  599.24   47.50
  -1   3   0  668.53   47.80
   0  -3   0   50.29    3.90
   0  -3   0   48.50    4.00
   0  -3   0   52.29    3.90
   0   3   0   51.09    4.10
   0   3   0   50.49    3.90
   0   3   0   48.80    3.90
   0   3   0   55.29    4.00
   0   3   0   49.20    3.90
  -1  -3   0  331.27   23.00
  -1  -3   0  295.17   23.00
  -1  -3   0  291.57   23.00
   1   3   0  290.87   23.00
   1   3   0  298.07   23.00
   1   3   0  326.67   22.90
   1   3   0  311.57   22.90
   1   3   0  301.87   23.00
  -2  -3   0    4.80    0.80
  -2  -3   0    6.20    0.70
  -2  -3   0    5.00    0.70
   2   3   0    6.40    0.60
   2   3   0    4.40    0.70
   2   3   0    4.30    0.80
   2   3   0    4.60    0.80
   2   3   0    4.80    0.70
  -3  -3   0    4.90    0.60
  -3  -3   0    3.50    0.70
  -3  -3   0    4.30    0.60
   3   3   0    3.50    0.70
   3   3   0    3.30    0.70
   3   3   0    3.80    0.80
   3   3   0    5.50    0.60
   3   3   0    3.70    0.60
  -4  -3   0   -0.30    0.50
  -4  -3   0    0.30    0.30
  -4  -3   0    0.40    0.40
   4   3   0    0.10    0.40
   4   3   0    0.70    0.30
   4   3   0    0.30    0.50
   4   3   0   -0.10    0.50
   4   3   0    0.40    0.60
  -5  -3   0   13.50    1.90
  -5  -3   0   13.70    1.50
  -5  -3   0   15.20    1.80
   5   3   0   12.00    2.00
   5   3   0   15.50    1.80
   5   3   0   14.80    1.50
   5   3   0   14.80    1.80
  -6  -3   0    1.70    0.60
  -6  -3   0    2.80    1.10
  -6  -3   0    2.20    0.90
   6   3   0    2.20    0.90
   6   3   0    2.00    0.70
   6   3   0    1.50    1.10
   6   3   0    2.00    0.80
  -7  -3   0   10.70    1.70
  -7  -3   0    7.80    1.60
  -7  -3   0   11.60    1.30
   7   3   0   12.10    1.80
   7   3   0   10.50    1.80
   7   3   0   11.70    1.50
   7   3   0    8.00    1.70
  -8  -3   0    1.80    0.70
  -8  -3   0    1.40    1.10
  -8  -3   0    2.00    1.00
   8   3   0    2.80    1.30
   8   3   0    2.20    1.00
   8   3   0    1.70    0.80
   8   3   0    2.00    1.00
  -9  -3   0    4.30    1.50
  -9  -3   0    6.40    1.40
   9   3   0    6.20    1.40
   9   3   0    6.20    1.70
   9   3   0    5.30    1.40
  10  -4   0   27.40    2.80
  10  -4   0   23.70    2.90
  10  -4   0   25.30    4.00
 -10   4   0   26.30    2.70
 -10   4   0   26.60    2.90
 -10   4   0   19.50    2.70
   9  -4   0   -0.20    1.30
   9  -4   0    0.10    1.00
   9  -4   0    0.80    0.80
  -9   4   0   -1.70    0.80
  -9   4   0    3.10    1.40
  -9   4   0    3.70    1.10
  -9   4   0    0.50    0.70
   8  -4   0   31.20    3.10
   8  -4   0   35.30    3.30
   8  -4   0   37.30    3.10
   8  -4   0   36.00    3.20
   8  -4   0   36.40    3.60
  -8   4   0   28.00    3.30
  -8   4   0   31.20    3.20
  -8   4   0   35.20    3.10
  -8   4   0   33.20    3.10
  -8   4   0   37.00    3.80
   7  -4   0  118.99    9.90
   7  -4   0  130.49    9.60
   7  -4   0  120.39   10.30
   7  -4   0  104.69    9.50
   7  -4   0  125.99    9.40
   7  -4   0  130.69    9.60
   7  -4   0  128.59    9.50
  -7   4   0  119.39    9.50
  -7   4   0  122.59   10.10
  -7   4   0  114.99    9.50
  -7   4   0  128.09    9.50
   6  -4   0   18.80    2.60
   6  -4   0   15.80    1.80
   6  -4   0   19.50    1.70
   6  -4   0   18.20    1.90
   6  -4   0   16.00    2.10
   6  -4   0   17.30    1.50
  -6   4   0   19.60    1.70
  -6   4   0   16.20    1.80
  -6   4   0   16.20    1.70
  -6   4   0   18.70    2.40
   5  -4   0   11.60    1.00
   5  -4   0    9.80    1.20
   5  -4   0    9.90    1.90
   5  -4   0    8.40    1.30
   5  -4   0    9.50    1.50
   5  -4   0   11.50    1.20
  -5   4   0   12.30    1.10
  -5   4   0    8.80    1.20
  -5   4   0    9.10    1.80
  -5   4   0   11.50    1.20
   4  -4   0   57.19    4.50
   4  -4   0   51.49    4.80
   4  -4   0   60.19    4.70
   4  -4   0   57.09    4.90
  -4   4   0   59.39    4.70
  -4   4   0   56.29    5.20
  -4   4   0   62.79    4.60
  -4   4   0   68.79    4.60
   3  -4   0  213.58   17.10
   3  -4   0  217.68   17.20
   3  -4   0  224.98   17.00
   3  -4   0  212.08   16.90
  -3   4   0  250.37   17.00
  -3   4   0  221.88   17.40
  -3   4   0  244.08   16.90
  -3   4   0  215.38   17.00
   2  -4   0   12.50    1.40
   2  -4   0   14.30    1.10
   2  -4   0   11.60    1.40
   2  -4   0   12.40    1.20
   2  -4   0   12.40    1.20
  -2   4   0   14.50    1.20
  -2   4   0   15.60    1.20
  -2   4   0   12.80    1.60
  -2   4   0   12.00    1.20
   1  -4   0   81.19    6.00
   1  -4   0   72.39    6.10
   1  -4   0   80.39    6.00
   1  -4   0   78.29    5.90
   1  -4   0   70.09    6.10
  -1   4   0   83.69    6.00
  -1   4   0   78.99    6.00
  -1   4   0   77.19    6.30
  -1   4   0   88.89    6.00
  -1   4   0   70.49    5.90
   0  -4   0  139.89   12.20
   0  -4   0  155.18   12.30
   0  -4   0  166.68   12.20
   0  -4   0  167.28   12.20
   0   4   0  166.98   12.20
   0   4   0  163.18   12.40
   0   4   0  172.98   12.20
   0   4   0  157.98   12.10
   0   4   0  160.38   12.20
  -1  -4   0  321.57   25.80
  -1  -4   0  333.77   25.80
  -1  -4   0  353.76   25.70
   1   4   0  371.66   25.60
   1   4   0  349.07   25.70
   1   4   0  334.97   25.80
   1   4   0  330.97   25.80
  -2  -4   0   -0.90    0.40
  -2  -4   0   -0.10    0.30
  -2  -4   0    0.00    0.40
   2   4   0   -0.30    0.40
   2   4   0   -0.60    0.40
   2   4   0   -0.10    0.50
   2   4   0    0.30    0.40
   2   4   0    0.10    0.20
  -3  -4   0    9.50    1.30
  -3  -4   0    9.90    1.20
  -3  -4   0   11.10    1.20
   3   4   0   10.00    1.30
   3   4   0   11.20    1.40
   3   4   0    9.70    1.40
   3   4   0   13.60    1.10
   3   4   0   11.30    1.20
  -4  -4   0  124.59   10.10
  -4  -4   0  129.79    9.90
  -4  -4   0  125.09   10.00
  -4  -4   0  127.29    9.90
   4   4   0  128.99   10.10
   4   4   0  126.99   10.10
   4   4   0  133.79   10.20
   4   4   0  130.89    9.90
  -5  -4   0   27.80    2.60
  -5  -4   0   26.40    2.80
  -5  -4   0   27.60    2.90
   5   4   0   27.30    2.80
   5   4   0   31.30    2.60
   5   4   0   25.90    2.80
   5   4   0   29.00    3.10
  -6  -4   0   18.10    2.40
  -6  -4   0   20.50    2.00
  -6  -4   0   19.30    2.30
   6   4   0   21.00    2.10
   6   4   0   19.60    2.40
   6   4   0   20.80    2.40
   6   4   0   17.30    2.60
  -7  -4   0    9.70    1.60
  -7  -4   0   12.20    2.10
  -7  -4   0   11.30    1.40
   7   4   0    9.80    1.90
   7   4   0   11.10    1.70
   7   4   0   13.70    2.00
   7   4   0   11.70    2.00
  -8  -4   0    0.70    1.00
  -8  -4   0    1.10    0.80
  -8  -4   0    0.10    1.10
   8   4   0    0.90    1.00
   8   4   0    0.40    0.90
   8   4   0    1.50    1.30
  10  -5   0    1.80    1.00
  10  -5   0    1.80    1.50
  10  -5   0   -0.10    1.10
 -10   5   0    3.70    1.20
 -10   5   0    1.80    0.90
 -10   5   0    0.20    1.00
   9  -5   0   -1.20    0.90
   9  -5   0   -1.60    1.00
   9  -5   0   -0.20    1.30
   9  -5   0    0.10    0.80
  -9   5   0    0.20    0.80
  -9   5   0    1.60    1.00
  -9   5   0    1.60    1.30
  -9   5   0   -1.70    0.80
   8  -5   0   57.39    5.00
   8  -5   0   59.99    4.70
   8  -5   0   50.49    4.80
   8  -5   0   54.99    5.20
  -8   5   0   51.29    4.80
  -8   5   0   57.29    5.50
  -8   5   0   60.29    4.70
   7  -5   0   18.40    2.40
   7  -5   0   15.50    1.70
   7  -5   0   14.20    1.90
   7  -5   0   16.20    2.00
  -7   5   0   13.90    1.80
  -7   5   0   15.20    1.70
  -7   5   0   17.10    2.60
  -7   5   0   14.80    1.70
   6  -5   0    1.20    0.60
   6  -5   0    1.30    0.90
   6  -5   0    0.70    0.70
   6  -5   0    1.00    0.40
   6  -5   0    0.40    0.50
  -6   5   0    1.10    0.60
  -6   5   0    0.70    0.50
  -6   5   0    0.30    1.10
  -6   5   0    0.50    0.50
   5  -5   0   -0.70    0.40
   5  -5   0   -0.50    0.60
   5  -5   0   -0.60    0.60
   5  -5   0   -0.60    0.30
  -5   5   0   -0.70    0.90
  -5   5   0   -0.20    0.40
  -5   5   0   -0.20    0.40
  -5   5   0   -0.30    0.30
   4  -5   0    5.10    0.70
   4  -5   0    4.60    0.90
   4  -5   0    4.40    0.90
   4  -5   0    4.40    0.70
  -4   5   0    3.00    1.20
  -4   5   0    6.00    0.80
  -4   5   0    6.40    0.70
  -4   5   0    4.00    0.70
   3  -5   0   71.09    6.10
   3  -5   0   69.69    6.00
   3  -5   0   72.69    5.70
   3  -5   0   72.59    5.80
  -3   5   0   87.79    5.80
  -3   5   0   81.19    5.80
  -3   5   0   73.89    6.30
  -3   5   0   68.59    5.80
   2  -5   0   12.90    1.20
   2  -5   0   13.10    1.10
   2  -5   0   14.00    1.50
   2  -5   0   12.70    1.40
   2  -5   0   11.40    1.20
  -2   5   0   10.90    1.30
  -2   5   0    9.90    1.20
  -2   5   0   15.00    1.30
  -2   5   0   13.30    1.70
  -2   5   0   13.70    1.10
   1  -5   0   43.80    3.80
   1  -5   0   48.90    3.70
   1  -5   0   44.20    3.90
   1  -5   0   48.70    3.60
  -1   5   0   51.09    3.70
  -1   5   0   46.00    3.70
  -1   5   0   45.30    3.60
  -1   5   0   43.40    3.70
  -1   5   0   46.80    4.00
   0  -5   0  169.08   12.30
   0  -5   0  169.48   12.30
   0  -5   0  140.09   12.20
   0  -5   0  156.88   12.40
   0   5   0  170.98   12.30
   0   5   0  160.28   12.20
   0   5   0  159.08   12.20
   0   5   0  163.08   12.50
   0   5   0  165.28   12.30
  -1  -5   0    1.50    0.50
  -1  -5   0    1.10    0.60
  -1  -5   0    1.50    0.50
  -1  -5   0    1.50    0.40
   1   5   0    1.50    0.30
   1   5   0    1.00    0.50
   1   5   0    2.00    0.60
   1   5   0    0.70    0.50
   1   5   0    0.50    0.40
  -2  -5   0    5.60    1.00
  -2  -5   0    5.30    0.90
  -2  -5   0    5.60    0.80
   2   5   0    5.30    0.90
   2   5   0    4.60    0.80
   2   5   0    4.90    0.90
  -3  -5   0   10.20    1.50
  -3  -5   0   10.90    1.40
  -3  -5   0   10.10    1.40
   3   5   0   12.10    1.70
   3   5   0   12.50    1.60
   3   5   0   14.30    1.40
  -4  -5   0  112.09    9.40
  -4  -5   0  114.59    9.30
  -4  -5   0  118.89    9.10
   4   5   0  113.29    9.30
   4   5   0  123.39    9.50
   4   5   0  122.09    9.10
  -5  -5   0    3.10    1.00
  -5  -5   0    2.70    0.80
  -5  -5   0    3.00    1.10
   5   5   0    1.90    1.10
   5   5   0    2.00    0.90
  -6  -5   0   21.20    2.10
  -6  -5   0   17.10    2.60
  -6  -5   0   22.50    2.40
   6   5   0   23.60    2.20
   6   5   0   21.10    2.80
   6   5   0   19.80    2.50
  -7  -5   0    1.20    1.20
  -7  -5   0    1.10    1.00
  -7  -5   0    1.10    0.70
   7   5   0    1.70    1.00
   7   5   0   -0.40    1.10
   7   5   0    0.80    0.80
  -8  -5   0    1.30    1.20
  -8  -5   0    2.40    0.80
  -8  -5   0    3.20    1.50
   8   5   0    3.40    1.30
   8   5   0    5.00    1.70
  10  -6   0    7.10    1.60
  10  -6   0    5.70    1.30
  10  -6   0    7.10    2.00
 -10   6   0    5.40    1.40
 -10   6   0    7.50    1.60
 -10   6   0    5.90    1.20
   9  -6   0   -0.70    1.40
   9  -6   0   -0.70    0.90
   9  -6   0   -1.40    0.90
  -9   6   0    1.20    1.20
  -9   6   0   -1.50    0.80
  -9   6   0   -1.40    0.80
   8  -6   0   14.00    2.50
   8  -6   0   13.80    2.00
   8  -6   0   11.50    1.90
  -8   6   0   11.80    1.90
  -8   6   0   11.80    1.70
  -8   6   0   14.70    2.70
   7  -6   0   16.50    2.20
   7  -6   0   18.60    2.70
   7  -6   0   20.70    2.20
  -7   6   0   19.20    3.00
  -7   6   0   19.20    2.10
  -7   6   0   19.90    2.00
   6  -6   0    1.00    1.00
   6  -6   0    1.40    0.70
   6  -6   0    2.00    0.50
   6  -6   0   -0.50    1.00
  -6   6   0    1.50    0.70
  -6   6   0    0.70    0.60
  -6   6   0    0.90    0.50
  -6   6   0   -0.90    1.30
   5  -6   0    5.80    1.30
   5  -6   0    9.60    1.00
   5  -6   0    6.70    1.40
   5  -6   0    9.90    1.30
  -5   6   0   10.50    1.20
  -5   6   0    9.40    1.10
  -5   6   0    6.10    1.80
  -5   6   0   10.30    1.30
   4  -6   0    0.80    0.70
   4  -6   0    0.60    0.40
   4  -6   0    0.50    0.50
   4  -6   0    0.60    0.80
  -4   6   0   -0.10    1.10
  -4   6   0    1.60    0.50
  -4   6   0    0.80    0.50
  -4   6   0    1.60    0.50
   3  -6   0    3.70    0.60
   3  -6   0    3.60    0.90
   3  -6   0    3.40    0.90
   3  -6   0    3.00    0.60
  -3   6   0    3.80    0.60
  -3   6   0    5.00    0.80
  -3   6   0    4.10    1.10
  -3   6   0    3.50    0.60
   2  -6   0   33.60    2.70
   2  -6   0   36.40    2.80
   2  -6   0   33.00    3.10
   2  -6   0   31.70    3.00
  -2   6   0   38.80    2.90
  -2   6   0   31.90    2.80
  -2   6   0   34.20    3.30
  -2   6   0   33.80    2.90
   1  -6   0   38.70    2.90
   1  -6   0   32.10    3.10
   1  -6   0   36.00    2.80
   1  -6   0   30.90    2.90
  -1   6   0   38.30    2.90
  -1   6   0   31.50    2.80
  -1   6   0   33.00    2.90
  -1   6   0   34.60    3.20
   0  -6   0    0.90    0.40
   0  -6   0    0.70    0.50
   0  -6   0    0.40    0.60
   0  -6   0    1.00    0.60
   0   6   0    1.90    0.60
   0   6   0    0.70    0.60
   0   6   0    0.80    0.40
   0   6   0    0.70    0.60
   0   6   0    0.30    0.70
  -1  -6   0   34.20    3.30
  -1  -6   0   36.10    3.20
  -1  -6   0   34.20    3.10
   1   6   0   37.30    3.10
   1   6   0   43.30    3.30
   1   6   0   34.70    3.20
   1   6   0   38.20    2.90
   1   6   0   34.60    3.20
  -2  -6   0    1.10    0.80
  -2  -6   0    1.10    0.70
  -2  -6   0    0.20    0.60
   2   6   0    2.20    0.60
   2   6   0    2.40    0.80
   2   6   0    2.00    0.70
  -3  -6   0    5.40    1.10
  -3  -6   0    7.90    1.30
  -3  -6   0    3.80    1.40
  -3  -6   0    3.60    1.00
   3   6   0    8.90    1.10
   3   6   0    6.30    1.20
   3   6   0    6.50    1.30
  -4  -6   0    2.40    0.80
  -4  -6   0    2.70    1.00
  -4  -6   0    1.60    1.00
   4   6   0    1.30    1.00
   4   6   0    2.20    1.10
   4   6   0    2.40    0.70
  -5  -6   0   -0.80    0.70
  -5  -6   0   -0.40    0.90
  -5  -6   0    0.10    0.60
   5   6   0   -0.50    0.80
   5   6   0   -0.30    0.60
   5   6   0   -0.80    0.90
  -6  -6   0    4.00    0.90
  -6  -6   0    3.90    1.30
  -6  -6   0    3.60    1.20
   6   6   0    3.10    1.40
   6   6   0    4.90    1.00
   6   6   0    4.90    1.30
  -7  -6   0    4.60    1.50
  -7  -6   0    4.30    1.40
  -7  -6   0    5.20    1.20
   7   6   0    5.10    1.10
   7   6   0    5.00    1.40
   7   6   0    5.10    1.60
  10  -7   0    1.50    1.70
  10  -7   0    2.00    1.30
  10  -7   0    1.40    1.20
 -10   7   0    0.90    1.10
 -10   7   0    2.80    1.40
 -10   7   0    0.90    1.00
   9  -7   0    1.00    1.50
   9  -7   0   -1.20    1.10
   9  -7   0   -0.40    1.00
  -9   7   0    0.50    1.00
  -9   7   0   -1.20    0.90
  -9   7   0    1.50    1.20
   8  -7   0    7.50    1.50
   8  -7   0   12.20    1.80
   8  -7   0    8.50    1.90
  -8   7   0    7.50    1.40
  -8   7   0    6.50    1.60
  -8   7   0    6.90    1.30
   7  -7   0    0.30    1.00
   7  -7   0    0.50    0.80
   7  -7   0   -0.40    1.10
  -7   7   0    0.30    0.80
  -7   7   0   -0.10    1.40
   6  -7   0   15.40    2.30
   6  -7   0   15.80    1.50
   6  -7   0   18.30    2.00
   6  -7   0   16.80    2.50
  -6   7   0   14.10    2.60
  -6   7   0   16.10    1.80
  -6   7   0   16.10    1.90
   5  -7   0   -0.10    0.70
   5  -7   0    0.00    0.40
   5  -7   0   -1.40    0.90
   5  -7   0   -0.60    0.90
  -5   7   0   -0.40    0.50
  -5   7   0   -0.10    0.60
  -5   7   0    0.20    0.60
   4  -7   0    5.10    0.80
   4  -7   0    3.80    1.20
   4  -7   0    4.60    1.20
   4  -7   0    4.50    0.90
  -4   7   0    6.60    1.00
  -4   7   0    3.30    0.80
  -4   7   0    4.50    1.50
   3  -7   0   25.10    2.70
   3  -7   0   26.20    2.30
   3  -7   0   25.20    2.40
   3  -7   0   24.90    2.60
  -3   7   0   31.90    2.50
  -3   7   0   25.20    3.00
  -3   7   0   23.10    2.30
  -3   7   0   27.00    2.40
   2  -7   0    2.20    1.00
   2  -7   0    2.80    0.90
   2  -7   0    3.60    0.70
  -2   7   0    3.90    0.80
  -2   7   0    2.50    1.20
  -2   7   0    3.90    0.80
  -2   7   0    2.80    0.70
   1  -7   0    2.70    0.90
   1  -7   0    2.60    0.70
   1  -7   0    2.10    0.90
   1  -7   0    2.70    0.70
  -1   7   0    1.50    0.70
  -1   7   0    1.70    0.60
  -1   7   0    1.80    0.70
  -1   7   0    2.00    0.90
   0  -7   0   42.30    4.00
   0  -7   0   51.89    3.90
   0  -7   0   48.30    3.90
   0   7   0   45.70    3.60
   0   7   0   43.00    3.90
   0   7   0   41.80    3.80
   0   7   0   49.00    4.10
  -1  -7   0   -0.70    0.60
  -1  -7   0   -0.20    0.60
  -1  -7   0   -1.40    0.70
   1   7   0    0.70    0.70
   1   7   0   -1.00    0.70
   1   7   0    0.10    0.60
  -2  -7   0    7.50    1.30
  -2  -7   0    7.10    1.30
  -2  -7   0    7.10    1.30
  -2  -7   0    6.80    1.20
   2   7   0    9.40    1.60
   2   7   0    8.90    1.30
   2   7   0   10.30    1.50
  -3  -7   0   20.40    2.60
  -3  -7   0   19.60    2.40
  -3  -7   0   22.00    2.30
   3   7   0   19.90    2.50
   3   7   0   23.60    2.60
   3   7   0   24.50    2.20
  -4  -7   0   13.20    1.80
  -4  -7   0   16.20    2.20
  -4  -7   0   14.90    2.00
   4   7   0   15.70    2.20
   4   7   0   15.10    1.80
   4   7   0   15.30    2.20
  -5  -7   0    1.50    1.20
  -5  -7   0    0.80    1.00
  -5  -7   0    0.10    0.80
   5   7   0    1.70    1.20
   5   7   0    1.10    1.10
   5   7   0    2.00    0.80
  -6  -7   0    0.10    1.00
  -6  -7   0   -1.00    1.00
  -6  -7   0    1.10    0.80
   6   7   0    0.50    0.90
   6   7   0    1.00    1.20
   6   7   0    0.90    1.10
   9  -8   0    4.30    1.90
   9  -8   0    3.80    1.30
   9  -8   0    3.60    1.40
  -9   8   0    1.40    1.00
  -9   8   0    4.00    1.20
  -9   8   0    3.20    1.50
   8  -8   0    2.80    1.10
   8  -8   0    1.20    1.30
   8  -8   0    1.50    1.50
  -8   8   0    1.90    1.20
  -8   8   0    1.10    0.90
  -8   8   0    3.30    1.00
   7  -8   0    3.30    1.50
   7  -8   0    2.40    1.50
   7  -8   0    4.10    1.10
  -7   8   0    3.20    0.90
  -7   8   0    1.70    0.90
   6  -8   0   16.20    2.60
   6  -8   0   17.10    1.70
   6  -8   0   13.60    2.40
   6  -8   0   19.20    2.10
  -6   8   0   15.00    1.90
  -6   8   0   16.40    3.00
  -6   8   0   16.60    2.00
   5  -8   0    1.60    0.80
   5  -8   0    1.10    1.10
   5  -8   0    1.00    1.00
   5  -8   0    1.50    0.60
  -5   8   0    2.00    0.80
  -5   8   0    2.20    0.80
  -5   8   0    1.10    1.40
   4  -8   0    0.90    1.10
   4  -8   0    2.10    0.70
   4  -8   0    1.50    0.80
   4  -8   0    2.10    1.00
  -4   8   0    1.40    0.70
  -4   8   0    1.60    0.70
  -4   8   0    1.50    0.70
  -4   8   0    1.60    1.40
   3  -8   0   10.80    1.70
   3  -8   0    8.70    1.70
   3  -8   0   11.20    1.50
  -3   8   0   11.90    1.60
  -3   8   0    9.50    1.50
  -3   8   0   12.30    1.50
  -3   8   0   10.20    2.20
   2  -8   0    0.30    1.00
   2  -8   0    0.20    0.70
   2  -8   0    0.90    0.70
  -2   8   0    0.70    0.70
  -2   8   0   -0.10    0.70
  -2   8   0   -0.30    0.50
  -2   8   0    0.20    1.00
   1  -8   0   38.10    3.10
   1  -8   0   33.90    3.40
  -1   8   0   31.90    3.00
  -1   8   0   37.40    3.10
  -1   8   0   33.70    3.50
  -1   8   0   32.90    2.90
   0  -8   0   28.60    2.70
   0  -8   0   25.90    2.90
   0   8   0   27.10    2.60
   0   8   0   31.20    2.90
  -1  -8   0   -0.90    0.70
  -1  -8   0    0.00    0.80
  -1  -8   0   -0.90    0.70
   1   8   0   -0.40    0.80
   1   8   0   -0.50    0.60
  -2  -8   0   -0.20    0.80
  -2  -8   0   -0.70    0.80
   2   8   0    1.60    1.00
   2   8   0    1.10    0.70
  -3  -8   0   22.00    2.60
  -3  -8   0   23.10    2.50
   3   8   0   24.50    3.00
   3   8   0   24.30    2.50
   3   8   0   25.10    2.80
  -4  -8   0   -0.10    0.80
  -4  -8   0    1.60    1.10
  -4  -8   0   -0.50    0.90
   4   8   0    0.40    0.70
   4   8   0    0.30    1.10
   4   8   0    0.70    1.00
  -5  -8   0   -0.10    0.90
  -5  -8   0    0.70    1.10
  -5  -8   0    1.80    1.20
   5   8   0    1.20    0.80
   5   8   0    1.50    1.20
   5   8   0    1.20    1.10
   8  -9   0    0.40    1.40
   8  -9   0    0.50    1.40
   8  -9   0    0.50    1.10
  -8   9   0    2.50    1.20
  -8   9   0   -1.60    0.90
  -8   9   0    0.80    0.90
   7  -9   0    0.60    1.30
   7  -9   0    0.20    1.30
   7  -9   0    1.00    1.00
  -7   9   0    0.50    0.90
  -7   9   0    2.00    1.20
  -7   9   0   -1.50    0.80
   6  -9   0   51.69    4.80
   6  -9   0   49.40    4.20
   6  -9   0   47.00    4.70
  -6   9   0   44.40    4.10
  -6   9   0   43.70    4.10
   5  -9   0    4.70    0.90
   5  -9   0    5.10    1.50
   5  -9   0    4.40    1.40
  -5   9   0    3.80    1.00
  -5   9   0    3.70    1.10
  -5   9   0    6.80    1.80
   4  -9   0    0.40    0.80
   4  -9   0    1.50    1.00
   4  -9   0    0.70    1.20
  -4   9   0    1.50    1.40
  -4   9   0   -0.40    0.90
  -4   9   0    0.20    0.80
   3  -9   0   53.29    4.80
   3  -9   0   45.10    4.30
   3  -9   0   54.79    4.20
  -3   9   0   50.19    4.70
  -3   9   0   51.29    4.90
  -3   9   0   42.90    4.20
  -3   9   0   44.70    4.00
   2  -9   0    6.30    1.20
   2  -9   0    7.20    1.50
  -2   9   0    6.70    1.50
  -2   9   0    5.10    1.20
  -2   9   0    9.50    1.40
  -2   9   0    4.90    0.90
   1  -9   0   21.50    2.30
   1  -9   0   17.20    2.60
  -1   9   0   19.90    2.20
  -1   9   0   25.30    2.40
   0  -9   0    0.60    1.00
   0  -9   0    0.50    0.80
   0   9   0    2.30    1.00
   0   9   0    1.00    0.80
  -1  -9   0   47.70    4.80
  -1  -9   0   51.59    4.60
   1   9   0   51.99    4.40
   1   9   0   59.99    4.90
  -2  -9   0    7.10    1.30
  -2  -9   0    6.70    1.30
   2   9   0   11.20    2.00
  -3  -9   0    0.10    0.90
  -3  -9   0    0.00    1.00
   3   9   0    1.30    1.10
   3   9   0    1.10    0.80
  -4  -9   0   -0.90    1.10
  -4  -9   0   -0.60    0.90
   4   9   0    0.00    0.90
   4   9   0    1.60    1.10
   7 -10   0    0.80    1.60
   7 -10   0    0.90    1.60
  -7  10   0    0.80    1.10
  -7  10   0   -2.00    1.00
  -7  10   0    2.40    1.30
   6 -10   0    0.10    1.40
   6 -10   0    1.10    1.30
  -6  10   0    1.80    1.20
  -6  10   0   -1.60    1.20
  -6  10   0    0.40    0.90
   5 -10   0    3.00    1.50
   5 -10   0    4.10    1.40
   5 -10   0    1.10    1.00
  -5  10   0    0.60    1.10
  -5  10   0    3.90    1.20
  -5  10   0    1.90    0.90
   4 -10   0    3.60    1.50
   4 -10   0    3.70    1.20
   4 -10   0    2.00    1.00
  -4  10   0    3.90    1.10
  -4  10   0    0.40    0.90
  -4  10   0   -0.60    1.00
   3 -10   0    7.60    1.30
   3 -10   0    7.60    1.80
  -3  10   0    4.70    1.00
  -3  10   0    7.70    1.80
  -3  10   0    4.80    1.20
   2 -10   0    1.00    1.30
   2 -10   0    0.20    0.90
  -2  10   0   -0.20    0.90
   1 -10   0    2.00    1.10
   1 -10   0    3.30    1.40
  -1  10   0    3.50    1.00
   0 -10   0   36.00    3.30
   0 -10   0   29.00    3.50
   0  10   0   32.60    3.00
  -1 -10   0   47.00    4.50
   1  10   0   47.50    4.20
   1  10   0   53.89    4.60
   2  10   0   16.90    2.20
   2  10   0   19.70    2.80
  -6  11   0   -3.00    1.40
   5 -11   0    0.60    1.00
   5 -11   0    3.30    1.60
   5 -11   0    2.80    1.50
  -5  11   0    1.30    1.00
  -5  11   0   -2.00    1.20
   4 -11   0    5.10    1.70
   4 -11   0    1.30    1.10
  -4  11   0    1.90    1.20
  -4  11   0    1.40    1.00
   3 -11   0   -0.20    1.40
   3 -11   0   -2.60    1.00
  -3  11   0   -0.70    1.00
   2 -11   0    2.30    1.20
   2 -11   0    3.50    1.70
  -2  11   0    3.40    1.10
   1 -11   0   10.20    1.80
   1 -11   0    9.80    2.00
  -1  11   0   14.30    1.80
   0  11   0   11.80    1.80
   1  11  -1    5.80    1.30
  -1 -11   1    2.10    1.50
   0  11  -1    4.50    1.10
   0 -11   1    3.20    1.30
   1 -11   1   10.80    1.90
   1 -11   1   11.90    2.20
  -2  11  -1    2.40    1.00
   2 -11   1   -0.80    1.10
   2 -11   1    1.30    1.40
  -3  11  -1    2.30    1.10
  -3  11  -1    0.60    0.90
   3 -11   1    1.10    1.20
   3 -11   1    3.90    1.60
  -4  11  -1   -0.30    0.90
  -4  11  -1    0.00    1.20
   4 -11   1    0.60    1.10
   4 -11   1    2.80    1.50
  -5  11  -1    7.10    1.60
  -5  11  -1    0.60    1.30
  -5  11  -1    3.30    1.10
   5 -11   1    5.70    1.70
   5 -11   1    7.50    1.90
   5 -11   1    4.60    1.20
  -6  11  -1   -1.30    1.00
  -6  11  -1    0.90    1.20
   6 -11   1    0.90    1.40
   6 -11   1    2.30    1.90
   3  10  -1    2.00    1.20
   3  10  -1    1.50    0.90
  -3 -10   1   -0.30    1.10
  -3 -10   1   -0.20    1.00
   2  10  -1    3.00    1.20
   2  10  -1    2.10    0.90
  -2 -10   1    0.40    1.10
   1  10  -1   49.10    4.50
   1  10  -1   46.80    4.20
  -1 -10   1   51.69    4.50
   0  10  -1   22.60    2.30
   0 -10   1   16.80    2.40
   0 -10   1   14.50    2.50
  -1  10  -1   17.50    2.10
   1 -10   1   14.90    2.20
   1 -10   1   14.20    2.40
  -2  10  -1   -0.30    0.80
   2 -10   1    0.10    1.10
   2 -10   1   -0.90    0.90
  -3  10  -1    2.40    0.90
  -3  10  -1    4.10    1.40
  -3  10  -1    1.70    1.10
   3 -10   1    3.70    1.20
   3 -10   1    4.40    1.50
  -4  10  -1    7.20    1.40
  -4  10  -1    4.90    1.30
  -4  10  -1    5.50    1.20
   4 -10   1    8.10    1.60
   4 -10   1    7.60    1.30
   4 -10   1    9.60    1.90
  -5  10  -1    5.00    1.50
  -5  10  -1    2.30    1.00
   5 -10   1    4.60    1.60
   5 -10   1    6.00    1.70
   5 -10   1    3.70    1.00
  -6  10  -1    1.40    1.10
  -6  10  -1    2.00    1.20
  -6  10  -1   -0.90    1.10
   6 -10   1    1.90    1.50
   6 -10   1    0.90    0.80
   6 -10   1    1.70    1.40
  -7  10  -1    0.90    1.00
  -7  10  -1   -2.20    1.10
  -7  10  -1    2.20    1.30
   7 -10   1    0.70    1.50
   7 -10   1    1.80    1.50
   4   9  -1    2.10    1.20
   4   9  -1    0.50    0.90
  -4  -9   1   -0.30    1.00
  -4  -9   1   -0.60    0.90
   3   9  -1    1.20    1.10
   3   9  -1    0.60    0.80
  -3  -9   1    0.10    0.90
  -3  -9   1    1.10    1.00
   2   9  -1    1.40    0.80
   2   9  -1    0.80    1.00
  -2  -9   1    1.20    1.00
  -2  -9   1    1.80    1.00
   1   9  -1    9.50    1.50
  -1  -9   1    7.10    1.40
   0   9  -1   64.69    5.10
   0   9  -1   56.29    4.80
   0  -9   1   62.19    5.00
   0  -9   1   52.59    5.20
  -1   9  -1   -0.20    0.70
  -1   9  -1   -0.90    0.60
   1  -9   1    0.00    0.90
   1  -9   1   -0.20    1.10
  -2   9  -1    0.00    1.00
  -2   9  -1   -1.10    0.70
  -2   9  -1   -0.50    0.80
   2  -9   1   -1.20    0.80
   2  -9   1    0.30    1.00
  -3   9  -1   -1.20    0.80
  -3   9  -1    0.40    1.20
  -3   9  -1    0.30    0.70
  -3   9  -1   -0.60    0.90
   3  -9   1    0.60    1.10
   3  -9   1    1.00    1.00
   3  -9   1    0.20    0.80
  -4   9  -1    0.10    0.80
  -4   9  -1    0.80    1.20
  -4   9  -1    1.30    0.90
  -4   9  -1    0.50    1.00
   4  -9   1    0.20    0.80
   4  -9   1    1.80    1.10
   4  -9   1    0.70    1.10
  -5   9  -1    3.00    1.10
  -5   9  -1    1.60    1.30
  -5   9  -1    5.70    1.70
  -5   9  -1    4.40    1.10
   5  -9   1    5.30    0.90
   5  -9   1    4.70    1.40
   5  -9   1    5.60    1.50
  -6   9  -1   13.30    2.40
  -6   9  -1   15.50    2.00
  -6   9  -1   13.10    2.00
   6  -9   1   15.50    2.70
   6  -9   1   18.50    2.70
   6  -9   1   16.80    1.80
  -7   9  -1    9.40    1.80
  -7   9  -1    7.60    1.40
  -7   9  -1   12.60    1.80
   7  -9   1   10.00    2.00
   7  -9   1    9.80    1.60
   7  -9   1    9.70    2.10
  -8   9  -1    1.40    1.00
  -8   9  -1   -0.30    1.00
  -8   9  -1    3.40    1.40
   8  -9   1    1.40    1.20
   8  -9   1    1.20    1.60
   8  -9   1    1.90    1.40
   5   8  -1    1.30    1.20
   5   8  -1   -0.10    1.20
   5   8  -1   -0.10    0.80
  -5  -8   1   -0.30    1.00
  -5  -8   1    0.20    0.80
  -5  -8   1    0.60    1.20
   4   8  -1    4.70    1.40
   4   8  -1    4.40    1.00
   4   8  -1    2.80    1.20
  -4  -8   1    2.90    1.10
  -4  -8   1    4.20    1.10
  -4  -8   1    4.80    1.40
   3   8  -1   25.40    2.50
   3   8  -1   26.80    3.00
  -3  -8   1   26.30    2.60
  -3  -8   1   22.50    2.70
   2   8  -1  163.28   12.10
   2   8  -1  163.08   12.40
  -2  -8   1  146.49   12.30
  -2  -8   1  155.98   12.20
   1   8  -1    1.50    0.90
   1   8  -1    0.10    0.70
  -1  -8   1    0.10    0.90
  -1  -8   1   -0.20    0.80
  -1  -8   1    0.40    0.80
   0   8  -1    0.90    0.80
   0   8  -1   -0.10    0.50
   0   8  -1   -0.70    0.70
   0  -8   1   -0.20    0.80
   0  -8   1    0.40    0.60
   0  -8   1    0.30    0.90
  -1   8  -1   62.59    5.10
  -1   8  -1   63.79    5.20
  -1   8  -1   58.29    5.50
  -1   8  -1   68.39    5.30
   1  -8   1   62.39    5.60
   1  -8   1   69.39    5.30
  -2   8  -1    5.60    0.90
  -2   8  -1    5.70    1.40
  -2   8  -1    8.10    1.20
  -2   8  -1    4.10    1.00
  -2   8  -1    8.30    1.40
   2  -8   1    4.60    1.30
   2  -8   1    5.40    1.10
   2  -8   1    7.50    1.10
  -3   8  -1   39.70    4.10
  -3   8  -1   50.19    4.00
  -3   8  -1   47.70    4.10
  -3   8  -1   49.10    4.70
   3  -8   1   47.30    4.30
   3  -8   1   54.89    4.10
   3  -8   1   49.80    4.50
  -4   8  -1   17.00    1.80
  -4   8  -1   15.20    2.60
  -4   8  -1   13.20    2.00
  -4   8  -1   15.10    1.80
   4  -8   1   16.90    1.70
   4  -8   1   17.40    2.30
   4  -8   1   16.20    2.30
  -5   8  -1    0.00    0.70
  -5   8  -1   -1.40    1.10
  -5   8  -1   -0.20    1.30
  -5   8  -1    0.40    0.70
   5  -8   1    0.20    1.00
   5  -8   1    1.30    0.80
   5  -8   1    1.10    1.20
   5  -8   1    0.20    0.60
  -6   8  -1    1.80    0.80
  -6   8  -1   -0.20    1.10
  -6   8  -1    0.40    0.80
  -6   8  -1    0.00    1.50
   6  -8   1    1.50    0.60
   6  -8   1    1.10    0.90
   6  -8   1    0.30    1.20
   6  -8   1    0.80    1.20
  -7   8  -1   -1.10    0.80
  -7   8  -1    1.00    0.90
  -7   8  -1    0.80    1.20
   7  -8   1    2.20    1.00
   7  -8   1    0.90    1.20
   7  -8   1    1.00    1.40
  -8   8  -1    6.90    1.40
  -8   8  -1   12.10    2.20
  -8   8  -1    8.40    1.50
   8  -8   1    9.10    2.10
   8  -8   1   13.00    2.00
   8  -8   1    9.10    1.80
  -9   8  -1    6.60    1.40
  -9   8  -1    8.40    1.50
   9  -8   1    8.00    1.80
   9  -8   1   14.70    2.30
   9  -8   1   10.90    2.30
   6   7  -1    4.70    1.10
   6   7  -1    3.60    1.30
  -6  -7   1    4.10    1.50
  -6  -7   1    2.90    1.20
  -6  -7   1    4.00    1.00
   5   7  -1   12.50    1.70
   5   7  -1   13.20    2.10
   5   7  -1    8.70    1.80
  -5  -7   1    9.70    1.60
  -5  -7   1    9.10    1.70
  -5  -7   1   12.40    1.70
   4   7  -1    0.00    1.00
   4   7  -1    0.80    0.80
   4   7  -1    0.90    0.90
  -4  -7   1    0.60    0.70
  -4  -7   1   -0.40    0.90
  -4  -7   1    0.70    0.90
   3   7  -1  106.79    8.10
   3   7  -1  105.19    8.40
   3   7  -1  100.09    8.40
  -3  -7   1  105.39    8.20
  -3  -7   1   99.59    8.30
  -3  -7   1  100.39    8.30
   2   7  -1   26.40    2.60
   2   7  -1   23.40    2.50
   2   7  -1   25.20    2.30
  -2  -7   1   21.70    2.40
  -2  -7   1   19.60    2.30
  -2  -7   1   23.90    2.50
  -2  -7   1   24.60    2.30
  -1  -7   1   -1.50    0.60
  -1  -7   1   -1.10    0.70
  -1  -7   1    0.30    0.60
   0   7  -1    2.20    0.80
   0   7  -1    2.00    0.70
   0   7  -1    1.70    0.70
   0   7  -1    2.60    0.60
   0  -7   1    2.90    1.00
   0  -7   1    3.30    0.80
   0  -7   1    2.40    0.80
  -1   7  -1   66.99    4.90
  -1   7  -1   58.89    4.80
  -1   7  -1   54.39    5.10
  -1   7  -1   58.29    4.70
   1  -7   1   64.99    4.80
   1  -7   1   54.29    4.90
   1  -7   1   65.09    4.90
   1  -7   1   58.29    5.10
  -2   7  -1  186.18   13.90
  -2   7  -1  156.48   14.00
  -2   7  -1  183.18   13.90
  -2   7  -1  183.38   14.40
   2  -7   1  183.78   14.30
   2  -7   1  211.88   14.00
   2  -7   1  178.58   14.10
  -3   7  -1   15.10    1.50
  -3   7  -1   15.60    1.50
  -3   7  -1   10.30    2.10
  -3   7  -1   10.40    1.40
   3  -7   1   11.60    1.40
   3  -7   1   12.10    1.70
   3  -7   1   10.70    1.80
  -4   7  -1   20.90    2.90
  -4   7  -1   25.50    2.10
  -4   7  -1   22.40    2.10
   4  -7   1   23.70    2.20
   4  -7   1   21.50    2.10
   4  -7   1   18.60    2.60
   4  -7   1   21.50    2.50
  -5   7  -1   38.00    4.40
  -5   7  -1   43.30    3.60
  -5   7  -1   44.40    3.60
   5  -7   1   41.60    3.40
   5  -7   1   45.30    3.70
   5  -7   1   40.80    3.90
   5  -7   1   40.60    4.10
  -6   7  -1    6.50    1.60
  -6   7  -1    8.80    2.10
  -6   7  -1   10.50    1.50
  -6   7  -1   12.40    1.60
   6  -7   1    8.50    1.60
   6  -7   1   11.00    1.60
   6  -7   1   12.50    1.20
   6  -7   1   12.30    2.20
  -7   7  -1   -0.30    1.40
  -7   7  -1    0.90    0.80
   7  -7   1    0.30    0.70
   7  -7   1   -0.90    0.90
   7  -7   1    0.30    0.80
   7  -7   1    0.10    1.10
  -8   7  -1    1.20    0.90
  -8   7  -1    2.80    1.30
  -8   7  -1    0.50    0.90
   8  -7   1    0.50    1.00
   8  -7   1    1.20    1.20
   8  -7   1    2.00    1.50
  -9   7  -1    0.40    1.00
  -9   7  -1    2.30    1.40
  -9   7  -1   -0.80    1.00
   9  -7   1    2.10    1.80
   9  -7   1    0.50    1.20
   9  -7   1    1.10    1.10
   7   6  -1   27.10    2.80
   7   6  -1   25.80    3.10
   7   6  -1   25.20    3.40
  -7  -6   1   25.40    3.20
  -7  -6   1   23.00    2.90
  -7  -6   1   24.60    2.60
   6   6  -1   -1.00    1.00
   6   6  -1    0.00    0.80
   6   6  -1   -0.50    0.90
  -6  -6   1    0.10    0.90
  -6  -6   1    0.10    0.70
  -6  -6   1    0.80    1.00
   5   6  -1    0.40    0.90
   5   6  -1    1.40    0.70
   5   6  -1    0.00    1.00
  -5  -6   1    1.70    0.90
  -5  -6   1    1.20    1.00
  -5  -6   1    0.40    0.70
   4   6  -1   31.80    3.20
   4   6  -1   31.80    2.90
   4   6  -1   32.60    3.40
  -4  -6   1   30.80    3.30
  -4  -6   1   30.00    2.90
  -4  -6   1   33.20    3.10
   3   6  -1    0.70    0.60
   3   6  -1   -0.10    0.80
   3   6  -1    0.30    0.90
  -3  -6   1   -0.30    0.70
  -3  -6   1    0.10    0.70
  -3  -6   1    0.90    0.90
   2   6  -1   18.00    2.10
   2   6  -1   21.80    1.70
   2   6  -1   19.70    1.90
   2   6  -1   21.00    2.20
  -2  -6   1   18.50    2.10
  -2  -6   1   17.70    1.90
  -2  -6   1   21.00    2.20
  -2  -6   1   17.00    2.00
   1   6  -1  115.19    8.60
   1   6  -1  108.59    8.70
   1   6  -1  118.09    8.50
   1   6  -1  109.29    8.70
   1   6  -1  112.69    8.70
  -1  -6   1  112.09    8.70
  -1  -6   1  105.09    8.70
  -1  -6   1  111.49    8.70
  -1  -6   1  112.59    8.70
   0   6  -1  360.16   25.00
   0   6  -1  304.27   25.10
   0   6  -1  322.47   25.00
   0   6  -1  339.67   24.90
   0   6  -1  339.87   24.90
   0  -6   1  303.27   24.90
   0  -6   1  320.87   25.00
   0  -6   1  351.26   25.00
   0  -6   1  362.96   25.00
   0  -6   1  310.17   25.10
  -1   6  -1   49.40    4.00
  -1   6  -1   41.20    3.90
  -1   6  -1   51.59    3.90
  -1   6  -1   54.29    4.00
  -1   6  -1   45.80    4.20
   1  -6   1   44.90    4.00
   1  -6   1   47.80    4.20
   1  -6   1   53.49    3.90
   1  -6   1   54.49    4.00
  -2   6  -1   -0.70    0.70
  -2   6  -1    0.80    0.50
  -2   6  -1    0.70    0.50
  -2   6  -1    0.20    0.40
   2  -6   1   -0.30    0.30
   2  -6   1   -0.20    0.40
   2  -6   1   -0.70    0.50
   2  -6   1   -0.60    0.50
  -3   6  -1   -1.40    0.70
  -3   6  -1   -0.20    0.40
  -3   6  -1   -0.10    0.40
  -3   6  -1    0.30    0.40
   3  -6   1   -0.40    0.40
   3  -6   1   -0.20    0.60
   3  -6   1   -0.10    0.60
  -4   6  -1    7.80    1.00
  -4   6  -1    5.30    1.50
  -4   6  -1    7.60    1.00
  -4   6  -1    7.00    0.90
   4  -6   1    6.80    1.10
   4  -6   1    6.20    1.10
   4  -6   1    4.50    1.10
   4  -6   1    6.30    0.90
  -5   6  -1   30.20    2.80
  -5   6  -1   28.20    2.60
  -5   6  -1   33.30    2.50
   5  -6   1   29.50    2.60
   5  -6   1   26.80    3.00
   5  -6   1   24.20    2.90
   5  -6   1   27.70    2.40
  -6   6  -1   16.90    3.00
  -6   6  -1   22.80    2.10
  -6   6  -1   22.20    2.20
   6  -6   1   19.10    2.50
   6  -6   1   24.20    2.30
   6  -6   1   22.30    1.90
   6  -6   1   22.40    2.70
  -7   6  -1   30.00    3.70
  -7   6  -1   30.00    2.90
  -7   6  -1   32.00    2.70
   7  -6   1   30.90    3.40
   7  -6   1   30.90    2.90
   7  -6   1   26.30    3.00
   7  -6   1   28.60    2.50
  -8   6  -1   17.10    1.90
  -8   6  -1   11.50    2.20
  -8   6  -1   11.80    1.90
  -8   6  -1   14.00    2.80
   8  -6   1   15.10    2.30
   8  -6   1   12.20    2.00
   8  -6   1   14.50    2.60
  -9   6  -1    5.60    1.20
  -9   6  -1    6.50    1.50
  -9   6  -1    5.30    1.20
   9  -6   1    3.90    1.40
   9  -6   1    6.60    1.40
   9  -6   1    6.70    1.90
 -10   6  -1    2.80    1.00
 -10   6  -1    2.30    1.40
 -10   6  -1    0.50    1.00
  10  -6   1    1.00    1.30
  10  -6   1    0.30    1.60
  10  -6   1   -0.90    1.30
   8   5  -1    4.30    1.60
   8   5  -1    3.10    1.00
   8   5  -1    3.80    1.30
  -8  -5   1    2.60    1.20
  -8  -5   1    2.40    1.40
   7   5  -1    0.20    0.70
   7   5  -1    0.50    1.00
   7   5  -1   -0.20    1.20
  -7  -5   1   -0.20    0.90
  -7  -5   1    1.20    1.20
  -7  -5   1    0.40    0.70
   6   5  -1    1.40    1.00
   6   5  -1    1.50    0.70
   6   5  -1    0.20    1.20
  -6  -5   1    2.10    1.10
  -6  -5   1    1.00    0.90
  -6  -5   1    2.70    0.70
   5   5  -1  131.79   10.20
   5   5  -1  127.49   10.50
   5   5  -1  140.09   10.70
  -5  -5   1  132.09   10.20
  -5  -5   1  133.39   10.50
  -5  -5   1  128.89   10.60
   4   5  -1   48.00    4.30
   4   5  -1   51.59    4.00
   4   5  -1   51.69    4.50
  -4  -5   1   46.50    4.30
  -4  -5   1   48.20    4.40
  -4  -5   1   48.50    4.10
   3   5  -1   83.19    6.80
   3   5  -1   79.99    6.70
   3   5  -1   87.19    6.50
   3   5  -1   92.79    6.50
  -3  -5   1   85.59    6.60
  -3  -5   1   79.79    6.50
  -3  -5   1   78.29    6.70
  -3  -5   1   79.19    6.70
   2   5  -1    0.30    0.30
   2   5  -1   -0.40    0.40
   2   5  -1    0.50    0.50
   2   5  -1   -0.10    0.60
   2   5  -1   -0.50    0.50
  -2  -5   1   -0.40    0.60
  -2  -5   1    0.20    0.50
  -2  -5   1    0.50    0.50
  -2  -5   1    0.20    0.40
   1   5  -1  250.37   19.50
   1   5  -1  279.27   19.30
   1   5  -1  254.27   19.50
   1   5  -1  273.97   19.40
   1   5  -1  256.77   19.50
  -1  -5   1  271.07   19.50
  -1  -5   1  234.38   19.30
  -1  -5   1  248.48   19.50
  -1  -5   1  260.57   19.50
  -1  -5   1  249.18   19.50
   0   5  -1   21.00    2.10
   0   5  -1   27.30    2.00
   0   5  -1   25.70    2.20
   0   5  -1   23.10    2.30
   0   5  -1   26.20    2.20
   0   5  -1   28.00    2.20
   0  -5   1   26.00    2.20
   0  -5   1   23.90    2.30
   0  -5   1   27.40    2.20
   0  -5   1   22.10    2.10
   0  -5   1   25.60    2.10
  -1   5  -1   11.30    1.10
  -1   5  -1   14.00    1.20
  -1   5  -1   11.40    1.10
  -1   5  -1   10.90    1.30
  -1   5  -1   11.00    1.50
   1  -5   1   12.20    1.30
   1  -5   1   12.30    1.10
   1  -5   1   12.60    1.10
   1  -5   1   11.20    1.20
   1  -5   1   10.30    1.30
  -2   5  -1  101.09    7.60
  -2   5  -1   92.39    7.60
  -2   5  -1   95.79    8.00
  -2   5  -1  114.99    7.60
   2  -5   1   92.19    7.80
   2  -5   1   98.59    7.60
   2  -5   1  103.49    7.50
   2  -5   1   94.59    7.80
  -3   5  -1    1.00    0.40
  -3   5  -1   -0.20    0.40
  -3   5  -1   -0.40    0.80
  -3   5  -1    1.10    0.30
   3  -5   1   -1.00    0.60
   3  -5   1    0.10    0.40
   3  -5   1    0.60    0.60
   3  -5   1    0.50    0.30
  -4   5  -1   -0.80    0.90
  -4   5  -1    0.50    0.40
  -4   5  -1    0.70    0.40
  -4   5  -1    1.00    0.30
   4  -5   1    0.70    0.30
   4  -5   1    0.00    0.60
   4  -5   1    0.20    0.60
   4  -5   1    0.70    0.50
   4  -5   1    0.30    0.90
  -5   5  -1   36.00    2.70
  -5   5  -1   32.90    3.40
  -5   5  -1   32.70    2.80
  -5   5  -1   32.50    2.60
   5  -5   1   33.50    2.80
   5  -5   1   29.30    2.60
   5  -5   1   30.70    3.00
   5  -5   1   30.60    3.50
   5  -5   1   30.50    3.10
  -6   5  -1    0.60    0.50
  -6   5  -1    1.80    0.70
  -6   5  -1    1.60    1.20
  -6   5  -1    0.80    0.60
   6  -5   1    1.30    0.70
   6  -5   1    0.70    1.10
   6  -5   1    1.20    0.90
   6  -5   1    1.30    0.40
   6  -5   1    1.10    0.80
  -7   5  -1    6.30    1.70
  -7   5  -1    8.00    1.20
  -7   5  -1    5.80    1.10
   7  -5   1    6.80    1.20
   7  -5   1    5.90    1.80
   7  -5   1    7.40    1.00
   7  -5   1    5.50    1.00
   7  -5   1    5.50    1.20
   7  -5   1    7.60    1.50
  -8   5  -1    5.20    1.60
  -8   5  -1    3.90    1.20
  -8   5  -1    4.30    0.90
  -8   5  -1    2.10    1.00
   8  -5   1    4.70    1.50
   8  -5   1    4.10    1.10
   8  -5   1    3.90    1.60
   8  -5   1    4.50    1.20
   8  -5   1    5.00    1.00
  -9   5  -1    1.50    0.90
  -9   5  -1    1.90    1.20
  -9   5  -1    0.90    1.00
  -9   5  -1    4.40    1.80
   9  -5   1    2.00    1.00
   9  -5   1    1.10    1.10
   9  -5   1    1.40    1.40
   9  -5   1    1.80    1.10
 -10   5  -1    2.60    1.40
 -10   5  -1   -1.30    1.00
  10  -5   1    0.40    1.20
  10  -5   1   -0.50    1.60
   9   4  -1    0.40    1.40
   9   4  -1    1.40    1.20
   9   4  -1    0.60    0.90
  -9  -4   1   -0.40    1.20
  -9  -4   1   -0.20    1.10
   8   4  -1    8.40    1.90
   8   4  -1    6.70    1.20
   8   4  -1    6.70    1.50
  -8  -4   1    5.00    1.30
  -8  -4   1    6.50    1.60
   7   4  -1    8.40    1.50
   7   4  -1    9.10    1.80
   7   4  -1   10.30    1.50
  -7  -4   1    8.70    1.50
  -7  -4   1    7.90    1.70
  -7  -4   1   10.30    1.30
   6   4  -1    4.00    1.40
   6   4  -1    3.80    1.10
   6   4  -1    3.50    0.80
  -6  -4   1    4.20    1.30
  -6  -4   1    2.80    1.00
  -6  -4   1    3.20    0.80
   5   4  -1    9.00    1.60
   5   4  -1   10.10    1.30
   5   4  -1    7.70    1.30
  -5  -4   1   10.70    1.80
  -5  -4   1    7.30    1.10
  -5  -4   1    7.10    1.30
   4   4  -1   49.10    4.30
   4   4  -1   48.30    4.20
   4   4  -1   50.09    4.00
  -4  -4   1   50.89    4.00
  -4  -4   1   48.00    4.10
  -4  -4   1   46.50    4.20
   3   4  -1   63.39    5.00
   3   4  -1   64.99    5.20
   3   4  -1   60.29    5.10
  -3  -4   1   64.49    5.00
  -3  -4   1   70.19    5.00
  -3  -4   1   60.39    5.20
  -3  -4   1   61.19    5.10
   2   4  -1  453.05   30.30
   2   4  -1  403.06   30.60
   2   4  -1  420.96   30.40
   2   4  -1  391.06   30.50
  -2  -4   1  383.86   30.40
  -2  -4   1  424.06   30.40
  -2  -4   1  387.26   30.50
  -2  -4   1  377.86   30.50
   1   4  -1   78.19    6.00
   1   4  -1   85.39    5.90
   1   4  -1   77.69    6.00
   1   4  -1   77.19    6.00
   1   4  -1   66.79    5.80
   1   4  -1   82.19    5.90
  -1  -4   1   77.69    6.00
  -1  -4   1   71.79    5.90
  -1  -4   1   82.39    6.00
  -1  -4   1   74.19    6.00
  -1  -4   1   75.49    6.00
   0   4  -1   45.30    3.80
   0   4  -1   39.70    3.70
   0   4  -1   50.49    3.70
   0   4  -1   47.50    3.70
   0   4  -1   48.90    3.60
   0   4  -1   52.59    3.70
   0  -4   1   43.40    3.80
   0  -4   1   49.70    3.70
   0  -4   1   47.00    3.70
   0  -4   1   43.90    3.70
   0  -4   1   49.20    3.70
  -1   4  -1    6.80    0.70
  -1   4  -1    6.50    1.10
  -1   4  -1    8.70    0.80
  -1   4  -1    7.40    0.60
   1  -4   1    6.00    0.90
   1  -4   1    7.10    0.60
   1  -4   1    6.50    0.70
   1  -4   1    6.00    0.80
   1  -4   1    6.20    0.70
  -2   4  -1  133.69    9.00
  -2   4  -1  130.69    9.00
  -2   4  -1  114.49    9.40
  -2   4  -1  108.39    9.00
   2  -4   1  108.59    9.20
   2  -4   1  123.69    9.50
   2  -4   1  120.19    9.10
   2  -4   1  110.49    9.00
   2  -4   1  129.99    8.90
   2  -4   1  107.89    9.20
  -3   4  -1   25.70    1.90
  -3   4  -1   18.90    2.40
  -3   4  -1   23.00    2.00
  -3   4  -1   24.00    1.90
   3  -4   1   27.00    2.50
   3  -4   1   20.60    2.10
   3  -4   1   23.50    2.00
  -4   4  -1   18.70    1.40
  -4   4  -1   16.20    1.30
  -4   4  -1   14.30    1.30
  -4   4  -1   15.70    1.50
   4  -4   1   15.70    1.30
   4  -4   1   16.10    1.50
   4  -4   1   13.10    1.60
   4  -4   1   17.50    2.10
   4  -4   1   13.70    1.70
  -5   4  -1   87.59    7.00
  -5   4  -1   95.09    6.90
  -5   4  -1   80.79    6.80
  -5   4  -1   86.99    7.50
   5  -4   1   84.09    7.20
   5  -4   1   97.09    6.90
   5  -4   1  101.09    6.90
   5  -4   1   90.89    7.60
   5  -4   1   91.39    7.00
   5  -4   1   86.49    6.80
   5  -4   1   81.89    7.10
  -6   4  -1   54.49    4.80
  -6   4  -1   69.29    4.90
  -6   4  -1   57.29    4.90
  -6   4  -1   61.09    5.50
   6  -4   1   54.29    5.00
   6  -4   1   60.69    4.90
   6  -4   1   68.19    4.90
   6  -4   1   59.59    4.70
   6  -4   1   60.99    5.30
   6  -4   1   58.49    5.60
   6  -4   1   64.79    5.00
  -7   4  -1   -0.70    0.80
  -7   4  -1    0.20    1.00
  -7   4  -1    1.00    0.50
   7  -4   1   -0.40    1.30
   7  -4   1    0.30    0.60
   7  -4   1    0.10    0.80
   7  -4   1    2.80    1.10
   7  -4   1    1.90    0.70
  -8   4  -1   -0.20    0.60
  -8   4  -1   -1.40    0.70
  -8   4  -1    0.60    1.20
  -8   4  -1   -1.40    0.90
   8  -4   1   -0.50    0.70
   8  -4   1   -1.30    1.00
   8  -4   1    0.20    0.70
   8  -4   1    0.70    1.20
   8  -4   1   -1.30    0.80
  -9   4  -1   12.90    1.60
  -9   4  -1   12.70    2.30
  -9   4  -1   12.00    2.00
  -9   4  -1   12.20    1.60
  -9   4  -1    7.60    1.40
   9  -4   1   12.70    2.50
   9  -4   1    9.70    1.90
   9  -4   1   12.60    1.60
   9  -4   1    8.10    1.50
   9  -4   1    8.20    1.60
 -10   4  -1    0.40    0.90
  10  -4   1    1.30    1.30
   9   3  -1    4.50    1.60
   9   3  -1    4.50    1.10
   9   3  -1    3.30    1.20
  -9  -3   1    4.20    1.50
  -9  -3   1    4.60    1.40
   8   3  -1   22.90    2.40
   8   3  -1   21.00    2.90
   8   3  -1   20.10    2.60
  -8  -3   1   20.70    2.50
  -8  -3   1   19.50    2.70
   7   3  -1   20.70    2.30
   7   3  -1   17.00    2.20
   7   3  -1   16.80    1.90
   7   3  -1   17.00    2.50
  -7  -3   1   19.70    2.20
  -7  -3   1   15.70    2.30
  -7  -3   1   16.30    1.80
   6   3  -1    0.20    0.60
   6   3  -1   -1.60    1.00
   6   3  -1   -0.50    0.70
   6   3  -1   -0.10    0.80
  -6  -3   1    0.10    0.60
  -6  -3   1   -1.00    0.90
  -6  -3   1    0.10    0.80
   5   3  -1   39.80    3.90
   5   3  -1   44.50    3.80
   5   3  -1   46.30    3.50
   5   3  -1   40.90    3.70
  -5  -3   1   40.20    3.80
  -5  -3   1   43.90    3.50
  -5  -3   1   40.40    3.70
   4   3  -1    0.00    0.40
   4   3  -1    0.60    0.30
   4   3  -1    0.00    0.50
   4   3  -1    0.60    0.50
   4   3  -1   -0.20    0.60
  -4  -3   1    0.20    0.40
  -4  -3   1    0.20    0.60
  -4  -3   1    0.70    0.30
  -4  -3   1    0.00    0.50
   3   3  -1   11.60    1.40
   3   3  -1   13.40    1.50
   3   3  -1   12.50    1.20
   3   3  -1   13.10    1.40
  -3  -3   1   13.30    1.10
  -3  -3   1   12.20    1.50
  -3  -3   1   14.10    1.30
  -3  -3   1   13.40    1.40
  -3  -3   1   15.00    1.20
   2   3  -1  176.08   13.40
   2   3  -1  171.48   13.30
   2   3  -1  184.28   13.30
  -2  -3   1  184.98   13.30
  -2  -3   1  156.78   13.30
  -2  -3   1  179.28   13.30
  -2  -3   1  180.08   13.40
  -2  -3   1  170.98   13.40
   1   3  -1  464.35   34.30
   1   3  -1  461.55   34.30
   1   3  -1  397.16   34.10
   1   3  -1  510.05   34.20
   1   3  -1  464.35   34.30
  -1  -3   1  439.26   34.30
  -1  -3   1  496.05   34.30
  -1  -3   1  440.46   34.30
  -1  -3   1  439.36   34.20
  -1  -3   1  461.15   34.30
   0   3  -1  119.59    8.50
   0   3  -1  113.39    8.70
   0   3  -1  125.89    8.50
   0   3  -1   94.19    8.50
   0   3  -1   96.19    8.50
   0   3  -1  117.39    8.50
   0  -3   1  104.69    8.60
   0  -3   1  116.29    8.50
   0  -3   1  121.59    8.50
   0  -3   1  117.09    8.50
  -1   3  -1    1.90    0.50
  -1   3  -1    1.60    0.30
  -1   3  -1    3.10    0.50
   1  -3   1    2.00    0.30
   1  -3   1    1.30    0.40
   1  -3   1    1.60    0.30
   1  -3   1    1.70    0.40
   1  -3   1    2.10    0.50
  -2   3  -1  289.47   22.20
  -2   3  -1  325.07   22.20
  -2   3  -1  282.87   22.20
  -2   3  -1  294.37   22.50
   2  -3   1  305.77   22.20
   2  -3   1  306.97   22.60
   2  -3   1  338.07   22.20
   2  -3   1  274.37   22.30
   2  -3   1  278.07   22.30
   2  -3   1  267.07   22.20
  -3   3  -1    1.10    0.60
  -3   3  -1    1.20    0.20
  -3   3  -1    1.00    0.30
  -3   3  -1    1.00    0.30
  -3   3  -1    1.40    0.20
   3  -3   1    0.90    0.30
   3  -3   1    0.60    0.40
   3  -3   1    1.10    0.60
   3  -3   1    0.60    0.40
   3  -3   1    1.00    0.30
   3  -3   1    0.90    0.20
   3  -3   1    1.30    0.30
  -4   3  -1  119.29    8.90
  -4   3  -1  108.99    8.90
  -4   3  -1   99.49    8.80
  -4   3  -1  119.99    9.40
  -4   3  -1  127.19    8.90
   4  -3   1  114.99    8.90
   4  -3   1  116.69    8.80
   4  -3   1  117.39    8.90
   4  -3   1  123.39    9.40
   4  -3   1  113.69    8.90
   4  -3   1  134.69    8.90
   4  -3   1  108.39    9.10
   4  -3   1  101.99    9.00
   4  -3   1  128.89    8.90
  -5   3  -1    1.50    0.90
  -5   3  -1    1.50    0.50
  -5   3  -1    1.80    0.40
  -5   3  -1    1.80    0.50
  -5   3  -1    1.50    0.40
   5  -3   1    1.70    0.50
   5  -3   1    2.00    0.50
   5  -3   1    2.70    0.60
   5  -3   1    1.80    0.60
   5  -3   1    2.80    0.50
   5  -3   1    1.90    0.90
   5  -3   1    1.70    0.50
   5  -3   1    2.20    0.40
   5  -3   1    1.60    0.70
  -6   3  -1   22.60    2.10
  -6   3  -1   22.50    2.70
  -6   3  -1   19.40    2.30
  -6   3  -1   19.70    2.20
  -6   3  -1   24.20    2.00
  -6   3  -1   19.60    2.10
  -6   3  -1   27.60    2.10
   6  -3   1   22.60    2.80
   6  -3   1   23.00    2.10
   6  -3   1   23.80    1.90
   6  -3   1   22.00    2.10
   6  -3   1   22.40    2.20
   6  -3   1   24.50    2.10
   6  -3   1   23.00    2.50
   6  -3   1   23.60    2.20
   6  -3   1   23.90    2.00
  -7   3  -1   31.50    3.40
  -7   3  -1   32.40    2.70
  -7   3  -1   30.20    2.80
  -7   3  -1   28.50    2.80
  -7   3  -1   24.20    2.90
  -7   3  -1   33.00    2.50
  -7   3  -1   28.70    2.70
  -7   3  -1   28.00    2.70
  -7   3  -1   29.70    2.70
   7  -3   1   30.70    2.80
   7  -3   1   31.60    2.50
   7  -3   1   31.50    3.10
   7  -3   1   29.40    2.70
   7  -3   1   32.50    3.40
   7  -3   1   33.40    2.80
   7  -3   1   31.50    3.50
   7  -3   1   31.70    2.90
  -8   3  -1    0.70    1.10
  -8   3  -1    1.30    0.70
  -8   3  -1   -0.40    1.00
  -8   3  -1    0.70    0.70
  -8   3  -1   -0.20    0.70
  -8   3  -1   -0.40    0.70
  -8   3  -1    0.40    0.70
   8  -3   1   -0.50    0.80
   8  -3   1    1.50    1.30
   8  -3   1   -0.10    0.70
   8  -3   1    0.60    1.20
   8  -3   1   -0.30    0.70
   8  -3   1    0.60    0.70
  -9   3  -1   -1.50    0.70
  -9   3  -1    0.10    0.70
  -9   3  -1    0.40    0.90
   9  -3   1   -1.20    1.50
   9  -3   1   -0.30    0.90
   9  -3   1   -0.90    0.80
  10   2  -1   -1.20    1.40
   9   2  -1    0.20    0.90
   9   2  -1    0.60    0.80
   9   2  -1    0.60    1.30
  -9  -2   1   -0.50    1.00
  -9  -2   1    0.00    1.20
  -9  -2   1    0.30    0.90
   8   2  -1    4.60    1.10
   8   2  -1    4.80    1.40
   8   2  -1    4.10    1.00
   8   2  -1    3.40    1.10
  -8  -2   1    3.30    1.20
  -8  -2   1    4.10    1.00
   7   2  -1   57.69    4.60
   7   2  -1   53.99    4.90
   7   2  -1   55.49    5.10
   7   2  -1   56.99    4.90
  -7  -2   1   53.39    4.90
  -7  -2   1   56.19    4.80
  -7  -2   1   55.39    4.50
   6   2  -1   10.10    1.80
   6   2  -1   16.10    1.90
   6   2  -1   11.90    2.00
   6   2  -1   14.00    1.50
   6   2  -1   18.70    1.80
  -6  -2   1   14.50    1.40
  -6  -2   1   14.00    1.70
  -6  -2   1    9.10    1.70
   5   2  -1   24.10    1.90
   5   2  -1   20.40    1.90
   5   2  -1   19.70    2.00
   5   2  -1   17.60    2.20
   5   2  -1   21.10    2.10
  -5  -2   1   17.10    2.10
  -5  -2   1   21.00    1.80
  -5  -2   1   21.40    2.00
   4   2  -1    5.80    0.70
   4   2  -1    5.00    0.80
   4   2  -1    4.80    0.70
   4   2  -1    3.30    0.80
   4   2  -1    5.60    0.90
   4   2  -1    4.40    0.80
  -4  -2   1    5.50    0.50
  -4  -2   1    3.40    0.80
  -4  -2   1    5.80    0.70
  -4  -2   1    6.20    0.60
  -4  -2   1    3.90    0.70
  -4  -2   1    4.00    0.60
   3   2  -1   61.79    5.20
   3   2  -1   68.09    5.00
   3   2  -1   63.49    5.00
   3   2  -1   73.39    5.00
   3   2  -1   62.79    5.10
   3   2  -1   61.89    5.20
  -3  -2   1   62.49    5.10
  -3  -2   1   57.49    5.20
  -3  -2   1   68.19    5.00
  -3  -2   1   71.39    5.00
   2   2  -1   33.10    2.60
   2   2  -1   37.10    2.50
   2   2  -1   30.30    2.60
   2   2  -1   29.80    2.60
   2   2  -1   33.50    2.50
  -2  -2   1   30.30    2.60
  -2  -2   1   29.20    2.40
  -2  -2   1   27.70    2.60
  -2  -2   1   30.90    2.50
  -2  -2   1   32.80    2.50
   1   2  -1  690.73   48.20
   1   2  -1  678.53   48.10
   1   2  -1  707.23   48.10
  -1  -2   1  608.24   48.00
  -1  -2   1  540.55   47.90
  -1  -2   1  620.04   48.00
   0   2  -1  767.12   57.39
   0   2  -1  791.92   57.49
   0  -2   1  759.62   57.39
   0  -2   1  750.12   57.29
  -1   2  -1 2259.47  156.98
  -1   2  -1 2154.28  157.48
   1  -2   1 2085.39  156.38
   1  -2   1 1847.62  156.48
   1  -2   1 2126.99  157.48
  -2   2  -1   11.90    1.10
   2  -2   1   12.90    1.00
   2  -2   1   15.00    1.10
   2  -2   1   12.10    1.00
   2  -2   1   12.00    1.40
   2  -2   1   12.40    1.10
  -3   2  -1   59.49    4.70
  -3   2  -1   47.80    4.30
  -3   2  -1   56.69    4.40
  -3   2  -1   58.89    4.30
   3  -2   1   55.69    4.40
   3  -2   1   51.49    4.30
   3  -2   1   61.89    4.70
   3  -2   1   51.19    4.40
   3  -2   1   55.29    4.30
   3  -2   1   56.79    4.50
   3  -2   1   58.39    4.30
   3  -2   1   57.89    4.30
  -4   2  -1    0.20    0.20
  -4   2  -1    0.10    0.30
  -4   2  -1   -0.30    0.50
  -4   2  -1   -0.40    0.30
  -4   2  -1    0.10    0.30
   4  -2   1   -0.40    0.40
   4  -2   1   -0.70    0.30
   4  -2   1    0.00    0.30
   4  -2   1    0.00    0.20
   4  -2   1   -0.70    0.30
   4  -2   1    0.10    0.20
   4  -2   1   -0.60    0.40
   4  -2   1   -0.90    0.60
  -5   2  -1    0.40    0.30
  -5   2  -1   -0.50    0.40
  -5   2  -1   -0.10    0.40
  -5   2  -1    0.20    0.50
  -5   2  -1    0.60    0.80
  -5   2  -1    0.30    0.30
   5  -2   1    0.20    0.30
   5  -2   1   -0.40    0.40
   5  -2   1    0.40    0.50
   5  -2   1    0.60    0.40
   5  -2   1    0.10    0.50
   5  -2   1    0.50    0.70
   5  -2   1    0.00    0.30
   5  -2   1    0.50    0.40
   5  -2   1    0.60    0.40
  -6   2  -1   86.79    7.60
  -6   2  -1   91.49    7.50
  -6   2  -1   89.49    7.60
  -6   2  -1  102.89    7.50
  -6   2  -1   97.09    7.60
  -6   2  -1  103.39    7.40
  -6   2  -1   97.89    7.60
  -6   2  -1   96.59    8.00
  -6   2  -1   93.39    7.60
   6  -2   1   99.99    8.10
   6  -2   1  103.29    7.50
   6  -2   1  103.29    7.60
   6  -2   1   94.99    7.50
   6  -2   1  100.39    7.80
   6  -2   1  102.79    7.60
   6  -2   1   90.69    7.70
   6  -2   1   95.29    7.60
   6  -2   1   99.39    7.40
  -7   2  -1   -0.50    0.60
  -7   2  -1   -0.70    0.90
  -7   2  -1   -0.60    0.60
  -7   2  -1   -0.10    0.40
  -7   2  -1   -0.90    0.50
  -7   2  -1   -1.10    0.60
   7  -2   1   -0.40    0.60
   7  -2   1   -0.30    0.80
   7  -2   1   -1.00    0.60
   7  -2   1   -0.20    0.60
   7  -2   1   -0.60    0.40
   7  -2   1   -1.00    0.60
   7  -2   1   -1.00    0.70
   7  -2   1   -0.70    1.00
  -8   2  -1   32.80    3.40
  -8   2  -1   38.30    3.50
  -8   2  -1   40.00    3.10
  -8   2  -1   39.60    3.30
  -8   2  -1   39.90    3.30
  -8   2  -1   35.10    3.30
  -8   2  -1   31.70    3.40
  -8   2  -1   38.40    3.50
   8  -2   1   37.30    3.20
   8  -2   1   39.50    3.40
   8  -2   1   38.20    3.80
   8  -2   1   35.70    3.50
   8  -2   1   40.40    3.50
   8  -2   1   38.10    3.80
   8  -2   1   34.00    3.50
   8  -2   1   43.20    3.40
  -9   2  -1    6.80    1.20
  -9   2  -1    6.60    1.50
   9  -2   1    7.30    1.40
  10   1  -1    2.70    1.20
  10   1  -1    3.00    1.10
  10   1  -1    1.80    1.40
 -10  -1   1    1.50    1.20
 -10  -1   1    3.20    1.10
 -10  -1   1    3.00    1.20
   9   1  -1    0.00    0.90
   9   1  -1    1.90    1.00
   9   1  -1    0.10    1.10
   9   1  -1    0.70    0.70
  -9  -1   1   -0.40    0.90
  -9  -1   1    0.70    0.90
  -9  -1   1   -0.20    1.00
   8   1  -1    0.00    0.80
   8   1  -1    0.70    1.00
   8   1  -1   -0.10    0.60
   8   1  -1    0.50    0.80
  -8  -1   1    0.20    0.70
  -8  -1   1   -0.60    0.80
  -8  -1   1   -1.10    0.90
   7   1  -1    3.70    1.10
   7   1  -1    4.80    1.10
   7   1  -1    5.40    0.90
   7   1  -1    2.90    1.20
   7   1  -1    3.80    1.00
  -7  -1   1    5.10    1.00
  -7  -1   1    5.20    0.70
  -7  -1   1    3.60    1.20
   6   1  -1    2.30    0.60
   6   1  -1    2.20    0.70
   6   1  -1    0.80    0.80
   6   1  -1    0.60    0.90
   6   1  -1    2.40    0.60
  -6  -1   1    2.50    0.50
  -6  -1   1    1.20    0.80
  -6  -1   1    2.60    0.70
   5   1  -1    0.00    0.40
   5   1  -1   -0.20    0.50
   5   1  -1   -0.30    0.30
   5   1  -1   -0.60    0.50
   5   1  -1   -0.30    0.40
   5   1  -1   -0.10    0.40
   5   1  -1    0.10    0.30
   5   1  -1    0.10    0.30
  -5  -1   1   -0.90    0.50
  -5  -1   1   -0.20    0.30
  -5  -1   1   -0.30    0.40
  -5  -1   1    0.00    0.40
  -5  -1   1   -0.20    0.20
   4   1  -1    2.50    0.40
   4   1  -1    2.20    0.50
   4   1  -1    1.40    0.50
   4   1  -1    0.20    0.50
   4   1  -1    2.00    0.40
   4   1  -1    0.70    0.50
   4   1  -1    1.30    0.40
   4   1  -1    1.40    0.40
  -4  -1   1    1.70    0.40
  -4  -1   1    0.60    0.60
  -4  -1   1    1.30    0.30
  -4  -1   1    0.70    0.50
   3   1  -1   49.99    4.20
   3   1  -1   54.89    4.10
   3   1  -1   50.99    4.10
   3   1  -1   44.10    4.00
   3   1  -1   53.59    4.20
   3   1  -1   56.99    4.10
   3   1  -1   49.60    4.10
  -3  -1   1   58.19    4.10
  -3  -1   1   47.10    4.20
  -3  -1   1   56.09    4.00
  -3  -1   1   49.70    4.10
  -3  -1   1   55.49    4.00
  -3  -1   1   53.59    4.10
   2   1  -1   62.89    4.90
   2   1  -1   70.59    4.80
   2   1  -1   65.29    4.80
   2   1  -1   65.59    4.90
   2   1  -1   61.69    5.00
   2   1  -1   63.59    4.90
  -2  -1   1   59.59    4.90
  -2  -1   1   59.19    4.90
   1   1  -1 2381.46  162.18
  -1  -1   1 1870.81  157.98
   0   1  -1  854.81   70.79
   0   1  -1 1027.10   70.89
   1  -1   1   19.30    1.60
   1  -1   1   22.30    1.70
  -2   1  -1    1.50    0.50
  -2   1  -1    1.90    0.40
   2  -1   1    1.40    0.50
   2  -1   1    2.00    0.30
   2  -1   1    1.90    0.60
   2  -1   1    1.30    0.40
   2  -1   1    2.50    0.40
   2  -1   1    1.90    0.40
   2  -1   1    2.20    0.30
   2  -1   1    1.90    0.40
   2  -1   1    2.90    0.40
  -3   1  -1  132.69   10.60
  -3   1  -1  142.39   10.70
  -3   1  -1  153.38   11.00
  -3   1  -1  120.49   10.70
   3  -1   1  136.89   10.60
   3  -1   1  139.39   10.70
   3  -1   1  134.29   10.80
   3  -1   1  153.98   11.00
   3  -1   1  140.69   10.70
   3  -1   1  136.69   10.70
   3  -1   1  156.68   10.70
   3  -1   1  133.39   10.70
   3  -1   1  158.68   10.60
  -4   1  -1   34.30    3.00
  -4   1  -1   30.20    2.60
  -4   1  -1   29.50    2.60
   4  -1   1   32.40    2.60
   4  -1   1   33.30    2.60
   4  -1   1   31.80    2.80
   4  -1   1   33.60    3.00
   4  -1   1   31.00    2.70
   4  -1   1   30.20    2.70
   4  -1   1   33.20    2.60
   4  -1   1   36.80    2.60
   4  -1   1   33.00    2.70
  -5   1  -1  191.78   14.50
  -5   1  -1  196.88   14.50
  -5   1  -1  202.68   14.40
  -5   1  -1  191.68   14.60
  -5   1  -1  170.18   14.60
  -5   1  -1  171.88   14.60
  -5   1  -1  197.98   14.90
   5  -1   1  190.88   14.50
   5  -1   1  197.68   14.60
   5  -1   1  198.68   14.50
   5  -1   1  188.38   14.60
   5  -1   1  202.28   14.50
   5  -1   1  188.88   14.60
   5  -1   1  196.98   14.40
   5  -1   1  197.88   14.90
   5  -1   1  181.08   14.70
  -6   1  -1   13.30    1.50
  -6   1  -1   10.60    1.30
  -6   1  -1   11.90    1.40
  -6   1  -1   12.60    1.60
  -6   1  -1   13.40    1.40
  -6   1  -1   13.60    1.80
  -6   1  -1   12.20    1.50
  -6   1  -1   13.70    1.20
  -6   1  -1   13.30    1.30
   6  -1   1   14.30    1.60
   6  -1   1   14.60    1.90
   6  -1   1   13.20    1.30
   6  -1   1   12.10    1.30
   6  -1   1   13.80    1.60
   6  -1   1   13.00    1.60
   6  -1   1   11.00    1.60
   6  -1   1   13.60    1.50
   6  -1   1   12.50    1.20
  -7   1  -1   27.60    2.60
  -7   1  -1   28.60    2.60
  -7   1  -1   29.50    2.30
  -7   1  -1   28.60    3.00
  -7   1  -1   22.10    2.70
  -7   1  -1   30.20    2.40
  -7   1  -1   25.60    2.40
  -7   1  -1   24.10    2.50
  -7   1  -1   27.10    2.60
   7  -1   1   26.50    2.70
   7  -1   1   27.40    2.30
   7  -1   1   30.90    2.80
   7  -1   1   28.80    2.40
   7  -1   1   26.10    2.60
   7  -1   1   27.50    2.70
   7  -1   1   28.60    3.00
   7  -1   1   28.90    2.50
   7  -1   1   21.90    2.70
  -8   1  -1    3.60    0.70
  -8   1  -1    3.10    1.00
  -8   1  -1    4.10    0.90
  -8   1  -1    2.50    1.00
  -8   1  -1    3.00    1.00
   8  -1   1    3.70    1.00
   8  -1   1    2.30    1.00
   8  -1   1    3.10    0.80
   8  -1   1    3.30    0.70
   8  -1   1    3.10    1.10
  -9   1  -1    3.80    1.00
  -9   1  -1    2.90    1.10
  -9   1  -1    4.70    1.10
   9  -1   1    4.30    1.10
   9  -1   1    4.70    1.20
   9  -1   1    4.50    1.10
 -10   1  -1    0.10    1.00
 -10   1  -1    0.60    1.00
  10  -1   1    0.00    1.10
  10   0  -1    0.70    0.90
  10   0  -1   -0.20    1.00
  10   0  -1   -0.20    1.10
 -10   0   1    0.50    0.80
 -10   0   1   -0.50    0.90
 -10   0   1   -1.30    0.90
   9   0  -1   26.40    3.00
   9   0  -1   29.70    2.90
   9   0  -1   30.80    3.20
   9   0  -1   30.30    2.80
  -9   0   1   23.00    2.90
  -9   0   1   27.10    2.80
  -9   0   1   25.90    3.00
   8   0  -1    3.40    0.80
   8   0  -1    2.90    1.00
   8   0  -1    2.40    1.00
   8   0  -1    4.90    1.30
   8   0  -1    2.80    1.00
  -8   0   1    2.30    1.20
  -8   0   1    3.10    0.90
  -8   0   1    3.80    1.10
   7   0  -1   16.40    2.00
   7   0  -1   16.70    1.80
   7   0  -1   15.00    2.20
   7   0  -1   14.20    1.90
   7   0  -1   15.70    1.60
   7   0  -1   18.00    2.10
  -7   0   1   17.20    2.00
  -7   0   1   16.00    2.10
  -7   0   1   16.90    1.60
  -7   0   1   18.50    2.00
   6   0  -1   30.00    2.50
   6   0  -1   26.30    2.60
   6   0  -1   30.20    2.90
   6   0  -1   29.00    2.80
   6   0  -1   30.20    2.50
   6   0  -1   30.60    2.40
   6   0  -1   31.50    2.60
   6   0  -1   29.70    2.70
   6   0  -1   27.50    2.70
  -6   0   1   31.00    2.40
  -6   0   1   27.90    2.70
  -6   0   1   27.10    2.70
  -6   0   1   29.40    2.80
  -6   0   1   27.40    2.60
  -6   0   1   29.40    2.40
   5   0  -1   58.69    4.20
   5   0  -1   54.29    4.50
   5   0  -1   48.30    4.40
   5   0  -1   53.49    4.20
   5   0  -1   58.99    4.40
   5   0  -1   54.79    4.50
   5   0  -1   53.39    4.30
   5   0  -1   59.19    4.40
   5   0  -1   58.39    4.60
  -5   0   1   48.50    4.50
  -5   0   1   56.29    4.50
  -5   0   1   52.39    4.20
  -5   0   1   58.19    4.20
  -5   0   1   51.19    4.40
   4   0  -1  260.37   20.60
   4   0  -1  296.67   20.60
   4   0  -1  291.07   20.70
   4   0  -1  244.78   20.70
   4   0  -1  293.17   20.80
   4   0  -1  269.97   20.80
   4   0  -1  282.67   20.70
   4   0  -1  276.47   20.80
   4   0  -1  269.27   20.60
  -4   0   1  285.37   20.80
  -4   0   1  250.27   20.60
  -4   0   1  276.77   20.70
  -4   0   1  294.37   20.60
  -4   0   1  253.87   20.80
   3   0  -1   31.20    2.50
   3   0  -1   30.00    2.40
   3   0  -1   32.70    2.30
   3   0  -1   28.00    2.30
   3   0  -1   31.00    2.40
   3   0  -1   29.40    2.50
   3   0  -1   29.00    2.50
   3   0  -1   25.00    2.40
   3   0  -1   31.70    2.40
  -3   0   1   31.60    2.40
  -3   0   1   27.30    2.50
  -3   0   1   29.80    2.50
  -3   0   1   32.00    2.30
   2   0  -1   35.70    2.80
   2   0  -1   36.50    2.70
   2   0  -1   35.70    2.80
   2   0  -1   36.40    2.80
   2   0  -1   31.50    2.70
   2   0  -1   31.20    2.70
   2   0  -1   38.40    2.60
   2   0  -1   34.80    2.70
   2   0  -1   33.60    2.70
   1   0  -1  356.66   26.70
   1   0   1 1845.02  143.19
   1   0   1 1768.62  142.99
   1   0   1 2129.59  143.39
  -2   0  -1   47.30    3.80
   2   0   1   45.90    3.80
   2   0   1   46.60    3.80
   2   0   1   51.89    3.80
   2   0   1   49.30    3.80
   2   0   1   53.89    3.80
   2   0   1   48.30    3.90
   2   0   1   47.60    3.80
   2   0   1   54.49    3.90
   2   0   1   51.89    3.80
  -3   0  -1 1181.08   88.09
  -3   0  -1 1248.38   88.49
  -3   0  -1 1246.28   88.29
  -3   0  -1 1038.30   87.99
   3   0   1 1127.69   88.49
   3   0   1 1204.48   88.09
   3   0   1 1251.47   88.19
   3   0   1 1298.37   88.49
   3   0   1 1182.08   87.99
   3   0   1 1108.29   88.09
   3   0   1 1142.59   88.09
   3   0   1 1123.29   88.09
  -4   0  -1  103.99    9.10
  -4   0  -1  124.89    9.10
  -4   0  -1  125.09    9.10
  -4   0  -1  116.09    9.20
   4   0   1  118.29    9.20
   4   0   1  118.79    9.20
   4   0   1  119.19    9.30
   4   0   1  119.89    9.10
   4   0   1  115.19    9.20
   4   0   1  111.69    9.30
   4   0   1  125.39    9.10
   4   0   1  123.59    9.10
   4   0   1  132.39    9.10
  -5   0  -1   28.40    2.20
  -5   0  -1   23.10    2.30
  -5   0  -1   26.70    2.60
  -5   0  -1   25.40    2.30
  -5   0  -1   28.50    2.30
   5   0   1   27.10    2.40
   5   0   1   28.00    2.30
   5   0   1   27.90    2.20
   5   0   1   27.40    2.30
   5   0   1   26.00    2.50
   5   0   1   26.00    2.50
   5   0   1   29.00    2.30
   5   0   1   25.80    2.60
   5   0   1   26.60    2.40
  -6   0  -1   76.29    6.30
  -6   0  -1   81.89    6.60
  -6   0  -1   86.99    6.20
  -6   0  -1   76.29    6.30
  -6   0  -1   67.79    6.40
  -6   0  -1   79.99    6.20
   6   0   1   74.69    6.40
   6   0   1   84.09    6.50
   6   0   1   84.69    6.20
   6   0   1   72.69    6.50
   6   0   1   86.99    6.30
   6   0   1   79.69    6.20
   6   0   1   82.89    6.40
   6   0   1   80.79    6.30
   6   0   1   78.69    6.60
  -7   0  -1   23.80    2.40
  -7   0  -1   24.60    2.10
  -7   0  -1   21.40    2.50
   7   0   1   25.10    2.30
   7   0   1   21.80    2.40
   7   0   1   24.80    2.10
   7   0   1   24.10    2.60
   7   0   1   25.30    2.60
  -8   0  -1   41.80    4.20
  -8   0  -1   42.80    4.20
  -8   0  -1   50.69    3.90
  -8   0  -1   48.20    4.20
   8   0   1   46.90    4.30
   8   0   1   53.99    4.10
   8   0   1   48.00    3.90
   8   0   1   46.90    4.40
   8   0   1   45.80    4.20
  -9   0  -1    0.40    0.80
  -9   0  -1   -0.40    0.80
  -9   0  -1   -0.90    0.80
   9   0   1   -0.10    0.80
   9   0   1    0.80    1.00
   9   0   1    0.70    0.80
 -10   0  -1    6.50    1.50
 -10   0  -1    5.60    1.30
 -10   0  -1    6.50    1.40
  10   0   1    7.90    1.70
  10   0   1    6.20    1.30
  10   0   1    6.00    1.40
  10  -1  -1    1.80    1.10
  10  -1  -1    2.40    0.90
  10  -1  -1    3.00    1.40
 -10   1   1    0.80    1.00
 -10   1   1    1.40    1.10
 -10   1   1    2.50    0.90
   9  -1  -1   19.90    2.40
   9  -1  -1   16.90    2.00
   9  -1  -1   16.00    2.20
  -9   1   1   14.10    2.20
  -9   1   1   13.50    2.20
  -9   1   1   17.20    1.90
   8  -1  -1  123.29    9.70
   8  -1  -1  122.99    9.80
   8  -1  -1  135.79    9.70
   8  -1  -1  127.79    9.60
   8  -1  -1  128.19   10.00
  -8   1   1  118.29    9.80
  -8   1   1  113.79    9.60
  -8   1   1  112.79    9.80
  -8   1   1  123.79    9.60
   7  -1  -1   42.90    3.70
   7  -1  -1   48.10    3.80
   7  -1  -1   45.60    3.90
   7  -1  -1   44.70    4.00
   7  -1  -1   43.30    3.90
   7  -1  -1   46.30    3.80
  -7   1   1   45.80    3.60
  -7   1   1   45.60    4.20
  -7   1   1   45.30    3.90
  -7   1   1   39.10    3.90
  -7   1   1   43.00    3.70
   6  -1  -1   -0.70    0.50
   6  -1  -1    0.20    0.40
   6  -1  -1    0.10    0.40
   6  -1  -1    0.20    0.70
   6  -1  -1    0.10    0.30
   6  -1  -1    0.70    0.60
   6  -1  -1   -0.40    0.50
   6  -1  -1   -0.50    0.50
   6  -1  -1   -0.40    0.60
  -6   1   1    0.50    0.50
  -6   1   1    0.00    0.30
  -6   1   1   -0.30    0.50
  -6   1   1    0.00    0.60
  -6   1   1    0.20    0.50
  -6   1   1    0.10    0.30
   5  -1  -1   66.79    6.00
   5  -1  -1   81.59    5.90
   5  -1  -1   77.09    6.20
   5  -1  -1   81.99    5.80
   5  -1  -1   80.29    5.90
   5  -1  -1   65.69    5.80
   5  -1  -1   73.59    5.90
   5  -1  -1   75.99    6.00
   5  -1  -1   74.09    6.00
  -5   1   1   72.09    6.00
  -5   1   1   70.79    6.00
  -5   1   1   83.29    5.80
  -5   1   1   78.99    6.20
  -5   1   1   79.29    5.90
   4  -1  -1  152.58   12.60
   4  -1  -1  179.48   12.60
   4  -1  -1  142.39   12.70
   4  -1  -1  171.48   12.90
   4  -1  -1  161.88   12.70
   4  -1  -1  162.48   12.70
   4  -1  -1  170.18   12.60
   4  -1  -1  187.58   12.50
  -4   1   1  172.78   12.60
  -4   1   1  152.28   12.60
  -4   1   1  166.68   12.80
  -4   1   1  188.58   12.50
  -4   1   1  153.88   12.60
   3  -1  -1  107.99    8.30
   3  -1  -1  120.29    8.60
   3  -1  -1  112.09    8.40
   3  -1  -1  108.49    8.40
   3  -1  -1  111.49    8.30
   3  -1  -1  121.59    8.30
   3  -1  -1   98.49    8.40
  -3   1   1  102.99    8.40
  -3   1   1  114.69    8.50
  -3   1   1  111.29    8.30
  -3   1   1   98.99    8.30
   2  -1  -1  137.19   10.30
   2  -1  -1  122.89   10.30
   2  -1  -1  133.89   10.40
   2  -1  -1  142.69   10.30
   2  -1  -1  153.58   10.30
   2  -1  -1  141.39   10.30
   2  -1  -1  132.09   10.30
  -2   1   1  133.89   10.50
   1  -1  -1   81.19    6.70
  -1   1   1   89.29    6.80
   0  -1  -1  282.57   23.00
   0   1   1  333.87   23.10
  -1  -1  -1    0.80    0.20
  -1  -1  -1    1.10    0.20
   1   1   1    0.80    0.20
   1   1   1    0.60    0.10
   1   1   1    0.80    0.20
   1   1   1    0.80    0.10
  -2  -1  -1  614.74   46.00
  -2  -1  -1  647.84   46.30
  -2  -1  -1  559.94   46.00
  -2  -1  -1  656.83   45.90
   2   1   1  551.84   46.00
   2   1   1  644.04   45.90
   2   1   1  583.24   46.00
   2   1   1  626.44   46.20
   2   1   1  624.74   46.00
   2   1   1  635.14   45.90
  -3  -1  -1   80.69    6.10
  -3  -1  -1   82.49    6.10
  -3  -1  -1   78.49    6.20
  -3  -1  -1   87.29    6.20
   3   1   1   85.69    6.30
   3   1   1   76.59    6.10
   3   1   1   69.69    6.30
   3   1   1   85.69    6.10
   3   1   1   93.59    6.20
   3   1   1   78.29    6.10
   3   1   1   76.19    6.20
   3   1   1   70.29    6.20
  -4  -1  -1   38.30    3.20
  -4  -1  -1   39.60    3.20
  -4  -1  -1   39.20    3.30
   4   1   1   44.40    3.20
   4   1   1   34.00    3.40
   4   1   1   39.90    3.20
   4   1   1   39.60    3.20
   4   1   1   40.00    3.30
   4   1   1   40.60    3.40
   4   1   1   46.10    3.20
   4   1   1   36.40    3.30
   4   1   1   44.10    3.20
  -5  -1  -1    0.20    0.50
  -5  -1  -1   -0.40    0.50
  -5  -1  -1    0.10    0.30
  -5  -1  -1   -0.20    0.30
   5   1   1   -0.40    0.30
   5   1   1   -0.50    0.60
   5   1   1   -0.70    0.50
   5   1   1    0.00    0.50
   5   1   1    0.00    0.50
   5   1   1    0.10    0.30
   5   1   1    0.00    0.40
  -6  -1  -1  135.29   11.00
  -6  -1  -1  163.38   10.80
  -6  -1  -1  126.39   11.10
  -6  -1  -1  142.79   10.80
   6   1   1  136.79   11.20
   6   1   1  147.19   10.90
   6   1   1  136.29   11.10
   6   1   1  144.09   10.80
   6   1   1  140.59   11.00
  -7  -1  -1  133.69   10.00
  -7  -1  -1  115.29   10.30
  -7  -1  -1  129.89   10.20
   7   1   1  132.69   10.00
   7   1   1  123.49   10.40
   7   1   1  129.39   10.30
   7   1   1  128.49   10.30
   7   1   1  145.39   10.10
  -8  -1  -1   -0.90    0.80
  -8  -1  -1   -0.10    0.80
  -8  -1  -1   -0.30    0.50
   8   1   1    0.20    0.70
   8   1   1   -0.60    0.70
   8   1   1    0.60    0.90
  -9  -1  -1    1.40    1.00
  -9  -1  -1    0.60    0.90
   9   1   1    0.70    0.90
   9   1   1    1.60    0.90
   9   1   1    2.50    1.20
  10  -2  -1    3.10    1.00
  10  -2  -1    3.00    1.20
 -10   2   1    3.20    1.10
 -10   2   1    3.80    1.00
   9  -2  -1   31.00    2.80
   9  -2  -1   26.50    2.90
   9  -2  -1   27.60    3.00
   9  -2  -1   30.80    2.90
  -9   2   1   26.40    2.80
  -9   2   1   26.20    2.60
  -9   2   1   24.10    2.80
  -9   2   1   23.30    2.80
   8  -2  -1    2.00    0.90
   8  -2  -1    2.80    1.00
   8  -2  -1    3.00    0.90
   8  -2  -1    4.00    1.20
   8  -2  -1    3.00    0.80
  -8   2   1    2.60    0.80
  -8   2   1    2.30    0.90
  -8   2   1    3.40    1.00
  -8   2   1    2.20    0.90
   7  -2  -1   87.39    7.20
   7  -2  -1   93.19    7.10
   7  -2  -1   90.19    7.00
   7  -2  -1   93.99    7.00
   7  -2  -1   90.59    7.10
   7  -2  -1   77.79    6.90
   7  -2  -1   90.69    7.20
  -7   2   1   86.09    6.90
  -7   2   1   89.69    7.00
  -7   2   1   88.19    7.10
  -7   2   1   90.99    7.50
  -7   2   1   85.99    7.10
   6  -2  -1   19.40    1.80
   6  -2  -1   17.40    1.90
   6  -2  -1   17.10    1.70
   6  -2  -1   20.70    2.40
   6  -2  -1   16.90    1.80
   6  -2  -1   14.60    1.60
   6  -2  -1   19.70    1.50
   6  -2  -1   17.40    1.80
   6  -2  -1   17.20    1.90
  -6   2   1   17.70    1.70
  -6   2   1   18.00    1.70
  -6   2   1   16.50    1.80
  -6   2   1   18.40    1.80
  -6   2   1   19.40    2.20
  -6   2   1   20.20    1.50
   5  -2  -1    3.60    0.40
   5  -2  -1    3.90    1.00
   5  -2  -1    4.10    0.70
   5  -2  -1    5.70    0.70
   5  -2  -1    2.50    0.70
   5  -2  -1    2.90    0.60
   5  -2  -1    4.10    0.60
   5  -2  -1    4.60    0.60
   5  -2  -1    3.30    0.60
  -5   2   1    3.20    0.60
  -5   2   1    4.30    0.70
  -5   2   1    4.50    0.70
  -5   2   1    3.70    1.00
  -5   2   1    3.10    0.60
   4  -2  -1   16.20    1.70
   4  -2  -1   19.90    1.40
   4  -2  -1   20.10    1.70
   4  -2  -1   17.50    1.60
   4  -2  -1   17.80    2.00
   4  -2  -1   14.70    1.50
   4  -2  -1   17.50    1.50
   4  -2  -1   18.80    1.60
  -4   2   1   20.10    1.50
  -4   2   1   19.80    1.90
  -4   2   1   17.80    1.50
  -4   2   1   14.90    1.50
  -4   2   1   17.20    1.60
   3  -2  -1   12.80    0.90
   3  -2  -1   12.50    1.20
   3  -2  -1    8.60    1.10
   3  -2  -1   11.10    1.00
   3  -2  -1   11.90    1.00
   3  -2  -1   10.90    1.00
   3  -2  -1   11.60    0.90
  -3   2   1   10.20    1.00
  -3   2   1   12.00    0.90
  -3   2   1   10.80    1.30
  -3   2   1    9.50    1.00
  -3   2   1    9.90    1.00
   2  -2  -1 6277.67  404.96
   2  -2  -1 5034.40  411.56
   2  -2  -1 5950.50  404.46
   2  -2  -1 4919.31  407.36
  -2   2   1 4793.32  410.56
   1  -2  -1 9999.00  710.73
  -1   2   1 9566.54  709.83
  -1   2   1 8761.82  710.63
   0  -2  -1  225.38   15.90
   0  -2  -1  221.58   15.90
   0   2   1  218.98   15.90
   0   2   1  203.38   15.90
   0   2   1  191.88   15.90
  -1  -2  -1  687.63   50.39
  -1  -2  -1  655.33   50.49
  -1  -2  -1  690.83   50.39
   1   2   1  642.04   50.49
   1   2   1  689.83   50.69
   1   2   1  746.53   50.69
   1   2   1  640.84   50.49
   1   2   1  646.64   50.49
  -2  -2  -1   88.29    6.20
  -2  -2  -1   77.89    6.20
  -2  -2  -1   84.89    6.10
   2   2   1   79.39    6.20
   2   2   1   79.59    6.10
   2   2   1   80.19    6.30
   2   2   1   72.79    6.20
  -3  -2  -1  176.98   13.40
  -3  -2  -1  167.78   13.50
  -3  -2  -1  193.58   13.40
   3   2   1  178.68   13.50
   3   2   1  173.38   13.40
   3   2   1  155.28   13.50
   3   2   1  198.48   13.30
   3   2   1  171.98   13.60
  -4  -2  -1   44.60    3.20
  -4  -2  -1   40.40    3.20
  -4  -2  -1   38.10    3.30
   4   2   1   42.10    3.30
   4   2   1   36.60    3.50
   4   2   1   43.80    3.20
   4   2   1   38.30    3.40
   4   2   1   39.10    3.20
   4   2   1   35.50    3.40
  -5  -2  -1   35.90    3.40
  -5  -2  -1   41.40    3.20
  -5  -2  -1   44.10    3.20
   5   2   1   40.40    3.30
   5   2   1   35.80    3.50
   5   2   1   34.30    3.40
   5   2   1   38.30    3.40
  -6  -2  -1   76.79    6.70
  -6  -2  -1   92.29    6.60
  -6  -2  -1   74.29    6.90
   6   2   1   81.99    7.00
   6   2   1   81.79    6.80
   6   2   1   87.09    6.80
   6   2   1   89.99    6.60
  -7  -2  -1   13.40    2.10
  -7  -2  -1   15.00    1.50
  -7  -2  -1   13.90    1.80
   7   2   1   14.20    1.90
   7   2   1   13.80    2.20
   7   2   1   15.40    1.80
   7   2   1   13.00    1.90
  -8  -2  -1   -0.60    0.90
  -8  -2  -1    0.10    0.50
  -8  -2  -1   -0.90    0.70
   8   2   1    1.10    1.00
   8   2   1   -0.10    0.90
   8   2   1    0.00    0.70
  -9  -2  -1   22.20    2.70
  -9  -2  -1   18.90    2.80
   9   2   1   22.00    2.80
   9   2   1   23.70    3.00
   9   2   1   27.20    2.90
  10  -3  -1   19.60    2.80
  10  -3  -1   20.20    2.70
  10  -3  -1   25.00    2.60
 -10   3   1   20.10    2.60
 -10   3   1   16.90    2.60
 -10   3   1   25.80    2.50
   9  -3  -1    8.10    1.40
   9  -3  -1    6.80    1.40
   9  -3  -1   10.90    1.50
   9  -3  -1    8.10    1.60
  -9   3   1    7.40    1.30
  -9   3   1    9.30    1.50
  -9   3   1    6.70    1.30
   8  -3  -1   64.39    5.20
   8  -3  -1   65.59    5.30
   8  -3  -1   62.99    5.50
   8  -3  -1   66.59    5.40
  -8   3   1   59.49    5.30
  -8   3   1   60.69    5.20
  -8   3   1   61.49    5.10
  -8   3   1   62.79    5.70
   7  -3  -1   50.79    4.10
   7  -3  -1   46.10    4.40
   7  -3  -1   54.39    4.20
   7  -3  -1   42.30    4.00
   7  -3  -1   51.89    4.30
   7  -3  -1   50.39    4.20
  -7   3   1   43.70    4.10
  -7   3   1   48.30    4.20
  -7   3   1   49.80    4.10
  -7   3   1   54.89    4.70
  -7   3   1   52.29    4.10
   6  -3  -1  165.58   11.90
   6  -3  -1  165.78   12.10
   6  -3  -1  158.48   12.10
   6  -3  -1  167.08   12.10
   6  -3  -1  146.89   12.30
   6  -3  -1  160.18   12.00
  -6   3   1  151.18   12.10
  -6   3   1  162.88   12.00
  -6   3   1  159.88   12.60
  -6   3   1  151.18   12.00
  -6   3   1  145.09   12.10
   5  -3  -1  117.59    8.90
   5  -3  -1  133.69    8.90
   5  -3  -1  114.39    8.90
   5  -3  -1  120.99    8.90
   5  -3  -1  118.09    8.80
   5  -3  -1  104.19    9.10
  -5   3   1  101.89    8.90
  -5   3   1  123.59    8.80
  -5   3   1  116.79    8.90
  -5   3   1  105.79    8.90
  -5   3   1  114.59    8.90
  -5   3   1  122.39    9.40
   4  -3  -1   70.39    6.40
   4  -3  -1   85.69    6.30
   4  -3  -1   78.99    6.20
   4  -3  -1   78.89    6.50
   4  -3  -1   83.89    6.30
  -4   3   1   88.69    6.80
  -4   3   1   72.19    6.20
  -4   3   1   86.39    6.30
  -4   3   1   79.59    6.30
  -4   3   1   78.59    6.30
  -4   3   1   96.69    6.20
   3  -3  -1   59.29    4.00
   3  -3  -1   57.09    4.10
   3  -3  -1   49.40    4.30
   3  -3  -1   51.89    4.10
   3  -3  -1   45.10    4.20
  -3   3   1   52.19    4.10
  -3   3   1   55.89    4.00
  -3   3   1   54.59    4.10
  -3   3   1   54.99    4.50
  -3   3   1   48.60    4.10
   2  -3  -1   68.89    5.40
   2  -3  -1   61.99    5.30
   2  -3  -1   66.79    5.50
   2  -3  -1   65.49    5.50
  -2   3   1   66.19    5.40
  -2   3   1   73.09    5.30
  -2   3   1   80.79    5.40
  -2   3   1   78.79    5.70
   1  -3  -1  123.49    9.00
   1  -3  -1  114.19    9.10
   1  -3  -1  106.09    9.10
   1  -3  -1  107.69    9.00
   1  -3  -1  120.99    9.00
  -1   3   1  128.69    9.30
  -1   3   1  131.59    9.00
  -1   3   1  123.19    9.00
  -1   3   1  104.19    9.00
  -1   3   1  131.89    9.00
   0  -3  -1   92.79    6.60
   0  -3  -1   76.59    6.60
   0  -3  -1   89.19    6.60
   0  -3  -1   87.49    6.60
   0   3   1   77.79    6.50
   0   3   1   80.59    6.50
   0   3   1   86.99    6.60
   0   3   1   94.99    6.60
   0   3   1   88.19    6.60
  -1  -3  -1 1235.88   87.59
  -1  -3  -1 1197.58   87.59
  -1  -3  -1 1163.68   87.59
  -1  -3  -1 1092.09   87.69
   1   3   1 1189.28   87.59
   1   3   1 1163.38   87.59
   1   3   1 1193.88   87.99
   1   3   1 1143.59   87.59
  -2  -3  -1  357.46   27.80
  -2  -3  -1  387.46   27.80
  -2  -3  -1  380.76   27.80
   2   3   1  351.56   27.80
   2   3   1  354.56   27.90
   2   3   1  366.36   27.90
   2   3   1  392.46   27.70
  -3  -3  -1   42.10    3.70
  -3  -3  -1   45.20    3.60
  -3  -3  -1   47.10    3.60
   3   3   1   44.20    3.70
   3   3   1   43.10    3.50
   3   3   1   42.50    3.80
   3   3   1   53.09    3.50
   3   3   1   40.20    3.70
  -4  -3  -1   10.30    1.20
  -4  -3  -1    8.70    1.40
  -4  -3  -1   12.40    1.20
   4   3   1    9.70    1.40
   4   3   1    9.80    1.40
   4   3   1   11.80    1.20
   4   3   1   10.00    1.50
  -5  -3  -1  487.15   39.60
  -5  -3  -1  564.54   39.50
  -5  -3  -1  534.05   39.40
   5   3   1  565.24   39.50
   5   3   1  519.65   39.60
   5   3   1  493.05   39.60
   5   3   1  511.65   39.80
  -6  -3  -1    1.70    1.00
  -6  -3  -1    1.60    0.80
  -6  -3  -1    1.00    0.60
   6   3   1    1.00    1.10
   6   3   1    1.90    0.80
   6   3   1    1.80    0.90
   6   3   1    2.00    0.70
  -7  -3  -1    4.20    1.20
  -7  -3  -1    4.80    0.80
  -7  -3  -1    3.60    1.00
   7   3   1    3.90    0.90
   7   3   1    2.80    1.00
   7   3   1    4.40    1.10
   7   3   1    3.60    1.30
  -8  -3  -1   -0.10    1.00
  -8  -3  -1    0.50    0.90
  -8  -3  -1    0.00    0.60
   8   3   1    1.10    1.00
   8   3   1    0.30    0.80
   8   3   1    0.70    1.10
  -9  -3  -1    2.60    1.30
  -9  -3  -1    2.30    1.20
   9   3   1    2.90    1.40
   9   3   1    3.60    1.30
   9   3   1    3.00    1.20
  10  -4  -1    5.30    1.50
  10  -4  -1    7.50    1.30
  10  -4  -1    5.30    1.70
 -10   4   1    6.60    1.30
 -10   4   1    3.90    1.30
   9  -4  -1   -0.50    0.70
   9  -4  -1   -0.70    1.10
  -9   4   1    1.00    1.20
  -9   4   1   -0.90    0.70
  -9   4   1   -0.70    0.80
   8  -4  -1   77.99    6.10
   8  -4  -1   81.09    6.30
   8  -4  -1   72.09    6.60
   8  -4  -1   75.49    6.30
  -8   4   1   77.39    6.10
  -8   4   1   74.99    6.20
  -8   4   1   70.59    6.20
  -8   4   1   80.99    6.90
   7  -4  -1   39.70    3.30
   7  -4  -1   37.80    3.40
   7  -4  -1   35.20    3.70
   7  -4  -1   37.70    3.50
  -7   4   1   36.20    3.40
  -7   4   1   41.30    3.30
  -7   4   1   37.40    3.30
  -7   4   1   40.90    4.00
   6  -4  -1    7.40    1.20
   6  -4  -1    7.30    1.30
   6  -4  -1    9.90    1.10
   6  -4  -1    8.70    1.30
   6  -4  -1    9.70    0.90
  -6   4   1   11.60    1.20
  -6   4   1   10.40    1.90
  -6   4   1    8.40    1.20
  -6   4   1    8.70    1.20
   5  -4  -1   -0.40    0.20
   5  -4  -1   -0.50    0.40
   5  -4  -1   -0.20    0.60
   5  -4  -1   -0.60    0.40
   5  -4  -1   -0.20    0.30
  -5   4   1   -0.50    0.40
  -5   4   1   -0.80    0.70
  -5   4   1   -0.30    0.30
  -5   4   1   -0.10    0.30
   4  -4  -1    1.70    0.80
   4  -4  -1    4.70    0.90
   4  -4  -1    4.00    0.60
   4  -4  -1    3.20    0.50
  -4   4   1    1.90    1.10
  -4   4   1    3.90    0.50
  -4   4   1    5.50    0.80
   3  -4  -1 1181.68   85.89
   3  -4  -1 1114.09   85.99
   3  -4  -1 1052.29   85.79
   3  -4  -1 1082.59   85.99
  -3   4   1 1248.48   86.29
  -3   4   1 1108.39   85.79
  -3   4   1 1257.77   86.19
   2  -4  -1   90.79    7.30
   2  -4  -1   93.49    7.10
   2  -4  -1   91.49    7.10
   2  -4  -1   89.29    7.30
   2  -4  -1   88.19    7.00
  -2   4   1  102.79    7.50
  -2   4   1  103.99    7.10
  -2   4   1   87.09    7.10
   1  -4  -1   17.80    1.80
   1  -4  -1   20.40    1.60
   1  -4  -1   21.20    1.60
   1  -4  -1   17.00    1.70
   1  -4  -1   19.20    1.60
  -1   4   1   16.90    1.60
  -1   4   1   18.70    1.60
  -1   4   1   20.30    1.70
  -1   4   1   22.20    2.00
  -1   4   1   20.50    1.60
   0  -4  -1    4.90    0.80
   0  -4  -1    4.20    0.60
   0  -4  -1    5.00    0.70
   0  -4  -1    5.00    0.70
   0   4   1    5.90    0.60
   0   4   1    5.80    1.10
   0   4   1    5.60    0.80
   0   4   1    5.80    0.70
   0   4   1    5.40    0.80
  -1  -4  -1   20.30    1.80
  -1  -4  -1   20.40    1.80
  -1  -4  -1   20.30    1.80
  -1  -4  -1   16.80    1.60
   1   4   1   19.30    1.80
   1   4   1   22.30    1.60
   1   4   1   18.70    1.80
   1   4   1   20.70    1.70
   1   4   1   19.00    1.80
  -2  -4  -1  110.99    8.60
  -2  -4  -1  115.09    8.60
  -2  -4  -1  108.59    8.60
   2   4   1  109.99    8.70
   2   4   1  108.39    8.70
   2   4   1  108.99    8.60
   2   4   1  119.49    8.50
  -3  -4  -1   42.00    3.60
  -3  -4  -1   42.50    3.50
  -3  -4  -1   43.20    3.50
   3   4   1   41.40    3.60
   3   4   1   44.60    3.40
   3   4   1   41.30    3.60
   3   4   1   41.30    3.70
  -4  -4  -1    0.40    0.60
  -4  -4  -1   -0.60    0.70
   4   4   1    1.90    0.50
   4   4   1   -0.40    0.70
   4   4   1    0.40    0.80
   4   4   1    0.80    0.70
  -5  -4  -1  128.89   10.00
  -5  -4  -1  124.09   10.20
   5   4   1  133.69   10.40
   5   4   1  136.99   10.00
   5   4   1  130.49   10.20
   5   4   1  123.29   10.20
  -6  -4  -1   -0.50    0.90
  -6  -4  -1   -0.60    0.50
  -6  -4  -1    0.00    0.70
   6   4   1   -0.20    0.60
   6   4   1   -0.20    0.80
   6   4   1   -1.50    0.90
   6   4   1    0.40    0.80
  -7  -4  -1    1.50    1.10
  -7  -4  -1    1.50    0.90
  -7  -4  -1    1.30    0.70
   7   4   1    1.50    0.90
   7   4   1    2.40    1.30
   7   4   1    2.60    1.10
  -8  -4  -1    2.60    1.40
  -8  -4  -1    1.30    1.00
  -8  -4  -1    1.90    0.80
   8   4   1    4.00    1.50
   8   4   1    2.60    1.10
   8   4   1    3.30    1.20
  10  -5  -1    0.20    1.40
  10  -5  -1   -0.30    0.80
  10  -5  -1   -1.60    1.00
 -10   5   1   -2.40    1.00
 -10   5   1    1.80    1.00
 -10   5   1   -0.50    0.80
   9  -5  -1    0.30    0.80
   9  -5  -1    0.90    1.30
   9  -5  -1    0.50    0.90
   9  -5  -1   -0.90    1.00
  -9   5   1    2.30    1.30
  -9   5   1   -0.10    0.80
  -9   5   1   -1.50    1.00
   8  -5  -1   20.30    2.10
   8  -5  -1   20.00    2.70
   8  -5  -1   15.90    2.20
   8  -5  -1   13.20    2.20
  -8   5   1   21.50    2.90
  -8   5   1   23.80    2.10
  -8   5   1   18.60    2.10
  -8   5   1   14.00    2.10
   7  -5  -1   43.70    3.40
   7  -5  -1   39.20    3.50
   7  -5  -1   31.20    3.40
   7  -5  -1   38.00    3.90
  -7   5   1   40.80    3.40
  -7   5   1   37.00    3.40
  -7   5   1   42.80    3.40
  -7   5   1   40.40    4.20
   6  -5  -1    0.90    0.70
   6  -5  -1    0.40    0.40
   6  -5  -1    1.30    0.70
   6  -5  -1    1.20    0.60
   6  -5  -1    1.40    0.90
  -6   5   1    1.30    0.50
  -6   5   1    1.00    1.10
  -6   5   1    1.40    0.50
  -6   5   1    1.00    0.60
   5  -5  -1   19.10    2.20
   5  -5  -1   21.40    2.40
   5  -5  -1   20.40    1.80
   5  -5  -1   21.10    2.10
  -5   5   1   20.10    2.00
  -5   5   1   23.90    1.90
  -5   5   1   25.30    2.00
  -5   5   1   20.60    2.70
   4  -5  -1  133.89   11.30
   4  -5  -1  132.99   11.00
   4  -5  -1  138.89   11.40
   4  -5  -1  140.69   11.10
  -4   5   1  138.59   11.10
  -4   5   1  158.98   11.10
  -4   5   1  154.38   11.70
  -4   5   1  164.68   11.10
   3  -5  -1    0.50    0.60
   3  -5  -1   -0.40    0.40
   3  -5  -1    0.80    0.40
   3  -5  -1   -0.20    0.60
  -3   5   1    0.10    0.40
  -3   5   1    0.70    0.40
  -3   5   1   -0.70    0.40
  -3   5   1   -0.60    0.80
   2  -5  -1   14.20    1.60
   2  -5  -1   15.80    1.40
   2  -5  -1   14.30    1.40
   2  -5  -1   15.50    1.20
   2  -5  -1   14.90    1.60
  -2   5   1   14.10    1.30
  -2   5   1   14.80    1.40
  -2   5   1   17.20    1.90
  -2   5   1   12.20    1.30
   1  -5  -1   23.50    2.20
   1  -5  -1   21.60    2.00
   1  -5  -1   24.90    2.00
   1  -5  -1   24.00    1.90
  -1   5   1   22.60    2.00
  -1   5   1   20.30    1.90
  -1   5   1   22.20    1.80
  -1   5   1   23.30    2.30
  -1   5   1   20.50    1.90
   0  -5  -1  223.08   17.60
   0  -5  -1  236.68   17.40
   0  -5  -1  197.28   17.40
   0  -5  -1  241.68   17.40
   0   5   1  243.58   17.50
   0   5   1  225.38   17.40
   0   5   1  216.38   17.30
   0   5   1  223.18   17.40
   0   5   1  267.87   17.70
  -1  -5  -1  102.79    7.80
  -1  -5  -1   99.29    7.90
  -1  -5  -1   98.59    7.90
   1   5   1   98.39    7.90
   1   5   1  103.19    7.80
   1   5   1  102.79    7.90
   1   5   1  104.49    7.70
  -2  -5  -1   42.60    3.80
  -2  -5  -1   44.30    3.70
  -2  -5  -1   45.40    3.80
   2   5   1   44.90    3.80
   2   5   1   45.00    3.80
   2   5   1   47.80    3.70
   2   5   1   46.20    3.90
  -3  -5  -1    0.40    0.70
  -3  -5  -1   -0.10    0.60
  -3  -5  -1   -0.20    0.60
   3   5   1    1.10    0.70
   3   5   1    0.30    0.70
   3   5   1    0.90    0.80
   3   5   1    1.30    0.50
  -4  -5  -1    1.50    0.70
  -4  -5  -1    1.40    0.90
   4   5   1    1.60    0.80
   4   5   1    2.40    0.60
   4   5   1    1.20    0.90
   4   5   1    2.00    1.00
  -5  -5  -1    6.40    1.30
  -5  -5  -1    5.70    1.10
  -5  -5  -1    5.40    0.90
   5   5   1    6.60    1.20
   5   5   1    6.20    1.00
   5   5   1    5.30    1.20
   5   5   1    6.10    1.40
  -6  -5  -1    9.00    1.40
  -6  -5  -1   10.00    1.40
  -6  -5  -1    7.90    1.60
   6   5   1    7.20    1.70
   6   5   1    7.00    1.40
   6   5   1    9.70    1.60
   6   5   1   12.30    1.80
  -7  -5  -1    1.90    1.00
  -7  -5  -1    1.10    1.20
  -7  -5  -1    2.70    0.90
   7   5   1    2.40    1.30
   7   5   1    2.50    1.20
   7   5   1    1.90    1.00
  -8  -5  -1    2.00    0.80
  10  -6  -1   -1.20    0.90
  10  -6  -1    0.70    1.50
  10  -6  -1   -1.80    1.10
 -10   6   1    2.80    1.20
 -10   6   1   -0.90    1.00
 -10   6   1   -0.50    0.90
   9  -6  -1   -1.80    0.90
   9  -6  -1   -1.50    0.90
   9  -6  -1    0.10    0.80
   9  -6  -1    0.80    1.50
  -9   6   1   -1.00    0.80
  -9   6   1   -1.80    0.80
   8  -6  -1    2.90    1.30
   8  -6  -1    0.20    0.80
   8  -6  -1    0.50    0.80
   8  -6  -1    0.70    0.90
  -8   6   1    0.10    0.80
  -8   6   1    0.80    0.80
  -8   6   1    2.60    1.50
   7  -6  -1   42.40    4.30
   7  -6  -1   48.00    4.70
   7  -6  -1   48.90    4.20
  -7   6   1   48.40    5.00
  -7   6   1   51.69    4.00
  -7   6   1   52.59    4.10
  -7   6   1   46.50    4.20
   6  -6  -1   13.90    1.70
   6  -6  -1    9.30    1.60
   6  -6  -1   13.60    2.10
  -6   6   1   15.10    1.50
  -6   6   1   14.20    1.50
  -6   6   1   11.50    1.60
  -6   6   1   10.80    2.20
   5  -6  -1    1.60    0.60
   5  -6  -1    0.70    0.90
   5  -6  -1   -0.10    0.40
   5  -6  -1   -0.80    0.80
  -5   6   1    2.00    0.50
  -5   6   1    1.60    0.50
  -5   6   1   -2.00    1.30
  -5   6   1    1.70    0.60
   4  -6  -1   68.79    5.40
   4  -6  -1   67.69    5.80
   4  -6  -1   67.99    5.80
   4  -6  -1   70.99    5.50
  -4   6   1   65.79    5.50
  -4   6   1   72.59    5.50
  -4   6   1   74.19    6.30
   3  -6  -1    1.10    0.80
   3  -6  -1    1.40    0.50
   3  -6  -1    0.50    0.70
   3  -6  -1    1.30    0.50
  -3   6   1    1.30    0.50
  -3   6   1    1.50    0.50
  -3   6   1    0.00    0.90
  -3   6   1    0.90    0.40
   2  -6  -1  126.29   10.20
   2  -6  -1  139.79    9.90
   2  -6  -1  118.29   10.10
   2  -6  -1  136.29    9.90
  -2   6   1  119.69    9.90
  -2   6   1  135.79   10.40
  -2   6   1  117.89    9.80
  -2   6   1  143.39    9.90
   1  -6  -1    2.40    0.80
   1  -6  -1    1.40    0.50
   1  -6  -1    1.40    0.50
   1  -6  -1    1.90    0.50
  -1   6   1    1.70    0.60
  -1   6   1    1.10    0.50
  -1   6   1    1.40    0.80
  -1   6   1    1.70    0.60
  -1   6   1    1.10    0.40
   0  -6  -1   45.70    3.60
   0  -6  -1   40.80    3.80
   0  -6  -1   37.60    3.50
   0  -6  -1   43.50    3.60
   0   6   1   50.99    3.90
   0   6   1   44.80    3.70
   0   6   1   42.80    3.40
   0   6   1   42.20    3.60
   0   6   1   43.30    3.50
  -1  -6  -1   40.10    3.40
  -1  -6  -1   37.90    3.30
  -1  -6  -1   38.20    3.50
   1   6   1   39.80    3.40
   1   6   1   40.10    3.40
   1   6   1   40.20    3.20
  -2  -6  -1   30.70    2.90
  -2  -6  -1   29.90    2.80
  -2  -6  -1   29.80    2.90
   2   6   1   29.80    2.90
   2   6   1   36.40    2.80
   2   6   1   32.40    3.00
  -3  -6  -1   44.30    4.00
  -3  -6  -1   44.10    3.90
  -3  -6  -1   45.60    4.00
   3   6   1   45.70    4.10
   3   6   1   44.40    4.10
   3   6   1   50.79    3.90
  -4  -6  -1    3.70    0.80
  -4  -6  -1    2.60    1.00
   4   6   1    3.70    1.10
   4   6   1    3.00    1.10
   4   6   1    3.50    0.80
  -5  -6  -1    2.20    0.90
  -5  -6  -1    2.40    0.80
  -5  -6  -1    2.10    1.20
   5   6   1    2.00    1.00
   5   6   1    1.60    1.10
   5   6   1    2.00    0.80
  -6  -6  -1    8.50    1.50
  -6  -6  -1    8.50    1.70
  -6  -6  -1    7.40    1.30
   6   6   1    9.90    2.00
   6   6   1   11.60    1.60
   6   6   1   12.40    2.10
  -7  -6  -1   -1.40    1.10
  -7  -6  -1   -0.60    1.10
  -7  -6  -1    0.50    0.80
   7   6   1    0.70    1.10
   7   6   1    0.60    1.20
  10  -7  -1    4.60    1.50
  10  -7  -1    6.10    2.00
 -10   7   1    2.10    1.10
 -10   7   1    3.60    1.30
 -10   7   1    5.50    1.50
   9  -7  -1   -0.20    0.90
   9  -7  -1   -2.00    0.90
   9  -7  -1    0.30    1.40
  -9   7   1   -0.50    0.90
  -9   7   1   -1.50    0.90
   8  -7  -1    0.70    1.00
   8  -7  -1    0.20    1.00
   8  -7  -1    2.60    1.50
  -8   7   1   -0.20    0.90
  -8   7   1   -0.80    0.90
   7  -7  -1    7.40    1.50
   7  -7  -1    8.90    1.80
   7  -7  -1   11.00    1.70
  -7   7   1    9.00    2.10
  -7   7   1    8.10    1.50
  -7   7   1   12.00    1.60
   6  -7  -1    3.50    1.30
   6  -7  -1    2.40    1.10
   6  -7  -1    3.80    0.90
  -6   7   1    3.20    0.70
  -6   7   1    2.10    1.60
  -6   7   1    2.90    0.80
  -6   7   1    3.80    0.80
   5  -7  -1   16.10    1.60
   5  -7  -1   17.30    1.80
   5  -7  -1   12.50    2.30
   5  -7  -1   14.40    2.20
  -5   7   1   17.80    1.70
  -5   7   1   18.80    1.70
  -5   7   1   12.60    2.70
  -5   7   1   15.60    1.80
   4  -7  -1    2.80    0.60
   4  -7  -1    0.80    1.00
   4  -7  -1    1.10    0.70
   4  -7  -1    2.00    1.00
  -4   7   1    1.00    1.30
  -4   7   1    0.90    0.60
  -4   7   1    2.70    0.70
   3  -7  -1   66.39    5.80
   3  -7  -1   71.49    5.50
   3  -7  -1   71.39    5.50
   3  -7  -1   69.89    5.90
  -3   7   1   73.29    6.20
  -3   7   1   61.69    5.50
  -3   7   1   78.69    5.60
  -3   7   1   64.39    5.50
   2  -7  -1  251.67   17.80
   2  -7  -1  222.08   18.00
   2  -7  -1  229.48   18.10
  -2   7   1  217.78   17.70
  -2   7   1  208.88   17.70
  -2   7   1  256.97   18.30
  -2   7   1  255.87   17.80
   1  -7  -1   35.70    3.10
   1  -7  -1   35.40    3.40
   1  -7  -1   39.40    3.10
  -1   7   1   38.70    3.50
  -1   7   1   34.30    3.10
  -1   7   1   32.70    3.00
  -1   7   1   33.20    2.90
   0  -7  -1   -0.20    0.60
   0  -7  -1    1.20    0.60
   0  -7  -1    0.10    0.80
   0   7   1    0.90    0.80
   0   7   1   -1.30    0.70
   0   7   1    0.10    0.60
  -1  -7  -1   -1.40    0.60
  -1  -7  -1   -0.30    0.60
   1   7   1   -0.70    0.50
   1   7   1    0.50    0.70
  -2  -7  -1   13.40    1.70
  -2  -7  -1   12.20    1.90
  -2  -7  -1   12.50    1.90
   2   7   1   12.40    1.80
   2   7   1   15.80    1.60
   2   7   1   14.70    1.90
  -3  -7  -1   31.70    3.30
  -3  -7  -1   35.00    3.20
   3   7   1   35.30    3.50
   3   7   1   39.30    3.10
   3   7   1   35.40    3.50
  -4  -7  -1   -0.40    0.70
  -4  -7  -1    0.40    0.90
  -4  -7  -1    0.10    0.80
   4   7   1    0.60    0.90
   4   7   1   -0.10    0.70
   4   7   1   -1.10    0.90
  -5  -7  -1   16.70    2.50
  -5  -7  -1   17.70    2.40
  -5  -7  -1   18.40    2.10
   5   7   1   17.90    2.60
   5   7   1   19.90    2.60
   5   7   1   21.80    2.30
  -6  -7  -1    8.90    1.70
  -6  -7  -1    9.80    1.50
  -6  -7  -1    9.90    1.90
   6   7   1   13.80    2.30
   6   7   1   10.20    2.00
   9  -8  -1    2.60    1.20
   9  -8  -1    4.30    1.80
   9  -8  -1    2.70    1.30
  -9   8   1    0.40    1.00
  -9   8   1    3.20    1.10
   8  -8  -1    4.10    1.70
   8  -8  -1    3.70    1.10
   8  -8  -1    2.50    1.50
  -8   8   1    1.90    1.10
  -8   8   1    4.50    1.10
   7  -8  -1    1.10    1.30
   7  -8  -1    3.60    1.50
   7  -8  -1    2.70    1.00
  -7   8   1    1.70    0.90
  -7   8   1    3.20    0.90
   6  -8  -1   10.80    1.70
   6  -8  -1    7.70    1.70
   6  -8  -1    9.00    1.80
  -6   8   1    9.40    1.50
  -6   8   1   11.50    1.60
  -6   8   1    6.50    2.10
   5  -8  -1    6.50    0.90
   5  -8  -1    5.80    1.50
   5  -8  -1    7.60    1.60
   5  -8  -1    9.00    1.40
  -5   8   1    8.50    1.30
  -5   8   1    7.00    1.10
  -5   8   1    6.00    1.80
  -5   8   1    6.80    1.10
   4  -8  -1    0.20    0.60
   4  -8  -1   -0.10    0.70
   4  -8  -1    0.90    0.90
   4  -8  -1    0.20    1.10
  -4   8   1    0.50    0.70
  -4   8   1    0.20    0.70
  -4   8   1    1.50    1.30
  -4   8   1    0.50    0.60
   3  -8  -1   48.10    4.50
   3  -8  -1   51.59    4.00
   3  -8  -1   47.20    4.30
  -3   8   1   42.20    4.00
  -3   8   1   50.69    4.70
  -3   8   1   42.30    3.90
  -3   8   1   54.89    4.10
   2  -8  -1   36.20    3.40
   2  -8  -1   36.90    3.70
   2  -8  -1   42.10    3.30
  -2   8   1   40.50    3.90
  -2   8   1   31.80    3.30
  -2   8   1   35.80    3.10
  -2   8   1   40.80    3.40
   1  -8  -1   47.90    4.00
   1  -8  -1   44.00    4.30
  -1   8   1   49.90    4.40
  -1   8   1   40.70    3.80
  -1   8   1   47.00    4.00
   0  -8  -1   -0.70    0.70
   0  -8  -1   -0.70    0.80
   0   8   1   -0.50    0.70
   0   8   1   -0.50    0.60
  -1  -8  -1    1.30    1.00
  -1  -8  -1    1.70    0.80
  -1  -8  -1    1.70    0.80
   1   8   1    3.20    1.00
   1   8   1    2.70    0.80
  -2  -8  -1    5.70    1.10
  -2  -8  -1    5.20    1.40
  -2  -8  -1    4.10    1.20
   2   8   1    7.60    1.30
  -3  -8  -1    1.20    0.80
  -3  -8  -1    2.00    1.40
  -3  -8  -1    1.50    1.00
   3   8   1    2.10    1.10
   3   8   1    2.80    0.90
   3   8   1    2.10    1.00
  -4  -8  -1   -0.50    0.80
  -4  -8  -1    0.90    1.00
  -4  -8  -1    0.20    0.90
   4   8   1    0.10    1.00
   4   8   1   -0.10    0.80
   4   8   1    1.20    1.10
  -5  -8  -1    2.40    1.10
  -5  -8  -1    1.50    1.00
  -5  -8  -1    2.30    1.30
   5   8   1    2.30    1.30
   5   8   1    2.20    1.20
   5   8   1    3.30    0.90
   8  -9  -1    0.20    1.00
   8  -9  -1    0.60    1.50
   8  -9  -1    0.00    1.20
  -8   9   1    0.60    0.90
   7  -9  -1    0.40    1.50
   7  -9  -1   -0.80    0.90
   7  -9  -1    0.40    1.20
  -7   9   1   -1.30    0.90
  -7   9   1   -0.40    0.80
   6  -9  -1   -0.50    1.30
   6  -9  -1    0.60    0.90
   6  -9  -1   -0.10    1.20
  -6   9   1   -0.50    0.80
  -6   9   1   -0.40    0.70
   5  -9  -1   -0.90    0.70
   5  -9  -1    0.90    1.20
   5  -9  -1   -1.30    0.80
   5  -9  -1    0.60    1.10
  -5   9   1    0.90    1.50
  -5   9   1   -0.40    0.80
  -5   9   1   -0.10    0.70
   4  -9  -1    1.60    1.10
   4  -9  -1   -0.50    0.80
   4  -9  -1    0.40    1.10
  -4   9   1   -0.90    0.70
  -4   9   1    0.70    1.30
  -4   9   1   -0.50    0.60
  -4   9   1   -1.50    0.80
   3  -9  -1    1.60    1.20
   3  -9  -1    1.70    0.80
   3  -9  -1    2.70    0.90
  -3   9   1    0.60    0.90
  -3   9   1    1.50    0.70
  -3   9   1    1.90    0.90
  -3   9   1    1.50    1.40
   2  -9  -1    0.60    0.80
   2  -9  -1    1.00    1.10
  -2   9   1    1.70    1.20
  -2   9   1    0.30    0.80
  -2   9   1    1.10    0.80
   1  -9  -1    0.80    0.80
   1  -9  -1    0.60    1.20
  -1   9   1   -0.10    0.70
  -1   9   1    0.70    0.70
   0  -9  -1   -1.10    0.80
   0  -9  -1   -0.40    1.00
   0   9   1    0.20    0.70
   0   9   1    1.10    0.90
  -1  -9  -1   20.40    2.70
  -1  -9  -1   19.40    2.40
   1   9   1   21.90    2.20
   1   9   1   22.90    2.60
  -2  -9  -1   23.20    2.70
   2   9   1   28.40    2.70
   2   9   1   26.70    3.00
  -3  -9  -1   -0.30    0.90
  -3  -9  -1   -0.40    1.00
   3   9   1    1.30    1.20
   3   9   1    1.00    0.80
  -4  -9  -1    3.80    1.30
  -4  -9  -1    2.30    1.20
   4   9   1    5.50    1.40
   4   9   1    9.20    1.50
   7 -10  -1    1.60    1.20
   7 -10  -1    2.40    1.50
   7 -10  -1    2.30    1.50
  -7  10   1   -0.90    1.00
  -7  10   1    1.70    1.00
   6 -10  -1    0.30    1.40
   6 -10  -1    0.80    1.40
  -6  10   1   -0.50    0.90
   5 -10  -1   -0.40    1.30
   5 -10  -1    0.70    1.10
  -5  10   1   -1.10    0.80
   4 -10  -1    8.30    1.80
   4 -10  -1    4.70    1.10
   4 -10  -1    5.70    1.40
  -4  10   1    3.60    1.30
  -4  10   1    5.80    1.10
   3 -10  -1    5.10    1.60
   3 -10  -1    4.70    1.20
  -3  10   1    6.80    2.10
  -3  10   1    3.20    1.20
  -3  10   1    6.00    1.40
   2 -10  -1    3.30    1.00
   2 -10  -1    3.70    1.50
  -2  10   1    1.80    0.90
   1 -10  -1    1.60    1.40
   1 -10  -1    3.30    1.10
  -1  10   1    1.70    0.90
   0 -10  -1    1.40    1.30
   0 -10  -1    2.50    1.20
   0  10   1    2.60    0.90
   0  10   1    3.80    1.10
  -1 -10  -1   37.90    3.90
   1  10   1   45.90    4.10
   1  10   1   41.80    3.70
  -2 -10  -1   -1.30    0.90
   2  10   1    3.70    1.20
   2  10   1    1.50    0.90
   5 -11  -1    2.80    1.60
  -5  11   1   -2.10    1.10
  -5  11   1    0.70    0.90
   4 -11  -1   -2.00    0.90
   4 -11  -1   -0.60    1.50
   3 -11  -1   -2.10    1.00
   3 -11  -1    0.40    1.40
  -3  11   1   -0.30    1.00
   2 -11  -1    4.70    1.70
   2 -11  -1    4.10    1.30
  -2  11   1    3.90    1.10
   1 -11  -1    1.00    1.10
   1 -11  -1    1.10    1.50
  -1  11   1    3.10    0.90
   0  11   1   14.90    1.90
   1  11  -2    4.10    1.10
  -1 -11   2    1.10    1.20
   0  11  -2   11.70    1.80
   1 -11   2    6.00    1.90
   1 -11   2    5.40    1.60
  -2  11  -2    3.80    1.00
   2 -11   2    3.10    1.50
   2 -11   2    1.30    1.40
  -3  11  -2    0.40    1.00
  -3  11  -2   -0.50    0.90
   3 -11   2    2.20    1.50
   3 -11   2   -1.20    1.10
  -4  11  -2    2.90    1.30
  -4  11  -2    2.60    1.10
   4 -11   2   10.60    2.10
   4 -11   2    6.00    1.40
  -5  11  -2    4.10    1.40
  -5  11  -2    0.30    1.20
   5 -11   2    3.60    1.60
   5 -11   2    1.60    1.10
   5 -11   2    5.90    1.80
   3  10  -2    5.20    1.40
   3  10  -2    5.10    1.20
  -3 -10   2    3.50    1.30
  -3 -10   2    3.00    1.30
   2  10  -2    0.20    0.90
   2  10  -2    1.30    1.10
  -2 -10   2   -1.70    0.90
   1  10  -2    2.00    1.00
  -1 -10   2   -0.10    1.00
   0  10  -2   38.20    3.40
   0 -10   2   32.80    3.50
  -1  10  -2   -0.30    1.30
  -1  10  -2    1.60    0.90
   1 -10   2   -0.10    1.00
   1 -10   2    0.90    1.20
  -2  10  -2   14.40    1.90
  -2  10  -2   10.90    1.70
   2 -10   2   17.60    2.20
   2 -10   2   15.80    2.40
  -3  10  -2    0.50    1.00
  -3  10  -2   -1.60    0.90
  -3  10  -2    2.20    1.20
   3 -10   2    1.50    1.00
   3 -10   2    2.70    1.40
  -4  10  -2    0.70    1.00
  -4  10  -2   -1.80    0.80
  -4  10  -2   -2.20    1.00
   4 -10   2   -0.80    0.90
   4 -10   2    0.50    1.10
   4 -10   2    1.30    1.40
  -5  10  -2    1.40    1.20
  -5  10  -2    4.20    1.40
  -5  10  -2    4.40    1.20
   5 -10   2    5.70    1.60
   5 -10   2    5.00    1.10
   5 -10   2    5.80    1.70
  -6  10  -2    1.70    1.30
  -6  10  -2   -1.70    1.10
  -6  10  -2    0.60    1.00
   6 -10   2    1.30    0.80
   6 -10   2   -0.10    1.40
   6 -10   2    2.40    1.50
  -7  10  -2    1.70    1.20
  -7  10  -2    0.20    1.20
  -7  10  -2    3.50    1.50
   7 -10   2    1.10    1.60
   7 -10   2    3.40    1.60
   4   9  -2    1.60    1.20
   4   9  -2    0.60    0.90
  -4  -9   2    0.30    1.00
  -4  -9   2   -0.90    0.90
   3   9  -2    8.50    1.60
   3   9  -2   12.20    1.90
  -3  -9   2    8.40    1.50
  -3  -9   2    7.50    1.50
   2   9  -2    1.10    0.80
   2   9  -2    1.40    1.00
  -2  -9   2    1.80    1.00
  -2  -9   2    0.70    0.90
   1   9  -2    1.30    0.80
   1   9  -2    2.90    1.10
  -1  -9   2    1.40    1.00
  -1  -9   2    0.50    0.90
   0   9  -2    5.30    0.90
   0   9  -2    6.60    1.10
   0  -9   2    4.00    1.20
   0  -9   2    3.40    1.20
  -1   9  -2    9.00    1.50
  -1   9  -2    6.20    1.00
   1  -9   2    7.10    1.30
   1  -9   2    5.00    1.40
  -2   9  -2    0.50    1.10
  -2   9  -2    0.70    0.90
  -2   9  -2    0.00    0.70
   2  -9   2    0.70    0.90
   2  -9   2    2.00    1.20
  -3   9  -2   27.30    3.10
  -3   9  -2   32.70    3.00
  -3   9  -2   31.60    3.70
  -3   9  -2   31.20    3.10
   3  -9   2   32.00    3.30
   3  -9   2   40.20    3.10
   3  -9   2   35.40    3.50
  -4   9  -2    0.60    1.00
  -4   9  -2    2.30    1.40
  -4   9  -2    2.30    0.90
  -4   9  -2    3.20    1.20
   4  -9   2    1.70    0.80
   4  -9   2    2.40    1.20
   4  -9   2    3.50    1.40
  -5   9  -2    6.90    1.30
  -5   9  -2   11.40    1.70
  -5   9  -2    5.30    1.60
  -5   9  -2    7.80    1.90
   5  -9   2    9.10    1.80
   5  -9   2    6.70    1.70
   5  -9   2    8.80    1.20
  -6   9  -2    4.00    1.40
  -6   9  -2    4.20    1.20
  -6   9  -2    6.50    1.30
   6  -9   2    4.00    1.70
   6  -9   2    6.00    1.00
   6  -9   2    5.90    1.60
  -7   9  -2    3.00    1.10
  -7   9  -2    3.70    1.40
  -7   9  -2    3.80    1.10
   7  -9   2    3.00    1.70
   7  -9   2    3.70    1.20
   7  -9   2    3.10    1.60
  -8   9  -2    1.70    1.20
  -8   9  -2    1.00    1.30
  -8   9  -2   -0.70    1.00
   8  -9   2    3.40    1.60
   8  -9   2    0.70    1.60
   6   8  -2   27.10    3.50
   6   8  -2   30.00    3.30
   6   8  -2   28.10    2.80
  -6  -8   2   23.80    2.80
  -6  -8   2   22.20    3.10
  -6  -8   2   27.20    3.50
   5   8  -2    0.00    1.10
   5   8  -2    0.30    1.00
   5   8  -2    0.50    0.80
  -5  -8   2   -0.20    1.00
  -5  -8   2   -0.20    1.10
  -5  -8   2   -0.80    0.90
   4   8  -2   -0.80    0.80
   4   8  -2    0.10    1.00
   4   8  -2    0.10    1.20
  -4  -8   2   -0.60    1.00
  -4  -8   2   -0.40    0.90
  -4  -8   2    1.40    1.30
   3   8  -2   19.40    2.70
   3   8  -2   20.10    2.20
  -3  -8   2   20.80    2.40
  -3  -8   2   20.20    2.30
   2   8  -2  121.39    9.10
   2   8  -2  115.09    9.30
  -2  -8   2  110.89    9.10
  -2  -8   2  113.69    9.20
   1   8  -2   23.60    2.30
   1   8  -2   19.40    1.90
   1   8  -2   21.20    2.10
  -1  -8   2   18.60    2.20
  -1  -8   2   16.60    2.30
  -1  -8   2   19.70    2.20
   0   8  -2    9.00    1.40
   0   8  -2    6.30    0.90
   0   8  -2    5.80    1.00
   0  -8   2    7.30    1.10
   0  -8   2    5.00    1.10
   0  -8   2    5.90    1.20
  -1   8  -2  119.39    8.70
  -1   8  -2  106.19    8.60
  -1   8  -2  106.29    8.50
   1  -8   2  123.49    8.80
   1  -8   2  100.99    8.90
  -2   8  -2   83.99    6.40
  -2   8  -2   82.29    6.30
  -2   8  -2   74.99    6.80
  -2   8  -2   76.29    6.50
   2  -8   2   84.79    6.80
   2  -8   2   80.39    6.60
  -3   8  -2   10.10    2.10
  -3   8  -2   13.40    1.70
  -3   8  -2   12.10    1.50
  -3   8  -2   10.60    1.90
   3  -8   2   12.40    2.00
   3  -8   2   13.10    2.00
   3  -8   2   13.70    1.60
  -4   8  -2   31.40    3.30
  -4   8  -2   31.70    3.10
  -4   8  -2   35.90    3.00
  -4   8  -2   29.90    3.70
   4  -8   2   33.10    3.50
   4  -8   2   36.10    3.50
   4  -8   2   38.90    3.00
  -5   8  -2   33.20    3.90
  -5   8  -2   35.10    3.10
  -5   8  -2   26.60    3.40
  -5   8  -2   35.70    3.10
   5  -8   2   33.60    3.60
   5  -8   2   35.70    2.90
   5  -8   2   33.10    3.50
  -6   8  -2    3.30    1.40
  -6   8  -2    5.70    1.10
  -6   8  -2    5.10    1.10
  -6   8  -2    5.00    1.90
   6  -8   2    4.60    1.50
   6  -8   2    5.50    1.60
   6  -8   2    5.80    1.20
   6  -8   2    5.90    0.90
  -7   8  -2    4.90    1.50
  -7   8  -2    4.30    1.10
  -7   8  -2    3.70    1.00
   7  -8   2    4.20    1.20
   7  -8   2    4.30    0.90
   7  -8   2    3.40    1.40
   7  -8   2    4.70    1.70
  -8   8  -2   20.90    2.60
  -8   8  -2   22.40    2.60
  -8   8  -2   20.20    3.00
   8  -8   2   22.20    3.00
   8  -8   2   22.00    3.40
   8  -8   2   23.30    2.80
  -9   8  -2    5.40    2.10
  -9   8  -2    6.80    1.50
  -9   8  -2    9.60    2.10
   9  -8   2    5.60    1.70
   9  -8   2   10.80    2.50
   9  -8   2    6.60    1.60
   7   7  -2   17.80    2.90
   7   7  -2   14.00    2.50
   7   7  -2   16.40    2.20
  -7  -7   2   10.50    2.00
  -7  -7   2   15.60    2.00
  -7  -7   2   11.30    2.20
   6   7  -2    2.00    0.90
   6   7  -2    1.60    1.40
   6   7  -2    0.90    1.10
  -6  -7   2    1.80    1.10
  -6  -7   2   -0.70    1.10
  -6  -7   2    0.90    0.80
   5   7  -2   10.40    1.90
   5   7  -2    8.00    1.60
   5   7  -2   10.40    1.60
  -5  -7   2    9.30    1.40
  -5  -7   2    6.60    1.50
  -5  -7   2    9.90    1.70
   4   7  -2    7.60    1.40
   4   7  -2    7.70    1.20
   4   7  -2    7.80    1.60
  -4  -7   2    8.40    1.50
  -4  -7   2    6.20    1.30
  -4  -7   2    7.90    1.20
   3   7  -2    1.00    0.90
   3   7  -2    1.30    0.80
   3   7  -2    2.00    1.00
  -3  -7   2    1.30    0.80
  -3  -7   2    1.70    0.90
  -3  -7   2    1.50    0.90
   2   7  -2  110.39    9.50
   2   7  -2  125.99    9.80
   2   7  -2  136.39    9.60
   2   7  -2  124.59    9.80
  -2  -7   2  126.59    9.80
  -2  -7   2  120.39    9.80
  -2  -7   2  124.39    9.70
   1   7  -2   29.00    2.60
   1   7  -2   27.40    2.90
   1   7  -2   30.40    2.40
  -1  -7   2   26.00    2.80
  -1  -7   2   34.00    2.80
  -1  -7   2   30.60    2.70
   0   7  -2   20.80    2.50
   0   7  -2   25.90    2.30
   0   7  -2   25.80    2.40
   0   7  -2   24.50    2.20
   0  -7   2   30.10    2.40
   0  -7   2   22.20    2.50
   0  -7   2   29.20    2.40
  -1   7  -2   50.69    5.00
  -1   7  -2   49.10    4.70
  -1   7  -2   60.29    4.70
  -1   7  -2   67.39    4.80
  -1   7  -2   58.59    4.60
   1  -7   2   64.69    4.80
   1  -7   2   56.19    4.90
   1  -7   2   64.79    4.70
   1  -7   2   54.09    4.70
  -2   7  -2   11.40    1.30
  -2   7  -2   13.40    1.50
  -2   7  -2    8.20    1.50
  -2   7  -2    7.30    1.50
  -2   7  -2   12.90    1.30
   2  -7   2   11.10    1.20
   2  -7   2    9.20    1.60
   2  -7   2    8.90    1.60
   2  -7   2   10.30    1.40
  -3   7  -2    9.40    2.00
  -3   7  -2   10.50    1.50
  -3   7  -2    9.60    1.30
  -3   7  -2   12.20    1.40
   3  -7   2    9.90    1.70
   3  -7   2   10.80    1.60
   3  -7   2    9.00    1.30
  -4   7  -2  128.59   11.50
  -4   7  -2  158.48   11.30
  -4   7  -2  158.48   11.30
  -4   7  -2  135.89   11.90
   4  -7   2  152.08   11.70
   4  -7   2  151.68   11.20
   4  -7   2  143.19   11.60
  -5   7  -2    3.20    1.20
  -5   7  -2    5.20    1.00
  -5   7  -2    3.20    1.50
  -5   7  -2    4.10    0.80
   5  -7   2    4.20    1.30
   5  -7   2    4.20    0.70
   5  -7   2    3.70    0.90
   5  -7   2    3.60    1.20
  -6   7  -2   22.50    2.20
  -6   7  -2   21.40    3.20
  -6   7  -2   23.10    2.30
   6  -7   2   21.00    2.70
   6  -7   2   22.70    2.90
   6  -7   2   25.50    2.40
   6  -7   2   20.90    2.00
  -7   7  -2    4.60    1.00
  -7   7  -2    3.90    1.70
  -7   7  -2    3.60    1.00
  -7   7  -2    1.90    1.30
   7  -7   2    4.20    1.40
   7  -7   2    5.00    0.80
   7  -7   2    4.40    1.50
   7  -7   2    4.50    1.10
  -8   7  -2    2.20    1.00
  -8   7  -2    0.90    0.90
  -8   7  -2    2.30    1.40
   8  -7   2    4.20    1.70
   8  -7   2    0.80    1.30
   8  -7   2    2.00    1.10
  -9   7  -2   27.50    3.60
  -9   7  -2   26.80    3.10
   9  -7   2   33.50    4.20
   9  -7   2   31.80    3.30
   9  -7   2   27.20    3.50
   7   6  -2    1.10    1.10
   7   6  -2    1.70    0.90
   7   6  -2    1.00    1.40
  -7  -6   2    0.40    1.00
  -7  -6   2    0.80    0.90
  -7  -6   2    1.40    1.40
   6   6  -2    1.10    1.00
   6   6  -2    1.10    0.80
   6   6  -2   -0.20    1.20
  -6  -6   2    0.10    0.90
  -6  -6   2   -0.70    1.00
  -6  -6   2    0.20    0.70
   5   6  -2   30.80    3.30
   5   6  -2   26.70    3.10
   5   6  -2   29.40    2.80
  -5  -6   2   30.70    3.20
  -5  -6   2   28.60    2.80
  -5  -6   2   30.00    3.00
   4   6  -2  156.68   11.90
   4   6  -2  151.18   11.50
   4   6  -2  151.88   11.80
  -4  -6   2  145.19   11.70
  -4  -6   2  140.49   11.80
  -4  -6   2  150.78   11.60
   3   6  -2    0.10    0.60
   3   6  -2    1.30    0.80
   3   6  -2    0.20    0.80
  -3  -6   2    0.80    0.80
  -3  -6   2    0.10    0.70
  -3  -6   2   -0.60    0.80
   2   6  -2   27.70    2.70
   2   6  -2   31.50    2.40
   2   6  -2   30.80    2.70
   2   6  -2   30.10    2.60
  -2  -6   2   28.10    2.60
  -2  -6   2   30.00    2.70
  -2  -6   2   28.90    2.70
  -2  -6   2   24.60    2.60
   1   6  -2   -0.90    0.40
   1   6  -2   -0.50    0.50
   1   6  -2    0.10    0.50
   1   6  -2   -0.60    0.30
   1   6  -2   -0.50    0.50
  -1  -6   2   -0.90    0.50
  -1  -6   2   -0.50    0.50
  -1  -6   2   -0.20    0.50
  -1  -6   2    0.90    0.60
   0   6  -2  115.79    9.10
   0   6  -2  104.49    9.30
   0   6  -2  132.19    9.20
   0   6  -2  129.49    9.20
   0   6  -2  131.69    9.10
   0   6  -2  104.49    9.10
   0  -6   2  113.69    9.10
   0  -6   2  110.29    9.30
   0  -6   2  130.29    9.20
   0  -6   2  109.29    9.40
   0  -6   2  130.69    9.20
  -1   6  -2  114.09   10.00
  -1   6  -2  120.09   10.30
  -1   6  -2  133.59   10.00
  -1   6  -2  147.39   10.00
  -1   6  -2  135.79   10.00
   1  -6   2  138.49   10.00
   1  -6   2  122.69   10.20
   1  -6   2  142.99   10.10
   1  -6   2  122.79   10.10
  -2   6  -2    1.80    0.70
  -2   6  -2    3.80    0.70
  -2   6  -2    3.10    0.60
  -2   6  -2    2.20    0.90
  -2   6  -2    2.70    0.60
   2  -6   2    2.70    0.50
   2  -6   2    2.00    0.60
   2  -6   2    2.10    0.70
   2  -6   2    2.20    0.80
  -3   6  -2    3.40    0.70
  -3   6  -2    3.50    0.80
  -3   6  -2    3.10    1.10
  -3   6  -2    6.20    1.00
   3  -6   2    3.10    0.90
   3  -6   2    4.50    0.70
   3  -6   2    3.30    0.90
   3  -6   2    3.80    1.10
  -4   6  -2   35.70    2.70
  -4   6  -2   27.40    2.90
  -4   6  -2   32.40    2.80
  -4   6  -2   27.60    3.40
   4  -6   2   30.40    3.00
   4  -6   2   33.80    3.50
   4  -6   2   36.00    2.80
   4  -6   2   33.10    3.10
   4  -6   2   32.00    2.60
  -5   6  -2   64.09    5.10
  -5   6  -2   51.89    5.30
  -5   6  -2   69.49    5.00
  -5   6  -2   56.69    5.80
   5  -6   2   64.09    5.40
   5  -6   2   61.89    4.90
   5  -6   2   69.39    5.10
   5  -6   2   63.19    5.90
   5  -6   2   62.89    5.50
  -6   6  -2   -1.30    0.60
  -6   6  -2    0.20    0.70
  -6   6  -2   -1.00    1.30
   6  -6   2   -0.40    0.50
   6  -6   2    0.60    0.70
   6  -6   2   -0.80    0.90
   6  -6   2   -0.80    0.90
  -7   6  -2    7.90    1.90
  -7   6  -2    4.60    1.50
  -7   6  -2    6.20    1.20
  -7   6  -2   10.00    1.40
   7  -6   2    7.50    1.90
   7  -6   2    9.10    1.10
   7  -6   2    6.90    1.30
   7  -6   2    8.60    1.70
   7  -6   2    7.70    1.50
  -8   6  -2    6.70    1.30
  -8   6  -2    6.80    1.60
  -8   6  -2    7.00    2.00
  -8   6  -2    6.30    1.10
   8  -6   2    7.50    1.80
   8  -6   2    6.10    1.90
   8  -6   2    7.60    1.40
   8  -6   2    6.70    1.50
  -9   6  -2    4.70    1.50
  -9   6  -2    4.20    1.20
   9  -6   2    5.70    1.30
   9  -6   2    5.60    1.80
   9  -6   2    4.00    1.40
 -10   6  -2    1.40    1.20
 -10   6  -2    1.50    1.30
 -10   6  -2    0.20    1.00
  10  -6   2    2.10    1.20
  10  -6   2    0.10    1.60
  10  -6   2    0.10    1.30
   8   5  -2    4.00    1.10
   8   5  -2    5.50    1.40
   8   5  -2    4.30    1.70
  -8  -5   2    3.30    1.40
  -8  -5   2    3.40    1.30
   7   5  -2   16.50    2.30
   7   5  -2   11.00    2.10
   7   5  -2   12.60    1.80
  -7  -5   2   10.50    1.80
  -7  -5   2   15.60    2.40
  -7  -5   2   14.30    1.80
   6   5  -2    2.50    0.80
   6   5  -2    2.80    1.30
   6   5  -2    2.60    1.10
  -6  -5   2    3.10    0.80
  -6  -5   2    4.30    1.30
  -6  -5   2    1.30    1.00
   5   5  -2   48.20    4.50
   5   5  -2   44.00    4.30
   5   5  -2   47.80    4.00
  -5  -5   2   48.80    4.00
  -5  -5   2   47.30    4.20
  -5  -5   2   45.60    4.30
   4   5  -2   82.09    6.80
   4   5  -2   90.29    7.00
   4   5  -2   85.29    6.50
  -4  -5   2   81.59    6.80
  -4  -5   2   78.19    6.70
  -4  -5   2   80.29    6.60
   3   5  -2   54.09    4.50
   3   5  -2   58.59    4.10
   3   5  -2   50.29    4.40
   3   5  -2   51.39    4.20
  -3  -5   2   51.09    4.40
  -3  -5   2   52.39    4.30
  -3  -5   2   49.60    4.50
   2   5  -2    0.30    0.30
   2   5  -2    1.00    0.60
   2   5  -2   -0.40    0.50
  -2  -5   2    1.20    0.70
  -2  -5   2    1.00    0.50
  -2  -5   2    1.10    0.50
  -2  -5   2    1.10    0.60
   1   5  -2    0.00    0.50
   1   5  -2   -0.10    0.30
   1   5  -2   -0.30    0.20
   1   5  -2   -0.80    0.40
   1   5  -2   -0.40    0.40
   1   5  -2   -0.50    0.40
  -1  -5   2    0.20    0.40
  -1  -5   2   -0.30    0.40
  -1  -5   2   -0.60    0.40
  -1  -5   2    0.40    0.50
  -1  -5   2   -0.30    0.30
   0   5  -2  154.98   12.20
   0   5  -2  176.28   12.30
   0   5  -2  145.49   12.40
   0   5  -2  170.88   12.20
   0   5  -2  174.68   12.30
   0   5  -2  141.59   12.20
   0  -5   2  149.88   12.30
   0  -5   2  160.88   12.20
   0  -5   2  174.28   12.30
   0  -5   2  157.18   12.30
   0  -5   2  169.78   12.30
  -1   5  -2   19.40    1.70
  -1   5  -2   17.20    1.60
  -1   5  -2   21.60    1.60
  -1   5  -2   15.20    1.70
  -1   5  -2   17.40    2.00
   1  -5   2   16.80    1.80
   1  -5   2   18.90    1.80
   1  -5   2   19.70    1.70
   1  -5   2   19.30    1.50
   1  -5   2   18.70    1.60
  -2   5  -2    1.30    0.40
  -2   5  -2    1.70    0.50
  -2   5  -2    1.00    0.40
  -2   5  -2   -0.20    0.50
  -2   5  -2    1.30    0.80
   2  -5   2    0.90    0.70
   2  -5   2    1.10    0.40
   2  -5   2    1.10    0.60
   2  -5   2    0.10    0.50
   2  -5   2    1.90    0.30
  -3   5  -2  375.86   29.70
  -3   5  -2  362.96   30.20
  -3   5  -2  420.96   29.70
  -3   5  -2  428.86   29.60
   3  -5   2  449.46   29.60
   3  -5   2  405.86   29.80
   3  -5   2  388.66   30.30
   3  -5   2  381.26   29.70
   3  -5   2  377.76   30.00
   3  -5   2  363.86   29.90
  -4   5  -2   24.80    1.90
  -4   5  -2   19.80    2.70
  -4   5  -2   27.50    2.10
  -4   5  -2   20.20    2.20
  -4   5  -2   23.40    2.10
   4  -5   2   22.30    2.40
   4  -5   2   21.70    2.30
   4  -5   2   22.30    1.90
   4  -5   2   23.20    2.10
   4  -5   2   23.80    2.70
  -5   5  -2    4.60    0.80
  -5   5  -2    3.00    0.90
  -5   5  -2    5.20    0.80
  -5   5  -2    4.10    1.30
   5  -5   2    6.20    0.80
   5  -5   2    4.30    0.80
   5  -5   2    5.10    1.10
   5  -5   2    4.00    1.20
   5  -5   2    3.30    0.90
  -6   5  -2   41.00    3.20
  -6   5  -2   34.80    4.00
  -6   5  -2   39.50    3.30
   6  -5   2   35.00    4.10
   6  -5   2   38.00    3.70
   6  -5   2   41.00    3.40
   6  -5   2   33.90    3.40
   6  -5   2   34.70    3.00
  -7   5  -2   10.00    1.50
  -7   5  -2    6.60    1.80
  -7   5  -2    7.00    1.20
   7  -5   2    7.00    1.90
   7  -5   2    8.00    1.60
   7  -5   2    9.80    1.20
   7  -5   2    7.30    1.40
   7  -5   2   10.40    1.70
  -8   5  -2    0.70    0.90
  -8   5  -2   -0.10    0.80
  -8   5  -2    0.40    1.30
  -8   5  -2    0.30    1.10
   8  -5   2    0.30    1.40
   8  -5   2    0.60    0.60
   8  -5   2   -0.70    0.80
   8  -5   2   -0.50    0.90
   8  -5   2   -0.80    1.00
   8  -5   2   -0.40    1.20
  -9   5  -2    3.20    1.50
  -9   5  -2    3.20    1.00
  -9   5  -2    2.80    1.10
   9  -5   2    0.80    1.60
   9  -5   2    2.00    1.20
   9  -5   2    0.70    1.00
 -10   5  -2    0.80    1.00
 -10   5  -2    1.50    1.40
  10  -5   2   -0.80    1.70
  10  -5   2    1.20    1.30
   9   4  -2    5.30    1.40
   9   4  -2    4.90    1.20
   9   4  -2    5.30    1.80
  -9  -4   2    3.90    1.30
  -9  -4   2    4.50    1.60
   8   4  -2    7.30    1.60
   8   4  -2    8.20    1.90
   8   4  -2    9.80    1.60
  -8  -4   2    8.10    1.50
  -8  -4   2    7.10    1.70
   7   4  -2   20.60    2.60
   7   4  -2   22.10    3.10
   7   4  -2   20.70    2.30
  -7  -4   2   20.90    2.50
  -7  -4   2   21.70    2.80
  -7  -4   2   23.20    2.20
   6   4  -2   26.60    2.50
   6   4  -2   26.50    3.00
   6   4  -2   26.10    2.80
  -6  -4   2   24.80    2.70
  -6  -4   2   23.80    2.40
  -6  -4   2   23.00    2.80
   5   4  -2    1.60    0.90
   5   4  -2    1.60    0.60
   5   4  -2    0.90    1.10
  -5  -4   2    1.80    0.70
  -5  -4   2    1.10    1.00
  -5  -4   2    0.30    0.80
   4   4  -2  105.39    8.20
   4   4  -2  102.09    7.90
   4   4  -2  101.29    8.10
  -4  -4   2   98.89    8.10
  -4  -4   2   95.99    8.00
  -4  -4   2  106.09    7.90
   3   4  -2   -0.30    0.30
   3   4  -2   -0.40    0.60
   3   4  -2   -0.20    0.30
   3   4  -2   -0.30    0.50
  -3  -4   2    0.00    0.50
  -3  -4   2   -0.30    0.40
  -3  -4   2   -0.60    0.60
  -3  -4   2    0.50    0.30
   2   4  -2  671.53   46.50
   2   4  -2  597.94   46.50
   2   4  -2  611.04   46.60
   2   4  -2  680.73   46.40
   2   4  -2  637.14   46.40
  -2  -4   2  603.24   46.50
  -2  -4   2  636.44   46.50
  -2  -4   2  586.34   46.60
  -2  -4   2  558.44   46.40
   1   4  -2   28.50    2.60
   1   4  -2   31.90    2.60
   1   4  -2   35.40    2.40
   1   4  -2   26.20    2.50
   1   4  -2   29.40    2.40
   1   4  -2   33.90    2.50
  -1  -4   2   33.60    2.50
  -1  -4   2   26.60    2.60
  -1  -4   2   30.00    2.60
  -1  -4   2   27.40    2.50
  -1  -4   2   34.90    2.40
   0   4  -2    0.50    0.30
   0   4  -2    0.40    0.30
   0   4  -2    0.30    0.20
   0   4  -2    0.30    0.30
   0   4  -2    0.50    0.40
   0   4  -2    0.10    0.30
   0  -4   2    0.50    0.30
   0  -4   2    0.10    0.30
   0  -4   2    0.50    0.30
   0  -4   2    0.30    0.30
   0  -4   2    0.40    0.30
  -1   4  -2  117.59    8.40
  -1   4  -2  108.69    8.70
  -1   4  -2   99.59    8.50
  -1   4  -2  122.09    8.40
   1  -4   2  116.39    8.80
   1  -4   2  109.99    8.40
   1  -4   2   94.99    8.30
   1  -4   2  117.59    8.50
   1  -4   2  108.59    8.50
   1  -4   2  113.99    8.40
  -2   4  -2  115.79    8.10
  -2   4  -2   91.19    8.20
  -2   4  -2  107.89    8.10
  -2   4  -2  102.79    8.40
   2  -4   2   98.69    8.20
   2  -4   2  105.19    8.20
   2  -4   2  106.69    8.50
   2  -4   2  122.89    8.00
   2  -4   2  101.09    8.00
  -3   4  -2  170.38   11.30
  -3   4  -2  137.69   11.70
  -3   4  -2  155.98   11.20
  -3   4  -2  148.19   11.30
  -3   4  -2  123.79   11.40
   3  -4   2  140.59   11.40
   3  -4   2  171.98   11.20
   3  -4   2  152.48   11.30
   3  -4   2  146.19   11.80
   3  -4   2  147.19   11.50
   3  -4   2  138.69   11.20
  -4   4  -2   27.80    2.80
  -4   4  -2   37.90    2.60
  -4   4  -2   30.70    2.50
  -4   4  -2   35.40    2.70
  -4   4  -2   31.30    3.20
  -4   4  -2   27.40    2.60
   4  -4   2   34.30    2.70
   4  -4   2   30.70    2.50
   4  -4   2   31.80    3.20
   4  -4   2   30.20    2.80
   4  -4   2   36.50    2.60
   4  -4   2   32.10    3.00
  -5   4  -2    7.60    1.10
  -5   4  -2    8.00    0.90
  -5   4  -2    5.70    0.80
  -5   4  -2    4.90    1.10
  -5   4  -2    6.50    1.40
   5  -4   2    5.50    1.10
   5  -4   2    7.40    0.80
   5  -4   2    8.60    1.10
   5  -4   2    5.20    1.40
   5  -4   2    8.10    0.90
   5  -4   2    5.80    1.00
   5  -4   2    8.60    0.90
  -6   4  -2  221.38   16.70
  -6   4  -2  243.58   16.60
  -6   4  -2  210.48   17.20
  -6   4  -2  184.88   16.80
   6  -4   2  221.18   16.60
   6  -4   2  219.18   17.00
   6  -4   2  208.38   16.70
   6  -4   2  225.98   16.70
   6  -4   2  242.98   16.60
   6  -4   2  214.18   16.50
   6  -4   2  211.78   17.30
  -7   4  -2   90.79    8.40
  -7   4  -2  100.99    7.90
  -7   4  -2   82.29    8.00
  -7   4  -2  113.89    7.80
   7  -4   2  106.09    8.30
   7  -4   2  115.79    7.80
   7  -4   2  105.19    7.90
   7  -4   2   91.89    7.60
   7  -4   2   92.99    8.60
   7  -4   2   92.79    7.90
  -8   4  -2    1.10    0.50
  -8   4  -2    2.10    1.40
  -8   4  -2    2.90    0.90
  -8   4  -2    1.10    0.80
  -8   4  -2    0.20    1.00
  -8   4  -2    1.00    0.70
   8  -4   2    1.30    0.80
   8  -4   2    0.30    1.20
   8  -4   2    1.30    0.90
   8  -4   2    1.50    0.50
   8  -4   2    1.10    0.90
   8  -4   2    2.00    1.40
  -9   4  -2    7.80    1.50
  -9   4  -2    6.20    1.20
  -9   4  -2    8.50    1.90
  -9   4  -2    7.20    1.30
   9  -4   2    7.70    2.00
   9  -4   2    6.20    1.70
   9  -4   2    6.00    1.30
   9  -4   2    7.40    1.30
   9   3  -2    2.00    1.10
   9   3  -2    3.10    1.10
   9   3  -2    3.20    1.50
  -9  -3   2    1.30    1.10
  -9  -3   2    1.60    1.30
   8   3  -2    0.20    0.70
   8   3  -2    0.20    0.90
   8   3  -2    0.90    1.20
  -8  -3   2    0.10    0.90
  -8  -3   2    2.40    1.20
   7   3  -2    6.90    1.40
   7   3  -2    7.30    1.60
   7   3  -2    7.80    1.40
  -7  -3   2    8.40    1.60
  -7  -3   2    7.90    1.10
  -7  -3   2    8.30    1.40
   6   3  -2  271.47   21.20
   6   3  -2  275.27   21.00
   6   3  -2  282.27   21.40
  -6  -3   2  284.47   20.90
  -6  -3   2  268.17   21.30
  -6  -3   2  276.97   21.10
   5   3  -2    0.70    0.50
   5   3  -2   -1.30    0.80
   5   3  -2    0.40    0.60
   5   3  -2    0.50    0.50
  -5  -3   2    0.60    0.50
  -5  -3   2    0.00    0.80
  -5  -3   2   -0.10    0.60
   4   3  -2   28.70    2.20
   4   3  -2   26.20    2.20
   4   3  -2   23.60    2.40
   4   3  -2   24.00    2.50
  -4  -3   2   23.90    2.40
  -4  -3   2   24.00    2.30
  -4  -3   2   26.00    2.20
   3   3  -2    1.40    0.40
   3   3  -2    2.60    0.40
   3   3  -2    1.70    0.60
   3   3  -2    1.70    0.60
  -3  -3   2    2.00    0.50
  -3  -3   2    2.60    0.70
  -3  -3   2    1.90    0.40
   2   3  -2  719.33   54.89
   2   3  -2  781.92   54.69
   2   3  -2  750.62   54.89
   2   3  -2  740.33   54.79
  -2  -3   2  701.43   54.79
  -2  -3   2  679.53   54.69
  -2  -3   2  720.93   54.79
  -2  -3   2  761.62   54.69
   1   3  -2   18.10    1.30
   1   3  -2   16.70    1.40
   1   3  -2   17.70    1.40
   1   3  -2   15.10    1.40
   1   3  -2   13.90    1.40
  -1  -3   2   15.90    1.40
  -1  -3   2   15.70    1.40
  -1  -3   2   15.00    1.40
  -1  -3   2   13.90    1.40
   0   3  -2  244.68   19.90
   0   3  -2  259.67   19.90
   0   3  -2  294.77   19.90
   0   3  -2  287.17   19.90
   0   3  -2  256.47   19.90
   0   3  -2  263.07   20.10
   0  -3   2  274.47   19.90
   0  -3   2  270.37   19.90
   0  -3   2  261.37   19.90
   0  -3   2  277.17   20.10
   0  -3   2  251.17   20.00
   0  -3   2  250.27   20.00
  -1   3  -2  169.28   12.10
  -1   3  -2  171.18   12.10
  -1   3  -2  162.88   12.30
  -1   3  -2  153.08   12.00
  -1   3  -2  142.59   12.10
   1  -3   2  156.28   12.10
   1  -3   2  168.58   12.30
   1  -3   2  155.98   12.20
   1  -3   2  156.28   12.00
   1  -3   2  165.88   12.10
  -2   3  -2   36.60    3.20
  -2   3  -2   40.40    2.80
  -2   3  -2   29.90    2.90
  -2   3  -2   38.20    2.80
  -2   3  -2   35.60    2.90
   2  -3   2   37.10    2.90
   2  -3   2   36.00    3.20
   2  -3   2   41.10    2.80
   2  -3   2   33.30    3.00
   2  -3   2   34.20    3.00
   2  -3   2   36.20    2.80
  -3   3  -2   19.90    2.20
  -3   3  -2   23.10    1.70
  -3   3  -2   17.90    1.60
  -3   3  -2   17.30    1.80
  -3   3  -2   20.50    1.70
   3  -3   2   24.20    1.70
   3  -3   2   20.50    1.60
   3  -3   2   19.70    1.70
   3  -3   2   21.60    1.80
   3  -3   2   18.80    1.80
   3  -3   2   20.60    2.20
   3  -3   2   19.80    1.90
  -4   3  -2   60.09    4.20
  -4   3  -2   45.40    4.10
  -4   3  -2   48.90    4.40
  -4   3  -2   54.59    4.70
  -4   3  -2   56.69    4.30
   4  -3   2   49.40    4.30
   4  -3   2   59.39    4.20
   4  -3   2   59.99    4.20
   4  -3   2   50.19    4.20
   4  -3   2   56.79    4.80
   4  -3   2   53.69    4.50
   4  -3   2   55.79    4.30
   4  -3   2   55.09    4.20
   4  -3   2   50.79    4.20
  -5   3  -2  100.89    9.00
  -5   3  -2  115.99    9.40
  -5   3  -2  100.09    8.80
  -5   3  -2  100.29    8.80
  -5   3  -2  118.69    8.90
  -5   3  -2  127.59    8.80
   5  -3   2  107.59    8.80
   5  -3   2  118.79    8.70
   5  -3   2  121.19    9.10
   5  -3   2  124.69    8.80
   5  -3   2  113.79    8.90
   5  -3   2  126.49    8.80
   5  -3   2  119.29    9.40
   5  -3   2  106.79    8.90
   5  -3   2  125.09    8.90
  -6   3  -2  130.29   11.20
  -6   3  -2  145.19   11.60
  -6   3  -2  158.88   11.00
  -6   3  -2  126.09   11.00
  -6   3  -2  152.88   11.10
  -6   3  -2  131.39   11.00
  -6   3  -2  133.19   11.00
   6  -3   2  141.69   10.90
   6  -3   2  156.68   11.30
   6  -3   2  135.19   11.00
   6  -3   2  144.99   11.00
   6  -3   2  156.08   11.10
   6  -3   2  159.58   11.00
   6  -3   2  144.39   11.10
   6  -3   2  148.69   11.70
   6  -3   2  131.29   11.10
  -7   3  -2    2.90    1.20
  -7   3  -2    3.90    0.80
  -7   3  -2    4.30    0.70
  -7   3  -2    2.80    0.70
  -7   3  -2    3.20    0.80
  -7   3  -2    0.60    1.10
  -7   3  -2    2.90    0.80
  -7   3  -2    4.40    0.90
   7  -3   2    3.50    0.90
   7  -3   2    1.40    1.10
   7  -3   2    3.20    0.90
   7  -3   2    3.40    0.60
   7  -3   2    2.50    0.70
   7  -3   2    2.80    1.30
   7  -3   2    3.10    0.80
  -8   3  -2    0.20    1.10
  -8   3  -2    0.40    0.70
  -8   3  -2   -1.10    0.40
  -8   3  -2   -0.20    1.00
  -8   3  -2   -0.70    0.80
   8  -3   2   -1.30    0.80
   8  -3   2   -2.20    1.10
   8  -3   2   -0.20    1.20
   8  -3   2   -0.50    0.40
  10   2  -2    8.30    1.70
  10   2  -2   13.90    1.90
  10   2  -2    9.70    2.10
 -10  -2   2    7.60    1.60
 -10  -2   2    9.30    1.80
 -10  -2   2    7.50    1.80
   9   2  -2    3.20    1.00
   9   2  -2    2.80    1.50
   9   2  -2    3.40    1.20
  -9  -2   2    3.30    1.30
  -9  -2   2    3.60    1.20
  -9  -2   2    2.00    1.20
   8   2  -2    3.20    0.90
   8   2  -2    3.20    1.10
   8   2  -2    2.80    1.30
  -8  -2   2    2.80    1.00
  -8  -2   2    2.90    1.20
   7   2  -2    8.60    1.40
   7   2  -2    6.50    1.30
   7   2  -2    7.70    1.70
  -7  -2   2    7.40    1.10
  -7  -2   2    8.40    1.30
  -7  -2   2    8.10    1.50
   6   2  -2    2.70    0.70
   6   2  -2    3.40    0.70
   6   2  -2    1.40    1.10
   6   2  -2    3.30    0.90
  -6  -2   2    2.90    0.90
  -6  -2   2    1.50    1.00
  -6  -2   2    3.30    0.60
   5   2  -2   15.00    1.60
   5   2  -2   11.70    1.80
   5   2  -2   13.40    1.40
   5   2  -2   14.60    1.40
  -5  -2   2   16.10    1.40
  -5  -2   2   11.60    1.70
  -5  -2   2   15.50    1.60
   4   2  -2   63.89    4.40
   4   2  -2   55.19    4.40
   4   2  -2   48.30    4.30
   4   2  -2   55.99    4.60
   4   2  -2   56.19    4.70
  -4  -2   2   60.39    4.40
  -4  -2   2   54.79    4.50
  -4  -2   2   53.99    4.30
  -4  -2   2   62.59    4.30
  -4  -2   2   52.39    4.60
   3   2  -2  349.27   29.40
   3   2  -2  403.16   29.70
   3   2  -2  443.06   29.50
   3   2  -2  402.76   29.50
   3   2  -2  395.06   29.70
  -3  -2   2  388.76   29.60
  -3  -2   2  408.26   29.50
  -3  -2   2  370.26   29.70
  -3  -2   2  382.66   29.40
   2   2  -2  591.64   46.80
   2   2  -2  670.03   46.80
   2   2  -2  612.24   46.70
   2   2  -2  638.14   46.70
   2   2  -2  689.23   46.80
  -2  -2   2  617.44   46.60
  -2  -2   2  549.85   46.70
  -2  -2   2  623.34   46.70
   1   2  -2   54.09    3.80
   1   2  -2   55.39    3.80
   1   2  -2   49.50    3.80
   1   2  -2   46.00    3.80
  -1  -2   2   47.80    3.90
  -1  -2   2   46.00    3.90
   0   2  -2  622.04   46.30
   0   2  -2  688.93   46.40
   0   2  -2  669.83   46.40
   0  -2   2  587.44   46.20
   0  -2   2  567.34   46.30
   0  -2   2  579.24   46.20
  -1   2  -2  278.17   22.20
  -1   2  -2  280.47   22.20
  -1   2  -2  339.77   22.40
   1  -2   2  250.27   22.20
   1  -2   2  336.77   22.20
   1  -2   2  268.77   22.20
   1  -2   2  289.37   22.20
   1  -2   2  327.97   22.40
  -2   2  -2  428.66   34.40
  -2   2  -2  511.15   34.80
  -2   2  -2  441.06   34.50
  -2   2  -2  432.36   34.60
   2  -2   2  457.25   34.50
   2  -2   2  471.65   34.50
   2  -2   2  469.25   34.60
   2  -2   2  422.16   34.40
   2  -2   2  495.25   34.80
   2  -2   2  474.85   34.50
   2  -2   2  469.55   34.60
  -3   2  -2    9.10    0.80
  -3   2  -2    7.50    0.70
  -3   2  -2    5.80    0.90
  -3   2  -2    8.70    0.90
  -3   2  -2    7.80    1.20
   3  -2   2    9.40    0.80
   3  -2   2    7.30    0.80
   3  -2   2    7.30    0.90
   3  -2   2    9.60    1.00
   3  -2   2    8.40    1.20
   3  -2   2    8.10    0.80
   3  -2   2    6.40    0.80
   3  -2   2    8.90    0.80
   3  -2   2    8.50    0.80
  -4   2  -2  840.22   59.79
  -4   2  -2  692.63   59.79
  -4   2  -2  713.83   59.99
  -4   2  -2  841.02   59.89
  -4   2  -2  834.32   60.29
   4  -2   2  823.72   60.29
   4  -2   2  727.33   59.89
   4  -2   2  850.91   59.89
   4  -2   2  860.51   59.89
   4  -2   2  810.12   59.99
   4  -2   2  747.33   59.89
   4  -2   2  831.52   59.79
   4  -2   2  804.82   59.89
   4  -2   2  831.52   59.79
  -5   2  -2  123.09   10.20
  -5   2  -2  135.49   10.10
  -5   2  -2  142.59   10.20
  -5   2  -2  120.79   10.10
  -5   2  -2  126.29   10.10
  -5   2  -2  132.09   10.60
   5  -2   2  141.39   10.10
   5  -2   2  135.09   10.60
   5  -2   2  139.19   10.10
   5  -2   2  138.59   10.20
   5  -2   2  140.99   10.40
   5  -2   2  124.89   10.20
   5  -2   2  116.99   10.20
   5  -2   2  138.09   10.20
   5  -2   2  135.59   10.20
  -6   2  -2    1.10    0.50
  -6   2  -2    0.80    0.70
  -6   2  -2   -0.30    0.40
  -6   2  -2   -0.10    0.60
  -6   2  -2   -0.20    0.40
  -6   2  -2    0.80    0.90
  -6   2  -2    0.70    0.60
  -6   2  -2    0.30    0.50
  -6   2  -2    1.00    0.50
   6  -2   2    0.70    0.80
   6  -2   2    0.40    0.50
   6  -2   2   -0.20    0.40
   6  -2   2    0.80    0.60
   6  -2   2    0.40    0.40
   6  -2   2    0.40    0.50
   6  -2   2    0.10    0.90
   6  -2   2    0.60    0.60
   6  -2   2    0.60    0.60
  -7   2  -2   47.80    3.70
  -7   2  -2   51.69    3.80
  -7   2  -2   45.70    4.50
  -7   2  -2   49.60    3.90
  -7   2  -2   42.10    3.90
  -7   2  -2   39.10    3.90
  -7   2  -2   50.09    3.90
  -7   2  -2   42.10    4.00
  -7   2  -2   43.80    3.90
   7  -2   2   42.40    3.70
   7  -2   2   44.10    4.00
   7  -2   2   49.99    3.90
   7  -2   2   52.79    3.90
   7  -2   2   48.70    3.90
   7  -2   2   39.20    4.00
   7  -2   2   47.70    4.60
   7  -2   2   50.79    4.20
   7  -2   2   42.80    3.90
  -8   2  -2   11.10    1.90
  -8   2  -2   15.60    1.50
  -8   2  -2   16.20    2.70
  -8   2  -2   16.10    1.80
  -8   2  -2   15.40    2.20
  -8   2  -2   12.00    1.70
  -8   2  -2   15.70    1.80
   8  -2   2   15.10    1.50
   8  -2   2   15.30    1.80
   8  -2   2   13.40    1.80
   8  -2   2   14.70    1.90
  10   1  -2   -0.70    0.90
  10   1  -2   -0.90    1.20
  10   1  -2   -0.20    0.80
 -10  -1   2   -0.70    1.10
 -10  -1   2    0.30    0.90
 -10  -1   2   -0.80    1.00
   9   1  -2   30.10    2.80
   9   1  -2   31.20    3.20
   9   1  -2   30.60    3.40
  -9  -1   2   24.80    3.10
  -9  -1   2   25.30    3.10
  -9  -1   2   27.20    2.90
   8   1  -2   22.40    2.20
   8   1  -2   21.70    2.70
   8   1  -2   23.40    2.60
  -8  -1   2   18.60    2.50
  -8  -1   2   17.90    2.60
  -8  -1   2   23.60    2.40
   7   1  -2   48.90    4.50
   7   1  -2   53.39    4.20
   7   1  -2   47.10    4.10
   7   1  -2   52.59    4.30
   7   1  -2   47.60    4.40
  -7  -1   2   49.50    4.20
  -7  -1   2   50.49    4.40
  -7  -1   2   44.40    4.40
   6   1  -2    5.00    1.10
   6   1  -2    7.00    1.10
   6   1  -2    6.50    1.00
   6   1  -2    7.50    1.10
   6   1  -2    5.70    1.20
  -6  -1   2    6.10    1.00
  -6  -1   2    8.10    0.90
  -6  -1   2    6.30    1.20
   5   1  -2   62.49    5.70
   5   1  -2   79.99    5.80
   5   1  -2   76.29    6.00
   5   1  -2   78.19    5.90
   5   1  -2   72.39    6.00
   5   1  -2   72.49    5.80
  -5  -1   2   69.39    6.00
  -5  -1   2   72.99    5.90
  -5  -1   2   75.79    5.80
  -5  -1   2   72.19    5.70
  -5  -1   2   80.19    5.70
   4   1  -2   13.30    1.30
   4   1  -2   12.80    1.20
   4   1  -2   10.70    1.50
   4   1  -2   12.00    1.30
   4   1  -2   12.80    1.40
   4   1  -2   14.60    1.10
  -4  -1   2   13.70    1.10
  -4  -1   2   11.50    1.20
  -4  -1   2   14.40    1.10
  -4  -1   2   11.80    1.30
  -4  -1   2   10.60    1.40
   3   1  -2  263.27   19.50
   3   1  -2  276.87   19.40
   3   1  -2  258.57   19.60
   3   1  -2  229.68   19.40
   3   1  -2  273.47   19.60
  -3  -1   2  253.27   19.50
  -3  -1   2  255.47   19.40
  -3  -1   2  275.27   19.40
  -3  -1   2  242.38   19.50
  -3  -1   2  259.07   19.40
   2   1  -2    1.40    0.30
   2   1  -2    1.00    0.20
   2   1  -2    1.00    0.20
   2   1  -2    0.90    0.40
   2   1  -2    0.90    0.20
   2   1  -2    0.60    0.30
  -2  -1   2    1.40    0.30
  -2  -1   2    0.50    0.30
  -2  -1   2    1.00    0.20
  -1  -1   2    2.00    0.30
   0   1  -2  951.50   68.39
   0   1  -2  878.11   68.29
   0  -1   2  904.21   68.29
  -1   1  -2  100.39    8.90
   1  -1   2  133.79    8.90
   1  -1   2  132.19    9.10
   1  -1   2  103.59    8.90
   1  -1   2  122.19    8.90
  -2   1  -2   12.30    1.10
  -2   1  -2   10.90    1.10
   2  -1   2   13.40    1.30
   2  -1   2   12.10    1.10
   2  -1   2   13.70    1.10
   2  -1   2   11.60    1.00
   2  -1   2   12.20    1.00
   2  -1   2   12.70    1.00
   2  -1   2   11.00    1.10
   2  -1   2   11.80    1.00
   2  -1   2   11.90    1.10
  -3   1  -2    0.50    0.20
  -3   1  -2    0.00    0.20
  -3   1  -2    0.10    0.30
  -3   1  -2   -0.20    0.30
   3  -1   2    0.20    0.20
   3  -1   2   -0.10    0.30
   3  -1   2    0.40    0.50
   3  -1   2    0.30    0.30
   3  -1   2    0.20    0.30
   3  -1   2    0.00    0.40
   3  -1   2    0.10    0.30
   3  -1   2    0.30    0.30
   3  -1   2    0.50    0.20
  -4   1  -2  177.68   13.10
  -4   1  -2  160.38   13.20
  -4   1  -2  175.18   13.10
  -4   1  -2  174.48   13.00
  -4   1  -2  167.08   13.00
   4  -1   2  176.78   13.10
   4  -1   2  187.08   13.10
   4  -1   2  171.18   13.10
   4  -1   2  178.98   13.10
   4  -1   2  179.98   13.20
   4  -1   2  165.88   13.20
   4  -1   2  159.98   13.20
   4  -1   2  177.38   13.40
   4  -1   2  173.18   13.10
  -5   1  -2    0.10    0.30
  -5   1  -2    0.30    0.40
  -5   1  -2    0.00    0.60
  -5   1  -2   -0.50    0.30
  -5   1  -2    0.20    0.50
  -5   1  -2   -0.50    0.40
   5  -1   2    0.10    0.60
   5  -1   2   -0.30    0.40
   5  -1   2   -0.20    0.40
   5  -1   2    1.00    0.50
   5  -1   2    0.00    0.40
   5  -1   2   -0.30    0.50
   5  -1   2   -0.30    0.40
   5  -1   2   -0.20    0.30
   5  -1   2    0.20    0.30
  -6   1  -2   14.50    1.90
  -6   1  -2   14.70    1.70
  -6   1  -2   14.50    1.40
  -6   1  -2   13.00    1.60
  -6   1  -2   13.70    1.50
  -6   1  -2   13.30    1.50
  -6   1  -2   16.60    1.50
   6  -1   2   14.90    1.50
   6  -1   2   14.20    1.60
   6  -1   2   14.50    1.60
   6  -1   2   16.80    1.80
   6  -1   2   15.40    2.00
   6  -1   2   15.10    1.50
   6  -1   2   14.10    1.40
   6  -1   2   15.20    1.60
   6  -1   2   11.20    1.70
  -7   1  -2    3.20    0.80
  -7   1  -2    3.30    0.80
  -7   1  -2    4.50    0.80
  -7   1  -2    4.60    1.10
  -7   1  -2    3.50    0.70
  -7   1  -2    4.30    1.20
  -7   1  -2    2.60    0.80
  -7   1  -2    2.70    0.90
   7  -1   2    3.70    1.20
   7  -1   2    2.30    0.90
   7  -1   2    3.20    0.70
   7  -1   2    4.20    0.80
   7  -1   2    3.20    0.80
   7  -1   2    2.50    1.00
   7  -1   2    4.50    0.90
  -8   1  -2    7.30    1.20
  -8   1  -2    6.30    1.20
  -8   1  -2    5.10    1.20
  -8   1  -2    6.30    0.90
   8  -1   2    6.40    0.90
   8  -1   2    5.70    1.10
   8  -1   2    6.60    1.20
   8  -1   2    6.20    1.30
  -9   1  -2    3.00    1.50
  -9   1  -2    1.50    0.90
  -9   1  -2    0.60    0.90
   9  -1   2    2.30    0.90
   9  -1   2    1.80    1.00
 -10   1  -2    0.50    1.00
  10  -1   2    1.60    1.80
  10   0  -2    0.40    1.30
  10   0  -2   -0.70    0.90
  10   0  -2    0.60    0.80
 -10   0   2    0.20    1.00
 -10   0   2    0.20    1.10
 -10   0   2    0.70    0.80
   9   0  -2    7.10    1.60
   9   0  -2    5.80    1.40
   9   0  -2    9.00    1.50
  -9   0   2    7.40    1.20
  -9   0   2    7.70    1.50
  -9   0   2    6.70    1.40
   8   0  -2   10.30    1.80
   8   0  -2    8.60    1.60
   8   0  -2    6.90    1.30
   8   0  -2    8.70    1.30
   8   0  -2   10.20    1.40
  -8   0   2    7.90    1.30
  -8   0   2   10.10    1.80
  -8   0   2    6.50    1.50
   7   0  -2   99.49    7.60
   7   0  -2   83.59    7.40
   7   0  -2  103.49    7.50
   7   0  -2   96.69    7.70
   7   0  -2   93.09    7.70
  -7   0   2   95.29    7.50
  -7   0   2   94.69    7.60
  -7   0   2   89.59    7.60
   6   0  -2   29.60    2.60
   6   0  -2   31.30    2.70
   6   0  -2   29.30    2.50
   6   0  -2   28.00    2.80
   6   0  -2   27.00    2.80
   6   0  -2   32.40    2.40
   6   0  -2   25.10    2.60
  -6   0   2   27.70    2.70
  -6   0   2   28.70    2.60
  -6   0   2   30.30    2.70
  -6   0   2   31.40    2.40
  -6   0   2   30.00    2.70
   5   0  -2   12.80    1.20
   5   0  -2   12.40    1.30
   5   0  -2   10.20    1.00
   5   0  -2   12.10    1.20
   5   0  -2   11.50    1.50
   5   0  -2   12.00    1.30
   5   0  -2   12.70    1.10
   5   0  -2   10.00    1.30
  -5   0   2    9.40    1.40
  -5   0   2   13.40    1.10
  -5   0   2   10.20    1.20
  -5   0   2   11.00    1.40
  -5   0   2   11.20    1.00
  -5   0   2   12.50    1.30
   4   0  -2   36.60    2.90
   4   0  -2   30.80    2.70
   4   0  -2   35.00    2.80
   4   0  -2   39.80    2.70
   4   0  -2   35.90    2.80
   4   0  -2   34.40    2.80
   4   0  -2   33.00    2.90
   4   0  -2   29.20    2.80
  -4   0   2   34.10    2.80
  -4   0   2   32.40    2.90
  -4   0   2   33.90    2.90
  -4   0   2   35.00    2.90
  -4   0   2   39.00    2.70
   3   0  -2    0.00    0.10
   3   0  -2    0.10    0.20
   3   0  -2   -0.20    0.30
   3   0  -2   -0.20    0.20
  -3   0   2   -0.30    0.30
  -3   0   2    0.10    0.10
  -3   0   2   -0.30    0.20
  -3   0   2   -0.10    0.20
  -3   0   2   -0.20    0.20
   2   0  -2  132.29   10.10
   2   0  -2  153.38   10.20
   2   0  -2  134.59   10.20
  -2   0   2  116.99   10.20
  -2   0   2  135.29   10.20
   1   0  -2  759.42   54.49
   1   0  -2  688.83   54.39
   0   0  -2  194.98   14.60
  -1   0  -2  116.39    9.30
  -1   0  -2  135.19    9.30
   1   0   2  117.89    9.30
   1   0   2  106.69    9.30
   1   0   2  130.79    9.30
   1   0   2  120.19    9.30
   1   0   2  127.29    9.30
  -2   0  -2  203.58   13.90
  -2   0  -2  154.78   13.80
  -2   0  -2  192.58   13.80
   2   0   2  167.88   13.90
   2   0   2  162.08   13.80
   2   0   2  184.08   13.90
   2   0   2  176.28   13.80
   2   0   2  188.58   13.80
   2   0   2  175.58   13.80
   2   0   2  206.28   13.90
   2   0   2  212.98   14.00
  -3   0  -2  146.89   10.30
  -3   0  -2  133.29   10.30
  -3   0  -2  137.69   10.30
  -3   0  -2  137.69   10.30
   3   0   2  152.58   10.40
   3   0   2  131.69   10.30
   3   0   2  135.59   10.30
   3   0   2  141.19   10.50
   3   0   2  136.29   10.30
   3   0   2  134.59   10.40
   3   0   2  117.79   10.40
   3   0   2  119.39   10.40
   3   0   2  147.99   10.30
  -4   0  -2   -0.20    0.30
  -4   0  -2    0.20    0.40
  -4   0  -2   -0.10    0.30
  -4   0  -2    0.00    0.20
  -4   0  -2   -0.20    0.40
   4   0   2    0.00    0.30
   4   0   2    0.00    0.20
   4   0   2    0.00    0.40
   4   0   2    0.80    0.30
   4   0   2    0.10    0.50
   4   0   2    0.00    0.30
   4   0   2    0.20    0.40
   4   0   2    0.20    0.40
   4   0   2   -0.10    0.30
  -5   0  -2   53.09    4.40
  -5   0  -2   53.59    4.20
  -5   0  -2   58.09    4.30
  -5   0  -2   54.69    4.30
  -5   0  -2   54.29    4.30
   5   0   2   53.89    4.60
   5   0   2   48.40    4.40
   5   0   2   58.09    4.30
   5   0   2   47.70    4.50
   5   0   2   52.49    4.20
   5   0   2   56.29    4.30
   5   0   2   54.09    4.30
   5   0   2   50.29    4.40
   5   0   2   62.79    4.40
  -6   0  -2    7.00    1.10
  -6   0  -2    8.60    1.60
  -6   0  -2   10.20    1.10
  -6   0  -2    8.90    1.00
  -6   0  -2    8.50    1.50
   6   0   2   10.70    1.10
   6   0   2    8.10    1.00
   6   0   2    8.00    1.10
   6   0   2    8.60    1.60
   6   0   2    7.80    1.30
   6   0   2    7.30    1.10
   6   0   2    6.80    1.30
  -7   0  -2   87.09    6.50
  -7   0  -2   72.99    6.80
  -7   0  -2   83.79    6.80
   7   0   2   84.69    6.80
   7   0   2   91.89    6.60
   7   0   2   84.29    6.50
   7   0   2   82.29    6.80
   7   0   2   82.39    6.90
  -8   0  -2    5.60    0.80
  -8   0  -2    3.30    1.20
  -8   0  -2    6.30    1.10
   8   0   2    4.60    1.20
   8   0   2    5.70    1.20
   8   0   2    5.30    1.10
   8   0   2    5.20    0.80
  -9   0  -2   11.80    1.90
  -9   0  -2   12.60    1.90
  -9   0  -2   13.10    1.60
  -9   0  -2    8.40    1.60
   9   0   2   13.60    1.90
   9   0   2   13.00    1.90
   9   0   2   14.00    2.10
 -10   0  -2    4.20    1.30
 -10   0  -2    2.20    1.10
  10   0   2    3.30    1.40
  10  -1  -2    0.80    0.80
  10  -1  -2    0.50    1.20
  10  -1  -2    1.90    1.30
 -10   1   2    1.30    0.80
 -10   1   2    0.10    1.00
 -10   1   2    0.00    1.10
   9  -1  -2    4.00    1.20
   9  -1  -2    5.50    1.40
   9  -1  -2    4.60    1.20
   9  -1  -2    4.00    0.90
  -9   1   2    4.20    1.00
  -9   1   2    3.70    1.20
  -9   1   2    3.40    1.20
   8  -1  -2   15.60    1.80
   8  -1  -2   15.30    2.00
   8  -1  -2   18.70    2.30
   8  -1  -2   15.50    2.20
   8  -1  -2   16.80    2.20
  -8   1   2   15.50    2.10
  -8   1   2   14.40    2.10
  -8   1   2   14.90    1.80
  -8   1   2   15.30    1.80
   7  -1  -2    1.00    0.70
   7  -1  -2    0.80    0.60
   7  -1  -2    1.80    1.00
   7  -1  -2    0.90    0.80
   7  -1  -2    0.50    0.70
   7  -1  -2    1.30    0.80
  -7   1   2    1.40    0.80
  -7   1   2    2.50    0.80
  -7   1   2    1.80    0.60
   6  -1  -2    1.20    0.50
   6  -1  -2    0.90    0.60
   6  -1  -2    1.30    0.60
   6  -1  -2    0.60    0.60
   6  -1  -2    1.40    0.60
   6  -1  -2    1.10    0.40
   6  -1  -2    1.80    0.70
   6  -1  -2    1.50    0.30
  -6   1   2    1.50    0.70
  -6   1   2    1.70    0.30
  -6   1   2    1.90    0.50
  -6   1   2    1.70    0.60
  -6   1   2    1.80    0.70
   5  -1  -2   14.00    1.30
   5  -1  -2   15.00    1.60
   5  -1  -2   14.60    1.40
   5  -1  -2   16.50    1.40
   5  -1  -2   16.70    1.20
   5  -1  -2   11.40    1.20
   5  -1  -2   12.30    1.50
   5  -1  -2   14.00    1.50
  -5   1   2   13.40    1.70
  -5   1   2   12.30    1.50
  -5   1   2   15.50    1.20
  -5   1   2   13.50    1.50
  -5   1   2   14.70    1.40
   4  -1  -2   33.40    2.70
   4  -1  -2   32.20    2.80
   4  -1  -2   34.60    2.70
   4  -1  -2   33.80    2.80
   4  -1  -2   27.30    2.80
   4  -1  -2   38.70    2.60
   4  -1  -2   35.60    2.70
  -4   1   2   30.30    2.80
  -4   1   2   31.50    2.70
  -4   1   2   32.70    2.90
  -4   1   2   34.40    2.70
   3  -1  -2   12.00    1.10
   3  -1  -2   11.60    1.00
   3  -1  -2   10.90    1.00
   3  -1  -2   10.10    1.10
  -3   1   2   12.10    1.10
  -3   1   2   11.10    1.20
  -3   1   2   10.40    1.00
  -3   1   2   11.10    1.00
   2  -1  -2 4880.71  403.06
   2  -1  -2 5536.55  403.26
   2  -1  -2 5408.26  403.76
  -2   1   2 5786.82  408.66
   1  -1  -2  737.33   50.69
   1  -1  -2  707.53   50.49
  -1   1   2  584.64   50.59
   0  -1  -2  995.90   71.19
   0  -1  -2  879.81   71.39
   0   1   2  978.70   71.39
  -1  -1  -2   72.69    5.00
  -1  -1  -2   64.59    4.90
   1   1   2   64.59    4.90
   1   1   2   65.29    5.00
   1   1   2   61.99    5.00
   1   1   2   65.19    4.90
   1   1   2   59.59    5.00
  -2  -1  -2    8.00    0.80
  -2  -1  -2    9.40    0.80
  -2  -1  -2    9.20    0.80
   2   1   2    8.40    0.80
   2   1   2    8.00    0.90
   2   1   2    7.60    0.90
   2   1   2    6.70    0.90
   2   1   2   10.00    1.00
   2   1   2    9.50    0.80
  -3  -1  -2   57.39    4.60
  -3  -1  -2   56.19    4.50
  -3  -1  -2   54.79    4.40
  -3  -1  -2   66.09    4.50
   3   1   2   58.99    4.40
   3   1   2   50.59    4.50
   3   1   2   61.49    4.40
   3   1   2   68.09    4.70
   3   1   2   55.49    4.50
   3   1   2   51.19    4.60
   3   1   2   54.19    4.60
  -4  -1  -2   89.69    7.00
  -4  -1  -2   97.49    7.00
  -4  -1  -2   88.29    7.10
  -4  -1  -2  104.89    7.10
   4   1   2   95.79    7.00
   4   1   2   93.19    7.20
   4   1   2   87.39    7.10
   4   1   2   82.59    7.10
   4   1   2   90.49    7.00
   4   1   2   84.69    7.20
   4   1   2   92.79    7.00
  -5  -1  -2  108.69    8.10
  -5  -1  -2  104.49    8.30
   5   1   2  107.79    8.10
   5   1   2  113.69    8.10
   5   1   2   99.59    8.30
   5   1   2   98.79    8.40
   5   1   2  105.29    8.30
   5   1   2  106.39    8.40
  -6  -1  -2   -1.00    0.60
  -6  -1  -2   -0.50    0.40
  -6  -1  -2    0.20    0.50
   6   1   2   -0.70    0.40
   6   1   2    0.30    0.60
   6   1   2   -1.40    0.60
   6   1   2   -0.20    0.50
   6   1   2   -1.50    0.70
  -7  -1  -2   -0.80    0.90
  -7  -1  -2    1.30    0.50
  -7  -1  -2    1.60    0.80
   7   1   2    0.30    0.70
   7   1   2    1.30    0.80
   7   1   2    1.00    0.90
   7   1   2    1.50    0.60
  -8  -1  -2    0.80    0.80
  -8  -1  -2    0.30    1.00
  -8  -1  -2    1.00    0.50
   8   1   2    1.60    0.90
   8   1   2    0.70    0.90
   8   1   2    0.60    0.70
   8   1   2    0.50    0.60
  -9  -1  -2    5.40    1.00
  -9  -1  -2    5.70    1.30
  -9  -1  -2    5.40    1.30
   9   1   2    7.20    1.50
   9   1   2    7.00    1.30
   9   1   2    6.40    1.30
  11  -2  -2   -0.50    1.20
  11  -2  -2    0.60    1.00
 -11   2   2    1.10    1.00
 -11   2   2   -0.90    1.10
  10  -2  -2    6.80    1.20
  10  -2  -2    4.50    1.40
  10  -2  -2    6.70    1.40
 -10   2   2    5.30    1.20
 -10   2   2    5.80    1.40
 -10   2   2    6.10    1.10
   9  -2  -2   15.50    2.30
   9  -2  -2   19.50    2.60
   9  -2  -2   15.30    2.20
   9  -2  -2   17.20    1.90
  -9   2   2   14.30    2.20
  -9   2   2   14.20    1.90
  -9   2   2   14.00    2.30
   8  -2  -2    3.90    0.90
   8  -2  -2    3.10    1.00
   8  -2  -2    2.80    1.00
   8  -2  -2    3.90    1.10
   8  -2  -2    3.10    1.10
  -8   2   2    4.00    1.00
  -8   2   2    3.00    1.00
  -8   2   2    4.30    0.90
   7  -2  -2   57.49    4.60
   7  -2  -2   53.49    4.40
   7  -2  -2   49.40    4.70
   7  -2  -2   53.79    4.50
   7  -2  -2   58.69    4.60
   7  -2  -2   46.50    4.30
  -7   2   2   53.09    4.30
  -7   2   2   54.89    4.50
  -7   2   2   56.19    4.90
  -7   2   2   52.09    4.50
   6  -2  -2   13.50    1.50
   6  -2  -2   10.10    1.20
   6  -2  -2   12.60    1.60
   6  -2  -2   14.00    1.40
   6  -2  -2   12.20    1.50
   6  -2  -2   11.50    1.30
   6  -2  -2   13.50    1.60
  -6   2   2   13.50    1.90
  -6   2   2   13.80    1.50
  -6   2   2   13.70    1.30
  -6   2   2   12.20    1.30
  -6   2   2   16.00    1.20
  -6   2   2   12.90    1.50
   5  -2  -2  285.27   21.30
   5  -2  -2  265.97   21.20
   5  -2  -2  251.37   21.40
   5  -2  -2  306.87   21.20
   5  -2  -2  308.47   21.30
   5  -2  -2  272.07   21.30
   5  -2  -2  318.77   21.10
  -5   2   2  275.57   21.30
  -5   2   2  281.07   21.60
  -5   2   2  263.67   21.20
  -5   2   2  286.57   21.20
  -5   2   2  262.37   21.20
   4  -2  -2   57.09    5.00
   4  -2  -2   69.29    4.70
   4  -2  -2   61.69    4.90
   4  -2  -2   64.69    4.90
   4  -2  -2   59.29    4.80
  -4   2   2   66.99    5.20
  -4   2   2   58.29    4.80
  -4   2   2   67.69    4.80
  -4   2   2   57.79    4.80
  -4   2   2   57.49    4.80
   3  -2  -2  301.67   21.50
   3  -2  -2  297.97   21.70
   3  -2  -2  249.97   21.50
   3  -2  -2  276.17   21.40
   3  -2  -2  297.67   21.50
  -3   2   2  278.67   21.50
  -3   2   2  287.17   21.50
  -3   2   2  322.57   21.80
  -3   2   2  268.27   21.50
   2  -2  -2 2436.46  176.48
   2  -2  -2 2196.48  175.78
   2  -2  -2 2438.26  176.18
  -2   2   2 2415.06  176.18
  -2   2   2 2285.67  176.08
   1  -2  -2 7608.14  576.74
   1  -2  -2 7879.41  576.74
  -1   2   2 7477.95  577.44
  -1   2   2 8266.07  582.84
  -1   2   2 7373.16  582.74
   0  -2  -2   50.29    3.70
   0  -2  -2   50.49    3.70
   0  -2  -2   50.99    3.70
   0  -2  -2   40.20    3.70
   0   2   2   42.40    3.60
   0   2   2   52.19    3.70
   0   2   2   53.19    3.70
   0   2   2   47.20    3.60
   0   2   2   41.20    3.60
  -1  -2  -2  122.79    8.60
  -1  -2  -2  113.99    8.60
  -1  -2  -2  109.59    8.70
  -1  -2  -2  121.99    8.70
   1   2   2  114.19    8.70
   1   2   2  110.39    8.70
   1   2   2  111.49    8.60
   1   2   2  108.49    8.70
  -2  -2  -2   79.19    6.40
  -2  -2  -2   92.39    6.40
  -2  -2  -2   86.09    6.30
   2   2   2   83.59    6.40
   2   2   2   75.49    6.40
   2   2   2   86.79    6.30
   2   2   2   80.99    6.30
   2   2   2   78.29    6.50
  -3  -2  -2  103.29    7.00
  -3  -2  -2   89.29    7.10
  -3  -2  -2   91.89    7.00
   3   2   2   93.79    6.90
   3   2   2   88.99    7.00
   3   2   2   95.79    6.90
   3   2   2   87.39    7.10
   3   2   2   80.79    7.10
   3   2   2   86.19    7.20
  -4  -2  -2  338.57   22.80
  -4  -2  -2  281.17   22.90
  -4  -2  -2  306.77   22.80
   4   2   2  274.47   23.00
   4   2   2  277.37   22.90
   4   2   2  305.57   22.80
   4   2   2  315.97   22.80
   4   2   2  331.97   23.00
   4   2   2  290.47   22.90
  -5  -2  -2   99.49    7.40
  -5  -2  -2   87.69    7.50
   5   2   2   89.59    7.60
   5   2   2   89.59    7.70
   5   2   2   94.99    7.60
   5   2   2  100.69    7.40
   5   2   2  104.69    7.40
  -6  -2  -2    5.90    1.10
  -6  -2  -2    6.20    0.90
  -6  -2  -2    7.10    1.30
   6   2   2    5.40    1.10
   6   2   2    5.20    1.10
   6   2   2    8.30    1.20
   6   2   2    4.40    1.30
  -7  -2  -2    6.60    0.90
  -7  -2  -2    5.80    1.30
  -7  -2  -2    6.20    1.20
   7   2   2    5.90    1.20
   7   2   2    5.90    1.40
   7   2   2    7.20    1.20
  -8  -2  -2   14.20    2.10
  -8  -2  -2   14.90    2.40
  -8  -2  -2   15.70    1.70
   8   2   2   14.90    2.10
   8   2   2   16.20    2.50
   8   2   2   15.50    2.10
  -9  -2  -2    2.80    1.30
  -9  -2  -2    3.40    0.80
  -9  -2  -2    3.70    1.10
   9   2   2    2.20    1.10
   9   2   2    3.30    1.40
   9   2   2    3.90    1.20
  11  -3  -2   -2.00    1.20
  11  -3  -2    0.10    0.90
  11  -3  -2   -1.20    1.10
 -11   3   2   -2.10    1.00
 -11   3   2    0.60    0.90
 -11   3   2   -1.30    1.00
  10  -3  -2   21.30    2.80
  10  -3  -2   23.00    2.70
  10  -3  -2   21.50    2.40
 -10   3   2   21.40    2.70
 -10   3   2   16.60    2.40
 -10   3   2   23.40    2.40
   9  -3  -2   55.79    5.10
   9  -3  -2   55.39    4.80
   9  -3  -2   53.59    4.70
   9  -3  -2   51.39    4.50
  -9   3   2   52.39    4.50
  -9   3   2   49.90    4.60
  -9   3   2   51.79    4.70
   8  -3  -2    1.90    0.90
   8  -3  -2    0.80    0.90
   8  -3  -2    1.80    0.70
   8  -3  -2    1.70    1.00
  -8   3   2    3.70    1.30
  -8   3   2    2.40    0.90
  -8   3   2    1.60    0.70
  -8   3   2    0.40    0.80
  -8   3   2    1.50    0.80
   7  -3  -2    2.10    0.90
   7  -3  -2    2.70    0.60
   7  -3  -2    2.80    0.70
   7  -3  -2    3.70    1.00
   7  -3  -2    2.60    0.80
  -7   3   2    3.30    0.80
  -7   3   2    3.00    0.80
  -7   3   2    3.20    0.70
  -7   3   2    3.30    1.20
   6  -3  -2   54.79    4.40
   6  -3  -2   59.19    4.50
   6  -3  -2   55.59    4.30
   6  -3  -2   48.80    4.70
  -6   3   2   53.29    4.30
  -6   3   2   54.39    4.40
  -6   3   2   49.50    4.30
  -6   3   2   56.39    4.90
   5  -3  -2  102.59    7.00
   5  -3  -2   74.99    7.00
   5  -3  -2   97.39    6.80
   5  -3  -2   83.39    7.20
   5  -3  -2   94.29    7.00
   5  -3  -2   90.89    6.90
  -5   3   2   87.99    7.00
  -5   3   2   89.69    6.90
  -5   3   2   82.99    6.90
  -5   3   2   96.99    7.50
   4  -3  -2  308.37   26.80
   4  -3  -2  366.56   26.80
   4  -3  -2  375.76   26.80
   4  -3  -2  344.17   26.60
   4  -3  -2  344.07   27.00
  -4   3   2  362.06   26.80
  -4   3   2  341.87   26.70
  -4   3   2  364.46   26.80
  -4   3   2  403.16   27.20
   3  -3  -2  181.18   15.80
   3  -3  -2  184.58   16.00
   3  -3  -2  202.28   16.10
   3  -3  -2  236.28   15.90
   3  -3  -2  205.38   15.90
  -3   3   2  217.98   15.90
  -3   3   2  235.38   16.30
  -3   3   2  223.28   15.80
  -3   3   2  211.18   15.90
   2  -3  -2   27.30    2.40
   2  -3  -2   25.20    2.20
   2  -3  -2   27.20    2.40
   2  -3  -2   25.70    2.20
  -2   3   2   32.10    2.60
  -2   3   2   23.80    2.20
  -2   3   2   29.70    2.20
  -2   3   2   27.80    2.20
   1  -3  -2   34.30    2.90
   1  -3  -2   38.40    2.80
   1  -3  -2   35.90    2.90
   1  -3  -2   31.90    2.70
   1  -3  -2   36.90    2.70
  -1   3   2   35.40    2.70
  -1   3   2   38.90    2.80
  -1   3   2   30.50    2.70
  -1   3   2   34.40    2.70
   0  -3  -2    1.90    0.50
   0  -3  -2    2.20    0.40
   0  -3  -2    3.00    0.30
   0  -3  -2    2.50    0.50
   0  -3  -2    3.70    0.50
   0   3   2    2.50    0.40
   0   3   2    3.30    0.50
   0   3   2    3.30    0.60
   0   3   2    2.50    0.30
   0   3   2    2.00    0.40
   0   3   2    4.10    0.90
  -1  -3  -2  127.99    9.70
  -1  -3  -2  122.09    9.60
  -1  -3  -2  129.29    9.60
  -1  -3  -2  124.49    9.70
   1   3   2  131.39    9.70
   1   3   2  127.19    9.70
   1   3   2  125.89    9.70
   1   3   2  127.89    9.60
  -2  -3  -2  273.07   20.30
  -2  -3  -2  284.17   20.40
  -2  -3  -2  259.57   20.40
  -2  -3  -2  266.37   20.20
   2   3   2  269.37   20.40
   2   3   2  255.57   20.40
   2   3   2  263.67   20.40
   2   3   2  285.07   20.30
  -3  -3  -2   17.30    1.60
  -3  -3  -2   18.00    1.60
  -3  -3  -2   16.80    1.50
   3   3   2   14.70    1.60
   3   3   2   13.50    1.70
   3   3   2   15.50    1.60
   3   3   2   16.60    1.40
  -4  -3  -2  263.27   18.40
  -4  -3  -2  235.98   18.40
  -4  -3  -2  221.68   18.50
   4   3   2  235.38   18.50
   4   3   2  226.28   18.50
   4   3   2  258.07   18.40
   4   3   2  272.67   18.60
   4   3   2  227.78   18.60
  -5  -3  -2    5.40    0.80
  -5  -3  -2    4.20    1.00
   5   3   2    4.40    1.00
   5   3   2    3.50    1.00
   5   3   2    5.90    0.90
   5   3   2    4.50    1.20
  -6  -3  -2   84.09    6.80
  -6  -3  -2   84.29    6.60
   6   3   2   86.09    6.90
   6   3   2   82.59    7.10
   6   3   2   79.69    6.90
   6   3   2   87.39    6.80
  -7  -3  -2    0.70    1.00
  -7  -3  -2    0.80    0.80
  -7  -3  -2    0.40    0.60
   7   3   2    0.30    0.80
   7   3   2    0.60    0.80
   7   3   2    0.20    1.00
  -8  -3  -2   16.50    1.90
  -8  -3  -2   17.80    2.30
  -8  -3  -2   17.20    2.60
   8   3   2   19.00    2.40
   8   3   2   18.50    2.40
   8   3   2   18.60    2.70
  10  -4  -2    4.00    1.10
  10  -4  -2    4.30    1.60
  10  -4  -2    3.90    1.30
  10  -4  -2    3.50    1.40
 -10   4   2    3.00    1.10
 -10   4   2    4.50    1.10
 -10   4   2    4.00    1.30
   9  -4  -2    2.20    1.10
   9  -4  -2    2.50    0.90
   9  -4  -2    0.00    1.00
   9  -4  -2    2.40    1.30
  -9   4   2   -0.10    0.90
  -9   4   2    1.30    1.00
  -9   4   2    2.10    0.90
  -9   4   2    4.70    1.70
   8  -4  -2    8.20    1.40
   8  -4  -2   11.00    1.60
   8  -4  -2   12.80    2.10
   8  -4  -2    8.70    1.40
  -8   4   2   14.40    2.50
  -8   4   2   10.30    1.60
  -8   4   2   10.80    1.60
  -8   4   2    7.20    1.30
   7  -4  -2   12.40    2.00
   7  -4  -2   10.50    1.70
   7  -4  -2   14.10    1.50
   7  -4  -2   10.50    1.50
  -7   4   2   11.10    1.60
  -7   4   2   14.40    2.30
  -7   4   2   14.80    1.50
  -7   4   2   12.30    1.50
   6  -4  -2    7.40    1.00
   6  -4  -2    5.10    1.20
   6  -4  -2    6.10    1.10
   6  -4  -2    8.20    1.30
  -6   4   2    7.80    1.00
  -6   4   2    5.50    0.90
  -6   4   2    8.20    1.00
  -6   4   2    6.50    1.50
   5  -4  -2    8.10    1.10
   5  -4  -2    7.60    0.80
   5  -4  -2    8.10    1.40
   5  -4  -2    7.90    1.20
   5  -4  -2    9.60    1.00
  -5   4   2    8.30    1.00
  -5   4   2    8.50    1.10
  -5   4   2    9.20    1.00
  -5   4   2    7.60    0.90
  -5   4   2    8.60    1.70
   4  -4  -2  613.94   51.39
   4  -4  -2  604.34   51.19
   4  -4  -2  680.53   51.29
   4  -4  -2  754.12   51.29
   4  -4  -2  651.63   51.59
  -4   4   2  739.33   51.19
  -4   4   2  697.43   51.29
  -4   4   2  714.73   51.29
  -4   4   2  760.82   51.79
  -4   4   2  637.34   51.29
   3  -4  -2 2755.32  210.48
   3  -4  -2 2802.12  210.58
   3  -4  -2 2735.73  219.28
   3  -4  -2 2663.53  210.58
  -3   4   2 3161.08  210.68
  -3   4   2 2812.52  210.88
  -3   4   2 2766.52  219.48
   2  -4  -2  573.24   41.30
   2  -4  -2  520.95   41.60
   2  -4  -2  555.04   41.40
   2  -4  -2  524.75   41.40
   2  -4  -2  551.14   41.60
  -2   4   2  569.94   41.40
  -2   4   2  488.15   41.40
  -2   4   2  567.34   41.40
  -2   4   2  629.94   41.80
   1  -4  -2    9.90    1.00
   1  -4  -2   12.40    1.00
   1  -4  -2    8.90    1.10
   1  -4  -2   10.70    1.00
   1  -4  -2    8.70    1.20
  -1   4   2   10.00    0.90
  -1   4   2    9.90    1.00
  -1   4   2   11.40    1.50
  -1   4   2   11.10    1.10
  -1   4   2   12.00    1.00
  -1   4   2   11.20    1.00
   0  -4  -2  169.18   12.20
   0  -4  -2  162.98   12.30
   0  -4  -2  147.39   12.20
   0  -4  -2  166.68   12.20
   0   4   2  173.58   12.20
   0   4   2  151.28   12.10
   0   4   2  163.98   12.20
   0   4   2  160.98   12.20
   0   4   2  152.08   12.10
  -1  -4  -2  190.78   14.70
  -1  -4  -2  171.88   14.60
  -1  -4  -2  194.38   14.70
  -1  -4  -2  194.68   14.60
   1   4   2  210.28   14.50
   1   4   2  195.28   14.60
   1   4   2  185.18   14.70
   1   4   2  201.38   14.70
   1   4   2  196.58   14.70
  -2  -4  -2   -0.20    0.30
  -2  -4  -2    0.10    0.40
  -2  -4  -2    0.50    0.40
   2   4   2   -0.20    0.30
   2   4   2   -0.20    0.50
   2   4   2   -0.50    0.40
   2   4   2   -0.20    0.40
   2   4   2   -0.20    0.50
  -3  -4  -2    0.40    0.50
  -3  -4  -2    1.10    0.50
  -3  -4  -2    1.50    0.70
   3   4   2    0.70    0.70
   3   4   2    1.50    0.40
   3   4   2    0.50    0.60
   3   4   2    0.60    0.60
   3   4   2    1.60    0.70
  -4  -4  -2   21.20    2.20
  -4  -4  -2   21.00    2.00
  -4  -4  -2   21.20    2.00
   4   4   2   19.70    2.40
   4   4   2   18.80    2.30
   4   4   2   22.10    2.00
   4   4   2   20.40    2.30
  -5  -4  -2    0.50    0.80
  -5  -4  -2    0.40    0.60
   5   4   2    0.80    0.60
   5   4   2    1.20    1.00
   5   4   2    1.70    0.80
   5   4   2    0.70    0.80
  -6  -4  -2    2.50    0.70
  -6  -4  -2    1.50    0.80
   6   4   2    1.80    0.90
   6   4   2    0.70    0.80
   6   4   2    0.80    1.10
  -7  -4  -2    5.40    1.50
  -7  -4  -2    5.50    1.00
  -7  -4  -2    4.60    1.20
   7   4   2    5.80    1.30
   7   4   2    6.80    1.40
   7   4   2    5.90    1.50
  -8  -4  -2    4.60    1.50
  -8  -4  -2    4.50    1.30
  -8  -4  -2    4.60    0.90
   8   4   2    4.60    1.30
   8   4   2    5.90    1.60
   8   4   2    4.30    1.30
  10  -5  -2   -0.30    1.00
  10  -5  -2    0.20    1.40
  10  -5  -2   -2.10    1.20
 -10   5   2   -1.40    1.10
 -10   5   2    0.50    0.90
   9  -5  -2   13.90    1.90
   9  -5  -2   11.80    1.80
   9  -5  -2   19.20    2.90
  -9   5   2   18.40    2.00
  -9   5   2   11.80    2.00
  -9   5   2   14.00    1.90
   8  -5  -2   20.80    2.80
   8  -5  -2   17.70    2.20
   8  -5  -2   20.40    2.10
   8  -5  -2   17.90    2.30
  -8   5   2   17.00    2.20
  -8   5   2   21.30    2.10
  -8   5   2   20.70    2.10
  -8   5   2   21.00    3.00
   7  -5  -2   11.40    1.70
   7  -5  -2   14.30    1.60
   7  -5  -2   10.10    1.70
   7  -5  -2   13.00    2.20
  -7   5   2   11.10    1.70
  -7   5   2   14.10    2.50
  -7   5   2   13.70    1.50
  -7   5   2   15.40    1.60
   6  -5  -2   19.40    2.60
   6  -5  -2   22.40    2.20
   6  -5  -2   24.10    2.10
  -6   5   2   22.50    3.00
  -6   5   2   22.70    2.10
  -6   5   2   24.40    2.20
  -6   5   2   23.80    2.10
   5  -5  -2    0.50    0.50
   5  -5  -2    0.40    0.70
   5  -5  -2    0.90    0.70
   5  -5  -2    0.90    0.30
  -5   5   2    0.20    1.00
  -5   5   2    0.50    0.40
  -5   5   2    1.10    0.40
  -5   5   2    0.70    0.50
   4  -5  -2   16.30    1.60
   4  -5  -2   13.70    1.80
   4  -5  -2   13.00    1.30
   4  -5  -2   15.50    1.90
  -4   5   2   18.80    1.50
  -4   5   2   14.20    1.50
  -4   5   2   17.40    2.30
  -4   5   2   16.60    1.50
   3  -5  -2   60.39    4.70
   3  -5  -2   54.89    4.90
   3  -5  -2   57.39    4.60
   3  -5  -2   58.69    5.00
  -3   5   2   61.69    4.70
  -3   5   2   63.69    4.70
  -3   5   2   56.39    4.70
  -3   5   2   65.19    5.30
   2  -5  -2   74.49    5.80
   2  -5  -2   75.39    5.80
   2  -5  -2   69.69    6.00
   2  -5  -2   77.09    6.10
   2  -5  -2   78.29    5.80
  -2   5   2   71.09    5.80
  -2   5   2   83.69    6.30
  -2   5   2   66.19    5.80
  -2   5   2   76.59    5.80
  -2   5   2   79.19    5.80
   1  -5  -2   27.80    2.10
   1  -5  -2   22.60    2.30
   1  -5  -2   28.60    2.20
   1  -5  -2   27.30    2.50
   1  -5  -2   27.30    2.20
  -1   5   2   31.70    2.70
  -1   5   2   25.50    2.30
  -1   5   2   23.70    2.20
  -1   5   2   23.40    2.10
  -1   5   2   23.70    2.20
   0  -5  -2   58.49    4.70
   0  -5  -2   61.89    4.60
   0  -5  -2   59.99    4.60
   0  -5  -2   52.49    4.60
   0   5   2   59.29    4.60
   0   5   2   58.49    4.60
   0   5   2   54.29    4.40
   0   5   2   56.19    4.50
   0   5   2   56.99    4.50
  -1  -5  -2    4.90    0.70
  -1  -5  -2    3.90    0.80
  -1  -5  -2    5.50    0.80
   1   5   2    3.70    0.70
   1   5   2    5.50    0.90
   1   5   2    5.70    0.80
   1   5   2    4.70    0.80
  -2  -5  -2    4.20    0.80
  -2  -5  -2    4.20    0.80
  -2  -5  -2    2.40    0.70
   2   5   2    4.60    0.90
   2   5   2    3.70    0.80
   2   5   2    4.20    0.80
   2   5   2    5.40    0.90
   2   5   2    6.70    1.30
  -3  -5  -2   15.30    1.90
  -3  -5  -2   16.00    1.80
  -3  -5  -2   15.70    1.70
   3   5   2   15.30    1.90
   3   5   2   16.80    1.80
   3   5   2   18.70    2.10
  -4  -5  -2   81.59    6.90
  -4  -5  -2   85.29    7.00
  -4  -5  -2   83.89    6.80
   4   5   2   83.19    7.20
   4   5   2   91.09    7.10
   4   5   2   99.99    6.90
   4   5   2   81.19    7.10
  -5  -5  -2    1.60    0.80
  -5  -5  -2    1.10    0.60
   5   5   2    1.40    0.90
   5   5   2    1.10    0.60
   5   5   2    2.00    1.10
   5   5   2    1.50    0.90
  -6  -5  -2    7.00    1.50
  -6  -5  -2    6.60    1.10
  -6  -5  -2    6.20    1.30
   6   5   2    5.70    1.50
   6   5   2    7.60    1.40
   6   5   2    7.40    1.40
  -7  -5  -2    0.80    0.90
  -7  -5  -2    0.00    1.10
  -7  -5  -2    0.50    0.70
   7   5   2    2.70    1.30
   7   5   2    1.20    1.10
   7   5   2    0.60    1.00
  10  -6  -2    0.40    1.20
  10  -6  -2   -0.50    1.10
  10  -6  -2    3.90    1.70
 -10   6   2    0.60    1.10
 -10   6   2    1.10    1.10
   9  -6  -2    2.60    1.00
   9  -6  -2    0.70    1.10
   9  -6  -2    1.40    1.00
   9  -6  -2    3.60    1.50
  -9   6   2    0.40    1.00
  -9   6   2    1.30    0.90
   8  -6  -2    0.70    1.20
   8  -6  -2   -0.70    0.80
   8  -6  -2   -1.20    0.70
   8  -6  -2    0.50    0.80
  -8   6   2    0.10    0.80
  -8   6   2   -0.30    1.40
  -8   6   2    0.40    0.80
  -8   6   2   -1.40    0.70
   7  -6  -2    6.10    1.20
   7  -6  -2    7.80    1.60
   7  -6  -2    5.20    1.20
  -7   6   2    5.70    1.10
  -7   6   2    7.10    1.20
  -7   6   2    5.30    1.70
  -7   6   2    8.40    1.20
   6  -6  -2    2.10    1.10
   6  -6  -2    0.60    0.90
   6  -6  -2    3.00    0.80
  -6   6   2    2.70    0.60
  -6   6   2    1.60    0.70
  -6   6   2    1.60    1.50
  -6   6   2    2.40    0.70
   5  -6  -2  103.49    9.10
   5  -6  -2  101.09    8.60
   5  -6  -2  109.39    9.20
   5  -6  -2  114.89    8.80
  -5   6   2  119.69    8.70
  -5   6   2  110.39    8.80
  -5   6   2  126.79    8.70
  -5   6   2  121.19    9.60
   4  -6  -2   10.20    1.30
  -4   6   2    9.30    1.20
  -4   6   2    9.80    1.20
   3  -6  -2   28.50    2.90
   3  -6  -2   30.50    2.60
   3  -6  -2   31.60    2.50
   3  -6  -2   27.60    2.80
  -3   6   2   32.50    3.30
  -3   6   2   30.10    2.60
  -3   6   2   29.10    2.50
  -3   6   2   27.80    2.50
   2  -6  -2   67.49    5.10
   2  -6  -2   69.79    5.10
   2  -6  -2   56.69    5.30
   2  -6  -2   62.49    5.40
  -2   6   2   60.19    5.10
  -2   6   2   72.99    5.70
  -2   6   2   71.19    5.10
  -2   6   2   57.59    5.00
   1  -6  -2    5.20    1.00
   1  -6  -2    4.90    0.70
   1  -6  -2    4.70    1.00
   1  -6  -2    4.80    0.80
  -1   6   2    5.40    1.20
  -1   6   2    5.00    0.90
  -1   6   2    4.50    0.80
  -1   6   2    5.50    0.90
  -1   6   2    5.60    0.70
   0  -6  -2   19.90    1.90
   0  -6  -2   16.40    2.20
   0  -6  -2   21.30    1.90
   0   6   2   20.10    2.00
   0   6   2   19.70    1.80
   0   6   2   21.00    1.90
  -1  -6  -2   19.60    2.20
  -1  -6  -2   23.40    2.20
  -1  -6  -2   20.50    2.10
   1   6   2   24.30    2.20
   1   6   2   21.30    2.00
   1   6   2   20.90    2.20
  -2  -6  -2   10.80    1.50
  -2  -6  -2    8.30    1.40
  -2  -6  -2   10.00    1.40
   2   6   2   11.50    1.60
   2   6   2   10.40    1.60
   2   6   2   12.50    1.40
   2   6   2    9.40    1.50
  -3  -6  -2    5.60    1.10
  -3  -6  -2    6.30    1.00
  -3  -6  -2    6.30    1.20
   3   6   2    9.50    1.30
   3   6   2    6.90    1.30
   3   6   2    6.80    1.20
   3   6   2    5.50    1.20
  -4  -6  -2    1.10    0.70
  -4  -6  -2    1.00    0.80
   4   6   2    0.90    0.70
   4   6   2    0.90    0.90
   4   6   2    0.10    0.90
   4   6   2    0.00    0.80
  -5  -6  -2   21.60    2.20
  -5  -6  -2   22.70    2.50
   5   6   2   22.20    2.70
   5   6   2   23.10    2.60
   5   6   2   20.50    2.90
   5   6   2   22.40    2.80
  -6  -6  -2    1.00    1.30
  -6  -6  -2    3.20    1.10
  -6  -6  -2    1.10    0.80
   6   6   2    2.70    1.10
   6   6   2    2.20    1.40
   6   6   2    1.70    1.00
  10  -7  -2    0.80    1.20
  10  -7  -2    1.70    1.60
 -10   7   2    0.30    1.00
 -10   7   2    0.10    1.00
   9  -7  -2    9.50    2.10
   9  -7  -2    8.00    1.50
   9  -7  -2    7.50    1.50
  -9   7   2    7.40    1.30
  -9   7   2    7.30    1.40
   8  -7  -2    0.30    1.00
   8  -7  -2    0.50    0.90
   8  -7  -2    1.10    1.40
  -8   7   2   -0.60    0.80
  -8   7   2    0.50    0.80
   7  -7  -2    1.00    0.90
   7  -7  -2    2.30    1.10
   7  -7  -2    1.90    1.30
  -7   7   2    1.80    0.80
  -7   7   2    1.00    0.70
  -7   7   2    1.30    0.80
   6  -7  -2   19.00    2.60
   6  -7  -2   22.00    2.30
   6  -7  -2   22.20    2.90
  -6   7   2   24.00    2.20
  -6   7   2   21.10    3.30
  -6   7   2   20.10    2.30
  -6   7   2   26.30    2.20
   5  -7  -2    0.70    0.70
   5  -7  -2    0.80    0.60
   5  -7  -2    0.30    1.10
   5  -7  -2    0.10    1.00
  -5   7   2   -0.20    1.50
  -5   7   2    1.30    0.60
  -5   7   2    1.20    0.60
  -5   7   2    1.00    0.60
   4  -7  -2   11.60    2.00
   4  -7  -2   11.20    1.50
   4  -7  -2   13.30    1.30
   4  -7  -2   11.90    2.00
  -4   7   2   12.30    1.40
  -4   7   2   12.30    1.60
  -4   7   2   12.60    2.50
   3  -7  -2   73.79    5.40
   3  -7  -2   64.19    5.70
   3  -7  -2   71.39    5.90
   3  -7  -2   68.79    5.50
  -3   7   2   59.29    5.40
  -3   7   2   62.79    5.40
  -3   7   2   81.99    6.30
  -3   7   2   71.59    5.50
   2  -7  -2   22.10    2.00
   2  -7  -2   17.40    2.30
   2  -7  -2   17.10    2.10
  -2   7   2   15.90    1.90
  -2   7   2   18.50    1.70
  -2   7   2   18.80    2.00
  -2   7   2   21.90    2.60
   1  -7  -2   56.89    5.80
   1  -7  -2   65.39    5.50
   1  -7  -2   70.79    5.20
  -1   7   2   59.49    5.10
  -1   7   2   70.39    5.40
   0  -7  -2   -1.30    0.70
   0   7   2   -0.10    0.90
   0   7   2   -0.70    0.50
   0   7   2   -1.10    0.80
  -1  -7  -2    7.20    1.30
  -1  -7  -2   10.30    1.50
  -1  -7  -2    8.00    1.20
   1   7   2    9.80    1.50
   1   7   2   10.50    1.60
   1   7   2   10.20    1.20
  -2  -7  -2    0.40    0.70
  -2  -7  -2    0.40    0.70
  -2  -7  -2    2.10    0.90
   2   7   2    1.00    0.60
   2   7   2    0.40    0.80
   2   7   2    0.70    0.80
  -3  -7  -2   18.80    2.80
  -3  -7  -2   20.10    2.10
  -3  -7  -2   17.00    2.20
   3   7   2   17.00    2.30
   3   7   2   21.60    2.10
   3   7   2   17.80    2.30
  -4  -7  -2    7.80    1.40
  -4  -7  -2    8.80    1.30
   4   7   2   10.60    2.00
   4   7   2   11.30    1.50
   4   7   2    9.10    1.70
  -5  -7  -2    1.00    0.80
  -5  -7  -2    2.20    1.20
  -5  -7  -2    1.40    1.00
   5   7   2    2.20    1.10
   5   7   2    0.90    1.10
  -6  -7  -2    4.30    1.50
  -6  -7  -2    3.60    1.10
  -6  -7  -2    2.40    1.20
   6   7   2    5.10    1.60
   6   7   2    4.90    1.50
   9  -8  -2    0.50    1.20
   9  -8  -2    1.00    1.20
   9  -8  -2    2.60    1.70
  -9   8   2    0.90    1.00
  -9   8   2   -1.60    0.90
   8  -8  -2    4.30    1.50
   8  -8  -2    5.00    1.20
   8  -8  -2    7.20    1.80
  -8   8   2    3.90    1.10
  -8   8   2    5.30    1.10
   7  -8  -2    1.20    1.30
   7  -8  -2   -1.10    1.10
   7  -8  -2    0.90    0.90
  -7   8   2    0.40    0.80
  -7   8   2    1.10    0.80
   6  -8  -2    0.90    1.20
   6  -8  -2    1.50    0.80
   6  -8  -2    0.60    1.20
  -6   8   2    1.00    0.80
  -6   8   2    1.10    1.60
  -6   8   2    1.90    0.80
  -6   8   2    0.50    0.70
   5  -8  -2   23.70    3.00
   5  -8  -2   24.30    2.40
   5  -8  -2   24.20    3.00
  -5   8   2   25.40    2.40
  -5   8   2   23.80    2.40
  -5   8   2   25.20    3.50
  -5   8   2   23.60    2.40
   4  -8  -2   16.00    2.20
   4  -8  -2   13.90    2.30
   4  -8  -2   16.60    1.70
   4  -8  -2   15.80    1.70
  -4   8   2   17.10    2.80
  -4   8   2   14.90    1.80
  -4   8   2   13.50    1.70
  -4   8   2   13.60    1.60
   3  -8  -2    0.10    0.60
   3  -8  -2    1.00    0.90
   3  -8  -2   -0.20    1.00
  -3   8   2   -0.90    0.70
  -3   8   2   -0.30    0.50
  -3   8   2   -0.60    0.70
  -3   8   2   -1.10    1.20
   2  -8  -2   -0.10    0.60
   2  -8  -2    0.10    0.80
   2  -8  -2   -0.60    0.90
  -2   8   2   -0.80    0.80
  -2   8   2    0.10    1.10
  -2   8   2    0.00    0.70
   1  -8  -2   13.70    1.70
   1  -8  -2   12.30    2.10
  -1   8   2   18.20    2.30
  -1   8   2   12.70    1.80
  -1   8   2   12.50    1.70
   0  -8  -2    5.30    1.30
   0  -8  -2    4.50    1.00
   0   8   2    6.40    1.10
   0   8   2    5.30    0.90
  -1  -8  -2    0.80    0.80
  -1  -8  -2    0.40    0.90
   1   8   2    1.60    0.90
   1   8   2    0.80    0.60
  -2  -8  -2    0.60    0.80
  -2  -8  -2    0.80    0.80
  -2  -8  -2   -0.20    0.80
   2   8   2    1.00    0.70
   2   8   2    1.10    1.00
  -3  -8  -2   -0.20    0.70
  -3  -8  -2   -0.30    0.70
   3   8   2   -0.70    0.90
   3   8   2    0.20    0.70
   3   8   2    0.30    1.00
  -4  -8  -2    1.90    1.00
  -4  -8  -2    1.00    0.90
  -4  -8  -2    0.90    0.90
   4   8   2    0.40    1.10
   4   8   2    2.00    1.20
   4   8   2    1.10    0.80
  -5  -8  -2    6.50    1.50
   5   8   2    9.00    1.70
   8  -9  -2    2.00    1.40
   8  -9  -2    2.60    1.10
   8  -9  -2    3.60    1.60
  -8   9   2    0.00    1.00
  -8   9   2    2.70    1.00
   7  -9  -2    0.40    1.20
   7  -9  -2    1.70    1.10
   7  -9  -2    0.40    1.40
  -7   9   2    1.50    1.00
  -7   9   2    0.30    0.90
   6  -9  -2    0.90    1.30
   6  -9  -2   -0.80    0.80
   6  -9  -2   -0.50    1.20
  -6   9   2   -0.90    0.70
  -6   9   2   -0.80    0.80
   5  -9  -2    0.40    1.20
   5  -9  -2   -0.80    0.80
   5  -9  -2    0.60    1.10
  -5   9   2   -0.40    0.90
  -5   9   2   -0.10    0.80
  -5   9   2    0.30    0.70
   4  -9  -2    1.10    1.20
   4  -9  -2    2.10    1.10
   4  -9  -2   -0.80    0.80
  -4   9   2    0.00    0.70
  -4   9   2    0.30    1.40
  -4   9   2   -1.40    0.90
   3  -9  -2   29.70    2.80
   3  -9  -2   26.20    3.30
  -3   9   2   25.70    2.90
  -3   9   2   30.20    3.50
   2  -9  -2   17.80    1.90
   2  -9  -2   15.50    2.50
  -2   9   2   15.80    2.00
  -2   9   2   21.10    2.70
  -2   9   2   10.90    1.90
   1  -9  -2    5.60    1.50
   1  -9  -2    5.70    1.10
  -1   9   2    3.80    0.90
  -1   9   2    5.70    1.10
   0  -9  -2    7.80    1.30
   0  -9  -2    9.00    1.70
   0   9   2    7.10    1.30
   0   9   2    9.70    1.40
  -1  -9  -2   18.50    2.40
  -1  -9  -2   21.90    2.70
   1   9   2   22.90    2.30
   1   9   2   26.30    2.70
  -2  -9  -2    0.80    0.90
   2   9   2    2.20    0.80
   2   9   2    2.70    1.10
  -3  -9  -2    2.40    1.00
   3   9   2    4.00    1.00
   3   9   2    4.10    1.30
   7 -10  -2    3.00    1.60
   7 -10  -2    0.00    1.00
   7 -10  -2    1.00    1.40
  -7  10   2   -2.10    1.00
  -7  10   2    0.10    0.90
   6 -10  -2    0.60    1.30
   6 -10  -2    1.10    1.30
   6 -10  -2   -0.80    0.90
  -6  10   2    0.30    0.80
   5 -10  -2    2.10    1.30
   5 -10  -2    1.10    1.40
  -5  10   2   -0.80    0.80
   4 -10  -2    0.00    1.30
   4 -10  -2   -1.50    0.80
  -4  10   2   -1.40    1.00
   3 -10  -2   -0.10    0.90
   3 -10  -2   -0.50    1.50
  -3  10   2   -1.20    0.90
  -3  10   2    0.20    0.90
   2 -10  -2   30.30    2.90
   2 -10  -2   27.20    3.40
  -2  10   2   24.00    2.80
  -2  10   2   31.90    2.90
   1 -10  -2    3.10    1.50
   1 -10  -2    4.20    1.10
  -1  10   2    3.70    0.90
   0 -10  -2    0.90    1.20
   0 -10  -2    0.70    1.00
   0  10   2    1.60    0.80
   0  10   2    3.70    1.10
  -1 -10  -2    1.60    1.00
  -2 -10  -2    0.30    1.20
   2  10   2    3.50    1.20
   5 -11  -2    0.90    1.70
  -5  11   2   -2.30    1.20
   4 -11  -2   -1.20    1.30
  -4  11   2   -1.90    1.00
   3 -11  -2    2.60    1.10
   3 -11  -2    3.90    1.70
  -3  11   2    1.60    1.10
   2 -11  -2   -0.20    1.40
   2 -11  -2   -1.40    1.00
  -2  11   2    1.10    0.90
   1 -11  -2    6.00    1.50
   1 -11  -2    5.00    1.70
  -1  11   2   10.00    1.50
   1  11  -3    2.10    1.00
  -1 -11   3   -1.20    1.10
   0  11  -3    2.70    1.00
   0 -11   3    0.80    1.30
  -1  11  -3   23.00    2.40
   1 -11   3   15.60    2.40
  -2  11  -3    5.60    1.20
   2 -11   3    7.30    1.70
   2 -11   3    8.20    1.80
  -3  11  -3    6.20    1.30
  -3  11  -3    7.00    1.40
   3 -11   3    9.00    1.70
   3 -11   3   10.20    2.00
  -4  11  -3    1.50    1.10
  -4  11  -3    1.60    1.20
   4 -11   3    6.00    1.80
   4 -11   3    2.20    1.20
  -5  11  -3    1.50    1.50
  -5  11  -3   -1.20    1.20
  -5  11  -3   -0.90    1.10
   5 -11   3   -0.40    1.00
   5 -11   3    1.30    1.60
   5 -11   3    0.50    1.60
   3  10  -3    2.20    1.10
   3  10  -3    1.20    1.00
  -3 -10   3   -0.80    1.10
  -3 -10   3    0.20    1.10
   2  10  -3    1.70    0.90
  -2 -10   3    0.00    1.10
  -2 -10   3   -0.40    1.00
   1  10  -3    3.00    1.00
  -1 -10   3    1.00    1.10
   0  10  -3   23.40    2.40
   0 -10   3   15.90    2.50
  -1  10  -3    2.70    0.90
  -1  10  -3    4.70    1.10
   1 -10   3    2.20    1.40
   1 -10   3    0.60    1.20
  -2  10  -3   74.79    6.00
  -2  10  -3   72.19    6.10
   2 -10   3   68.59    6.50
   2 -10   3   82.89    6.30
  -3  10  -3    7.60    1.40
  -3  10  -3   11.50    1.90
  -3  10  -3   13.60    2.20
   3 -10   3   11.40    1.70
   3 -10   3   15.20    2.40
  -4  10  -3   -0.50    0.90
  -4  10  -3    0.60    1.10
  -4  10  -3    2.50    1.20
   4 -10   3    4.10    1.70
   4 -10   3    1.70    1.00
   4 -10   3    2.40    1.30
  -5  10  -3   -0.50    1.10
  -5  10  -3    1.10    1.30
  -5  10  -3   -1.40    1.10
   5 -10   3    1.30    1.40
   5 -10   3    1.30    0.90
   5 -10   3    2.60    1.50
  -6  10  -3   -1.40    1.10
  -6  10  -3    0.00    1.30
   6 -10   3   -1.40    1.40
   6 -10   3   -0.80    0.80
   6 -10   3   -0.30    1.30
  -7  10  -3   -0.70    1.30
  -7  10  -3    0.60    1.40
   7 -10   3    0.40    1.50
   7 -10   3    0.40    0.90
   7 -10   3   -0.70    1.60
   5   9  -3    3.10    1.30
   5   9  -3    3.30    1.20
  -5  -9   3    2.70    1.20
  -5  -9   3    1.70    1.20
   4   9  -3   -0.80    0.90
   4   9  -3    0.50    1.10
  -4  -9   3   -0.60    1.00
  -4  -9   3   -1.10    0.90
   3   9  -3    5.90    1.40
   3   9  -3    6.80    1.30
  -3  -9   3    6.80    1.30
  -3  -9   3    6.00    1.40
   2   9  -3    7.30    1.20
   2   9  -3    6.70    1.40
  -2  -9   3    7.60    1.40
  -2  -9   3    5.80    1.30
   1   9  -3    4.00    1.30
   1   9  -3    4.00    1.00
  -1  -9   3    1.10    1.10
  -1  -9   3    2.00    1.00
   0   9  -3    2.20    0.70
   0   9  -3    2.10    0.80
   0  -9   3    0.10    1.00
   0  -9   3    1.10    1.00
   0  -9   3    0.00    0.90
  -1   9  -3   34.30    3.10
  -1   9  -3   34.80    3.20
   1  -9   3   38.20    3.40
   1  -9   3   33.40    3.50
  -2   9  -3   29.30    3.50
  -2   9  -3   34.70    3.20
  -2   9  -3   34.70    3.10
   2  -9   3   37.90    3.60
   2  -9   3   40.80    3.40
  -3   9  -3    7.90    1.30
  -3   9  -3   10.00    2.10
  -3   9  -3    9.00    1.60
  -3   9  -3    7.90    1.40
   3  -9   3    9.10    1.40
   3  -9   3    9.10    1.70
   3  -9   3   12.00    2.10
  -4   9  -3    4.90    1.50
  -4   9  -3    5.20    1.20
  -4   9  -3    3.60    1.20
  -4   9  -3    5.50    1.60
   4  -9   3    6.10    1.60
   4  -9   3    6.60    1.50
   4  -9   3    5.10    1.10
  -5   9  -3    0.70    0.90
  -5   9  -3    2.80    1.50
  -5   9  -3   -0.60    1.20
  -5   9  -3   -0.50    1.00
   5  -9   3    1.90    0.80
   5  -9   3    2.80    1.40
   5  -9   3    0.10    1.30
  -6   9  -3    1.10    1.20
  -6   9  -3    3.50    1.40
  -6   9  -3    3.30    1.20
   6  -9   3    3.20    1.60
   6  -9   3    4.40    0.90
   6  -9   3    3.30    1.50
  -7   9  -3    0.70    1.30
  -7   9  -3    0.80    1.00
   7  -9   3   -0.30    1.50
   7  -9   3    0.30    1.40
   7  -9   3    0.30    0.70
  -8   9  -3   -1.10    1.50
  -8   9  -3    2.00    1.50
  -8   9  -3    2.40    1.40
   8  -9   3   -0.40    1.60
   8  -9   3    1.80    1.60
   6   8  -3    3.60    1.60
   6   8  -3    4.40    1.10
   6   8  -3    6.30    1.50
  -6  -8   3    3.90    1.50
  -6  -8   3    3.70    1.50
  -6  -8   3    2.80    1.10
   5   8  -3   -0.10    0.90
   5   8  -3    0.60    1.00
   5   8  -3    0.00    1.10
  -5  -8   3   -0.60    1.00
  -5  -8   3    0.20    0.90
  -5  -8   3   -0.50    1.20
   4   8  -3    0.00    0.80
   4   8  -3   -0.80    0.90
   4   8  -3   -0.10    1.20
  -4  -8   3    0.60    0.90
  -4  -8   3    0.10    0.90
   3   8  -3    0.60    1.00
   3   8  -3    0.40    0.80
  -3  -8   3    0.40    0.80
  -3  -8   3    0.90    0.90
   2   8  -3   13.00    1.60
   2   8  -3   10.50    1.80
  -2  -8   3    8.50    1.40
  -2  -8   3    8.90    1.50
   1   8  -3   66.79    5.40
   1   8  -3   67.49    5.30
   1   8  -3   65.49    5.60
  -1  -8   3   70.89    5.60
  -1  -8   3   63.19    5.50
   0   8  -3    1.60    0.80
   0   8  -3    1.50    0.60
   0   8  -3    2.50    0.90
   0  -8   3    0.50    0.90
   0  -8   3    0.00    0.90
   0  -8   3    0.30    0.70
  -1   8  -3   27.10    2.50
  -1   8  -3   27.00    2.70
   1  -8   3   24.70    2.90
   1  -8   3   27.90    2.50
   1  -8   3   29.10    2.70
  -2   8  -3    4.30    1.20
  -2   8  -3    3.50    0.90
  -2   8  -3    4.10    1.00
  -2   8  -3    3.70    1.00
   2  -8   3    5.20    1.10
   2  -8   3    5.50    1.30
   2  -8   3    4.80    1.00
  -3   8  -3    2.20    0.80
  -3   8  -3    2.20    0.90
  -3   8  -3    2.20    0.90
  -3   8  -3    2.30    1.20
   3  -8   3    1.30    0.90
   3  -8   3    2.70    1.10
   3  -8   3    1.50    0.80
  -4   8  -3   -0.10    0.90
  -4   8  -3    1.20    1.10
  -4   8  -3    1.10    0.80
  -4   8  -3    2.00    1.20
   4  -8   3    1.60    1.10
   4  -8   3    1.00    1.20
   4  -8   3    0.00    0.70
  -5   8  -3    7.20    1.20
  -5   8  -3    5.70    1.20
  -5   8  -3    7.30    1.80
  -5   8  -3    4.40    1.40
   5  -8   3    7.90    1.60
   5  -8   3    7.50    1.00
   5  -8   3    6.70    1.60
  -6   8  -3   13.20    1.80
  -6   8  -3    8.40    2.20
  -6   8  -3    9.20    1.80
  -6   8  -3   10.30    1.70
   6  -8   3    8.00    1.80
   6  -8   3   10.50    2.10
   6  -8   3   11.60    1.40
  -7   8  -3   25.20    2.70
  -7   8  -3   21.00    3.00
  -7   8  -3   22.30    2.40
   7  -8   3   27.80    3.40
   7  -8   3   23.20    3.10
   7  -8   3   21.10    2.20
  -8   8  -3    9.80    1.70
  -8   8  -3    8.60    2.00
   8  -8   3    7.00    1.90
   8  -8   3    8.60    2.20
   7   7  -3    1.30    1.00
   7   7  -3   -0.20    1.30
   7   7  -3    1.60    1.20
  -7  -7   3   -0.30    1.30
  -7  -7   3   -0.20    1.20
   6   7  -3    1.10    1.30
   6   7  -3    0.10    0.80
   6   7  -3   -0.40    1.00
  -6  -7   3   -0.20    1.10
  -6  -7   3    0.50    1.00
  -6  -7   3    0.30    0.80
   5   7  -3   -0.10    1.00
   5   7  -3   -0.50    0.70
   5   7  -3   -1.00    1.10
  -5  -7   3    0.00    1.00
  -5  -7   3   -0.40    0.80
  -5  -7   3   -0.50    0.90
   4   7  -3   16.80    2.00
   4   7  -3   17.10    2.40
   4   7  -3   17.30    2.40
  -4  -7   3   18.40    2.30
  -4  -7   3   21.20    2.10
  -4  -7   3   17.40    2.40
   3   7  -3   -0.70    0.80
   3   7  -3    0.20    0.70
   3   7  -3    0.30    0.90
  -3  -7   3   -0.50    0.80
  -3  -7   3   -1.10    0.70
  -3  -7   3   -0.40    0.80
   2   7  -3   27.30    2.70
   2   7  -3   26.30    2.60
   2   7  -3   25.00    2.40
   2   7  -3   25.50    2.20
  -2  -7   3   24.60    2.90
  -2  -7   3   25.00    2.60
  -2  -7   3   23.10    2.50
   1   7  -3    7.70    1.20
   1   7  -3    6.10    0.80
   1   7  -3    5.70    1.10
  -1  -7   3    7.00    1.10
  -1  -7   3    9.00    1.30
  -1  -7   3    8.20    1.40
   0   7  -3    3.60    0.80
   0   7  -3    3.40    0.70
   0   7  -3    3.00    0.90
   0   7  -3    3.40    0.80
   0  -7   3    3.80    0.90
   0  -7   3    2.90    0.80
   0  -7   3    4.80    0.90
  -1   7  -3   12.90    1.30
  -1   7  -3   10.00    1.30
  -1   7  -3   12.40    1.40
  -1   7  -3    7.70    1.40
  -1   7  -3    8.10    1.60
   1  -7   3    7.60    1.40
   1  -7   3    9.90    1.40
   1  -7   3   10.80    1.20
   1  -7   3    9.60    1.50
  -2   7  -3   29.50    2.60
  -2   7  -3   32.30    2.70
  -2   7  -3   25.00    2.70
   2  -7   3   29.30    2.60
   2  -7   3   27.50    2.80
   2  -7   3   26.10    2.80
   2  -7   3   33.10    2.40
  -3   7  -3    4.60    1.10
  -3   7  -3    4.80    0.90
  -3   7  -3    4.70    0.90
  -3   7  -3    3.70    1.30
   3  -7   3    3.90    1.20
   3  -7   3    4.80    1.10
   3  -7   3    4.20    1.20
   3  -7   3    4.90    0.80
  -4   7  -3   -0.40    0.80
  -4   7  -3    0.20    0.60
  -4   7  -3   -0.50    1.00
  -4   7  -3   -0.20    0.70
   4  -7   3   -1.40    0.90
   4  -7   3   -1.10    1.00
   4  -7   3    0.20    0.60
   4  -7   3   -1.00    0.80
  -5   7  -3   56.89    5.80
  -5   7  -3   65.79    5.00
  -5   7  -3   63.99    5.10
  -5   7  -3   53.79    5.30
   5  -7   3   61.99    4.90
   5  -7   3   57.39    5.90
   5  -7   3   62.99    5.50
   5  -7   3   67.69    5.40
  -6   7  -3    2.60    1.60
  -6   7  -3    3.30    1.00
  -6   7  -3    0.70    1.20
  -6   7  -3    1.90    0.90
   6  -7   3    3.80    0.70
   6  -7   3    2.70    1.40
   6  -7   3    3.20    1.30
   6  -7   3    1.50    1.50
   6  -7   3    2.50    1.00
  -7   7  -3    3.10    2.00
  -7   7  -3    2.70    1.40
  -7   7  -3    4.00    1.10
  -7   7  -3    2.90    0.90
   7  -7   3    2.40    1.40
   7  -7   3    3.60    1.60
   7  -7   3    4.70    1.20
   7  -7   3    2.70    0.70
   7  -7   3    2.70    2.30
  -8   7  -3   15.80    2.30
  -8   7  -3   10.90    2.10
   8  -7   3   10.80    1.50
   8  -7   3   16.30    2.90
   8  -7   3   15.60    2.20
   8  -7   3    9.00    1.90
  -9   7  -3   15.70    2.70
  -9   7  -3   15.20    2.60
   9  -7   3   17.80    3.20
   9  -7   3   18.30    2.90
   8   6  -3    7.20    2.00
   8   6  -3    8.90    2.70
  -8  -6   3    8.80    2.10
  -8  -6   3    6.10    1.90
   7   6  -3   14.70    2.10
   7   6  -3   12.80    2.30
   7   6  -3   16.10    2.40
  -7  -6   3    8.40    2.00
  -7  -6   3    9.60    1.80
  -7  -6   3   10.10    2.10
   6   6  -3    0.50    1.30
   6   6  -3    1.00    0.80
   6   6  -3    0.80    1.00
  -6  -6   3    1.40    1.20
  -6  -6   3    1.30    0.80
  -6  -6   3    2.10    1.10
   5   6  -3    6.90    1.40
   5   6  -3    7.00    1.60
   5   6  -3    7.10    1.20
  -5  -6   3    5.90    1.10
  -5  -6   3    7.00    1.30
  -5  -6   3    7.40    1.60
   4   6  -3   83.19    6.60
   4   6  -3   82.39    6.90
   4   6  -3   81.89    6.80
  -4  -6   3   81.49    6.90
  -4  -6   3   81.59    6.80
  -4  -6   3   83.09    6.60
   3   6  -3  240.08   17.50
   3   6  -3  237.68   17.80
   3   6  -3  231.98   17.80
   3   6  -3  225.48   17.60
  -3  -6   3  235.98   17.60
  -3  -6   3  223.78   17.80
  -3  -6   3  223.88   17.70
   2   6  -3    1.40    0.70
   2   6  -3    0.20    0.60
   2   6  -3    0.90    0.40
   2   6  -3    0.30    0.70
  -2  -6   3   -0.10    0.60
  -2  -6   3    0.60    0.60
  -2  -6   3    0.50    0.70
   1   6  -3    6.40    0.80
   1   6  -3    4.80    0.90
   1   6  -3    5.40    1.00
   1   6  -3    5.70    1.10
   1   6  -3    5.90    0.90
  -1  -6   3    8.00    1.20
  -1  -6   3    5.90    0.90
  -1  -6   3    6.50    1.10
  -1  -6   3    6.20    0.90
   0   6  -3    6.40    0.80
   0   6  -3    3.90    0.90
   0   6  -3    4.30    0.80
   0   6  -3    6.40    1.00
   0   6  -3    6.10    1.00
   0  -6   3    5.30    0.80
   0  -6   3    5.10    0.90
   0  -6   3    6.90    0.90
   0  -6   3    4.90    0.90
  -1   6  -3   93.19    7.90
  -1   6  -3  109.19    7.90
  -1   6  -3  108.79    7.90
  -1   6  -3  108.79    7.80
  -1   6  -3   84.89    8.10
   1  -6   3  107.39    7.90
   1  -6   3  106.89    7.80
   1  -6   3   96.89    8.00
   1  -6   3  100.99    8.00
  -2   6  -3  180.68   13.30
  -2   6  -3  154.78   13.70
  -2   6  -3  178.08   13.30
  -2   6  -3  186.08   13.40
  -2   6  -3  157.28   13.40
   2  -6   3  172.48   13.50
   2  -6   3  174.28   13.50
   2  -6   3  168.88   13.80
   2  -6   3  196.38   13.20
   2  -6   3  182.18   13.30
  -3   6  -3   38.40    3.60
  -3   6  -3   45.60    3.50
  -3   6  -3   36.50    4.00
  -3   6  -3   43.20    3.50
   3  -6   3   43.40    3.40
   3  -6   3   42.70    3.80
   3  -6   3   39.80    3.70
   3  -6   3   44.40    4.10
  -4   6  -3    7.60    1.10
  -4   6  -3    3.80    1.40
  -4   6  -3    7.20    1.10
  -4   6  -3    5.30    1.10
   4  -6   3    5.80    1.20
   4  -6   3    5.00    1.10
   4  -6   3    8.00    0.90
   4  -6   3    5.40    0.80
   4  -6   3    5.10    1.40
  -5   6  -3   13.10    2.60
  -5   6  -3   21.00    2.00
  -5   6  -3   17.10    1.80
  -5   6  -3   14.60    2.20
   5  -6   3   16.80    1.60
   5  -6   3   19.30    2.20
   5  -6   3   19.20    2.40
   5  -6   3   20.70    2.00
   5  -6   3   14.30    2.70
  -6   6  -3   71.59    7.00
  -6   6  -3   82.19    6.30
  -6   6  -3   86.49    6.20
   6  -6   3   78.79    6.50
   6  -6   3   84.79    6.40
   6  -6   3   68.69    6.00
   6  -6   3   79.79    6.80
   6  -6   3   69.19    7.10
  -7   6  -3    7.70    2.00
  -7   6  -3   10.40    1.40
  -7   6  -3    5.60    1.60
  -7   6  -3    6.20    1.30
   7  -6   3    8.10    1.60
   7  -6   3    7.80    1.00
   7  -6   3    6.60    1.90
   7  -6   3    8.50    1.40
   7  -6   3    9.00    1.90
  -8   6  -3   30.60    3.50
  -8   6  -3   33.20    3.20
   8  -6   3   29.80    2.80
   8  -6   3   35.10    3.80
   8  -6   3   27.60    3.30
   8  -6   3   36.50    3.30
  -9   6  -3    3.30    1.30
  -9   6  -3    1.80    1.40
  -9   6  -3    1.50    1.00
   9  -6   3    1.20    1.10
   9  -6   3    0.30    1.40
   9  -6   3    2.00    1.70
   8   5  -3   10.60    2.10
   8   5  -3    7.20    1.40
   8   5  -3    8.60    1.70
  -8  -5   3    9.70    1.70
  -8  -5   3    9.70    1.90
   7   5  -3    6.70    1.20
   7   5  -3    6.70    1.50
   7   5  -3    5.50    1.80
  -7  -5   3    6.30    1.40
  -7  -5   3    5.70    1.50
   6   5  -3   49.70    4.60
   6   5  -3   54.49    4.90
   6   5  -3   47.40    4.30
  -6  -5   3   51.79    4.50
  -6  -5   3   49.30    4.70
  -6  -5   3   51.99    4.20
   5   5  -3   25.90    2.70
   5   5  -3   23.70    2.90
   5   5  -3   20.20    2.30
  -5  -5   3   23.30    2.30
  -5  -5   3   23.60    2.80
  -5  -5   3   23.20    2.50
   4   5  -3  121.59    8.70
   4   5  -3  116.89    9.10
   4   5  -3  110.79    9.00
   4   5  -3  109.49    8.70
  -4  -5   3  109.19    9.00
  -4  -5   3  107.09    8.90
  -4  -5   3  113.59    8.80
   3   5  -3   44.80    4.00
   3   5  -3   51.29    3.70
   3   5  -3   44.70    3.80
   3   5  -3   45.20    4.00
  -3  -5   3   43.70    4.00
  -3  -5   3   45.10    3.90
  -3  -5   3   48.10    3.80
   2   5  -3   32.20    2.60
   2   5  -3   31.50    2.90
   2   5  -3   31.70    2.70
   2   5  -3   32.20    2.80
  -2  -5   3   30.10    2.70
  -2  -5   3   30.50    2.80
  -2  -5   3   35.70    2.80
  -2  -5   3   32.60    2.70
   1   5  -3   -0.30    0.40
   1   5  -3   -0.50    0.30
   1   5  -3   -0.40    0.40
   1   5  -3   -0.40    0.40
   1   5  -3   -0.50    0.30
   1   5  -3   -0.90    0.40
  -1  -5   3   -0.50    0.40
  -1  -5   3   -0.30    0.40
  -1  -5   3   -0.50    0.40
  -1  -5   3   -0.10    0.40
   0   5  -3   35.40    2.60
   0   5  -3   33.80    2.60
   0   5  -3   26.80    2.80
   0   5  -3   30.30    2.60
   0   5  -3   35.30    2.60
   0  -5   3   29.40    2.70
   0  -5   3   30.80    2.60
   0  -5   3   32.30    2.70
   0  -5   3   30.90    2.60
   0  -5   3   31.50    2.90
   0  -5   3   32.90    2.70
  -1   5  -3   94.29    8.40
  -1   5  -3  106.09    8.10
  -1   5  -3  109.99    8.20
  -1   5  -3   98.09    8.20
  -1   5  -3  116.69    8.10
   1  -5   3  102.39    8.50
   1  -5   3  108.79    8.30
   1  -5   3  102.79    8.30
   1  -5   3  108.39    8.20
   1  -5   3  111.69    8.10
   1  -5   3  109.69    8.00
  -2   5  -3  543.95   41.20
  -2   5  -3  494.55   41.30
  -2   5  -3  499.75   41.60
  -2   5  -3  614.54   41.20
  -2   5  -3  564.64   41.20
   2  -5   3  553.94   41.20
   2  -5   3  613.54   41.20
   2  -5   3  539.55   41.40
   2  -5   3  538.95   41.40
   2  -5   3  536.35   41.70
  -3   5  -3  111.99    9.70
  -3   5  -3  132.19    9.50
  -3   5  -3  113.19   10.00
  -3   5  -3  126.29    9.50
   3  -5   3  123.59    9.50
   3  -5   3  128.79    9.80
   3  -5   3  119.99   10.10
   3  -5   3  141.59    9.40
   3  -5   3  120.19    9.70
  -4   5  -3   10.40    1.20
  -4   5  -3    9.90    1.10
  -4   5  -3    8.90    1.90
  -4   5  -3    8.80    1.40
   4  -5   3   11.80    1.30
   4  -5   3    8.70    1.00
   4  -5   3   10.20    1.00
   4  -5   3    8.30    1.40
   4  -5   3    8.60    1.80
   4  -5   3    9.10    1.60
  -5   5  -3   10.90    2.20
  -5   5  -3   11.60    1.50
  -5   5  -3   10.80    1.40
  -5   5  -3    9.40    1.70
   5  -5   3   10.00    2.00
   5  -5   3   12.20    1.90
   5  -5   3   13.40    1.20
   5  -5   3    9.80    1.70
   5  -5   3   10.50    1.20
   5  -5   3   13.00    1.50
  -6   5  -3  225.38   16.20
  -6   5  -3  200.28   16.80
  -6   5  -3  188.58   16.40
   6  -5   3  196.58   16.90
   6  -5   3  235.38   16.30
   6  -5   3  201.48   16.00
   6  -5   3  229.58   16.60
   6  -5   3  218.48   16.40
  -7   5  -3   82.19    6.30
  -7   5  -3   69.39    6.90
  -7   5  -3   65.19    6.50
   7  -5   3   70.19    7.00
   7  -5   3   87.19    6.80
   7  -5   3   76.09    6.00
   7  -5   3   84.09    6.30
   7  -5   3   80.79    6.40
  -8   5  -3   40.70    3.80
  -8   5  -3   37.80    4.50
  -8   5  -3   39.80    4.10
  -8   5  -3   47.40    3.80
   8  -5   3   48.10    4.50
   8  -5   3   41.70    3.90
   8  -5   3   36.90    4.60
   8  -5   3   37.20    3.40
   8  -5   3   51.09    3.90
  -9   5  -3   25.90    2.90
  -9   5  -3   25.20    2.90
  -9   5  -3   26.60    3.10
   9  -5   3   27.80    3.10
   9  -5   3   24.60    3.40
   9  -5   3   23.00    2.90
 -10   5  -3    3.30    1.20
 -10   5  -3    3.00    1.40
  10  -5   3    0.90    1.60
  10  -5   3    1.60    1.70
   9   4  -3    1.50    1.20
   9   4  -3    1.20    0.90
   9   4  -3    0.40    1.50
  -9  -4   3    0.50    1.30
  -9  -4   3    0.20    1.10
   8   4  -3    2.50    0.90
   8   4  -3    2.10    1.20
   8   4  -3    1.80    1.40
  -8  -4   3    2.30    1.20
  -8  -4   3    2.20    1.20
   7   4  -3    4.10    1.00
   7   4  -3    4.90    1.20
   7   4  -3    4.00    1.50
  -7  -4   3    5.10    1.30
  -7  -4   3    3.90    1.30
   6   4  -3  135.09   10.50
   6   4  -3  132.69   10.80
   6   4  -3  141.09   11.00
  -6  -4   3  133.89   10.80
  -6  -4   3  132.79   10.70
  -6  -4   3  135.09   10.40
   5   4  -3  161.78   11.20
   5   4  -3  154.18   11.60
   5   4  -3  135.49   11.20
   5   4  -3  142.89   11.40
  -5  -4   3  141.79   11.50
  -5  -4   3  138.79   11.30
  -5  -4   3  143.29   11.10
   4   4  -3   21.40    2.30
   4   4  -3   23.70    1.90
   4   4  -3   21.60    2.20
   4   4  -3   19.80    2.00
  -4  -4   3   22.10    2.00
  -4  -4   3   19.70    2.30
  -4  -4   3   20.90    2.10
   3   4  -3  387.66   26.70
   3   4  -3  346.97   26.90
   3   4  -3  348.57   26.90
   3   4  -3  351.26   26.80
  -3  -4   3  343.47   26.90
  -3  -4   3  361.56   26.80
  -3  -4   3  349.77   26.90
   2   4  -3    1.20    0.60
   2   4  -3    2.20    0.40
   2   4  -3    1.90    0.60
   2   4  -3    1.60    0.40
  -2  -4   3    1.70    0.60
  -2  -4   3    1.50    0.40
  -2  -4   3    2.10    0.50
  -2  -4   3    0.70    0.60
   1   4  -3  840.12   61.79
   1   4  -3  900.31   61.79
   1   4  -3  707.03   61.79
   1   4  -3  928.11   61.69
   1   4  -3  853.41   61.79
  -1  -4   3  802.32   61.79
  -1  -4   3  847.72   61.79
  -1  -4   3  802.72   61.89
  -1  -4   3  822.92   61.79
  -1  -4   3  755.62   61.79
   0   4  -3   13.10    1.50
   0   4  -3   15.40    1.30
   0   4  -3   15.20    1.30
   0   4  -3   13.50    1.30
   0   4  -3   15.10    1.30
   0  -4   3   14.00    1.40
   0  -4   3   13.00    1.50
   0  -4   3   14.50    1.30
   0  -4   3   15.20    1.30
   0  -4   3   14.30    1.30
   0  -4   3   14.00    1.30
  -1   4  -3   18.10    2.00
  -1   4  -3   18.90    1.80
   1  -4   3   21.40    1.80
   1  -4   3   21.50    1.90
   1  -4   3   19.50    1.90
   1  -4   3   24.30    1.60
   1  -4   3   20.70    1.70
   1  -4   3   20.50    2.10
  -2   4  -3  280.17   18.30
  -2   4  -3  235.58   18.80
  -2   4  -3  259.07   18.40
  -2   4  -3  254.37   18.40
  -2   4  -3  217.78   18.50
   2  -4   3  239.88   18.80
   2  -4   3  207.08   18.30
   2  -4   3  273.57   18.30
   2  -4   3  237.08   18.30
   2  -4   3  244.38   18.50
   2  -4   3  234.58   18.50
  -3   4  -3   68.29    5.20
  -3   4  -3   59.49    5.30
  -3   4  -3   62.19    5.60
  -3   4  -3   73.09    5.00
  -3   4  -3   75.59    5.10
   3  -4   3   64.19    5.30
   3  -4   3   73.19    5.10
   3  -4   3   56.99    5.00
   3  -4   3   63.29    5.60
   3  -4   3   64.79    5.40
   3  -4   3   61.79    5.10
  -4   4  -3   76.09    5.20
  -4   4  -3   63.69    5.80
  -4   4  -3   59.39    5.40
  -4   4  -3   69.19    5.30
  -4   4  -3   61.49    5.20
   4  -4   3   64.69    5.20
   4  -4   3   74.09    5.30
   4  -4   3   65.19    5.40
   4  -4   3   65.69    5.50
   4  -4   3   65.09    5.80
   4  -4   3   72.29    5.20
  -5   4  -3  127.49    9.70
  -5   4  -3  141.19    9.60
  -5   4  -3  109.89    9.80
  -5   4  -3  116.09   10.20
   5  -4   3  124.29    9.80
   5  -4   3  133.39    9.60
   5  -4   3  133.59    9.70
   5  -4   3  131.49   10.00
   5  -4   3  114.09   10.20
   5  -4   3  122.49    9.50
  -6   4  -3   41.30    4.50
  -6   4  -3   50.49    3.80
  -6   4  -3   47.10    3.90
  -6   4  -3   38.70    4.10
   6  -4   3   37.80    4.50
   6  -4   3   46.70    4.30
   6  -4   3   53.19    3.80
   6  -4   3   44.60    4.00
   6  -4   3   46.00    3.80
   6  -4   3   49.20    3.90
   6  -4   3   43.70    3.70
  -7   4  -3    1.70    0.80
  -7   4  -3    2.20    0.90
  -7   4  -3    0.60    1.10
  -7   4  -3    0.70    0.80
  -7   4  -3    1.30    1.30
   7  -4   3    0.60    1.30
   7  -4   3    0.90    1.20
   7  -4   3    1.90    0.60
   7  -4   3    1.70    1.00
   7  -4   3    1.80    0.90
  -8   4  -3    8.00    1.90
  -8   4  -3   11.10    1.30
  -8   4  -3   10.90    1.80
  -8   4  -3   12.30    1.70
  -8   4  -3    7.80    1.70
   8  -4   3    8.40    2.00
   8  -4   3   12.40    1.90
   8  -4   3    9.80    2.00
   8  -4   3    9.80    1.70
   8  -4   3    7.70    1.10
  -9   4  -3    3.70    1.30
  -9   4  -3    3.90    1.10
   9  -4   3    3.30    1.10
   9  -4   3    2.60    1.70
   9   3  -3    1.60    1.50
   9   3  -3    1.70    1.20
   9   3  -3    1.60    0.90
  -9  -3   3    2.10    1.40
  -9  -3   3    1.90    1.20
  -9  -3   3    1.40    1.10
   8   3  -3   20.10    2.70
   8   3  -3   20.20    2.30
   8   3  -3   23.10    3.00
  -8  -3   3   21.90    2.80
  -8  -3   3   23.30    2.70
   7   3  -3    2.60    1.30
   7   3  -3    4.20    1.10
   7   3  -3    2.80    0.90
  -7  -3   3    3.70    1.30
  -7  -3   3    3.40    1.00
   6   3  -3  102.29    8.30
   6   3  -3  106.99    8.70
   6   3  -3  101.79    8.50
   6   3  -3  121.89    8.30
  -6  -3   3  102.89    8.10
  -6  -3   3   97.89    8.60
  -6  -3   3  103.59    8.40
   5   3  -3   63.79    5.30
   5   3  -3   75.19    5.30
   5   3  -3   64.79    5.60
   5   3  -3   64.89    5.50
  -5  -3   3   65.99    5.40
  -5  -3   3   68.09    5.20
  -5  -3   3   61.49    5.60
   4   3  -3   63.99    5.30
   4   3  -3   71.59    5.10
   4   3  -3   61.99    5.10
   4   3  -3   64.89    5.40
  -4  -3   3   67.59    5.10
  -4  -3   3   61.59    5.30
  -4  -3   3   62.99    5.20
   3   3  -3  247.58   18.20
   3   3  -3  270.47   18.10
   3   3  -3  228.88   18.10
   3   3  -3  246.38   18.30
   3   3  -3  241.98   18.30
  -3  -3   3  230.88   18.30
  -3  -3   3  239.58   18.20
  -3  -3   3  210.58   18.00
  -3  -3   3  251.57   18.10
   2   3  -3  109.09    8.50
   2   3  -3  118.49    8.30
   2   3  -3  111.89    8.50
   2   3  -3  117.29    8.40
  -2  -3   3  103.69    8.50
  -2  -3   3   99.69    8.30
  -2  -3   3  107.99    8.30
  -2  -3   3  110.29    8.40
   1   3  -3  318.37   27.10
   1   3  -3  398.66   27.00
   1   3  -3  385.26   27.10
   1   3  -3  388.16   27.00
   1   3  -3  386.06   27.10
  -1  -3   3  352.96   27.00
  -1  -3   3  341.87   27.10
  -1  -3   3  354.56   27.00
  -1  -3   3  335.37   27.00
  -1  -3   3  343.17   27.10
   0   3  -3   28.40    2.50
   0   3  -3   31.10    2.30
   0   3  -3   31.10    2.30
   0   3  -3   31.40    2.30
   0   3  -3   28.40    2.30
   0  -3   3   26.60    2.40
   0  -3   3   28.90    2.30
   0  -3   3   26.60    2.30
   0  -3   3   27.70    2.30
   0  -3   3   28.00    2.50
   0  -3   3   33.40    2.40
  -1   3  -3   47.70    4.00
  -1   3  -3   50.19    3.70
  -1   3  -3   49.30    3.70
  -1   3  -3   41.90    3.70
   1  -3   3   46.80    3.80
   1  -3   3   46.80    3.80
   1  -3   3   47.90    3.70
   1  -3   3   48.40    4.00
   1  -3   3   49.30    3.60
  -2   3  -3    2.00    0.40
  -2   3  -3    1.80    0.50
  -2   3  -3    2.90    0.70
  -2   3  -3    3.50    0.50
   2  -3   3    2.00    0.50
   2  -3   3    3.40    0.40
   2  -3   3    2.30    0.60
   2  -3   3    2.80    0.40
   2  -3   3    3.30    0.40
   2  -3   3    2.40    0.50
  -3   3  -3   52.39    4.70
  -3   3  -3   59.29    4.30
  -3   3  -3   58.99    4.20
  -3   3  -3   50.19    4.40
   3  -3   3   52.59    4.20
   3  -3   3   53.79    4.70
   3  -3   3   53.59    4.20
   3  -3   3   54.89    4.40
   3  -3   3   62.59    4.30
   3  -3   3   47.40    4.20
   3  -3   3   55.99    4.50
   3  -3   3   58.89    4.30
  -4   3  -3   24.80    1.90
  -4   3  -3   21.20    2.10
  -4   3  -3   22.10    2.40
  -4   3  -3   18.50    1.80
  -4   3  -3   24.80    2.00
   4  -3   3   20.40    1.80
   4  -3   3   24.30    2.20
   4  -3   3   22.00    2.50
   4  -3   3   25.70    2.00
   4  -3   3   25.10    1.90
   4  -3   3   21.80    2.10
   4  -3   3   19.80    1.90
   4  -3   3   22.30    1.90
   4  -3   3   24.70    1.90
  -5   3  -3   20.40    1.90
  -5   3  -3   19.10    2.40
  -5   3  -3   17.00    2.10
  -5   3  -3   17.10    1.70
  -5   3  -3   17.40    1.90
  -5   3  -3   22.70    1.80
   5  -3   3   20.80    2.20
   5  -3   3   19.20    1.80
   5  -3   3   22.00    2.00
   5  -3   3   18.00    1.70
   5  -3   3   21.10    1.70
   5  -3   3   17.60    1.90
   5  -3   3   21.10    2.50
   5  -3   3   21.50    1.80
   5  -3   3   20.80    2.00
  -6   3  -3   39.30    3.80
  -6   3  -3   38.50    3.60
  -6   3  -3   45.20    3.60
  -6   3  -3   45.50    3.50
  -6   3  -3   37.60    4.10
   6  -3   3   41.30    3.40
   6  -3   3   43.30    3.70
   6  -3   3   38.10    4.20
   6  -3   3   34.00    3.60
   6  -3   3   46.90    3.50
   6  -3   3   47.90    4.00
   6  -3   3   42.20    3.60
   6  -3   3   50.29    3.70
  -7   3  -3    5.10    0.90
  -7   3  -3    4.60    0.70
  -7   3  -3    4.70    1.40
  -7   3  -3    4.10    1.20
  -7   3  -3    5.40    1.00
   7  -3   3    3.90    1.50
   7  -3   3    5.40    1.40
   7  -3   3    4.00    0.70
   7  -3   3    5.20    1.00
   7  -3   3    4.50    0.90
   7  -3   3    6.30    1.10
  -8   3  -3   -0.60    1.00
  -8   3  -3   -0.30    0.50
  -8   3  -3   -1.00    0.70
  -8   3  -3    0.10    1.10
  -8   3  -3    0.40    0.70
   8  -3   3   -0.30    0.80
   8  -3   3   -1.00    0.90
   8  -3   3   -0.50    0.40
   8  -3   3    0.30    1.20
   8  -3   3   -1.70    1.20
  -9   3  -3    5.10    0.90
  -9   3  -3    5.90    1.20
   9  -3   3    5.70    1.30
  10   2  -3    7.60    1.70
  10   2  -3    8.30    2.10
  10   2  -3   11.40    1.80
 -10  -2   3    8.50    1.70
 -10  -2   3    5.60    1.70
 -10  -2   3    7.90    1.70
   9   2  -3    0.00    1.20
   9   2  -3    0.10    1.00
   9   2  -3    0.60    0.80
  -9  -2   3    0.70    0.90
  -9  -2   3   -0.50    1.00
  -9  -2   3   -0.20    1.10
   8   2  -3    1.50    0.80
   8   2  -3    3.20    1.30
   8   2  -3    2.60    1.10
  -8  -2   3    2.10    1.20
  -8  -2   3    0.30    1.10
  -8  -2   3    3.00    1.00
   7   2  -3    1.40    0.70
   7   2  -3    0.50    0.70
   7   2  -3    1.00    1.00
   7   2  -3    0.50    1.10
  -7  -2   3    2.00    0.90
  -7  -2   3    1.40    1.10
   6   2  -3   97.79    7.90
   6   2  -3   98.89    8.00
   6   2  -3  104.49    7.60
   6   2  -3   92.09    7.60
  -6  -2   3   90.29    7.90
  -6  -2   3  100.19    7.50
  -6  -2   3   97.09    7.70
   5   2  -3   -0.40    0.70
   5   2  -3    0.60    0.60
   5   2  -3   -0.10    0.40
   5   2  -3    0.10    0.40
  -5  -2   3    0.50    0.70
  -5  -2   3   -0.30    0.50
  -5  -2   3    0.20    0.40
   4   2  -3  361.06   26.50
   4   2  -3  382.46   26.30
   4   2  -3  345.97   26.40
   4   2  -3  366.36   26.60
   4   2  -3  302.07   26.30
  -4  -2   3  339.87   26.50
  -4  -2   3  347.87   26.40
  -4  -2   3  358.66   26.30
   3   2  -3  307.47   24.40
   3   2  -3  349.67   24.40
   3   2  -3  336.37   24.60
   3   2  -3  331.47   24.50
   3   2  -3  330.87   24.60
  -3  -2   3  319.97   24.50
  -3  -2   3  301.77   24.60
  -3  -2   3  326.87   24.40
   2   2  -3   -0.20    0.30
   2   2  -3    0.00    0.20
   2   2  -3   -0.10    0.30
   2   2  -3    0.10    0.20
   2   2  -3   -0.10    0.20
  -2  -2   3    0.00    0.30
  -2  -2   3    0.10    0.10
  -2  -2   3   -0.40    0.30
  -2  -2   3   -0.10    0.20
   1   2  -3  608.34   40.30
   1   2  -3  457.95   40.30
  -1  -2   3  535.25   40.30
  -1  -2   3  481.65   40.30
  -1  -2   3  540.55   40.30
  -1  -2   3  609.74   40.40
   0  -2   3   70.29    5.30
   0  -2   3   64.49    5.30
   0  -2   3   70.19    5.30
   0  -2   3   77.39    5.50
  -1   2  -3   27.60    2.30
  -1   2  -3   26.90    2.20
   1  -2   3   27.10    2.20
   1  -2   3   28.40    2.20
   1  -2   3   29.40    2.50
   1  -2   3   28.10    2.30
   1  -2   3   30.90    2.30
  -2   2  -3   32.20    2.80
  -2   2  -3   34.90    2.80
  -2   2  -3   37.20    2.70
   2  -2   3   34.60    2.90
   2  -2   3   36.70    2.70
   2  -2   3   35.10    2.70
   2  -2   3   33.70    3.00
   2  -2   3   36.80    2.90
   2  -2   3   34.60    2.70
  -3   2  -3    3.90    0.60
  -3   2  -3    2.40    0.60
  -3   2  -3    3.80    0.50
   3  -2   3    5.40    1.10
   3  -2   3    2.90    0.60
   3  -2   3    2.80    0.50
   3  -2   3    3.80    0.60
   3  -2   3    4.30    0.80
   3  -2   3    3.10    0.50
   3  -2   3    3.00    0.50
   3  -2   3    5.20    0.50
   3  -2   3    3.70    0.50
  -4   2  -3   49.20    3.60
  -4   2  -3   46.20    4.10
  -4   2  -3   45.00    3.70
  -4   2  -3   49.90    3.70
  -4   2  -3   39.70    3.60
  -4   2  -3   44.10    3.80
   4  -2   3   47.60    3.70
   4  -2   3   47.10    3.60
   4  -2   3   49.20    3.90
   4  -2   3   47.40    3.70
   4  -2   3   39.90    3.60
   4  -2   3   50.79    3.70
   4  -2   3   49.00    3.60
   4  -2   3   44.50    4.10
   4  -2   3   38.30    3.70
  -5   2  -3   15.30    1.40
  -5   2  -3   11.50    1.80
  -5   2  -3    9.60    1.30
  -5   2  -3   11.50    1.40
  -5   2  -3   14.00    1.20
  -5   2  -3   12.30    1.60
   5  -2   3   12.70    1.90
   5  -2   3   15.70    1.40
   5  -2   3   12.60    1.40
   5  -2   3   12.70    1.20
   5  -2   3    9.30    1.40
   5  -2   3   12.40    1.30
   5  -2   3   13.70    1.20
   5  -2   3   11.50    1.30
   5  -2   3   14.70    1.70
  -6   2  -3   34.90    3.40
  -6   2  -3   38.80    3.90
  -6   2  -3   42.80    3.50
  -6   2  -3   39.80    3.30
  -6   2  -3   43.80    3.40
  -6   2  -3   46.60    3.50
  -6   2  -3   39.90    3.60
   6  -2   3   39.00    3.50
   6  -2   3   48.20    3.80
   6  -2   3   44.30    3.60
   6  -2   3   38.00    3.30
   6  -2   3   34.40    3.50
   6  -2   3   46.50    3.50
   6  -2   3   36.30    4.00
   6  -2   3   45.50    3.40
   6  -2   3   37.40    3.50
  -7   2  -3   12.10    1.70
  -7   2  -3   17.60    1.70
  -7   2  -3   13.20    2.10
  -7   2  -3   15.60    2.00
  -7   2  -3   12.50    1.80
  -7   2  -3   15.20    2.40
  -7   2  -3   13.50    1.40
   7  -2   3   12.90    1.40
   7  -2   3   10.20    1.70
   7  -2   3   13.50    2.40
   7  -2   3   15.70    2.20
   7  -2   3   11.80    1.70
   7  -2   3   15.60    1.70
  -8   2  -3   -1.20    0.60
  -8   2  -3    0.20    0.50
  -8   2  -3   -0.40    0.70
  -8   2  -3    0.40    1.10
  -8   2  -3    0.10    0.70
   8  -2   3    0.10    0.70
   8  -2   3    0.40    0.70
   8  -2   3   -0.30    0.80
   8  -2   3   -0.70    0.50
  -9   2  -3    1.50    0.80
  -9   2  -3    0.10    0.50
   9  -2   3    0.40    0.50
   9  -2   3    1.30    0.80
  10   1  -3    0.90    1.10
  10   1  -3    0.00    1.30
  10   1  -3    1.40    1.00
 -10  -1   3    0.20    1.10
 -10  -1   3    0.50    1.20
   9   1  -3    1.60    1.20
   9   1  -3    1.70    0.80
   9   1  -3    0.50    1.00
  -9  -1   3    2.30    1.00
  -9  -1   3    1.20    1.20
  -9  -1   3   -0.20    1.20
   8   1  -3   56.79    5.00
   8   1  -3   69.49    5.10
   8   1  -3   62.89    5.30
   8   1  -3   63.79    5.50
  -8  -1   3   54.99    5.30
  -8  -1   3   58.49    5.10
  -8  -1   3   54.69    5.30
   7   1  -3   44.00    4.10
   7   1  -3   38.10    3.60
   7   1  -3   41.90    3.90
   7   1  -3   47.90    3.70
  -7  -1   3   40.50    3.70
  -7  -1   3   41.10    3.90
  -7  -1   3   40.50    3.90
   6   1  -3   -0.70    0.60
   6   1  -3   -1.10    0.50
   6   1  -3   -0.50    0.40
  -6  -1   3   -0.50    0.50
  -6  -1   3   -0.70    0.70
  -6  -1   3   -0.60    0.60
  -6  -1   3    0.20    0.30
   5   1  -3  101.49    7.80
   5   1  -3  104.39    7.70
   5   1  -3   93.59    7.70
   5   1  -3  102.09    7.90
  -5  -1   3   94.89    7.70
  -5  -1   3  101.59    7.50
  -5  -1   3  102.39    7.60
  -5  -1   3   92.39    7.80
  -5  -1   3   97.29    7.80
   4   1  -3  261.07   22.20
   4   1  -3  309.77   22.40
   4   1  -3  302.77   22.20
   4   1  -3  293.57   22.20
   4   1  -3  296.57   22.40
  -4  -1   3  281.47   22.30
  -4  -1   3  287.67   22.30
  -4  -1   3  288.37   22.20
  -4  -1   3  306.77   22.10
  -4  -1   3  321.87   22.20
   3   1  -3  149.69   10.80
   3   1  -3  147.09   10.90
   3   1  -3  137.39   10.80
   3   1  -3  128.79   10.80
   3   1  -3  149.88   11.00
   3   1  -3  148.29   10.80
  -3  -1   3  139.09   10.90
  -3  -1   3  148.89   10.70
  -3  -1   3  141.89   10.80
  -3  -1   3  135.69   10.90
   2   1  -3  790.72   58.39
   2   1  -3  750.12   54.09
   2   1  -3  778.42   53.89
   2   1  -3  758.92   54.09
   2   1  -3  695.33   53.99
  -2  -1   3  670.63   53.89
  -2  -1   3  671.83   53.89
  -2  -1   3  669.23   53.99
   1   1  -3 4786.12  389.76
  -1  -1   3 5561.64  393.26
   0   1  -3    0.80    0.20
   0   1  -3    0.80    0.20
   0   1  -3    0.40    0.10
   0  -1   3    0.70    0.20
   0  -1   3    0.30    0.10
   0  -1   3    0.10    0.20
   0  -1   3    0.60    0.20
   0  -1   3    1.00    0.30
  -1   1  -3   76.69    6.40
  -1   1  -3   83.09    6.40
   1  -1   3   78.39    6.40
   1  -1   3   96.79    6.40
   1  -1   3   80.39    6.40
   1  -1   3   95.59    6.60
   1  -1   3   82.29    6.40
  -2   1  -3  170.28   13.70
  -2   1  -3  185.48   13.80
  -2   1  -3  166.18   13.70
  -2   1  -3  185.28   13.80
   2  -1   3  207.98   13.80
   2  -1   3  162.78   13.80
   2  -1   3  201.48   13.80
   2  -1   3  191.38   14.00
   2  -1   3  184.78   13.80
   2  -1   3  185.28   13.70
   2  -1   3  190.98   13.70
   2  -1   3  162.18   13.70
  -3   1  -3  139.29   10.70
  -3   1  -3  144.09   10.70
  -3   1  -3  145.59   10.60
  -3   1  -3  137.19   10.60
   3  -1   3  136.39   10.70
   3  -1   3  125.79   10.60
   3  -1   3  145.19   10.60
   3  -1   3  155.08   10.80
   3  -1   3  144.39   10.90
   3  -1   3  135.29   10.60
   3  -1   3  144.89   10.60
   3  -1   3  118.59   10.70
   3  -1   3  153.58   10.70
  -4   1  -3   14.90    1.30
  -4   1  -3   16.30    1.30
  -4   1  -3   14.40    1.50
  -4   1  -3   15.10    1.30
  -4   1  -3   15.40    1.50
   4  -1   3   13.50    1.80
   4  -1   3   14.90    1.30
   4  -1   3   15.50    1.50
   4  -1   3   13.20    1.40
   4  -1   3   12.00    1.40
   4  -1   3   13.70    1.40
   4  -1   3   14.30    1.30
   4  -1   3   14.40    1.30
   4  -1   3   17.00    1.60
  -5   1  -3   72.79    5.60
  -5   1  -3   68.99    5.40
  -5   1  -3   73.99    5.50
  -5   1  -3   77.29    5.50
  -5   1  -3   70.99    5.40
   5  -1   3   78.29    5.60
   5  -1   3   58.29    5.60
   5  -1   3   65.49    5.50
   5  -1   3   66.59    5.90
   5  -1   3   76.49    5.50
   5  -1   3   65.59    5.40
   5  -1   3   70.89    5.40
   5  -1   3   61.29    5.50
  -6   1  -3   31.70    2.70
  -6   1  -3   31.40    3.20
  -6   1  -3   35.00    2.80
  -6   1  -3   29.50    2.50
  -6   1  -3   32.80    2.80
  -6   1  -3   28.80    2.80
   6  -1   3   28.50    2.50
   6  -1   3   29.80    3.20
   6  -1   3   23.70    2.80
   6  -1   3   27.50    2.70
   6  -1   3   34.90    2.80
   6  -1   3   37.00    2.90
   6  -1   3   27.70    2.70
  -7   1  -3   15.20    1.50
  -7   1  -3   19.40    1.80
  -7   1  -3   16.20    2.20
  -7   1  -3   11.80    1.90
   7  -1   3   15.10    1.50
   7  -1   3   12.90    1.90
   7  -1   3   17.50    1.80
   7  -1   3   17.10    2.30
   7  -1   3   15.20    1.90
   7  -1   3   11.50    2.00
  -8   1  -3   13.40    1.60
  -8   1  -3    8.00    1.60
  -8   1  -3   11.20    1.70
  -8   1  -3   11.90    1.30
   8  -1   3    8.60    1.20
   8  -1   3   11.40    1.90
   8  -1   3   12.40    1.70
  -9   1  -3    0.40    0.80
  -9   1  -3   -0.10    0.50
  -9   1  -3   -0.40    0.80
   9  -1   3    0.60    1.00
   9  -1   3    0.40    0.80
   9  -1   3   -0.30    0.50
  10   0  -3    2.70    1.20
  10   0  -3    1.50    1.40
  10   0  -3    2.40    1.00
 -10   0   3    0.90    1.10
 -10   0   3    0.80    1.20
   9   0  -3    1.60    0.90
   9   0  -3    2.80    1.30
   9   0  -3    1.10    1.00
   9   0  -3    1.60    0.90
  -9   0   3    0.30    1.40
  -9   0   3    0.90    1.10
  -9   0   3   -0.50    1.00
   8   0  -3    0.00    1.00
   8   0  -3    0.30    0.60
   8   0  -3    0.60    0.70
   8   0  -3    0.80    0.90
  -8   0   3   -0.50    0.70
  -8   0   3    0.10    0.90
  -8   0   3   -1.10    0.90
   7   0  -3   23.30    2.10
   7   0  -3   19.70    2.50
   7   0  -3   20.90    2.50
   7   0  -3   22.10    2.30
  -7   0   3   23.90    2.40
  -7   0   3   19.30    2.20
  -7   0   3   19.40    2.40
   6   0  -3    0.20    0.40
   6   0  -3   -0.20    0.70
   6   0  -3   -0.10    0.60
   6   0  -3    0.20    0.60
   6   0  -3   -0.30    0.50
  -6   0   3    0.00    0.50
  -6   0   3    0.70    0.60
  -6   0   3    0.50    0.70
  -6   0   3    0.20    0.70
   5   0  -3  396.36   29.30
   5   0  -3  341.37   29.40
   5   0  -3  376.86   29.30
   5   0  -3  410.26   29.50
   5   0  -3  405.76   29.50
  -5   0   3  387.26   29.40
  -5   0   3  388.96   29.30
  -5   0   3  377.56   29.40
  -5   0   3  398.06   29.40
  -5   0   3  416.06   29.20
   4   0  -3   39.80    3.20
   4   0  -3   40.70    3.30
   4   0  -3   37.20    3.10
   4   0  -3   34.20    3.20
   4   0  -3   38.60    3.10
  -4   0   3   38.00    3.20
  -4   0   3   37.50    3.20
  -4   0   3   44.80    3.00
  -4   0   3   38.90    3.10
  -4   0   3   38.90    3.20
   3   0  -3   74.79    5.60
   3   0  -3   74.29    5.60
   3   0  -3   66.09    5.70
   3   0  -3   74.89    5.70
  -3   0   3   79.99    5.70
  -3   0   3   73.19    5.60
  -3   0   3   67.79    5.60
  -3   0   3   72.39    5.70
   2   0  -3 1407.06   96.19
   2   0  -3 1280.97   96.09
   2   0  -3 1409.96   96.29
   2   0  -3 1198.88   96.19
   2   0  -3 1250.97   96.09
  -2   0   3 1199.38   95.99
  -2   0   3 1232.18   95.79
   1   0  -3 2030.20  157.58
   1   0  -3 2140.99  157.88
  -1   0   3 2155.58  161.08
   0   0  -3   81.59    5.60
   0   0  -3   70.49    5.50
   0   0   3   64.69    5.50
   0   0   3   75.49    5.50
  -1   0  -3  123.19    8.40
  -1   0  -3  103.79    8.30
  -1   0  -3  111.49    8.40
   1   0   3  112.59    8.40
   1   0   3  105.69    8.40
   1   0   3  107.39    8.30
   1   0   3  109.19    8.30
  -2   0  -3   49.90    4.10
  -2   0  -3   52.89    4.10
  -2   0  -3   58.89    4.20
   2   0   3   60.09    4.40
   2   0   3   52.29    4.20
   2   0   3   58.69    4.20
   2   0   3   51.59    4.10
   2   0   3   46.30    4.20
   2   0   3   54.29    4.10
  -3   0  -3 1409.86   96.09
  -3   0  -3 1288.07   96.29
   3   0   3 1310.57   96.39
   3   0   3 1262.47   96.09
   3   0   3 1153.98   96.09
   3   0   3 1282.87   96.29
   3   0   3 1416.76   95.99
   3   0   3 1160.98   95.99
  -4   0  -3    5.40    0.80
  -4   0  -3    4.40    0.60
  -4   0  -3    5.30    0.60
  -4   0  -3    5.80    0.80
   4   0   3    4.10    0.70
   4   0   3    3.80    0.70
   4   0   3    4.70    0.70
   4   0   3    4.30    0.60
   4   0   3    4.50    0.90
   4   0   3    4.50    0.60
   4   0   3    6.00    0.90
   4   0   3    5.90    1.00
   4   0   3    4.10    0.70
  -5   0  -3    5.20    0.80
  -5   0  -3    4.80    0.70
  -5   0  -3    6.10    1.00
  -5   0  -3    5.90    1.00
   5   0   3    5.80    0.80
   5   0   3    4.40    0.60
   5   0   3    3.80    0.90
   5   0   3    5.70    0.80
   5   0   3    5.10    0.80
   5   0   3    7.70    1.20
   5   0   3    4.70    1.00
   5   0   3    3.70    0.80
  -6   0  -3   50.69    3.60
  -6   0  -3   43.70    3.50
  -6   0  -3   42.00    3.70
   6   0   3   39.70    3.40
   6   0   3   36.90    3.80
   6   0   3   48.50    3.60
   6   0   3   36.90    3.70
   6   0   3   43.20    4.00
   6   0   3   39.50    3.70
  -7   0  -3   -0.40    0.70
  -7   0  -3    0.10    0.50
  -7   0  -3    0.80    0.70
   7   0   3   -0.10    0.50
   7   0   3   -0.30    0.70
   7   0   3   -0.30    0.60
   7   0   3    0.30    0.60
   7   0   3    0.40    0.80
  -8   0  -3    0.40    0.90
  -8   0  -3    1.70    0.80
  -8   0  -3    0.40    0.50
   8   0   3    1.10    0.60
   8   0   3    1.30    0.80
   8   0   3    1.60    0.80
   8   0   3    1.80    1.00
  -9   0  -3   -0.50    0.80
  -9   0  -3   -0.70    0.50
  -9   0  -3   -0.40    0.80
   9   0   3   -0.60    0.50
   9   0   3    1.50    0.90
   9   0   3   -0.10    0.90
  10  -1  -3    1.20    0.90
  10  -1  -3    1.90    1.20
  10  -1  -3    0.40    1.10
  10  -1  -3    1.20    1.30
 -10   1   3    0.70    1.00
 -10   1   3    0.80    0.80
 -10   1   3    1.30    1.10
   9  -1  -3   19.80    2.30
   9  -1  -3   21.90    2.70
   9  -1  -3   24.50    2.50
   9  -1  -3   23.40    2.80
  -9   1   3   20.10    2.60
  -9   1   3   18.40    2.50
  -9   1   3   17.00    2.20
   8  -1  -3    8.00    1.70
   8  -1  -3    9.40    1.50
   8  -1  -3    9.80    1.40
   8  -1  -3    8.80    1.50
  -8   1   3    9.00    1.40
  -8   1   3    7.90    1.60
  -8   1   3   10.10    1.80
   7  -1  -3   19.70    2.50
   7  -1  -3   23.70    2.40
   7  -1  -3   23.30    2.50
   7  -1  -3   25.30    2.60
   7  -1  -3   21.80    2.20
  -7   1   3   24.80    2.50
  -7   1   3   24.90    2.30
  -7   1   3   25.50    2.60
   6  -1  -3    0.00    0.60
   6  -1  -3   -0.60    0.50
   6  -1  -3   -0.30    0.40
   6  -1  -3   -0.10    0.40
   6  -1  -3   -0.70    0.40
  -6   1   3   -0.40    0.50
  -6   1   3   -0.40    0.40
  -6   1   3   -0.30    0.50
  -6   1   3   -0.30    0.60
   5  -1  -3  174.78   11.90
   5  -1  -3  147.99   12.00
   5  -1  -3  140.59   12.20
   5  -1  -3  176.98   12.20
   5  -1  -3  151.68   12.10
   5  -1  -3  160.88   12.20
  -5   1   3  158.08   12.30
  -5   1   3  172.28   11.90
  -5   1   3  148.29   12.10
  -5   1   3  156.78   12.00
  -5   1   3  152.88   12.10
   4  -1  -3   62.89    4.80
   4  -1  -3   59.59    4.80
   4  -1  -3   56.59    5.00
   4  -1  -3   65.09    4.90
  -4   1   3   64.19    4.80
  -4   1   3   60.19    4.90
  -4   1   3   61.49    4.90
  -4   1   3   65.29    5.00
   3  -1  -3   25.40    2.40
   3  -1  -3   31.00    2.60
   3  -1  -3   30.30    2.40
   3  -1  -3   31.30    2.50
   3  -1  -3   34.80    2.50
  -3   1   3   31.30    2.50
  -3   1   3   32.40    2.40
  -3   1   3   29.80    2.50
  -3   1   3   35.40    2.70
  -3   1   3   26.70    2.40
   2  -1  -3    0.70    0.20
   2  -1  -3    1.50    0.40
   2  -1  -3    0.70    0.20
  -2   1   3    0.30    0.20
  -2   1   3    1.40    0.50
  -2   1   3    1.00    0.30
   1  -1  -3  213.48   15.90
   1  -1  -3  223.68   15.90
   1  -1  -3  220.68   15.80
  -1   1   3  207.28   15.80
  -1   1   3  177.48   15.80
  -1   1   3  225.38   15.80
   0  -1  -3    0.60    0.20
   0  -1  -3    1.00    0.20
   0   1   3    1.00    0.20
   0   1   3    0.70    0.20
   0   1   3    1.00    0.20
   0   1   3    0.90    0.20
   0   1   3    1.10    0.40
   0   1   3    0.70    0.20
  -1  -1  -3  345.37   23.50
  -1  -1  -3  309.47   23.50
   1   1   3  307.77   23.50
   1   1   3  316.97   23.50
   1   1   3  311.67   23.50
   1   1   3  292.27   23.50
   1   1   3  309.77   23.50
  -2  -1  -3    7.70    0.80
  -2  -1  -3    9.70    0.80
   2   1   3    6.40    0.90
   2   1   3    5.90    0.80
   2   1   3    7.80    0.80
   2   1   3    6.50    0.90
   2   1   3    8.30    0.70
  -3  -1  -3   82.09    5.80
  -3  -1  -3   76.99    5.90
  -3  -1  -3   86.19    6.00
   3   1   3   65.59    6.00
   3   1   3   76.39    5.90
   3   1   3   82.79    5.80
   3   1   3   70.99    6.00
   3   1   3   87.09    6.20
   3   1   3   67.49    6.10
   3   1   3   75.69    5.90
  -4  -1  -3    2.40    0.60
  -4  -1  -3    4.20    0.70
  -4  -1  -3    2.30    0.50
   4   1   3    1.90    0.60
   4   1   3    3.60    0.80
   4   1   3    3.60    0.60
   4   1   3    2.50    0.60
   4   1   3    2.40    0.50
   4   1   3    2.20    0.70
  -5  -1  -3    7.50    1.10
  -5  -1  -3    8.40    1.00
   5   1   3    7.00    1.20
   5   1   3    8.00    1.00
   5   1   3    9.40    1.40
   5   1   3    6.90    1.20
   5   1   3    7.30    1.10
   5   1   3    8.40    1.00
  -6  -1  -3   37.90    2.90
  -6  -1  -3   34.40    3.20
   6   1   3   32.60    3.40
   6   1   3   32.50    3.10
   6   1   3   37.40    2.90
   6   1   3   32.30    3.20
  -7  -1  -3    1.10    0.80
  -7  -1  -3    1.30    0.60
   7   1   3    0.40    0.60
   7   1   3    1.00    0.90
   7   1   3    1.60    0.80
   7   1   3    1.20    0.70
  -8  -1  -3   -0.50    1.00
  -8  -1  -3    0.40    0.90
  -8  -1  -3   -0.70    0.50
   8   1   3    0.30    0.70
   8   1   3    1.50    1.10
   8   1   3    0.70    0.90
   8   1   3    0.10    0.60
  -9  -1  -3    2.60    1.10
  -9  -1  -3    2.00    0.70
  -9  -1  -3    1.00    1.00
   9   1   3    2.90    1.10
   9   1   3    2.30    1.10
   9   1   3    3.40    1.40
  11  -2  -3    1.80    1.30
  11  -2  -3    3.00    1.10
  11  -2  -3    0.20    1.50
 -11   2   3    3.40    1.10
 -11   2   3    1.80    1.50
 -11   2   3    2.40    1.10
  10  -2  -3   14.00    2.00
  10  -2  -3   13.00    2.30
  10  -2  -3   10.40    1.80
 -10   2   3    8.90    1.90
 -10   2   3   11.90    2.20
 -10   2   3   13.70    2.00
   9  -2  -3   31.50    3.20
   9  -2  -3   28.40    2.90
   9  -2  -3   32.40    3.20
  -9   2   3   24.40    2.90
  -9   2   3   29.50    3.10
  -9   2   3   23.60    2.70
   8  -2  -3   13.00    2.10
   8  -2  -3   15.80    2.00
   8  -2  -3   16.90    2.20
   8  -2  -3   15.60    1.80
  -8   2   3   15.60    1.80
  -8   2   3   15.30    2.10
  -8   2   3   17.20    2.10
   7  -2  -3   36.20    3.20
   7  -2  -3   30.30    3.30
   7  -2  -3   33.20    3.00
   7  -2  -3   37.90    3.30
  -7   2   3   38.10    3.50
  -7   2   3   39.50    3.30
  -7   2   3   35.40    3.00
  -7   2   3   34.00    3.20
   6  -2  -3   13.80    1.40
   6  -2  -3   16.30    1.60
   6  -2  -3   12.80    1.50
   6  -2  -3   11.80    1.70
   6  -2  -3   11.00    1.30
  -6   2   3   14.00    1.90
  -6   2   3   14.60    1.50
  -6   2   3   14.20    1.50
  -6   2   3   13.50    1.40
  -6   2   3   15.50    1.40
   5  -2  -3    3.60    0.60
   5  -2  -3    2.20    0.70
   5  -2  -3    3.10    0.60
   5  -2  -3    2.20    0.50
   5  -2  -3    2.90    0.50
  -5   2   3    2.80    0.50
  -5   2   3    1.50    0.50
  -5   2   3    2.30    0.80
  -5   2   3    2.90    0.60
  -5   2   3    2.80    0.60
   4  -2  -3   37.80    3.50
   4  -2  -3   48.70    3.40
   4  -2  -3   40.80    3.30
   4  -2  -3   41.60    3.30
  -4   2   3   36.40    3.30
  -4   2   3   40.40    3.30
  -4   2   3   40.70    3.30
  -4   2   3   42.80    3.20
  -4   2   3   44.60    3.70
   3  -2  -3    1.90    0.40
   3  -2  -3    2.10    0.30
   3  -2  -3    2.30    0.40
   3  -2  -3    2.30    0.60
   3  -2  -3    2.80    0.40
  -3   2   3    2.00    0.70
  -3   2   3    3.20    0.40
  -3   2   3    2.60    0.40
  -3   2   3    2.60    0.40
  -3   2   3    2.60    0.40
   2  -2  -3    3.20    0.40
   2  -2  -3    2.50    0.50
   2  -2  -3    2.70    0.40
   2  -2  -3    4.00    0.70
   2  -2  -3    2.70    0.30
  -2   2   3    3.20    0.40
  -2   2   3    3.20    0.40
  -2   2   3    3.60    0.40
  -2   2   3    4.50    0.90
  -2   2   3    3.70    0.40
   1  -2  -3  221.68   16.40
   1  -2  -3  191.38   16.30
   1  -2  -3  223.98   16.30
   1  -2  -3  218.38   16.40
  -1   2   3  227.38   16.30
  -1   2   3  203.08   16.30
  -1   2   3  237.08   16.30
   0  -2  -3  149.19   13.20
   0  -2  -3  182.48   13.40
   0  -2  -3  176.48   13.30
   0  -2  -3  183.98   13.40
   0   2   3  200.18   13.40
   0   2   3  156.68   13.30
   0   2   3  183.38   13.30
   0   2   3  182.38   13.30
  -1  -2  -3    0.60    0.30
  -1  -2  -3    0.40    0.30
  -1  -2  -3    0.60    0.30
   1   2   3    0.70    0.30
   1   2   3    0.40    0.30
   1   2   3    1.30    0.50
   1   2   3    0.60    0.30
   1   2   3    1.00    0.20
   1   2   3    0.80    0.30
  -2  -2  -3   24.80    2.10
  -2  -2  -3   24.70    2.10
  -2  -2  -3   25.00    2.00
   2   2   3   22.70    2.10
   2   2   3   26.10    2.10
   2   2   3   27.30    2.00
   2   2   3   22.10    2.20
   2   2   3   23.20    2.00
  -3  -2  -3   48.30    3.80
  -3  -2  -3   55.19    3.90
  -3  -2  -3   44.80    3.90
   3   2   3   48.50    3.80
   3   2   3   47.00    3.90
   3   2   3   53.19    3.80
   3   2   3   43.90    4.00
   3   2   3   42.90    3.90
  -4  -2  -3   13.80    1.40
  -4  -2  -3   18.00    1.50
  -4  -2  -3   12.10    1.60
   4   2   3   12.00    1.70
   4   2   3   15.80    1.40
   4   2   3   12.30    1.60
   4   2   3   11.60    1.60
   4   2   3   17.20    1.70
   4   2   3   14.40    1.40
  -5  -2  -3   -0.90    0.60
  -5  -2  -3    1.80    0.60
  -5  -2  -3    0.40    0.50
   5   2   3    0.40    0.50
   5   2   3   -0.70    0.70
   5   2   3    0.30    0.60
   5   2   3    1.50    1.20
   5   2   3   -1.30    0.80
   5   2   3    0.90    0.70
  -6  -2  -3  127.09    9.30
  -6  -2  -3  116.39    9.50
   6   2   3  117.99    9.50
   6   2   3  120.59    9.50
   6   2   3  123.89    9.30
   6   2   3  116.89    9.70
  -7  -2  -3    2.70    0.90
  -7  -2  -3    3.00    0.70
   7   2   3    3.40    1.10
   7   2   3    3.00    0.90
   7   2   3    2.60    1.00
  -8  -2  -3    5.30    1.20
  -8  -2  -3    4.80    0.90
  -8  -2  -3    5.70    1.50
   8   2   3    5.90    1.30
   8   2   3    5.00    1.20
   8   2   3    7.00    1.50
  -9  -2  -3    5.50    1.40
  -9  -2  -3    5.80    1.70
  -9  -2  -3    5.30    1.00
   9   2   3    5.90    1.40
   9   2   3    6.00    1.30
   9   2   3    8.00    1.80
  11  -3  -3    0.00    0.90
  11  -3  -3    0.20    1.20
  11  -3  -3   -2.60    1.20
 -11   3   3   -0.80    1.00
 -11   3   3   -0.70    0.80
 -11   3   3   -1.50    1.10
  10  -3  -3    6.00    1.40
  10  -3  -3    5.70    1.60
  10  -3  -3    7.60    1.30
 -10   3   3    6.20    1.50
 -10   3   3    5.70    1.10
 -10   3   3    4.00    1.20
   9  -3  -3   72.19    5.60
   9  -3  -3   59.39    5.10
   9  -3  -3   62.29    5.40
   9  -3  -3   54.89    5.50
  -9   3   3   65.79    5.40
  -9   3   3   56.79    5.10
   8  -3  -3    5.70    1.40
   8  -3  -3    5.60    1.20
   8  -3  -3    5.90    1.00
   8  -3  -3    6.20    1.30
  -8   3   3    7.20    1.20
  -8   3   3   10.20    2.10
  -8   3   3    8.20    1.30
  -8   3   3    6.50    1.20
   7  -3  -3    4.70    1.20
   7  -3  -3    4.70    0.80
   7  -3  -3    5.10    1.00
   7  -3  -3    3.70    0.90
   7  -3  -3    4.90    0.90
  -7   3   3    6.60    1.40
  -7   3   3    5.60    0.80
  -7   3   3    5.10    0.90
  -7   3   3    4.80    0.90
   6  -3  -3    1.80    0.50
   6  -3  -3    2.10    0.70
   6  -3  -3    1.20    0.60
   6  -3  -3    1.20    0.50
   6  -3  -3    0.80    0.80
  -6   3   3    1.30    0.90
  -6   3   3    2.10    0.50
  -6   3   3    1.60    0.60
  -6   3   3    2.20    0.60
   5  -3  -3   22.60    1.90
   5  -3  -3   22.60    2.00
   5  -3  -3   20.10    2.20
   5  -3  -3   17.90    1.90
  -5   3   3   24.60    2.50
  -5   3   3   23.00    1.90
  -5   3   3   22.60    1.90
  -5   3   3   20.10    1.90
   4  -3  -3  191.98   17.10
   4  -3  -3  233.98   17.00
   4  -3  -3  215.58   17.30
   4  -3  -3  223.18   17.10
  -4   3   3  226.68   17.00
  -4   3   3  262.67   17.50
  -4   3   3  218.18   17.00
  -4   3   3  235.38   17.00
   3  -3  -3  234.08   18.20
   3  -3  -3  229.98   18.00
   3  -3  -3  245.98   18.00
   3  -3  -3  216.08   18.10
  -3   3   3  225.48   18.00
  -3   3   3  272.97   18.40
  -3   3   3  252.77   18.00
   2  -3  -3   96.49    7.70
   2  -3  -3   91.59    7.50
   2  -3  -3  100.29    7.50
   2  -3  -3   96.49    7.70
   2  -3  -3  105.39    7.50
  -2   3   3  108.19    7.50
  -2   3   3   94.09    7.40
  -2   3   3   96.59    7.50
   1  -3  -3  104.19    8.60
   1  -3  -3  119.89    8.50
   1  -3  -3   98.69    8.50
   1  -3  -3  112.69    8.70
   1  -3  -3  123.29    8.50
  -1   3   3  107.69    8.50
  -1   3   3  118.69    8.60
  -1   3   3  115.99    8.50
   0  -3  -3  483.35   37.10
   0  -3  -3  515.75   37.10
   0  -3  -3  519.65   37.20
   0  -3  -3  467.45   37.00
   0  -3  -3  519.65   37.10
   0   3   3  535.65   37.10
   0   3   3  446.96   37.00
   0   3   3  504.45   37.10
   0   3   3  423.26   37.00
   0   3   3  536.45   37.10
  -1  -3  -3    4.70    0.80
  -1  -3  -3    6.80    0.70
  -1  -3  -3    4.00    0.60
  -1  -3  -3    5.20    0.80
   1   3   3    5.30    0.60
   1   3   3    6.20    0.80
   1   3   3    5.00    0.80
   1   3   3    4.40    0.70
  -2  -3  -3    0.10    0.20
  -2  -3  -3   -0.50    0.30
  -2  -3  -3   -0.30    0.30
  -2  -3  -3    0.10    0.30
   2   3   3   -0.50    0.30
   2   3   3   -0.60    0.40
   2   3   3   -0.30    0.20
   2   3   3   -0.50    0.40
  -3  -3  -3    3.40    0.60
  -3  -3  -3    2.90    0.60
  -3  -3  -3    3.10    0.70
   3   3   3    2.80    0.70
   3   3   3    2.40    0.70
   3   3   3    3.40    0.50
   3   3   3    2.60    0.80
   3   3   3    5.10    0.90
  -4  -3  -3  171.78   13.10
  -4  -3  -3  186.98   13.20
  -4  -3  -3  159.88   13.30
   4   3   3  199.88   13.20
   4   3   3  165.18   13.30
   4   3   3  155.38   13.40
   4   3   3  166.38   13.30
  -5  -3  -3   28.50    2.40
  -5  -3  -3   25.00    2.30
  -5  -3  -3   23.20    2.50
   5   3   3   27.00    2.60
   5   3   3   23.00    2.50
   5   3   3   21.20    2.70
  -6  -3  -3    0.10    0.60
  -6  -3  -3    0.40    0.70
   6   3   3   -0.80    0.90
   6   3   3    0.40    0.70
   6   3   3    1.10    0.80
  -7  -3  -3    0.90    0.60
  -7  -3  -3    0.20    0.80
   7   3   3    1.00    0.80
   7   3   3    1.80    1.10
   7   3   3    1.10    0.90
  -8  -3  -3    1.00    1.00
  -8  -3  -3    1.00    0.70
  -8  -3  -3    1.90    1.30
   8   3   3    2.60    1.10
   8   3   3    1.20    1.20
   8   3   3    1.60    1.00
  11  -4  -3    3.60    1.20
  11  -4  -3    3.70    1.40
  10  -4  -3   17.40    2.20
  10  -4  -3   17.70    3.00
  10  -4  -3   17.90    2.50
 -10   4   3   13.70    2.20
 -10   4   3   15.30    2.40
 -10   4   3   18.20    2.10
   9  -4  -3   20.90    2.30
   9  -4  -3   21.10    2.80
   9  -4  -3   19.50    2.50
  -9   4   3   19.00    2.50
  -9   4   3   18.30    2.20
  -9   4   3   21.30    2.40
   8  -4  -3    2.80    0.80
   8  -4  -3    1.80    1.00
   8  -4  -3    2.00    1.20
  -8   4   3    3.70    1.50
  -8   4   3    1.60    0.90
  -8   4   3    3.20    0.80
  -8   4   3    1.90    0.80
   7  -4  -3    0.40    0.60
   7  -4  -3   -0.20    0.90
   7  -4  -3    0.10    0.60
   7  -4  -3   -1.30    0.70
  -7   4   3   -0.50    0.60
  -7   4   3    0.60    0.60
  -7   4   3    0.20    1.00
   6  -4  -3   28.30    2.40
   6  -4  -3   23.90    2.90
   6  -4  -3   26.50    2.50
  -6   4   3   30.30    2.50
  -6   4   3   26.10    2.40
  -6   4   3   30.00    3.20
  -6   4   3   28.50    2.40
   5  -4  -3    0.50    0.70
   5  -4  -3    0.60    0.60
   5  -4  -3    0.50    0.40
   5  -4  -3   -0.60    0.50
  -5   4   3    0.30    0.90
  -5   4   3    0.40    0.40
  -5   4   3    0.00    0.30
  -5   4   3    0.50    0.40
   4  -4  -3  435.76   34.10
   4  -4  -3  388.56   33.70
   4  -4  -3  404.26   34.00
   4  -4  -3  495.15   33.80
   4  -4  -3  439.56   33.80
  -4   4   3  530.85   34.40
  -4   4   3  487.95   33.80
  -4   4   3  453.25   33.80
  -4   4   3  422.66   33.80
   3  -4  -3 1291.97   95.69
   3  -4  -3 1202.38   95.59
   3  -4  -3 1289.77   95.79
   3  -4  -3 1355.76   95.89
  -3   4   3 1282.67   95.99
  -3   4   3 1259.57   95.59
   2  -4  -3  365.56   27.60
   2  -4  -3  402.86   27.30
   2  -4  -3  369.36   27.40
   2  -4  -3  341.47   27.40
   2  -4  -3  351.56   27.60
  -2   4   3  324.97   27.40
  -2   4   3  396.66   27.40
  -2   4   3  367.96   27.40
   1  -4  -3   75.19    6.00
   1  -4  -3   73.19    6.20
   1  -4  -3   84.49    6.10
   1  -4  -3   82.39    6.10
   1  -4  -3   80.69    6.30
  -1   4   3   74.19    6.00
  -1   4   3   83.39    6.10
  -1   4   3   68.09    6.00
  -1   4   3   82.19    6.00
  -1   4   3   86.69    6.10
   0  -4  -3  301.17   22.40
   0  -4  -3  272.67   22.30
   0  -4  -3  307.67   22.30
   0  -4  -3  306.07   22.30
   0   4   3  262.67   22.10
   0   4   3  315.57   22.30
   0   4   3  309.07   22.30
   0   4   3  280.47   22.20
   0   4   3  308.47   22.30
  -1  -4  -3    6.80    0.90
  -1  -4  -3    7.40    1.00
  -1  -4  -3    7.00    1.00
  -1  -4  -3    7.70    0.80
   1   4   3    7.00    1.00
   1   4   3    6.00    0.90
   1   4   3    7.30    0.80
   1   4   3    7.20    1.00
  -2  -4  -3  222.58   17.00
  -2  -4  -3  220.78   17.00
  -2  -4  -3  217.88   16.90
   2   4   3  222.08   17.00
   2   4   3  222.48   17.00
   2   4   3  212.48   17.00
   2   4   3  244.88   16.90
  -3  -4  -3  210.58   16.80
  -3  -4  -3  210.58   16.70
  -3  -4  -3  229.08   16.80
   3   4   3  212.88   16.90
   3   4   3  217.48   16.80
   3   4   3  251.17   16.70
   3   4   3  208.98   16.90
  -4  -4  -3  128.59    9.90
  -4  -4  -3  123.99   10.10
  -4  -4  -3  135.79   10.00
   4   4   3  128.89   10.10
   4   4   3  132.39   10.20
   4   4   3  124.29   10.20
  -5  -4  -3   65.99    5.10
  -5  -4  -3   63.89    5.00
  -5  -4  -3   60.59    5.20
   5   4   3   61.99    5.20
   5   4   3   60.39    5.30
   5   4   3   56.29    5.40
  -6  -4  -3   10.30    1.40
  -6  -4  -3    8.50    1.40
   6   4   3   11.30    1.70
   6   4   3    9.70    1.80
   6   4   3   10.20    1.70
  -7  -4  -3    4.60    1.00
  -7  -4  -3    3.60    1.20
  -7  -4  -3    3.60    1.40
   7   4   3    5.00    1.40
   7   4   3    3.30    1.20
   7   4   3    4.10    1.20
  -8  -4  -3   18.50    2.10
  10  -5  -3    7.10    1.30
  10  -5  -3    4.80    1.60
  10  -5  -3    8.20    1.90
 -10   5   3    6.40    1.40
 -10   5   3    6.60    1.30
 -10   5   3    5.70    1.50
   9  -5  -3    2.70    1.40
   9  -5  -3    2.30    1.10
   9  -5  -3    2.30    0.90
  -9   5   3    2.90    1.00
  -9   5   3    2.90    1.00
  -9   5   3    3.00    1.00
  -9   5   3    4.80    1.60
   8  -5  -3    1.00    1.20
   8  -5  -3    0.70    0.70
   8  -5  -3    1.00    0.70
   8  -5  -3    0.70    0.90
  -8   5   3    2.30    1.40
  -8   5   3    0.50    0.70
  -8   5   3    0.90    0.80
  -8   5   3    0.40    0.90
   7  -5  -3   64.99    6.00
   7  -5  -3   63.79    5.60
   7  -5  -3   72.69    5.50
  -7   5   3   61.99    5.50
  -7   5   3   68.79    5.50
  -7   5   3   73.19    5.50
  -7   5   3   71.39    6.30
   6  -5  -3    0.40    0.70
   6  -5  -3    0.10    0.50
   6  -5  -3    0.10    0.80
   6  -5  -3   -0.50    0.60
  -6   5   3   -1.10    1.00
  -6   5   3   -0.50    0.50
  -6   5   3   -0.40    0.60
  -6   5   3   -0.50    0.50
   5  -5  -3   34.80    3.20
   5  -5  -3   35.20    3.50
   5  -5  -3   35.30    3.30
  -5   5   3   35.60    3.20
  -5   5   3   39.70    3.10
  -5   5   3   40.10    3.10
  -5   5   3   40.60    3.90
   4  -5  -3   33.30    3.30
   4  -5  -3   36.30    3.40
   4  -5  -3   35.00    3.00
   4  -5  -3   31.00    2.90
  -4   5   3   43.60    3.80
  -4   5   3   34.20    3.00
  -4   5   3   39.70    3.00
  -4   5   3   41.20    3.00
   3  -5  -3    9.40    1.50
   3  -5  -3   10.30    1.50
   3  -5  -3    9.10    1.00
   3  -5  -3   10.40    1.10
  -3   5   3   10.70    1.20
  -3   5   3    9.80    1.90
  -3   5   3   10.90    1.10
  -3   5   3   12.10    1.10
  -3   5   3    8.60    1.10
   2  -5  -3  213.88   16.70
   2  -5  -3  209.58   17.00
   2  -5  -3  226.68   16.80
   2  -5  -3  218.48   17.00
  -2   5   3  238.08   16.80
  -2   5   3  256.97   16.80
  -2   5   3  218.38   16.70
  -2   5   3  194.08   16.70
   1  -5  -3   16.50    1.40
   1  -5  -3   13.70    1.60
   1  -5  -3   16.20    1.40
   1  -5  -3   16.70    1.50
   1  -5  -3   15.30    1.70
  -1   5   3   14.80    1.50
  -1   5   3   17.40    1.60
  -1   5   3   15.80    1.50
  -1   5   3   13.90    1.30
  -1   5   3   16.90    1.40
   0  -5  -3    9.80    1.10
   0  -5  -3   10.40    1.30
   0  -5  -3    9.40    1.10
   0  -5  -3   10.30    1.10
   0   5   3   10.60    1.10
   0   5   3    9.20    1.10
   0   5   3   10.20    1.20
   0   5   3    9.90    1.30
  -1  -5  -3    7.80    1.00
  -1  -5  -3    8.20    1.20
  -1  -5  -3    6.90    1.10
   1   5   3    8.80    1.20
   1   5   3    8.60    1.20
   1   5   3    8.20    1.20
   1   5   3    8.20    1.00
  -2  -5  -3   21.10    2.20
  -2  -5  -3   23.20    2.20
  -2  -5  -3   21.40    2.10
   2   5   3   26.60    2.10
   2   5   3   21.20    2.30
   2   5   3   23.10    2.30
   2   5   3   21.00    2.20
  -3  -5  -3  186.38   14.80
  -3  -5  -3  183.88   14.70
  -3  -5  -3  186.48   14.80
   3   5   3  188.98   14.80
   3   5   3  185.88   14.90
   3   5   3  190.18   14.90
   3   5   3  223.38   14.70
  -4  -5  -3   56.89    4.90
  -4  -5  -3   58.89    4.80
  -4  -5  -3   57.99    4.90
   4   5   3   55.79    5.20
   4   5   3   61.59    5.10
   4   5   3   58.59    5.00
  -5  -5  -3    1.60    0.80
  -5  -5  -3    1.20    0.60
   5   5   3   -0.90    1.00
   5   5   3    0.70    0.80
   5   5   3    0.80    0.90
  -6  -5  -3    1.90    0.80
  -6  -5  -3    1.50    0.90
   6   5   3    1.00    0.90
   6   5   3    1.10    0.90
   6   5   3    1.20    1.10
  -7  -5  -3    2.70    1.30
  -7  -5  -3    1.30    0.80
  -7  -5  -3    2.00    1.00
   7   5   3    3.30    1.40
   7   5   3    2.30    1.10
   7   5   3    1.80    1.10
  10  -6  -3   -1.80    0.90
  10  -6  -3    0.10    1.30
 -10   6   3   -1.50    0.90
 -10   6   3   -1.30    1.00
   9  -6  -3   -0.30    1.00
   9  -6  -3   -1.70    0.80
   9  -6  -3    0.60    1.20
  -9   6   3   -0.40    0.80
  -9   6   3   -0.80    0.80
   8  -6  -3   -1.10    0.80
   8  -6  -3    0.10    1.20
   8  -6  -3    0.10    0.80
   8  -6  -3   -1.10    0.70
  -8   6   3   -0.90    1.30
  -8   6   3   -0.70    0.70
   7  -6  -3    1.10    1.20
   7  -6  -3   -0.20    0.70
   7  -6  -3    0.90    0.80
  -7   6   3    0.70    0.70
  -7   6   3   -0.80    0.60
  -7   6   3    0.50    0.60
  -7   6   3    0.60    1.40
   6  -6  -3   26.00    2.50
   6  -6  -3   20.10    2.80
   6  -6  -3   23.80    3.00
  -6   6   3   28.10    2.40
  -6   6   3   27.50    2.40
  -6   6   3   27.40    3.40
  -6   6   3   24.50    2.50
   5  -6  -3  233.08   19.90
   5  -6  -3  254.57   19.70
   5  -6  -3  243.08   20.00
  -5   6   3  237.38   19.60
  -5   6   3  297.57   20.50
  -5   6   3  262.17   19.60
  -5   6   3  285.87   19.60
   4  -6  -3  480.05   36.90
   4  -6  -3  478.45   37.20
   4  -6  -3  472.95   36.80
   4  -6  -3  489.45   37.20
  -4   6   3  554.54   36.90
  -4   6   3  458.05   36.90
  -4   6   3  504.55   36.90
   3  -6  -3   37.70    2.90
   3  -6  -3   32.90    3.20
   3  -6  -3   34.60    3.30
   3  -6  -3   35.50    2.90
  -3   6   3   31.20    2.90
  -3   6   3   35.20    2.90
  -3   6   3   36.10    3.00
   2  -6  -3   41.00    3.60
   2  -6  -3   39.00    3.20
   2  -6  -3   41.60    3.20
   2  -6  -3   37.40    3.50
  -2   6   3   37.00    3.20
  -2   6   3   34.80    3.10
  -2   6   3   42.20    3.30
  -2   6   3   41.50    3.30
   1  -6  -3   23.80    2.50
   1  -6  -3   22.30    2.30
   1  -6  -3   27.10    2.30
  -1   6   3   26.80    2.40
  -1   6   3   26.10    2.30
  -1   6   3   23.80    2.20
  -1   6   3   26.00    2.30
   0  -6  -3   66.79    5.10
   0  -6  -3   61.29    5.30
   0  -6  -3   65.19    5.10
   0   6   3   63.49    5.10
   0   6   3   62.29    5.10
   0   6   3   63.49    5.00
   0   6   3   59.39    5.00
  -1  -6  -3   29.60    2.80
  -1  -6  -3   33.10    2.80
  -1  -6  -3   29.00    2.90
   1   6   3   31.20    2.90
   1   6   3   33.00    2.70
   1   6   3   30.70    2.90
   1   6   3   33.50    2.80
  -2  -6  -3   32.70    3.10
  -2  -6  -3   32.50    3.20
  -2  -6  -3   36.60    3.30
   2   6   3   35.40    3.30
   2   6   3   35.20    3.40
   2   6   3   34.00    3.20
   2   6   3   40.50    3.10
  -3  -6  -3    4.50    1.00
  -3  -6  -3    5.70    1.00
  -3  -6  -3    5.80    1.10
   3   6   3    8.30    1.10
   3   6   3    5.30    1.10
   3   6   3    7.10    1.40
   3   6   3    4.60    1.10
  -4  -6  -3    5.90    1.00
   4   6   3    6.00    1.30
   4   6   3    5.60    1.20
   4   6   3    5.20    1.30
  -5  -6  -3    0.20    0.70
  -5  -6  -3    0.70    0.80
   5   6   3    0.60    1.00
   5   6   3    1.10    0.90
   5   6   3    1.10    0.90
  -6  -6  -3    4.00    1.20
  -6  -6  -3    3.40    0.90
  -6  -6  -3    3.60    1.40
   6   6   3    5.50    1.30
   6   6   3    6.10    1.50
   6   6   3    4.20    1.30
  10  -7  -3    2.40    1.70
  10  -7  -3    1.50    1.40
 -10   7   3    0.70    1.00
 -10   7   3   -0.70    1.20
   9  -7  -3   23.20    2.90
   9  -7  -3   32.70    3.90
   9  -7  -3   20.90    2.70
  -9   7   3   27.30    2.80
  -9   7   3   25.10    2.70
   8  -7  -3   -0.70    0.90
   8  -7  -3    0.50    1.30
   8  -7  -3    0.60    1.10
  -8   7   3    0.80    0.80
  -8   7   3   -0.10    0.70
  -8   7   3    0.00    0.80
   7  -7  -3    2.90    1.00
   7  -7  -3    3.20    1.40
   7  -7  -3    1.40    1.10
  -7   7   3    1.80    0.80
  -7   7   3    1.40    0.80
  -7   7   3    2.60    0.80
  -7   7   3    2.60    1.70
   6  -7  -3    5.60    1.50
   6  -7  -3    4.90    1.40
   6  -7  -3    4.90    1.00
  -6   7   3    8.00    1.40
  -6   7   3    5.60    1.90
  -6   7   3    4.50    1.00
  -6   7   3    5.20    0.90
   5  -7  -3   40.10    4.30
   5  -7  -3   40.50    4.20
   5  -7  -3   45.10    3.90
  -5   7   3   49.30    3.80
  -5   7   3   46.20    4.80
  -5   7   3   45.50    3.80
  -5   7   3   46.30    3.90
   4  -7  -3    8.50    1.10
   4  -7  -3    5.50    1.30
   4  -7  -3    7.60    1.40
   4  -7  -3    4.90    0.90
  -4   7   3    5.70    0.90
  -4   7   3    7.90    1.90
  -4   7   3    4.30    0.80
  -4   7   3    6.30    1.00
   3  -7  -3    0.60    0.60
   3  -7  -3    0.50    0.90
   3  -7  -3   -0.10    0.70
   3  -7  -3    0.40    0.50
  -3   7   3   -1.10    0.70
  -3   7   3    0.50    0.50
  -3   7   3    1.30    1.30
  -3   7   3   -1.10    0.50
   2  -7  -3    0.50    0.70
   2  -7  -3   -1.30    0.90
   2  -7  -3    1.30    0.50
   2  -7  -3    1.10    0.60
  -2   7   3    1.30    0.40
  -2   7   3   -0.20    1.20
  -2   7   3    0.70    0.60
  -2   7   3   -0.20    0.70
   1  -7  -3   -1.10    0.80
   1  -7  -3   -1.10    0.50
  -1   7   3    0.20    0.60
  -1   7   3   -0.70    0.70
  -1   7   3   -0.40    1.10
   0  -7  -3   13.00    1.70
   0  -7  -3   14.70    2.10
   0   7   3   15.80    1.60
   0   7   3   17.70    1.80
   0   7   3   15.30    1.80
  -1  -7  -3   40.80    3.40
  -1  -7  -3   34.90    3.60
  -1  -7  -3   38.40    3.50
   1   7   3   40.40    3.60
   1   7   3   37.20    3.50
   1   7   3   41.30    3.30
  -2  -7  -3    7.10    1.20
  -2  -7  -3    6.60    1.10
   2   7   3    6.60    1.20
   2   7   3    6.80    1.30
   2   7   3   10.10    1.70
  -3  -7  -3   10.70    1.70
  -3  -7  -3   12.20    1.60
  -3  -7  -3   13.30    1.70
   3   7   3    9.70    1.70
   3   7   3   14.10    1.60
   3   7   3   13.10    2.00
   3   7   3   12.80    1.80
  -4  -7  -3   -0.80    0.60
  -4  -7  -3    1.10    0.80
   4   7   3    0.00    1.00
   4   7   3   -0.70    0.80
   4   7   3    0.50    0.80
  -5  -7  -3    3.10    0.90
  -5  -7  -3    3.40    1.10
   5   7   3    2.70    1.10
   5   7   3    4.40    1.20
   5   7   3    2.70    1.30
   9  -8  -3    0.30    1.20
   9  -8  -3   -0.10    1.00
   9  -8  -3    0.70    1.60
  -9   8   3    0.70    0.90
  -9   8   3   -1.80    0.90
   8  -8  -3    0.50    1.30
   8  -8  -3    0.00    0.90
   8  -8  -3    2.20    1.50
  -8   8   3    0.70    0.90
  -8   8   3   -1.10    0.80
   7  -8  -3    0.20    1.20
   7  -8  -3    2.50    1.50
   7  -8  -3    1.30    0.90
  -7   8   3    1.20    0.80
  -7   8   3    0.50    0.80
  -7   8   3    0.80    0.80
   6  -8  -3    6.80    1.70
   6  -8  -3   10.10    1.60
   6  -8  -3    6.70    1.70
  -6   8   3    8.30    1.50
  -6   8   3    5.20    2.20
  -6   8   3    9.50    1.50
  -6   8   3   11.60    1.70
   5  -8  -3    1.20    1.20
   5  -8  -3    1.70    0.80
   5  -8  -3    1.40    1.20
  -5   8   3    2.90    0.90
  -5   8   3    2.30    0.80
  -5   8   3    1.90    0.80
  -5   8   3    1.10    1.60
   4  -8  -3   25.30    3.10
   4  -8  -3   26.30    2.40
   4  -8  -3   29.30    2.50
   4  -8  -3   27.50    3.00
  -4   8   3   33.20    3.60
  -4   8   3   27.90    2.60
  -4   8   3   24.40    2.50
  -4   8   3   24.10    2.40
   3  -8  -3    0.10    1.10
   3  -8  -3   -0.50    0.50
   3  -8  -3    0.10    0.80
   3  -8  -3   -0.70    0.70
  -3   8   3   -0.90    0.70
  -3   8   3    0.20    1.30
  -3   8   3   -0.80    0.80
  -3   8   3    0.10    0.40
   2  -8  -3   48.40    4.80
   2  -8  -3   52.79    4.40
  -2   8   3   50.09    4.50
  -2   8   3   60.69    5.20
   1  -8  -3    2.60    1.20
   1  -8  -3    2.40    0.80
  -1   8   3    4.00    0.80
  -1   8   3    4.20    1.50
  -1   8   3    3.00    0.90
   0  -8  -3    0.60    0.90
   0  -8  -3    0.60    0.70
   0   8   3    1.10    0.80
   0   8   3    0.20    0.60
  -1  -8  -3    8.90    1.50
  -1  -8  -3   10.80    1.90
   1   8   3   14.60    1.90
   1   8   3   15.70    1.70
  -2  -8  -3    0.00    0.80
  -2  -8  -3    1.30    0.90
   2   8   3    0.00    1.00
   2   8   3    0.90    0.70
   2   8   3    0.50    1.00
  -3  -8  -3   -0.10    0.80
  -3  -8  -3   -0.70    0.70
   3   8   3    0.60    1.00
   3   8   3    0.40    1.00
  -4  -8  -3    3.70    1.10
  -4  -8  -3    5.60    1.30
   4   8   3    4.80    1.40
   4   8   3    5.80    1.40
   8  -9  -3    0.60    0.90
   8  -9  -3    1.80    1.30
   8  -9  -3    2.30    1.60
  -8   9   3    0.90    0.90
  -8   9   3   -2.10    1.00
   7  -9  -3   14.90    2.70
   7  -9  -3   16.00    2.10
   7  -9  -3   15.90    2.60
  -7   9   3   13.80    1.90
  -7   9   3   10.50    1.90
   6  -9  -3    6.40    1.70
   6  -9  -3    5.90    1.20
   6  -9  -3    9.00    1.90
  -6   9   3    6.20    1.20
  -6   9   3    5.30    1.20
  -6   9   3    5.30    1.10
   5  -9  -3    0.20    1.20
   5  -9  -3    0.40    1.20
  -5   9   3   -1.20    0.70
   4  -9  -3    2.30    0.90
   4  -9  -3    2.80    1.40
   4  -9  -3    3.40    1.10
  -4   9   3    1.10    1.00
  -4   9   3   -0.20    0.90
  -4   9   3    1.70    0.70
  -4   9   3    4.90    1.90
   3  -9  -3   36.20    3.10
   3  -9  -3   33.40    3.70
  -3   9   3   29.40    3.10
   2  -9  -3   -0.30    0.70
   2  -9  -3   -0.40    1.10
  -2   9   3   -0.70    0.80
  -2   9   3   -1.40    0.70
  -2   9   3   -0.90    1.30
   1  -9  -3    2.10    1.20
   1  -9  -3    2.10    0.90
  -1   9   3    2.80    1.00
  -1   9   3    2.10    0.80
   0  -9  -3    0.10    1.10
   0  -9  -3    0.60    0.80
   0   9   3    0.60    0.70
   0   9   3    1.20    0.90
   1   9   3   10.40    1.90
   1   9   3    8.20    1.40
  -2  -9  -3   -0.30    0.80
   2   9   3    1.30    1.10
   2   9   3    0.40    0.70
  -3  -9  -3   -0.60    0.80
   3   9   3    1.50    1.10
   7 -10  -3    4.20    1.70
   7 -10  -3    2.20    1.20
   7 -10  -3    2.80    1.60
  -7  10   3    2.60    1.00
   6 -10  -3    2.20    1.50
   6 -10  -3    4.70    1.60
   6 -10  -3    2.60    1.00
  -6  10   3    2.70    0.90
  -6  10   3   -0.10    1.00
   5 -10  -3   -0.80    1.20
   5 -10  -3    1.00    1.10
   4 -10  -3   -0.40    1.30
  -4  10   3   -1.40    0.90
   3 -10  -3    5.90    1.80
   3 -10  -3    7.00    1.20
  -3  10   3    6.60    1.30
  -3  10   3    3.50    1.10
   2 -10  -3   -0.50    1.30
   2 -10  -3    0.30    0.80
  -2  10   3   -0.70    0.90
  -2  10   3    1.30    0.90
   1 -10  -3   -0.30    1.20
   1 -10  -3    0.00    0.90
  -1  10   3    1.90    0.90
  -1  10   3    1.60    0.80
   0  10   3   16.20    2.10
   0  10   3   11.30    1.70
  -1 -10  -3    6.90    1.60
  -1 -10  -3    6.40    1.30
   4 -11  -3    5.00    1.90
  -4  11   3    4.60    1.80
   3 -11  -3   -0.30    1.00
   3 -11  -3   -0.80    1.40
  -3  11   3   -1.60    1.00
  -2  11   3    3.60    1.00
   1  11  -4    3.40    1.10
  -1 -11   4    1.30    1.30
   0  11  -4   12.40    1.90
   0 -11   4    6.10    1.70
  -1  11  -4   15.30    2.10
  -1  11  -4   19.40    2.20
   1 -11   4   10.20    2.10
  -2  11  -4   37.30    3.30
  -2  11  -4   27.00    3.00
   2 -11   4   32.10    3.70
   2 -11   4   30.90    3.50
  -3  11  -4   26.70    2.80
  -3  11  -4   16.50    2.60
   3 -11   4   21.30    2.90
   3 -11   4   24.10    3.30
  -4  11  -4   -0.10    1.20
  -4  11  -4   -0.90    1.00
   4 -11   4    1.50    1.80
   4 -11   4   -1.30    1.10
  -5  11  -4   -2.50    1.20
  -5  11  -4    0.30    1.30
   5 -11   4   -1.50    1.10
   5 -11   4   -0.70    1.40
   5 -11   4    2.30    1.90
   3  10  -4    3.50    1.10
  -3 -10   4    0.60    1.20
  -3 -10   4    1.30    1.20
   2  10  -4    3.50    1.10
  -2 -10   4    1.40    1.10
  -2 -10   4    2.90    1.20
  -1 -10   4    6.20    1.60
  -1 -10   4    6.70    1.40
   0  10  -4    0.10    0.70
   0  10  -4    2.30    1.00
   0 -10   4   -0.50    1.10
  -1  10  -4   26.90    2.80
  -1  10  -4   30.20    2.90
   1 -10   4   28.10    3.20
   1 -10   4   28.30    3.10
  -2  10  -4   36.80    3.30
  -2  10  -4   25.90    3.00
   2 -10   4   34.30    3.80
   2 -10   4   35.20    3.40
  -3  10  -4    1.90    1.20
  -3  10  -4    0.10    0.90
  -3  10  -4    1.10    1.00
   3 -10   4    0.40    1.10
   3 -10   4    1.10    1.50
   3 -10   4    1.70    1.20
  -4  10  -4    1.90    1.20
  -4  10  -4    0.70    1.10
  -4  10  -4    2.70    1.30
   4 -10   4    3.30    1.10
   4 -10   4    3.40    1.70
   4 -10   4    3.80    1.40
  -5  10  -4   -1.80    1.20
   5 -10   4   -1.40    1.40
   5 -10   4   -0.70    0.80
   5 -10   4    0.90    1.40
  -6  10  -4   -0.20    1.30
   6 -10   4    2.00    1.60
   6 -10   4   -1.00    1.50
   6 -10   4   -0.60    0.80
  -7  10  -4    0.10    1.50
  -7  10  -4   -0.30    1.50
   7 -10   4    1.80    1.90
   5   9  -4    2.20    1.20
   5   9  -4    1.90    1.00
  -5  -9   4    1.00    1.10
  -5  -9   4    0.70    1.20
   4   9  -4    2.40    1.20
   4   9  -4    5.00    1.20
  -4  -9   4    2.10    1.10
  -4  -9   4    2.30    1.10
   3   9  -4    1.30    0.90
   3   9  -4    3.00    1.20
  -3  -9   4    1.50    1.10
  -3  -9   4    0.60    1.00
   2   9  -4   17.10    2.00
  -2  -9   4   16.40    2.20
  -2  -9   4   15.30    2.40
   1   9  -4   14.20    1.70
   1   9  -4   15.40    1.90
  -1  -9   4   10.80    1.80
   0   9  -4   22.90    2.40
   0   9  -4   21.10    2.20
   0  -9   4   16.90    2.30
   0  -9   4   20.60    2.50
  -1   9  -4   12.90    1.70
  -1   9  -4   16.40    2.10
   1  -9   4    9.10    1.70
   1  -9   4   14.20    2.10
  -2   9  -4   10.70    1.70
  -2   9  -4   10.60    2.10
  -2   9  -4    6.00    1.50
  -2   9  -4   10.10    1.60
   2  -9   4    9.10    1.50
   2  -9   4    8.90    1.70
   2  -9   4   10.00    1.80
  -3   9  -4   -0.90    0.90
  -3   9  -4   -0.10    0.90
  -3   9  -4    0.00    0.80
  -3   9  -4    1.10    1.10
   3  -9   4    0.60    0.90
   3  -9   4    0.60    1.00
   3  -9   4    1.20    1.20
  -4   9  -4   -0.10    1.10
  -4   9  -4    1.00    1.20
  -4   9  -4   -1.40    1.00
   4  -9   4   -0.50    1.20
   4  -9   4    0.40    1.10
   4  -9   4   -0.60    0.80
  -5   9  -4    8.60    1.70
  -5   9  -4   12.10    1.90
  -5   9  -4    9.00    1.90
   5  -9   4   16.20    2.50
   5  -9   4   10.70    2.10
   5  -9   4   13.70    1.60
  -6   9  -4   -1.90    1.10
  -6   9  -4    0.00    1.30
   6  -9   4   -0.60    0.70
   6  -9   4    1.00    1.40
   6  -9   4   -1.40    1.40
  -7   9  -4    0.90    1.20
  -7   9  -4    2.60    1.40
   7  -9   4    1.70    0.80
   7  -9   4    1.40    1.60
   7  -9   4    1.20    1.50
  -8   9  -4   16.40    3.80
  -8   9  -4   21.90    3.50
   8  -9   4   13.50    3.00
   6   8  -4    3.80    1.10
   6   8  -4    2.70    1.30
   6   8  -4    2.30    1.70
  -6  -8   4    1.40    1.50
  -6  -8   4    1.70    1.10
  -6  -8   4    2.30    1.30
   5   8  -4   -1.20    0.90
   5   8  -4    0.20    1.10
   5   8  -4   -0.70    1.30
  -5  -8   4   -0.20    1.00
  -5  -8   4   -0.30    0.80
  -5  -8   4   -0.60    1.30
   4   8  -4    1.60    1.10
   4   8  -4    2.50    1.00
  -4  -8   4    2.80    1.10
  -4  -8   4    2.60    1.00
   3   8  -4    0.50    1.00
   3   8  -4    0.20    0.90
  -3  -8   4    0.70    1.00
  -3  -8   4    1.80    1.00
   2   8  -4    8.90    1.20
   2   8  -4    7.20    1.40
   2   8  -4    9.40    1.50
  -2  -8   4    5.90    1.30
  -2  -8   4    6.60    1.30
   1   8  -4    6.00    1.00
   1   8  -4    5.80    0.90
  -1  -8   4    4.10    1.10
  -1  -8   4    3.20    1.10
   0   8  -4   14.60    1.60
   0   8  -4   13.20    1.50
   0  -8   4   11.00    1.70
   0  -8   4    7.50    1.40
   0  -8   4    9.40    1.80
  -1   8  -4  182.08   13.70
  -1   8  -4  181.08   13.60
  -1   8  -4  146.69   13.80
   1  -8   4  188.88   13.70
   1  -8   4  184.58   13.80
   1  -8   4  199.18   13.60
   1  -8   4  165.08   13.90
  -2   8  -4    0.60    0.90
  -2   8  -4    0.30    0.70
  -2   8  -4    0.70    0.80
  -2   8  -4    1.00    0.80
   2  -8   4    2.50    0.80
   2  -8   4   -0.10    0.80
   2  -8   4    1.90    1.00
   2  -8   4    0.70    0.80
  -3   8  -4    4.60    1.40
  -3   8  -4    4.10    1.10
  -3   8  -4    3.30    1.10
  -3   8  -4    4.30    0.90
   3  -8   4    3.50    1.20
   3  -8   4    3.40    0.90
   3  -8   4    4.90    1.40
  -4   8  -4   -1.80    0.90
  -4   8  -4   -0.90    0.70
  -4   8  -4    0.20    1.10
  -4   8  -4   -1.40    0.90
   4  -8   4    0.00    1.10
   4  -8   4   -1.50    1.00
   4  -8   4   -1.30    0.60
   4  -8   4   -0.20    1.00
  -5   8  -4   -1.70    1.00
  -5   8  -4    0.00    1.10
  -5   8  -4    2.00    1.50
  -5   8  -4   -0.50    0.90
   5  -8   4    0.30    1.20
   5  -8   4    0.10    0.70
   5  -8   4    1.10    1.10
   5  -8   4    1.00    1.30
  -6   8  -4    0.30    1.20
  -6   8  -4   -1.20    0.90
  -6   8  -4    0.60    1.00
   6  -8   4    0.40    0.70
   6  -8   4   -0.90    1.20
   6  -8   4   -0.60    1.30
  -7   8  -4    2.10    1.30
  -7   8  -4    2.00    1.40
   7  -8   4    1.70    1.50
   7  -8   4    2.00    1.70
   7  -8   4    2.30    0.80
  -8   8  -4    2.90    1.60
  -8   8  -4    1.70    1.30
   8  -8   4    1.50    1.50
   8  -8   4    3.20    1.90
   8  -8   4    1.70    0.90
   7   7  -4    2.60    1.30
   7   7  -4    1.80    1.00
   7   7  -4    1.50    1.60
  -7  -7   4    1.10    1.20
  -7  -7   4    2.10    1.50
   6   7  -4    5.00    1.60
   6   7  -4    2.40    1.20
   6   7  -4    3.00    1.00
  -6  -7   4    1.20    1.20
  -6  -7   4    2.20    1.20
  -6  -7   4    1.30    1.00
   5   7  -4   -1.10    1.20
   5   7  -4   -1.10    0.70
   5   7  -4   -0.10    1.00
  -5  -7   4    0.60    1.20
  -5  -7   4   -0.50    0.80
  -5  -7   4    0.10    0.90
   4   7  -4   31.30    2.90
   4   7  -4   31.10    3.40
   4   7  -4   28.10    3.20
  -4  -7   4   35.10    3.20
  -4  -7   4   33.00    2.90
  -4  -7   4   27.90    3.20
   3   7  -4    3.30    0.70
   3   7  -4    4.70    0.90
   3   7  -4    3.80    1.20
   3   7  -4    3.90    1.10
  -3  -7   4    1.40    0.90
  -3  -7   4    3.20    1.20
  -3  -7   4    4.70    1.10
   2   7  -4    4.00    0.70
   2   7  -4    4.60    1.60
   2   7  -4    5.00    0.90
   2   7  -4    3.30    1.00
  -2  -7   4    2.40    1.00
  -2  -7   4    2.20    0.90
   1   7  -4   26.50    2.40
   1   7  -4   26.40    2.50
   1   7  -4   28.30    2.40
  -1  -7   4   27.50    2.60
  -1  -7   4   23.10    2.50
  -1  -7   4   26.50    2.50
   0   7  -4   43.60    3.40
   0   7  -4   42.60    3.50
   0   7  -4   33.70    3.50
   0  -7   4   41.20    3.50
   0  -7   4   38.60    3.60
   0  -7   4   43.30    3.50
   0  -7   4   44.20    3.50
  -1   7  -4   40.40    4.00
  -1   7  -4   48.30    3.90
  -1   7  -4   50.29    4.00
   1  -7   4   46.20    4.20
   1  -7   4   48.10    4.10
   1  -7   4   54.89    4.00
   1  -7   4   50.19    4.00
  -2   7  -4    5.30    0.90
  -2   7  -4    3.10    0.90
  -2   7  -4    4.90    0.80
  -2   7  -4    2.00    1.20
   2  -7   4    2.90    1.10
   2  -7   4    2.70    0.90
   2  -7   4    3.70    1.00
   2  -7   4    4.60    0.70
   2  -7   4    3.50    0.80
  -3   7  -4    0.70    0.80
  -3   7  -4    1.00    1.00
  -3   7  -4    1.70    0.70
  -3   7  -4    1.90    1.00
   3  -7   4    2.20    0.60
   3  -7   4    0.70    0.90
   3  -7   4    0.40    0.60
   3  -7   4    1.00    1.00
   3  -7   4    0.30    1.00
  -4   7  -4   -1.30    1.00
  -4   7  -4   -0.10    0.70
  -4   7  -4   -1.00    0.70
  -4   7  -4   -1.00    0.80
   4  -7   4   -1.50    0.90
   4  -7   4   -0.70    0.90
   4  -7   4   -0.20    0.60
  -5   7  -4    8.20    1.90
  -5   7  -4    7.90    1.30
  -5   7  -4   11.50    1.60
  -5   7  -4    7.70    1.60
   5  -7   4    8.10    1.70
   5  -7   4    7.10    1.90
   5  -7   4   11.00    1.30
   5  -7   4    8.60    1.60
  -6   7  -4    2.10    1.00
  -6   7  -4   -0.10    1.20
  -6   7  -4    0.80    1.40
  -6   7  -4    0.70    0.90
   6  -7   4    0.80    1.40
   6  -7   4    2.10    1.40
   6  -7   4    1.80    0.70
   6  -7   4    0.20    1.30
  -7   7  -4   23.60    3.10
  -7   7  -4   26.70    2.80
   7  -7   4   22.90    2.30
   7  -7   4   25.30    3.10
   7  -7   4   30.40    3.50
  -8   7  -4    6.50    1.80
  -8   7  -4    7.10    1.50
   8  -7   4    6.80    1.70
   8  -7   4    7.00    1.10
   8  -7   4    9.30    2.20
  -9   7  -4    2.00    1.50
  -9   7  -4    3.30    1.30
  -9   7  -4    1.80    1.20
   9  -7   4    2.00    1.80
   9  -7   4    0.20    1.40
   8   6  -4    9.80    2.20
   8   6  -4    8.30    1.40
   8   6  -4    6.90    1.70
  -8  -6   4    7.10    1.90
  -8  -6   4    7.00    1.70
   7   6  -4   17.70    2.50
   7   6  -4   11.70    2.30
   7   6  -4   13.60    2.00
  -7  -6   4   15.10    2.30
  -7  -6   4   10.70    2.10
   6   6  -4   22.30    3.00
   6   6  -4   23.20    2.90
   6   6  -4   19.60    2.30
  -6  -6   4   21.80    2.60
  -6  -6   4   23.10    2.40
  -6  -6   4   20.60    2.80
   5   6  -4   -0.20    0.70
   5   6  -4   -0.10    1.10
   5   6  -4   -0.40    0.90
  -5  -6   4    0.10    0.90
  -5  -6   4   -0.50    1.00
  -5  -6   4   -0.40    0.80
   4   6  -4    0.40    0.70
   4   6  -4    1.30    0.60
   4   6  -4    0.00    1.00
   4   6  -4    0.70    0.90
  -4  -6   4    1.40    0.80
  -4  -6   4   -0.70    0.90
  -4  -6   4   -0.60    0.90
   3   6  -4   32.50    3.10
   3   6  -4   34.10    2.70
   3   6  -4   32.90    2.80
   3   6  -4   31.10    3.10
  -3  -6   4   29.90    3.10
  -3  -6   4   30.70    3.00
  -3  -6   4   30.20    2.90
   2   6  -4   25.60    2.20
   2   6  -4   25.00    2.50
   2   6  -4   26.80    2.50
   2   6  -4   24.70    2.30
  -2  -6   4   24.80    2.50
  -2  -6   4   25.80    2.50
  -2  -6   4   26.10    2.40
   1   6  -4   -0.30    0.40
   1   6  -4   -0.30    0.50
   1   6  -4   -0.10    0.50
  -1  -6   4   -0.60    0.50
  -1  -6   4   -0.10    0.50
  -1  -6   4    0.80    0.60
  -1  -6   4    0.00    0.60
   0   6  -4   -0.70    0.60
   0   6  -4   -0.70    0.40
   0   6  -4   -0.20    0.40
   0   6  -4   -0.50    0.40
   0  -6   4   -0.50    0.50
   0  -6   4   -1.00    0.50
   0  -6   4   -0.80    0.50
   0  -6   4   -0.10    0.50
   0  -6   4   -1.30    0.50
  -1   6  -4   50.49    4.60
  -1   6  -4   59.29    4.60
  -1   6  -4   61.69    4.50
   1  -6   4   58.99    4.70
   1  -6   4   50.09    4.90
   1  -6   4   60.49    4.50
   1  -6   4   59.99    4.60
   1  -6   4   55.69    4.80
  -2   6  -4   12.60    1.60
  -2   6  -4   16.40    1.70
  -2   6  -4   12.30    1.90
  -2   6  -4   13.50    1.50
   2  -6   4   14.30    1.70
   2  -6   4   12.00    1.90
   2  -6   4   13.10    1.40
   2  -6   4   15.50    1.30
   2  -6   4   12.90    1.70
  -3   6  -4    7.60    1.20
  -3   6  -4    5.70    1.10
  -3   6  -4    5.70    1.40
  -3   6  -4    7.30    1.10
   3  -6   4    5.40    1.10
   3  -6   4    7.20    1.00
   3  -6   4    6.40    1.20
   3  -6   4    8.00    0.90
   3  -6   4    5.00    1.30
  -4   6  -4   -1.00    0.90
  -4   6  -4   -0.80    0.70
  -4   6  -4    0.00    0.60
   4  -6   4   -0.40    0.90
   4  -6   4   -0.40    0.70
   4  -6   4   -0.40    0.40
   4  -6   4   -1.50    0.80
   4  -6   4   -0.20    0.50
  -5   6  -4    5.60    1.70
  -5   6  -4    6.40    1.10
  -5   6  -4    6.30    1.00
  -5   6  -4    5.40    1.30
   5  -6   4    7.80    1.50
   5  -6   4    8.20    1.00
   5  -6   4    4.20    1.70
   5  -6   4    6.10    1.30
  -6   6  -4    0.00    0.90
  -6   6  -4   -0.80    0.70
  -6   6  -4   -0.50    1.40
   6  -6   4   -1.30    1.30
   6  -6   4   -0.90    1.40
   6  -6   4    0.10    0.60
   6  -6   4   -0.70    1.10
  -7   6  -4   54.69    5.20
  -7   6  -4   49.70    5.60
  -7   6  -4   60.09    5.00
   7  -6   4   64.19    5.50
   7  -6   4   65.59    5.10
   7  -6   4   50.79    5.70
   7  -6   4   54.79    4.60
   7  -6   4   59.39    5.20
  -8   6  -4   27.30    2.80
  -8   6  -4   25.40    2.70
  -8   6  -4   23.00    3.00
   8  -6   4   21.00    2.90
   8  -6   4   26.00    2.90
   8  -6   4   19.50    2.30
   8  -6   4   29.00    3.50
  -9   6  -4   29.60    3.20
  -9   6  -4   27.40    3.10
  -9   6  -4   30.70    3.60
   9  -6   4   25.30    3.30
   9  -6   4   33.60    3.40
   9  -6   4   32.40    4.00
   8   5  -4    0.00    1.50
   8   5  -4   -0.20    0.90
   8   5  -4   -0.30    1.10
  -8  -5   4    0.10    1.10
  -8  -5   4   -0.30    1.20
   7   5  -4    0.10    0.80
   7   5  -4    0.50    1.30
   7   5  -4    0.30    1.00
  -7  -5   4   -0.60    1.00
  -7  -5   4    0.20    1.30
   6   5  -4    4.00    1.20
   6   5  -4    3.80    1.40
   6   5  -4    2.80    0.90
  -6  -5   4    4.20    1.30
  -6  -5   4    3.10    0.80
  -6  -5   4    3.90    1.10
   5   5  -4    3.80    0.70
   5   5  -4    2.90    0.80
   5   5  -4    2.00    1.30
   5   5  -4    2.70    1.00
  -5  -5   4    1.90    1.20
  -5  -5   4    2.50    1.10
  -5  -5   4    2.80    0.90
   4   5  -4    8.00    1.20
   4   5  -4   10.80    1.70
   4   5  -4    5.50    1.20
   4   5  -4    8.70    1.20
  -4  -5   4    7.10    1.20
  -4  -5   4    8.20    1.40
  -4  -5   4    7.20    1.00
   3   5  -4  164.08   12.50
   3   5  -4  156.48   12.20
   3   5  -4  169.28   12.20
   3   5  -4  159.28   12.40
  -3  -5   4  156.98   12.40
  -3  -5   4  154.28   12.40
  -3  -5   4  161.88   12.30
   2   5  -4   88.29    7.00
   2   5  -4   89.39    6.80
   2   5  -4   94.39    6.80
   2   5  -4   89.69    7.00
  -2  -5   4   80.99    6.80
  -2  -5   4   87.19    6.90
  -2  -5   4   89.39    6.90
  -2  -5   4   85.49    7.00
   1   5  -4    6.90    0.80
   1   5  -4    7.10    1.00
   1   5  -4    7.20    0.90
   1   5  -4    6.10    0.90
   1   5  -4    5.60    1.00
  -1  -5   4    6.40    0.90
  -1  -5   4    7.60    1.00
  -1  -5   4    5.90    0.80
  -1  -5   4    6.80    1.00
  -1  -5   4    6.50    1.00
   0   5  -4   39.30    3.20
   0   5  -4   42.20    3.10
   0   5  -4   42.00    3.20
   0   5  -4   41.30    3.20
   0   5  -4   32.80    3.40
   0  -5   4   39.50    3.20
   0  -5   4   37.70    3.30
   0  -5   4   38.60    3.10
   0  -5   4   41.20    3.20
   0  -5   4   34.70    3.40
  -1   5  -4   14.80    1.40
  -1   5  -4   12.20    1.30
  -1   5  -4   12.70    1.70
  -1   5  -4   12.30    1.40
  -1   5  -4   14.20    1.40
   1  -5   4   16.90    1.30
   1  -5   4   15.50    1.30
   1  -5   4   12.30    1.70
   1  -5   4   14.80    1.50
   1  -5   4   12.90    1.50
   1  -5   4   15.20    1.30
  -2   5  -4   36.10    3.80
  -2   5  -4   38.80    3.50
  -2   5  -4   43.20    3.40
  -2   5  -4   44.80    3.40
   2  -5   4   39.60    3.60
   2  -5   4   41.00    3.90
   2  -5   4   46.20    3.30
   2  -5   4   41.50    3.60
   2  -5   4   41.80    3.30
  -3   5  -4   32.70    2.60
  -3   5  -4   32.50    2.60
  -3   5  -4   25.90    3.10
  -3   5  -4   29.30    2.80
   3  -5   4   33.90    2.50
   3  -5   4   28.90    3.20
   3  -5   4   31.50    2.80
   3  -5   4   28.00    2.50
   3  -5   4   32.70    2.90
  -4   5  -4  138.09   10.00
  -4   5  -4  118.79   10.10
  -4   5  -4  145.79    9.90
  -4   5  -4  117.79   10.50
   4  -5   4  134.59    9.80
   4  -5   4  135.19   10.30
   4  -5   4  119.99   10.50
   4  -5   4  123.49    9.80
   4  -5   4  126.79   10.10
  -5   5  -4   50.39    4.90
  -5   5  -4   49.40    5.30
  -5   5  -4   59.69    4.70
  -5   5  -4   63.69    4.60
   5  -5   4   64.29    5.10
   5  -5   4   51.79    5.40
   5  -5   4   60.79    4.90
   5  -5   4   53.49    4.50
   5  -5   4   55.59    4.50
  -6   5  -4    3.00    1.00
  -6   5  -4    0.30    1.20
  -6   5  -4    2.00    0.90
  -6   5  -4    3.40    1.50
   6  -5   4    3.90    0.90
   6  -5   4    3.80    1.20
   6  -5   4    5.40    1.10
   6  -5   4    2.90    0.70
   6  -5   4    2.60    1.50
   6  -5   4    4.80    1.40
  -7   5  -4    5.90    1.30
  -7   5  -4    6.30    1.60
  -7   5  -4    6.50    1.20
  -7   5  -4    5.70    1.70
   7  -5   4    5.90    0.90
   7  -5   4    8.80    1.80
   7  -5   4    4.90    1.70
   7  -5   4    5.90    1.40
  -8   5  -4   66.99    6.30
  -8   5  -4   81.89    6.10
  -8   5  -4   72.79    6.10
   8  -5   4   58.89    5.70
   8  -5   4   79.49    6.60
   8  -5   4   86.29    6.20
   8  -5   4   66.69    6.10
  -9   5  -4    4.10    1.20
  -9   5  -4    4.70    1.50
  -9   5  -4    2.20    0.80
   9  -5   4    3.30    1.70
   9  -5   4    2.60    0.90
   9  -5   4    1.80    1.30
   9   4  -4   25.40    2.90
   9   4  -4   27.80    3.30
   9   4  -4   29.00    3.70
  -9  -4   4   26.90    3.20
  -9  -4   4   24.80    3.10
  -9  -4   4   27.00    3.40
   8   4  -4    4.70    1.70
   8   4  -4    4.80    1.40
   8   4  -4    3.80    1.00
  -8  -4   4    2.30    1.20
  -8  -4   4    4.10    1.40
   7   4  -4    0.10    1.00
   7   4  -4    0.90    1.20
   7   4  -4   -0.30    0.80
  -7  -4   4   -0.10    1.00
  -7  -4   4   -0.10    1.00
   6   4  -4   34.90    3.40
   6   4  -4   27.80    3.10
   6   4  -4   29.40    2.80
   6   4  -4   33.00    2.80
  -6  -4   4   26.60    3.00
  -6  -4   4   30.90    2.70
  -6  -4   4   29.50    3.20
   5   4  -4  148.09   11.80
   5   4  -4  161.88   12.10
   5   4  -4  150.58   12.00
   5   4  -4  158.48   11.70
  -5  -4   4  153.28   11.70
  -5  -4   4  152.18   12.00
  -5  -4   4  144.99   11.90
   4   4  -4   33.80    3.10
   4   4  -4   33.00    2.70
   4   4  -4   29.30    2.70
   4   4  -4   32.30    3.00
  -4  -4   4   33.80    2.70
  -4  -4   4   29.80    3.00
  -4  -4   4   30.70    2.90
   3   4  -4    8.70    1.30
   3   4  -4    8.90    1.40
   3   4  -4    7.40    1.00
   3   4  -4    9.20    1.00
  -3  -4   4    8.20    1.00
  -3  -4   4    8.30    1.30
  -3  -4   4    7.90    1.20
   2   4  -4   -0.60    0.30
   2   4  -4   -0.10    0.50
   2   4  -4    0.30    0.30
   2   4  -4   -0.40    0.30
   2   4  -4    0.20    0.30
   2   4  -4   -0.70    0.40
  -2  -4   4    0.10    0.40
  -2  -4   4   -0.10    0.30
  -2  -4   4    0.20    0.40
   1   4  -4  134.19    9.90
   1   4  -4  148.79    9.90
   1   4  -4  131.79   10.00
   1   4  -4  139.89    9.90
  -1  -4   4  114.69   10.00
  -1  -4   4  120.79    9.90
  -1  -4   4  128.29   10.00
  -1  -4   4  130.49    9.90
  -1  -4   4  124.69   10.00
   0   4  -4  164.58   11.40
   0   4  -4  154.68   11.40
   0   4  -4  163.38   11.40
   0   4  -4  129.09   11.60
   0   4  -4  159.48   11.40
   0  -4   4  136.69   11.60
   0  -4   4  142.99   11.50
   0  -4   4  147.09   11.40
   0  -4   4  161.38   11.40
   0  -4   4  148.89   11.40
  -1   4  -4  227.18   16.70
  -1   4  -4  233.38   16.80
  -1   4  -4  238.68   16.80
  -1   4  -4  205.78   17.10
  -1   4  -4  208.08   16.90
   1  -4   4  231.08   16.80
   1  -4   4  205.08   17.10
   1  -4   4  212.48   16.90
   1  -4   4  240.38   16.90
   1  -4   4  226.78   16.80
  -2   4  -4   69.59    6.00
  -2   4  -4   78.09    5.90
  -2   4  -4   73.79    6.30
  -2   4  -4   78.89    5.90
   2  -4   4   82.19    5.90
   2  -4   4   74.49    6.10
   2  -4   4   75.59    5.90
   2  -4   4   78.59    6.10
   2  -4   4   70.69    6.30
   2  -4   4   81.49    5.80
  -3   4  -4    2.40    0.50
  -3   4  -4    2.00    0.90
  -3   4  -4    3.20    0.70
  -3   4  -4    2.80    0.60
   3  -4   4    2.00    0.50
   3  -4   4    3.00    0.50
   3  -4   4    3.60    0.50
   3  -4   4    2.40    0.70
   3  -4   4    2.70    0.70
   3  -4   4    2.90    1.00
  -4   4  -4   68.69    6.50
  -4   4  -4   85.19    5.80
  -4   4  -4   70.39    6.10
  -4   4  -4   80.69    6.00
   4  -4   4   79.39    6.20
   4  -4   4   73.29    5.80
   4  -4   4   77.19    5.90
   4  -4   4   74.29    6.10
   4  -4   4   68.89    6.50
  -5   4  -4   59.79    4.20
  -5   4  -4   48.20    4.50
  -5   4  -4   52.59    4.40
  -5   4  -4   47.80    4.90
   5  -4   4   46.90    4.90
   5  -4   4   57.39    4.40
   5  -4   4   54.99    4.50
   5  -4   4   50.79    4.20
   5  -4   4   52.79    4.30
   5  -4   4   58.29    4.70
  -6   4  -4   97.89    6.90
  -6   4  -4   76.59    7.00
  -6   4  -4   80.39    7.10
  -6   4  -4   79.19    7.50
   6  -4   4   84.39    6.80
   6  -4   4   81.89    6.70
   6  -4   4  101.59    7.30
   6  -4   4   90.29    7.00
   6  -4   4  101.49    7.00
   6  -4   4   72.29    7.50
  -7   4  -4   21.90    2.50
  -7   4  -4   25.80    2.70
  -7   4  -4   18.60    3.20
   7  -4   4   27.60    3.00
   7  -4   4   21.40    3.40
   7  -4   4   19.10    2.20
   7  -4   4   23.10    2.50
   7  -4   4   20.80    2.00
  -8   4  -4    3.00    1.20
  -8   4  -4    2.30    1.10
  -8   4  -4    2.90    1.40
  -8   4  -4    2.10    1.10
  -8   4  -4    1.70    0.60
   8  -4   4    1.50    0.60
   8  -4   4    2.30    1.50
   8  -4   4    2.00    1.40
   8  -4   4    0.70    1.10
  -9   4  -4    5.00    1.40
  -9   4  -4    3.10    0.80
  -9   4  -4    3.00    1.20
   9  -4   4    2.20    0.70
   9  -4   4    3.30    1.30
   9  -4   4    4.20    1.70
   9   3  -4    0.70    1.10
   9   3  -4    0.10    1.30
   9   3  -4    0.80    0.90
  -9  -3   4    0.60    1.20
  -9  -3   4   -0.70    1.00
  -9  -3   4    1.00    1.10
   8   3  -4    1.10    1.10
   8   3  -4    1.20    0.80
   8   3  -4    1.00    1.30
  -8  -3   4    1.90    1.10
  -8  -3   4    0.00    1.00
  -8  -3   4    2.20    1.30
   7   3  -4    0.00    0.90
   7   3  -4   -1.20    0.60
   7   3  -4   -0.10    0.60
   7   3  -4   -1.00    1.10
  -7  -3   4   -0.90    0.90
  -7  -3   4   -0.10    1.00
   6   3  -4    6.60    1.10
   6   3  -4   10.40    1.80
   6   3  -4    8.40    1.70
  -6  -3   4    8.40    1.30
  -6  -3   4    7.20    1.50
   5   3  -4  179.48   13.70
   5   3  -4  165.98   13.40
   5   3  -4  177.38   13.60
   5   3  -4  189.28   13.40
  -5  -3   4  172.28   13.50
  -5  -3   4  166.58   13.60
  -5  -3   4  176.78   13.30
   4   3  -4   42.10    3.80
   4   3  -4   46.40    3.60
   4   3  -4   45.20    3.90
   4   3  -4   41.90    3.60
  -4  -3   4   44.30    3.50
  -4  -3   4   43.80    3.80
  -4  -3   4   46.80    3.70
   3   3  -4    4.30    0.80
   3   3  -4    5.70    0.80
   3   3  -4    5.20    0.90
   3   3  -4    7.30    0.70
   3   3  -4    6.70    0.80
  -3  -3   4    6.10    0.90
  -3  -3   4    5.30    0.90
  -3  -3   4    5.00    0.70
   2   3  -4   10.30    1.10
   2   3  -4    8.90    1.00
   2   3  -4   11.20    1.00
   2   3  -4    9.10    1.00
   2   3  -4   10.70    1.00
  -2  -3   4   10.60    0.90
  -2  -3   4   10.40    1.10
  -2  -3   4    9.40    1.00
  -2  -3   4    8.90    1.10
  -2  -3   4   10.30    1.00
   1   3  -4  651.53   47.50
   1   3  -4  688.73   47.50
   1   3  -4  641.44   47.60
  -1  -3   4  594.14   47.60
  -1  -3   4  637.04   47.50
  -1  -3   4  652.23   47.50
  -1  -3   4  608.64   47.60
  -1  -3   4  611.54   47.60
   0   3  -4   46.10    3.60
   0   3  -4   47.90    3.60
   0   3  -4   48.20    3.60
   0   3  -4   49.30    3.60
   0  -3   4   45.10    3.80
   0  -3   4   43.30    3.60
   0  -3   4   45.40    3.70
   0  -3   4   46.60    3.60
   0  -3   4   44.50    3.60
  -1   3  -4  972.80   75.09
  -1   3  -4 1017.60   75.09
  -1   3  -4  951.30   75.19
   1  -3   4  974.10   75.19
   1  -3   4  934.51   75.39
   1  -3   4 1099.79   75.19
   1  -3   4  952.10   75.09
   1  -3   4 1162.08   75.49
   1  -3   4  988.60   75.09
  -2   3  -4  663.13   49.90
  -2   3  -4  680.83   49.80
  -2   3  -4  630.94   49.99
   2  -3   4  642.74   49.80
   2  -3   4  714.83   49.99
   2  -3   4  688.03   49.80
   2  -3   4  681.83   49.99
   2  -3   4  630.04   50.19
   2  -3   4  667.33   49.90
  -3   3  -4   91.99    6.50
  -3   3  -4   81.09    7.00
  -3   3  -4   85.29    6.70
   3  -3   4   81.99    6.50
   3  -3   4   91.89    6.70
   3  -3   4   81.69    7.00
   3  -3   4   76.09    6.50
   3  -3   4   87.99    6.50
   3  -3   4   96.59    6.80
   3  -3   4   74.79    6.40
  -4   3  -4   28.20    2.60
  -4   3  -4   28.90    3.00
  -4   3  -4   30.00    2.40
  -4   3  -4   28.20    2.50
   4  -3   4   30.00    2.70
   4  -3   4   26.50    2.90
   4  -3   4   29.90    2.60
   4  -3   4   28.60    2.40
   4  -3   4   24.10    2.40
   4  -3   4   28.20    2.30
  -5   3  -4   65.69    5.70
  -5   3  -4   63.59    6.10
  -5   3  -4   67.49    5.80
  -5   3  -4   78.09    5.50
  -5   3  -4   75.19    5.60
   5  -3   4   69.49    5.50
   5  -3   4   76.89    5.90
   5  -3   4   72.69    5.50
   5  -3   4   77.79    5.60
   5  -3   4   63.89    6.10
   5  -3   4   65.39    5.60
   5  -3   4   73.79    5.70
  -6   3  -4  118.99    9.70
  -6   3  -4  139.99    9.70
  -6   3  -4  125.09    9.80
  -6   3  -4  110.69   10.20
   6  -3   4  106.29   10.20
   6  -3   4  128.19    9.70
   6  -3   4  141.09   10.00
   6  -3   4  141.09    9.70
   6  -3   4  112.99    9.50
   6  -3   4  116.49    9.60
  -7   3  -4   86.89    6.90
  -7   3  -4   67.69    7.10
  -7   3  -4   83.59    6.50
  -7   3  -4   94.49    6.70
  -7   3  -4   86.69    6.70
   7  -3   4   74.89    6.40
   7  -3   4   96.59    7.10
   7  -3   4   85.09    6.70
   7  -3   4   96.99    7.20
   7  -3   4   69.99    7.20
   7  -3   4   69.89    6.60
  -8   3  -4    3.70    1.00
  -8   3  -4    3.20    0.70
  -8   3  -4    4.00    1.10
  -8   3  -4    2.20    1.20
  -8   3  -4    3.30    1.30
   8  -3   4    3.30    1.00
   8  -3   4    1.60    0.60
   8  -3   4    3.00    1.40
   8  -3   4    2.80    1.10
   8  -3   4    3.10    1.50
  -9   3  -4   -0.40    0.50
  -9   3  -4   -0.70    0.90
   9  -3   4   -1.70    0.90
   9  -3   4   -0.10    0.50
  10   2  -4    5.00    1.80
  10   2  -4    4.60    1.30
 -10  -2   4    4.00    1.50
 -10  -2   4    2.80    1.20
 -10  -2   4    3.30    1.50
   9   2  -4    3.80    1.00
   9   2  -4    3.10    1.30
   9   2  -4    3.30    1.50
  -9  -2   4    3.80    1.30
  -9  -2   4    3.90    1.40
  -9  -2   4    2.80    1.10
   8   2  -4   -1.30    0.70
   8   2  -4    0.30    0.80
   8   2  -4    0.20    1.10
   8   2  -4   -0.50    0.90
  -8  -2   4   -0.90    1.00
  -8  -2   4   -0.70    0.80
  -8  -2   4   -1.00    0.90
   7   2  -4   79.99    6.10
   7   2  -4   74.39    6.40
   7   2  -4   81.39    6.60
   7   2  -4   70.39    6.10
  -7  -2   4   74.19    6.50
  -7  -2   4   74.49    6.40
  -7  -2   4   76.99    6.20
   6   2  -4   19.90    2.60
   6   2  -4   22.30    2.40
   6   2  -4   23.90    2.10
   6   2  -4   19.50    2.10
  -6  -2   4   22.10    2.30
  -6  -2   4   20.40    2.20
  -6  -2   4   20.00    2.50
   5   2  -4  261.87   19.10
   5   2  -4  261.17   19.40
   5   2  -4  258.67   19.40
   5   2  -4  243.78   19.20
  -5  -2   4  249.97   19.20
  -5  -2   4  257.27   19.00
  -5  -2   4  241.08   19.30
  -5  -2   4  249.48   19.30
   4   2  -4  147.69   11.00
   4   2  -4  149.29   11.10
   4   2  -4  150.38   10.80
   4   2  -4  145.09   10.90
   4   2  -4  127.49   10.80
  -4  -2   4  147.09   10.80
  -4  -2   4  134.89   11.00
  -4  -2   4  138.49   10.90
   3   2  -4  365.66   27.10
   3   2  -4  362.36   27.20
   3   2  -4  354.16   27.10
   3   2  -4  384.06   27.30
   3   2  -4  369.76   27.10
  -3  -2   4  338.27   27.20
  -3  -2   4  356.66   27.20
  -3  -2   4  359.36   27.10
   2   2  -4    3.90    0.60
   2   2  -4    3.50    0.40
   2   2  -4    3.10    0.50
   2   2  -4    2.50    0.50
   2   2  -4    2.60    0.50
  -2  -2   4    3.50    0.50
  -2  -2   4    2.40    0.50
  -2  -2   4    3.10    0.60
  -2  -2   4    4.10    0.40
   1   2  -4  800.22   52.09
   1   2  -4  765.72   51.89
   1   2  -4  675.83   51.49
   1   2  -4  702.23   51.59
   1   2  -4  643.74   51.59
  -1  -2   4  769.32   51.69
  -1  -2   4  629.64   51.59
  -1  -2   4  666.13   51.49
  -1  -2   4  733.03   51.59
  -1  -2   4  597.34   51.59
  -1  -2   4  614.64   51.59
   0   2  -4  694.53   59.09
   0   2  -4  811.62   59.09
   0   2  -4  878.41   59.09
   0   2  -4  858.31   59.19
   0   2  -4  792.62   59.09
   0  -2   4  732.23   59.09
   0  -2   4  807.52   59.29
   0  -2   4  736.23   59.09
   0  -2   4  779.52   59.09
   0  -2   4  820.52   59.09
  -1   2  -4    0.80    0.30
  -1   2  -4    0.80    0.30
  -1   2  -4    0.90    0.20
  -1   2  -4    0.80    0.30
   1  -2   4    0.80    0.40
   1  -2   4    0.40    0.20
   1  -2   4    1.00    0.40
   1  -2   4    0.70    0.20
   1  -2   4    0.80    0.20
  -2   2  -4   10.80    1.10
  -2   2  -4   10.30    0.90
  -2   2  -4    8.50    1.00
  -2   2  -4   10.80    1.00
   2  -2   4    8.90    0.90
   2  -2   4    8.70    0.80
   2  -2   4    9.80    0.90
   2  -2   4    8.50    0.90
   2  -2   4   11.00    1.10
   2  -2   4   11.90    1.20
   2  -2   4   10.80    1.30
  -3   2  -4  191.18   14.20
  -3   2  -4  191.98   14.30
  -3   2  -4  199.08   14.10
  -3   2  -4  191.78   14.10
   3  -2   4  183.68   14.10
   3  -2   4  160.98   14.10
   3  -2   4  207.78   14.30
   3  -2   4  214.88   14.30
   3  -2   4  158.48   14.20
   3  -2   4  179.58   14.50
   3  -2   4  182.78   14.10
  -4   2  -4  106.89    7.70
  -4   2  -4   99.79    7.80
  -4   2  -4   98.59    7.90
  -4   2  -4  105.39    7.60
   4  -2   4  116.99    8.00
   4  -2   4  103.79    7.60
   4  -2   4   82.99    7.70
   4  -2   4   91.59    8.10
   4  -2   4   93.39    7.70
   4  -2   4  110.19    7.80
   4  -2   4  104.69    7.80
   4  -2   4   94.89    7.70
  -5   2  -4    5.30    1.00
  -5   2  -4    4.20    0.90
  -5   2  -4    5.40    1.30
  -5   2  -4    7.90    0.90
   5  -2   4    4.70    0.80
   5  -2   4    5.80    0.90
   5  -2   4    7.60    1.10
   5  -2   4    4.70    0.80
   5  -2   4    5.20    0.70
   5  -2   4    6.80    1.10
   5  -2   4    6.30    1.20
   5  -2   4    5.10    1.20
  -6   2  -4  189.08   12.80
  -6   2  -4  163.08   12.70
  -6   2  -4  176.18   13.00
  -6   2  -4  175.88   12.90
  -6   2  -4  149.49   13.30
   6  -2   4  149.49   12.80
   6  -2   4  178.38   12.90
   6  -2   4  189.38   13.00
   6  -2   4  151.08   12.70
   6  -2   4  147.79   13.30
  -7   2  -4    5.30    1.40
  -7   2  -4    8.70    1.50
  -7   2  -4    5.70    1.20
  -7   2  -4    5.00    1.10
   7  -2   4    5.00    0.80
   7  -2   4    5.40    1.10
   7  -2   4    5.80    1.50
   7  -2   4    7.50    1.40
   7  -2   4    6.30    1.10
   7  -2   4    4.00    1.00
  -8   2  -4    7.30    1.60
  -8   2  -4   11.60    1.30
  -8   2  -4   11.80    1.70
  -8   2  -4   10.40    2.10
  -8   2  -4   13.50    1.70
   8  -2   4    9.10    1.30
   8  -2   4   11.10    1.60
   8  -2   4   12.50    3.00
   8  -2   4   11.00    1.60
  -9   2  -4    7.80    1.40
  -9   2  -4    6.10    1.00
   9  -2   4    6.80    1.00
   9  -2   4    7.70    1.30
  10   1  -4   -0.30    1.10
  10   1  -4   -0.10    1.40
  10   1  -4    0.40    0.80
 -10  -1   4   -1.10    1.10
 -10  -1   4    1.20    1.30
   9   1  -4    6.30    1.80
   9   1  -4    5.20    1.40
   9   1  -4    4.70    1.10
   9   1  -4    6.40    1.20
  -9  -1   4    2.30    1.10
  -9  -1   4    4.50    1.50
  -9  -1   4    4.70    1.40
   8   1  -4   29.10    3.10
   8   1  -4   26.40    2.70
   8   1  -4   32.00    3.30
   8   1  -4   30.90    2.80
  -8  -1   4   24.60    3.00
  -8  -1   4   24.10    2.70
  -8  -1   4   26.20    3.00
   7   1  -4  108.39    8.40
   7   1  -4  114.69    8.80
   7   1  -4  105.19    8.70
   7   1  -4  103.49    8.40
  -7  -1   4  105.79    8.60
  -7  -1   4  102.79    8.60
  -7  -1   4  107.49    8.50
   6   1  -4   -0.10    0.50
   6   1  -4   -0.90    0.50
   6   1  -4   -0.70    0.70
   6   1  -4   -1.00    0.80
  -6  -1   4   -0.50    0.50
  -6  -1   4   -0.30    0.80
  -6  -1   4    0.40    0.60
   5   1  -4    5.00    0.90
   5   1  -4    3.50    0.70
   5   1  -4    4.00    0.90
   5   1  -4    5.50    0.80
   5   1  -4    4.40    0.90
  -5  -1   4    4.50    0.90
  -5  -1   4    4.70    0.80
  -5  -1   4    5.60    0.60
  -5  -1   4    3.00    0.80
   4   1  -4   53.69    4.20
   4   1  -4   53.49    4.20
   4   1  -4   55.69    4.40
   4   1  -4   48.60    4.20
   4   1  -4   57.99    4.40
  -4  -1   4   50.59    4.30
  -4  -1   4   53.99    4.10
  -4  -1   4   51.19    4.30
  -4  -1   4   52.29    4.20
   3   1  -4   90.79    6.80
   3   1  -4   94.79    6.90
   3   1  -4   89.49    6.80
   3   1  -4   84.79    6.90
  -3  -1   4   90.69    6.80
  -3  -1   4   83.49    6.90
  -3  -1   4   90.39    6.70
  -3  -1   4   88.39    6.90
   2   1  -4 2255.17  158.48
   2   1  -4 2369.16  159.08
   2   1  -4 2102.49  158.78
   2   1  -4 2100.39  158.78
   2   1  -4 2174.88  158.78
  -2  -1   4 1876.61  158.58
  -2  -1   4 1976.90  158.38
  -2  -1   4 2115.89  158.28
  -2  -1   4 2104.89  163.38
   1   1  -4 1630.44  115.99
   1   1  -4 1253.97  108.69
   1   1  -4 1464.75  108.79
   1   1  -4 1561.04  108.89
  -1  -1   4 1414.26  108.59
  -1  -1   4 1564.64  108.89
  -1  -1   4 1326.27  108.49
   0   1  -4  119.59    8.70
   0   1  -4  119.69    8.70
   0   1  -4  115.19    8.70
   0  -1   4  133.89    8.90
   0  -1   4   99.09    8.60
   0  -1   4  116.59    8.70
   0  -1   4  108.89    8.70
   0  -1   4  111.59    8.70
   0  -1   4  115.19    8.70
  -1   1  -4   47.40    3.80
  -1   1  -4   46.80    3.70
  -1   1  -4   54.89    3.80
   1  -1   4   45.20    3.70
   1  -1   4   46.20    3.70
   1  -1   4   49.30    3.80
   1  -1   4   48.00    3.80
   1  -1   4   51.19    4.00
  -2   1  -4 1636.04  113.89
  -2   1  -4 1755.12  113.69
  -2   1  -4 1432.86  113.89
   2  -1   4 1482.75  113.89
   2  -1   4 1323.77  113.79
   2  -1   4 1441.26  113.99
   2  -1   4 1694.53  118.19
   2  -1   4 1576.14  114.29
   2  -1   4 1369.26  113.89
  -3   1  -4   13.90    1.40
  -3   1  -4   13.70    1.10
  -3   1  -4   15.40    1.40
  -3   1  -4   13.50    1.20
   3  -1   4   15.90    1.40
   3  -1   4   11.60    1.20
   3  -1   4   13.60    1.20
   3  -1   4   11.00    1.30
   3  -1   4   12.80    1.60
   3  -1   4   12.60    1.30
   3  -1   4   12.90    1.10
   3  -1   4   16.30    1.60
  -4   1  -4  140.69   10.50
  -4   1  -4  149.59   10.60
  -4   1  -4  135.49   10.60
  -4   1  -4  153.38   10.70
  -4   1  -4  148.69   10.70
   4  -1   4  152.88   10.60
   4  -1   4  126.89   10.60
   4  -1   4  123.09   10.60
   4  -1   4  135.49   11.00
   4  -1   4  117.49   10.60
   4  -1   4  153.88   10.70
   4  -1   4  136.89   10.50
  -5   1  -4   39.40    3.10
  -5   1  -4   37.10    2.80
  -5   1  -4   32.00    2.80
  -5   1  -4   36.60    3.00
   5  -1   4   31.90    3.30
   5  -1   4   31.40    2.80
   5  -1   4   37.60    3.00
   5  -1   4   27.80    3.00
   5  -1   4   38.00    3.30
   5  -1   4   29.80    2.90
  -6   1  -4   10.90    1.90
  -6   1  -4   13.40    1.50
  -6   1  -4   13.70    1.70
  -6   1  -4   10.10    1.20
   6  -1   4    8.30    1.30
   6  -1   4    8.00    1.20
   6  -1   4    9.10    1.40
   6  -1   4    9.50    1.60
   6  -1   4   12.70    1.50
   6  -1   4   11.50    1.90
  -7   1  -4    9.60    1.30
  -7   1  -4    6.90    1.50
  -7   1  -4    6.50    0.90
  -7   1  -4    7.50    1.20
   7  -1   4    6.10    1.20
   7  -1   4    5.80    0.90
   7  -1   4    5.30    1.10
   7  -1   4    7.20    1.60
   7  -1   4    9.40    1.30
  -8   1  -4   -0.20    0.50
  -8   1  -4    0.20    0.80
  -8   1  -4   -0.30    0.70
  -8   1  -4   -0.70    0.80
   8  -1   4   -0.40    0.70
   8  -1   4    1.10    0.80
   8  -1   4    0.50    0.50
   8  -1   4    0.60    0.70
  -9   1  -4    1.00    1.00
  -9   1  -4    0.60    1.00
  -9   1  -4    1.30    0.60
   9  -1   4    2.20    1.10
   9  -1   4    0.60    0.60
   9  -1   4    2.40    1.00
  10   0  -4    2.70    1.00
  10   0  -4    3.70    1.30
  10   0  -4    3.90    1.60
  10   0  -4    1.70    1.20
 -10   0   4    2.00    1.30
 -10   0   4    2.90    1.30
   9   0  -4    1.80    1.30
   9   0  -4    0.10    0.80
   9   0  -4    0.20    1.00
   9   0  -4    1.40    0.90
  -9   0   4    1.20    1.10
  -9   0   4   -1.00    1.00
   8   0  -4    0.40    0.70
   8   0  -4    1.40    0.80
   8   0  -4    1.40    1.00
   8   0  -4    0.60    1.10
  -8   0   4    1.10    1.00
  -8   0   4    0.50    1.00
  -8   0   4    0.60    0.80
   7   0  -4  122.89    9.30
   7   0  -4  125.29    9.60
   7   0  -4  127.89    9.60
   7   0  -4  101.69    9.50
   7   0  -4  111.89    9.30
  -7   0   4  119.49    9.50
  -7   0   4  122.69    9.30
  -7   0   4  122.39    9.50
   6   0  -4   12.70    1.40
   6   0  -4   13.10    1.70
   6   0  -4   13.40    1.50
   6   0  -4   18.10    1.90
   6   0  -4   11.20    1.60
  -6   0   4   13.60    1.70
  -6   0   4   12.20    1.50
  -6   0   4   13.40    1.70
   5   0  -4   72.59    5.70
   5   0  -4   70.69    5.70
   5   0  -4   76.89    5.80
   5   0  -4   61.69    5.70
  -5   0   4   71.69    5.80
  -5   0   4   69.99    5.60
  -5   0   4   79.49    5.80
  -5   0   4   73.39    5.80
   4   0  -4   56.79    5.00
   4   0  -4   68.29    5.00
   4   0  -4   62.19    4.90
   4   0  -4   63.29    4.90
  -4   0   4   64.39    5.00
  -4   0   4   64.19    4.90
  -4   0   4   63.09    4.80
  -4   0   4   61.39    5.00
   3   0  -4  100.39    7.50
   3   0  -4   94.29    7.60
   3   0  -4  103.29    7.60
   3   0  -4   98.89    7.50
  -3   0   4   92.39    7.50
  -3   0   4   99.29    7.60
  -3   0   4   99.69    7.50
   2   0  -4   12.70    1.20
   2   0  -4   11.30    1.10
   2   0  -4   12.60    1.10
   2   0  -4   14.10    1.20
   2   0  -4   13.90    1.10
  -2   0   4   12.10    1.10
  -2   0   4   12.60    1.10
  -2   0   4   13.30    1.10
   1   0  -4  266.17   19.80
   1   0  -4  257.07   19.80
   1   0  -4  285.67   19.80
  -1   0   4  275.77   19.80
  -1   0   4  246.28   19.70
  -1   0   4  224.28   19.70
  -1   0   4  291.77   19.70
   0   0  -4   39.10    2.80
   0   0  -4   37.40    2.90
   0   0   4   38.20    2.90
   0   0   4   33.30    2.80
   0   0   4   37.20    2.80
   0   0   4   35.10    2.80
  -1   0  -4  324.47   25.70
  -1   0  -4  387.96   25.70
  -1   0  -4  361.86   25.80
   1   0   4  327.57   25.80
   1   0   4  303.07   25.80
   1   0   4  342.47   25.80
   1   0   4  364.66   25.80
   1   0   4  340.87   25.80
  -2   0  -4  903.31   74.99
  -2   0  -4 1034.30   74.89
  -2   0  -4 1020.50   75.09
   2   0   4 1106.59   75.19
   2   0   4 1073.89   75.29
   2   0   4  994.80   74.99
   2   0   4  881.51   74.89
   2   0   4 1008.10   74.99
  -3   0  -4    8.40    0.80
  -3   0  -4    8.00    0.80
  -3   0  -4   10.30    1.00
  -3   0  -4    9.30    1.00
   3   0   4    8.20    0.80
   3   0   4    9.20    1.00
   3   0   4    5.50    0.90
   3   0   4    8.70    1.20
   3   0   4    7.30    0.70
   3   0   4    6.40    0.90
   3   0   4    7.80    0.90
  -4   0  -4    3.90    0.70
  -4   0  -4    3.40    0.60
  -4   0  -4    4.20    0.70
   4   0   4    3.80    0.70
   4   0   4    2.80    0.70
   4   0   4    2.70    0.60
   4   0   4    3.00    0.60
   4   0   4    2.80    0.50
   4   0   4    3.00    0.80
  -5   0  -4   18.80    1.70
   5   0   4   16.10    1.90
   5   0   4   21.00    2.30
   5   0   4   17.80    1.90
   5   0   4   18.50    1.70
   5   0   4   15.30    1.90
   5   0   4   21.30    1.90
  -6   0  -4   24.00    2.30
  -6   0  -4   24.80    2.10
   6   0   4   19.70    2.50
   6   0   4   19.60    2.30
   6   0   4   22.40    2.10
   6   0   4   24.20    2.60
   6   0   4   22.20    2.30
  -7   0  -4    4.30    1.00
  -7   0  -4    4.00    0.70
  -7   0  -4    6.10    1.00
   7   0   4    4.20    0.80
   7   0   4    4.60    0.90
   7   0   4    5.00    1.00
   7   0   4    4.30    1.10
  -8   0  -4    3.50    0.80
  -8   0  -4    5.30    1.20
  -8   0  -4    3.00    1.10
   8   0   4    4.10    1.20
   8   0   4    3.80    0.80
   8   0   4    5.30    1.10
  -9   0  -4    1.60    1.00
  -9   0  -4   -0.10    0.60
  -9   0  -4    0.10    1.00
   9   0   4    1.30    1.10
   9   0   4    0.40    0.60
   9   0   4    0.20    0.90
  10  -1  -4    2.90    1.00
  10  -1  -4    2.90    1.20
  10  -1  -4    0.90    1.20
 -10   1   4    0.40    1.00
 -10   1   4    1.30    0.90
 -10   1   4    0.80    1.20
   9  -1  -4   75.09    5.90
   9  -1  -4   76.79    6.10
   9  -1  -4   65.19    5.70
  -9   1   4   65.69    5.90
  -9   1   4   60.59    5.60
  -9   1   4   72.89    6.00
   8  -1  -4    4.50    1.40
   8  -1  -4    4.10    0.90
   8  -1  -4    4.10    1.20
   8  -1  -4    4.00    1.00
  -8   1   4    2.90    1.10
  -8   1   4    4.70    1.20
  -8   1   4    5.30    1.00
   7  -1  -4    0.80    0.90
   7  -1  -4    1.30    0.90
   7  -1  -4    1.70    0.70
   7  -1  -4    0.90    0.70
  -7   1   4    2.10    0.80
  -7   1   4    1.30    0.80
  -7   1   4    2.60    0.90
   6  -1  -4   14.90    1.70
   6  -1  -4   14.00    1.90
   6  -1  -4   17.10    1.90
   6  -1  -4   14.70    1.60
  -6   1   4   18.00    2.00
  -6   1   4   17.90    1.80
  -6   1   4   18.00    1.80
  -6   1   4   17.60    1.60
   5  -1  -4   10.00    1.30
   5  -1  -4    9.10    1.10
   5  -1  -4    8.20    1.30
   5  -1  -4   10.40    1.10
  -5   1   4    9.00    1.20
  -5   1   4   10.10    1.20
  -5   1   4    9.70    1.00
  -5   1   4    8.00    1.40
   4  -1  -4    2.70    0.50
   4  -1  -4    2.30    0.50
   4  -1  -4    2.80    0.60
   4  -1  -4    1.50    0.60
  -4   1   4    2.70    0.50
  -4   1   4    0.90    0.70
  -4   1   4    2.90    0.50
  -4   1   4    3.80    0.50
   3  -1  -4   11.90    1.30
   3  -1  -4   13.90    1.30
   3  -1  -4   13.90    1.40
   3  -1  -4   17.30    1.40
   3  -1  -4   14.80    1.30
  -3   1   4   14.50    1.20
  -3   1   4   14.50    1.30
  -3   1   4   15.80    1.30
  -3   1   4   14.20    1.20
   2  -1  -4  216.28   17.30
   2  -1  -4  247.48   17.30
   2  -1  -4  218.08   17.40
   2  -1  -4  225.38   17.30
   2  -1  -4  242.58   17.50
  -2   1   4  247.48   17.30
  -2   1   4  231.38   17.30
  -2   1   4  196.28   17.30
  -2   1   4  252.57   17.30
   1  -1  -4  152.48   11.50
   1  -1  -4  153.38   11.60
   1  -1  -4  142.69   11.50
   1  -1  -4  139.49   11.50
   1  -1  -4  164.48   11.60
  -1   1   4  147.29   11.50
  -1   1   4  171.88   11.50
  -1   1   4  152.78   11.50
   0  -1  -4  120.29    8.30
   0  -1  -4   98.69    8.10
   0  -1  -4  102.99    8.20
   0  -1  -4  115.49    8.30
   0   1   4   92.69    8.10
   0   1   4  103.09    8.20
   0   1   4  124.09    8.20
   0   1   4  104.39    8.20
   0   1   4  113.79    8.20
  -1  -1  -4  136.89   10.50
  -1  -1  -4  156.08   10.60
  -1  -1  -4  142.39   10.50
   1   1   4  136.49   10.50
   1   1   4  128.99   10.60
   1   1   4  139.69   10.60
   1   1   4  135.29   10.60
   1   1   4  141.49   10.50
  -2  -1  -4   24.80    2.10
  -2  -1  -4   30.90    2.20
   2   1   4   21.90    2.10
   2   1   4   23.80    2.20
   2   1   4   26.70    2.10
   2   1   4   26.00    2.20
   2   1   4   26.80    2.00
  -3  -1  -4    8.80    0.90
   3   1   4   11.20    1.30
   3   1   4    7.60    1.00
   3   1   4    9.20    1.00
   3   1   4    9.50    0.90
   3   1   4    8.20    1.10
   3   1   4    9.70    0.90
  -4  -1  -4  185.48   13.80
   4   1   4  172.28   13.90
   4   1   4  206.08   14.10
   4   1   4  171.78   14.00
   4   1   4  172.58   13.90
   4   1   4  181.58   13.80
  -5  -1  -4    4.20    0.70
  -5  -1  -4    4.10    0.90
  -5  -1  -4    6.70    1.00
   5   1   4    3.30    0.80
   5   1   4    2.50    1.00
   5   1   4    3.50    0.80
   5   1   4    4.70    1.00
   5   1   4    4.60    0.70
  -6  -1  -4    5.30    1.10
  -6  -1  -4    6.10    0.90
   6   1   4    6.40    1.10
   6   1   4    6.60    0.90
   6   1   4    6.50    1.10
   6   1   4    6.00    1.30
  -7  -1  -4    1.60    0.60
  -7  -1  -4    1.80    0.70
  -7  -1  -4    0.50    0.80
   7   1   4    1.90    0.80
   7   1   4    1.90    0.90
   7   1   4    0.80    0.70
   7   1   4    1.20    0.70
  -8  -1  -4   -0.50    0.80
  -8  -1  -4    0.40    0.90
  -8  -1  -4    0.70    0.70
   8   1   4    0.50    0.80
   8   1   4    0.20    0.80
   8   1   4    1.00    1.00
   8   1   4    0.20    0.60
  -9  -1  -4   -0.10    1.00
  -9  -1  -4   -0.10    0.60
  -9  -1  -4   -0.60    0.90
   9   1   4    1.30    1.20
   9   1   4    0.70    1.00
  11  -2  -4   -0.10    1.10
  11  -2  -4   -0.10    0.90
  11  -2  -4   -1.50    1.30
 -11   2   4   -1.40    1.20
 -11   2   4    0.40    0.90
  10  -2  -4    2.50    1.00
  10  -2  -4    2.60    1.30
  10  -2  -4    1.70    1.30
 -10   2   4    1.70    1.20
 -10   2   4    2.10    1.20
 -10   2   4    1.40    0.90
   9  -2  -4    8.90    1.50
   9  -2  -4   12.40    2.20
   9  -2  -4   12.50    1.70
   9  -2  -4    9.30    2.20
  -9   2   4    9.40    1.60
  -9   2   4   12.10    2.10
  -9   2   4    8.70    1.60
   8  -2  -4   48.00    4.20
   8  -2  -4   55.89    4.40
   8  -2  -4   40.50    4.30
   8  -2  -4   42.60    4.00
  -8   2   4   44.60    4.00
  -8   2   4   50.59    4.30
  -8   2   4   51.69    4.30
   7  -2  -4   10.50    1.50
   7  -2  -4    9.10    1.30
   7  -2  -4   10.60    1.70
   7  -2  -4    7.60    1.50
  -7   2   4   12.80    1.60
  -7   2   4   11.90    1.70
  -7   2   4   12.20    2.00
  -7   2   4    9.90    1.30
   6  -2  -4   20.50    2.40
   6  -2  -4   22.60    2.20
   6  -2  -4   21.90    2.10
   6  -2  -4   26.70    2.30
  -6   2   4   21.80    2.10
  -6   2   4   25.30    2.20
  -6   2   4   23.50    2.60
  -6   2   4   23.00    2.20
   5  -2  -4    5.80    1.00
   5  -2  -4    4.50    0.70
   5  -2  -4    4.10    0.70
   5  -2  -4    3.20    0.60
   5  -2  -4    4.60    0.90
  -5   2   4    3.70    0.60
  -5   2   4    4.10    1.10
  -5   2   4    3.70    0.70
  -5   2   4    4.80    0.60
  -5   2   4    4.70    0.80
   4  -2  -4    9.00    1.10
   4  -2  -4    9.90    1.30
   4  -2  -4    8.50    1.10
   4  -2  -4   12.00    1.10
  -4   2   4   11.80    1.10
  -4   2   4   11.50    0.90
  -4   2   4   10.30    1.00
  -4   2   4   11.30    1.10
  -4   2   4   13.00    1.50
   3  -2  -4    0.60    0.20
   3  -2  -4    0.10    0.30
   3  -2  -4   -0.20    0.40
   3  -2  -4   -0.20    0.30
   3  -2  -4    0.30    0.10
  -3   2   4    0.50    0.30
  -3   2   4    0.20    0.20
  -3   2   4    0.60    0.10
  -3   2   4    0.00    0.60
  -3   2   4    0.50    0.30
   2  -2  -4   29.50    2.20
   2  -2  -4   26.10    2.20
   2  -2  -4   27.10    2.40
   2  -2  -4   26.90    2.40
   2  -2  -4   27.20    2.20
  -2   2   4   33.90    2.20
  -2   2   4   29.80    2.30
  -2   2   4   24.40    2.20
   1  -2  -4   39.00    2.90
   1  -2  -4   36.50    3.00
   1  -2  -4   33.10    2.90
   1  -2  -4   37.90    3.00
  -1   2   4   34.60    2.80
  -1   2   4   41.40    2.90
  -1   2   4   36.50    2.90
   0  -2  -4  284.97   20.60
   0  -2  -4  263.07   20.50
   0  -2  -4  280.97   20.60
   0   2   4  308.07   20.60
   0   2   4  238.98   20.40
   0   2   4  280.87   20.50
   0   2   4  267.57   20.50
   0   2   4  262.27   20.50
  -1  -2  -4  857.31   60.19
  -1  -2  -4  785.32   60.09
   1   2   4  789.52   60.19
   1   2   4  788.72   60.19
   1   2   4  824.62   60.39
   1   2   4  802.02   60.19
   1   2   4  787.12   60.09
  -2  -2  -4  287.77   21.50
  -2  -2  -4  313.17   21.60
   2   2   4  286.67   21.50
   2   2   4  262.17   21.60
   2   2   4  262.17   21.60
   2   2   4  315.77   21.50
   2   2   4  275.17   21.60
  -3  -2  -4   89.39    6.20
  -3  -2  -4   73.69    6.20
  -3  -2  -4   78.69    6.10
   3   2   4   80.09    6.10
   3   2   4   87.39    6.00
   3   2   4   70.59    6.20
   3   2   4   72.39    6.20
   3   2   4   72.99    6.20
  -4  -2  -4  189.38   14.50
  -4  -2  -4  195.08   14.30
   4   2   4  197.18   14.30
   4   2   4  182.58   14.50
   4   2   4  184.78   14.60
   4   2   4  184.38   14.50
  -5  -2  -4   22.80    2.40
  -5  -2  -4   24.10    2.20
   5   2   4   22.80    2.20
   5   2   4   29.60    2.60
   5   2   4   22.80    2.40
   5   2   4   24.30    2.40
   5   2   4   21.10    2.60
  -6  -2  -4   -0.90    0.50
  -6  -2  -4   -1.10    0.60
  -6  -2  -4   -0.60    0.60
   6   2   4    0.20    0.70
   6   2   4   -1.10    0.80
   6   2   4   -0.50    0.70
   6   2   4   -0.90    0.50
  -7  -2  -4    3.30    1.10
  -7  -2  -4    2.40    0.70
   7   2   4    3.20    1.00
   7   2   4    4.00    1.10
   7   2   4    3.60    1.20
  -8  -2  -4    2.40    1.10
  -8  -2  -4    4.30    0.90
  -8  -2  -4    5.10    1.40
   8   2   4    4.10    1.20
   8   2   4    3.90    1.10
   8   2   4    5.40    1.40
  11  -3  -4    1.50    1.50
  11  -3  -4    4.90    1.40
  11  -3  -4    4.60    1.20
 -11   3   4    5.90    1.20
 -11   3   4    2.20    1.20
 -11   3   4    2.60    1.40
  10  -3  -4    1.10    0.90
  10  -3  -4    1.50    1.30
  10  -3  -4    1.10    1.10
 -10   3   4    0.90    1.20
 -10   3   4    1.50    0.90
   9  -3  -4   20.80    2.60
   9  -3  -4   18.00    2.40
   9  -3  -4   17.10    2.60
   9  -3  -4   16.10    2.20
  -9   3   4   17.50    2.10
  -9   3   4   20.40    2.50
   8  -3  -4    9.20    1.40
   8  -3  -4    9.30    1.50
   8  -3  -4    7.10    1.60
   8  -3  -4   10.10    1.50
  -8   3   4    9.80    1.70
  -8   3   4   10.90    2.20
  -8   3   4   11.70    1.50
  -8   3   4   14.10    1.80
   7  -3  -4   -0.10    0.90
   7  -3  -4   -0.60    0.60
   7  -3  -4    0.50    0.80
   7  -3  -4   -0.80    0.80
   7  -3  -4    0.30    0.50
  -7   3   4   -0.50    0.70
  -7   3   4    0.00    0.70
  -7   3   4   -0.40    1.00
  -7   3   4    0.60    0.50
   6  -3  -4    4.10    0.70
   6  -3  -4    2.70    1.00
   6  -3  -4    3.70    0.70
   6  -3  -4    2.90    0.70
  -6   3   4    3.60    0.70
  -6   3   4    4.30    0.80
  -6   3   4    3.50    1.20
  -6   3   4    4.30    0.80
   5  -3  -4  101.89    7.90
   5  -3  -4  102.19    7.80
   5  -3  -4   94.09    8.10
  -5   3   4  109.89    7.90
  -5   3   4  103.89    7.80
  -5   3   4   97.29    7.80
   4  -3  -4    3.50    0.40
   4  -3  -4    2.70    0.80
   4  -3  -4    2.90    0.60
   4  -3  -4    3.60    0.60
   4  -3  -4    2.70    0.60
  -4   3   4    4.80    0.60
  -4   3   4    3.70    0.50
  -4   3   4    4.10    1.00
   3  -3  -4  207.38   16.40
   3  -3  -4  221.88   16.50
   3  -3  -4  192.88   16.20
   3  -3  -4  231.98   16.30
   3  -3  -4  208.98   16.30
  -3   3   4  236.98   16.30
  -3   3   4  211.18   16.20
   2  -3  -4   17.20    1.80
   2  -3  -4   18.20    1.60
   2  -3  -4   16.80    1.60
  -2   3   4   23.30    1.60
  -2   3   4   19.90    1.60
  -2   3   4   17.80    1.60
  -2   3   4   21.80    1.60
   1  -3  -4   68.49    6.10
   1  -3  -4   77.99    6.30
   1  -3  -4   77.29    6.30
   1  -3  -4   84.19    6.10
  -1   3   4   86.69    6.10
  -1   3   4   78.89    6.10
  -1   3   4   86.99    6.20
   0  -3  -4   73.59    6.00
   0  -3  -4   75.59    6.00
   0  -3  -4   66.09    5.80
   0  -3  -4   76.49    5.90
   0   3   4   80.19    5.90
   0   3   4   81.99    5.80
   0   3   4   78.49    5.90
   0   3   4   80.09    5.90
  -1  -3  -4   37.10    2.90
  -1  -3  -4   35.50    2.90
  -1  -3  -4   33.60    2.80
  -1  -3  -4   33.80    2.80
   1   3   4   33.60    2.90
   1   3   4   35.30    2.90
   1   3   4   33.70    2.90
   1   3   4   36.80    2.80
  -2  -3  -4    5.90    0.80
  -2  -3  -4    7.10    0.70
  -2  -3  -4    6.40    0.90
  -2  -3  -4    5.40    0.80
   2   3   4    6.30    0.70
   2   3   4    3.80    0.90
   2   3   4    4.40    0.80
   2   3   4    5.30    0.80
  -3  -3  -4  185.08   14.00
  -3  -3  -4  182.58   13.90
  -3  -3  -4  198.68   14.00
   3   3   4  172.58   14.10
   3   3   4  179.98   14.00
   3   3   4  179.08   14.00
  -4  -3  -4   48.70    4.00
  -4  -3  -4   45.70    4.20
  -4  -3  -4   57.39    4.10
   4   3   4   45.40    4.30
   4   3   4   49.99    4.20
   4   3   4   46.90    4.20
  -5  -3  -4    2.10    0.60
  -5  -3  -4    1.90    0.80
  -5  -3  -4    3.40    0.70
   5   3   4    1.10    0.80
   5   3   4    2.00    0.80
   5   3   4   -0.40    0.90
  -6  -3  -4    0.10    0.70
  -6  -3  -4    1.00    0.60
   6   3   4    0.50    0.70
   6   3   4    1.10    0.80
   6   3   4   -0.10    0.90
  -7  -3  -4    1.80    0.70
  -7  -3  -4    1.10    0.90
   7   3   4    1.60    0.90
   7   3   4    2.70    1.00
   7   3   4    3.10    1.20
  -8  -3  -4    3.40    1.50
  -8  -3  -4    1.90    0.70
  -8  -3  -4   -0.70    1.00
   8   3   4    2.30    1.20
   8   3   4    2.10    1.10
   8   3   4    0.70    1.10
  10  -4  -4    6.40    1.30
  10  -4  -4    7.80    1.90
  10  -4  -4    3.90    1.40
 -10   4   4   10.30    1.70
 -10   4   4    7.20    1.50
 -10   4   4    5.80    1.30
   9  -4  -4    4.70    1.30
   9  -4  -4    5.30    1.60
   9  -4  -4    6.00    1.10
  -9   4   4    4.90    1.10
  -9   4   4    5.50    1.10
  -9   4   4    5.30    1.40
   8  -4  -4    6.00    1.10
   8  -4  -4    5.50    1.20
   8  -4  -4    6.70    1.60
  -8   4   4    7.20    1.20
  -8   4   4    9.30    1.90
  -8   4   4    6.60    1.10
   7  -4  -4    0.50    0.60
   7  -4  -4    0.70    0.50
   7  -4  -4    1.20    1.00
   7  -4  -4   -0.40    0.60
  -7   4   4   -0.50    1.10
  -7   4   4    0.00    0.60
  -7   4   4    0.80    0.70
   6  -4  -4   29.40    2.70
   6  -4  -4   29.30    2.80
   6  -4  -4   25.90    3.10
  -6   4   4   33.10    2.60
  -6   4   4   31.60    3.40
  -6   4   4   35.40    2.80
  -6   4   4   31.40    2.70
   5  -4  -4   63.19    5.10
   5  -4  -4   59.59    5.50
   5  -4  -4   53.19    5.20
   5  -4  -4   60.99    5.20
  -5   4   4   71.09    5.10
  -5   4   4   61.99    5.10
  -5   4   4   75.89    5.80
  -5   4   4   74.09    5.10
   4  -4  -4   10.70    1.10
   4  -4  -4   13.20    1.40
   4  -4  -4   12.50    1.70
   4  -4  -4   15.30    1.30
   4  -4  -4   12.50    1.50
  -4   4   4   16.10    1.40
  -4   4   4   13.10    1.30
  -4   4   4   15.50    2.10
   3  -4  -4   66.99    5.60
   3  -4  -4   67.39    5.60
   3  -4  -4   66.19    5.40
   3  -4  -4   64.59    5.30
  -3   4   4   76.89    5.40
  -3   4   4   71.99    5.30
   2  -4  -4  142.09   11.80
   2  -4  -4  154.78   12.00
   2  -4  -4  167.38   11.70
   2  -4  -4  164.28   11.80
   2  -4  -4  145.49   12.00
  -2   4   4  162.38   11.80
  -2   4   4  158.58   11.70
  -2   4   4  150.38   11.70
   1  -4  -4   39.50    3.00
   1  -4  -4   39.50    3.00
   1  -4  -4   34.80    3.20
   1  -4  -4   33.60    2.90
   1  -4  -4   37.30    3.20
  -1   4   4   39.30    3.00
  -1   4   4   41.40    3.10
  -1   4   4   39.60    3.10
  -1   4   4   35.10    3.00
   0  -4  -4   51.89    4.10
   0  -4  -4   47.40    4.10
   0  -4  -4   51.39    4.20
   0  -4  -4   52.79    4.10
   0   4   4   52.99    4.10
   0   4   4   50.39    4.00
   0   4   4   54.49    4.20
   0   4   4   51.59    4.10
  -1  -4  -4    2.30    0.50
  -1  -4  -4    2.10    0.60
  -1  -4  -4    2.00    0.50
  -1  -4  -4    1.80    0.50
   1   4   4    1.60    0.60
   1   4   4    1.20    0.60
   1   4   4    1.50    0.60
   1   4   4    2.20    0.40
  -2  -4  -4   70.69    5.70
  -2  -4  -4   73.19    5.80
  -2  -4  -4   72.49    5.80
   2   4   4   74.99    5.80
   2   4   4   71.99    5.80
   2   4   4   72.39    5.90
  -3  -4  -4   23.60    2.20
  -3  -4  -4   19.60    2.10
  -3  -4  -4   20.20    2.00
   3   4   4   18.20    2.20
   3   4   4   21.80    2.20
   3   4   4   21.20    2.30
  -4  -4  -4    2.60    0.70
  -4  -4  -4    3.40    0.80
  -4  -4  -4    3.10    0.90
   4   4   4    3.80    0.90
   4   4   4    3.20    1.00
   4   4   4    1.60    0.80
  -5  -4  -4   18.10    1.90
  -5  -4  -4   18.60    2.10
  -5  -4  -4   21.30    2.00
   5   4   4   18.20    2.20
   5   4   4   13.40    2.30
   5   4   4   19.20    2.20
  -6  -4  -4    4.40    1.10
  -6  -4  -4    4.30    0.90
   6   4   4    5.00    1.40
   6   4   4    3.40    1.10
   6   4   4    4.30    1.10
  -7  -4  -4    1.70    0.80
  -7  -4  -4    1.60    1.00
   7   4   4    2.90    1.20
   7   4   4    2.10    1.10
   7   4   4    3.20    1.10
  10  -5  -4    4.10    1.40
  10  -5  -4    5.60    1.90
  10  -5  -4    4.70    1.20
 -10   5   4    4.70    1.20
 -10   5   4    3.70    1.20
 -10   5   4    5.60    1.40
   9  -5  -4   -1.00    0.90
   9  -5  -4   -0.30    1.40
   9  -5  -4   -1.20    0.80
  -9   5   4    0.40    1.40
  -9   5   4   -0.80    0.90
  -9   5   4   -0.60    0.90
  -9   5   4   -0.90    0.80
   8  -5  -4    0.70    0.70
   8  -5  -4    1.80    1.20
   8  -5  -4    0.10    0.80
   8  -5  -4    0.70    0.70
  -8   5   4    2.40    1.50
  -8   5   4    1.30    0.80
  -8   5   4    0.70    0.80
  -8   5   4    1.70    0.80
   7  -5  -4   13.80    1.90
   7  -5  -4   14.40    2.50
   7  -5  -4   16.60    2.00
   7  -5  -4   17.40    1.80
  -7   5   4   16.90    1.80
  -7   5   4   20.40    1.90
  -7   5   4   18.40    2.80
  -7   5   4   15.90    1.90
   6  -5  -4   10.10    1.60
   6  -5  -4   13.20    2.10
   6  -5  -4   14.60    1.50
   6  -5  -4   12.20    1.70
  -6   5   4   13.70    1.50
  -6   5   4   11.70    1.60
  -6   5   4   16.60    2.50
  -6   5   4   15.60    1.60
   5  -5  -4  144.79   11.10
   5  -5  -4  138.99   11.40
   5  -5  -4  128.59   11.20
  -5   5   4  167.38   11.00
  -5   5   4  138.49   11.00
  -5   5   4  142.39   11.00
   4  -5  -4    1.30    0.80
   4  -5  -4    1.60    0.40
   4  -5  -4    1.50    0.50
   4  -5  -4    1.50    0.80
  -4   5   4    2.10    0.50
  -4   5   4    1.30    0.50
  -4   5   4    2.30    1.20
  -4   5   4    2.40    0.50
  -4   5   4    1.90    0.50
   3  -5  -4   11.50    1.60
   3  -5  -4   13.50    1.30
   3  -5  -4   12.00    1.20
   3  -5  -4   11.70    1.60
  -3   5   4   12.30    1.20
  -3   5   4   14.40    1.30
  -3   5   4   16.30    2.20
  -3   5   4   10.20    1.30
   2  -5  -4    3.90    0.90
   2  -5  -4    3.90    0.60
   2  -5  -4    4.00    0.60
   2  -5  -4    3.30    0.80
  -2   5   4    6.20    0.90
  -2   5   4    5.90    0.70
  -2   5   4    3.60    0.60
  -2   5   4    5.00    1.30
   1  -5  -4   29.30    2.30
   1  -5  -4   25.40    2.40
   1  -5  -4   25.60    2.20
   1  -5  -4   29.10    2.30
   1  -5  -4   26.40    2.60
  -1   5   4   24.40    2.20
  -1   5   4   30.20    2.40
  -1   5   4   26.20    2.30
  -1   5   4   29.40    2.40
  -1   5   4   27.50    2.30
   0  -5  -4   55.39    4.40
   0  -5  -4   50.19    4.40
   0  -5  -4   54.89    4.40
   0  -5  -4   52.99    4.60
   0   5   4   54.19    4.40
   0   5   4   57.79    4.40
   0   5   4   58.39    4.50
   0   5   4   54.09    4.30
  -1  -5  -4    8.10    1.10
  -1  -5  -4    7.00    1.20
  -1  -5  -4    8.30    1.10
   1   5   4    7.60    1.10
   1   5   4    7.50    1.20
   1   5   4    9.30    1.00
   1   5   4    8.00    1.20
  -2  -5  -4    8.80    1.40
  -2  -5  -4    9.30    1.50
  -2  -5  -4    8.70    1.30
   2   5   4   10.80    1.50
   2   5   4    9.60    1.40
   2   5   4   11.90    1.20
   2   5   4   10.20    1.50
  -3  -5  -4   59.89    5.20
  -3  -5  -4   66.29    5.30
  -3  -5  -4   61.39    5.10
   3   5   4   62.79    5.30
   3   5   4   65.49    5.30
   3   5   4   63.49    5.40
  -4  -5  -4    4.60    0.80
  -4  -5  -4    3.40    0.90
  -4  -5  -4    5.20    1.00
   4   5   4    3.60    1.00
   4   5   4    4.20    1.30
   4   5   4    3.30    1.00
  -5  -5  -4   -0.10    0.70
  -5  -5  -4    0.20    0.60
   5   5   4   -0.10    0.80
   5   5   4   -0.60    0.90
   5   5   4   -0.50    0.70
  -6  -5  -4    5.70    1.00
  -6  -5  -4    3.00    1.10
   6   5   4    4.80    1.40
   6   5   4    4.00    1.20
   6   5   4    4.50    1.20
  10  -6  -4   -1.10    1.00
  10  -6  -4   -1.70    0.90
  10  -6  -4    1.80    1.50
 -10   6   4   -0.50    0.90
 -10   6   4   -1.50    0.90
   9  -6  -4   -0.40    1.10
   9  -6  -4    0.80    0.90
   9  -6  -4    2.40    1.50
  -9   6   4    0.90    0.90
  -9   6   4    1.30    1.10
  -9   6   4    1.40    1.00
   8  -6  -4    0.60    1.20
   8  -6  -4    0.00    0.70
   8  -6  -4   -1.70    0.80
   8  -6  -4   -1.10    0.70
  -8   6   4   -1.20    0.70
  -8   6   4   -1.20    0.70
  -8   6   4   -1.10    1.40
  -8   6   4   -0.80    0.70
   7  -6  -4    6.20    1.20
   7  -6  -4    6.40    1.60
   7  -6  -4    4.10    1.10
  -7   6   4    7.90    1.30
  -7   6   4    7.10    1.90
  -7   6   4    4.30    1.00
  -7   6   4    5.60    1.00
   6  -6  -4   31.40    3.00
   6  -6  -4   32.10    3.50
   6  -6  -4   27.60    3.20
  -6   6   4   36.20    4.00
  -6   6   4   30.40    2.90
  -6   6   4   37.00    2.90
  -6   6   4   33.40    2.90
   5  -6  -4  316.07   24.30
   5  -6  -4  314.07   24.70
   5  -6  -4  299.87   24.60
  -5   6   4  337.67   24.30
  -5   6   4  296.47   24.30
  -5   6   4  364.96   24.30
   4  -6  -4  451.15   34.90
   4  -6  -4  443.46   34.50
   4  -6  -4  459.05   34.90
  -4   6   4  473.95   34.50
  -4   6   4  517.05   34.50
  -4   6   4  411.46   34.50
   3  -6  -4    1.70    1.00
   3  -6  -4    2.40    0.60
   3  -6  -4    1.60    0.50
   3  -6  -4    2.20    0.80
  -3   6   4    1.40    0.50
  -3   6   4    2.40    1.30
  -3   6   4    1.70    0.60
  -3   6   4    2.70    0.60
   2  -6  -4   15.90    1.60
   2  -6  -4   14.30    1.80
   2  -6  -4   14.90    1.40
   2  -6  -4   12.80    1.90
  -2   6   4   14.90    1.50
  -2   6   4   15.00    1.70
  -2   6   4   15.60    1.50
  -2   6   4   14.00    1.40
  -2   6   4   20.60    2.60
   1  -6  -4   12.70    1.60
   1  -6  -4   11.90    1.80
   1  -6  -4   15.50    1.50
  -1   6   4   14.90    1.50
  -1   6   4   14.50    1.60
  -1   6   4   13.20    1.50
   0  -6  -4   16.80    1.90
   0  -6  -4   20.90    1.90
   0  -6  -4   15.90    2.10
   0   6   4   19.90    1.90
   0   6   4   19.80    2.00
   0   6   4   18.40    2.00
   0   6   4   18.90    1.80
  -1  -6  -4   35.80    3.30
  -1  -6  -4   36.80    3.20
  -1  -6  -4   33.20    3.40
   1   6   4   41.90    3.20
   1   6   4   39.30    3.40
   1   6   4   38.60    3.30
   1   6   4   38.40    3.40
  -2  -6  -4    5.60    1.10
  -2  -6  -4    4.50    1.00
  -2  -6  -4    4.10    0.90
   2   6   4    4.60    1.00
   2   6   4    3.80    1.00
   2   6   4    5.00    1.10
   2   6   4    7.50    1.10
  -3  -6  -4   50.49    4.40
  -3  -6  -4   47.90    4.20
  -3  -6  -4   49.40    4.40
   3   6   4   55.19    4.60
   3   6   4   51.19    4.40
   3   6   4   51.09    4.60
  -4  -6  -4   11.30    1.60
  -4  -6  -4   10.50    1.40
  -4  -6  -4   10.60    1.70
   4   6   4   10.20    1.80
   4   6   4    7.80    1.50
   4   6   4   10.90    1.70
  -5  -6  -4   26.10    2.50
  -5  -6  -4   25.10    2.70
   5   6   4   25.20    2.80
   5   6   4   25.90    2.90
   5   6   4   24.80    3.00
  -6  -6  -4    2.90    1.10
  -6  -6  -4    2.50    0.90
   6   6   4    3.50    1.20
   6   6   4    4.10    1.20
   6   6   4    5.40    1.50
   9  -7  -4    5.60    1.80
   9  -7  -4    3.50    1.40
   9  -7  -4    4.70    1.30
  -9   7   4    3.80    1.20
  -9   7   4    4.60    1.20
  -9   7   4    4.70    1.20
   8  -7  -4   17.80    2.40
   8  -7  -4   20.60    3.10
   8  -7  -4   17.30    2.40
  -8   7   4   18.70    2.30
  -8   7   4   21.60    2.40
  -8   7   4   18.30    2.10
   7  -7  -4   19.60    2.70
   7  -7  -4   18.70    2.30
   7  -7  -4   21.60    3.00
  -7   7   4   23.00    3.40
  -7   7   4   22.80    2.20
  -7   7   4   17.60    2.20
  -7   7   4   19.30    2.10
   6  -7  -4    0.50    1.10
   6  -7  -4    0.40    1.00
   6  -7  -4    0.60    0.80
  -6   7   4    0.20    0.70
  -6   7   4    0.20    1.50
  -6   7   4    0.10    0.60
  -6   7   4    0.20    0.80
   5  -7  -4    1.60    1.10
   5  -7  -4    1.50    1.10
   5  -7  -4    1.60    0.70
  -5   7   4    0.70    0.60
  -5   7   4    1.10    1.60
  -5   7   4    1.90    0.60
  -5   7   4    1.90    0.70
   4  -7  -4   12.80    2.00
   4  -7  -4    8.50    1.70
   4  -7  -4   11.40    1.40
  -4   7   4   12.10    1.40
  -4   7   4   12.70    1.60
  -4   7   4   14.70    2.70
  -4   7   4    9.80    1.30
   3  -7  -4   43.50    3.50
   3  -7  -4   40.00    3.80
   3  -7  -4   44.90    3.50
   3  -7  -4   43.60    4.00
  -3   7   4   42.60    3.60
  -3   7   4   39.70    3.50
  -3   7   4   40.00    3.40
   2  -7  -4   33.50    2.70
   2  -7  -4   28.70    2.90
   2  -7  -4   30.10    3.10
  -2   7   4   31.20    2.80
  -2   7   4   27.40    2.60
   1  -7  -4    0.10    0.60
   1  -7  -4   -0.90    0.80
  -1   7   4   -0.10    0.70
  -1   7   4    0.20    1.30
  -1   7   4   -0.20    0.60
   0  -7  -4   -0.70    0.80
   0   7   4    0.40    1.20
   0   7   4   -0.30    0.70
   0   7   4    0.70    0.70
   0   7   4   -0.20    0.60
  -1  -7  -4   47.00    4.10
  -1  -7  -4   42.50    3.80
   1   7   4   49.70    3.70
   1   7   4   42.10    3.90
   1   7   4   43.70    4.00
   1   7   4   40.00    4.00
  -2  -7  -4   40.70    3.80
  -2  -7  -4   38.70    3.70
  -2  -7  -4   39.80    3.60
   2   7   4   43.60    3.90
   2   7   4   40.80    3.90
   2   7   4   48.50    3.60
   2   7   4   42.90    3.80
  -3  -7  -4   18.50    2.20
  -3  -7  -4   20.00    2.30
  -3  -7  -4   17.20    2.00
   3   7   4   18.80    2.40
   3   7   4   19.50    2.20
   3   7   4   17.80    2.40
  -4  -7  -4    1.40    0.80
  -4  -7  -4    1.80    0.90
   4   7   4    0.80    1.00
   4   7   4    2.20    0.90
   4   7   4    2.10    1.00
  -5  -7  -4    3.90    1.10
  -5  -7  -4    3.30    1.00
   5   7   4    4.90    1.40
   5   7   4    5.00    1.20
   5   7   4    5.50    1.40
   9  -8  -4    0.00    1.00
   9  -8  -4    1.00    1.20
   9  -8  -4    1.00    1.50
  -9   8   4   -1.80    0.90
  -9   8   4   -0.70    0.90
   8  -8  -4   -0.80    0.90
   8  -8  -4    0.70    1.40
   8  -8  -4    0.40    1.10
  -8   8   4    0.00    0.90
  -8   8   4   -1.40    0.90
   7  -8  -4   55.49    4.80
   7  -8  -4   56.49    5.50
   7  -8  -4   50.09    5.10
  -7   8   4   55.59    4.70
  -7   8   4   53.59    4.70
  -7   8   4   60.19    4.70
   6  -8  -4   99.19    7.60
   6  -8  -4   91.69    8.10
   6  -8  -4   91.19    8.10
  -6   8   4  102.69    7.60
  -6   8   4   91.59    7.50
  -6   8   4   92.49    7.60
   5  -8  -4   33.20    2.90
   5  -8  -4   32.50    3.50
   5  -8  -4   30.80    3.50
  -5   8   4   33.70    3.00
  -5   8   4   30.80    2.90
  -5   8   4   29.60    2.90
   4  -8  -4   15.80    2.40
   4  -8  -4   14.50    2.20
   4  -8  -4   15.90    1.70
  -4   8   4   13.60    1.50
  -4   8   4   13.60    1.70
  -4   8   4   15.30    1.90
   3  -8  -4   -0.80    1.00
   3  -8  -4   -0.60    0.80
   3  -8  -4   -0.30    0.60
  -3   8   4   -1.00    0.80
  -3   8   4    0.20    1.50
  -3   8   4   -1.30    0.70
   2  -8  -4    1.00    0.70
   2  -8  -4    0.50    1.10
  -2   8   4    0.30    0.70
  -2   8   4    1.30    1.50
  -2   8   4    0.50    0.80
   1  -8  -4   10.00    1.80
   1  -8  -4   11.40    1.50
  -1   8   4   11.80    1.70
  -1   8   4   10.50    1.50
   0  -8  -4    0.50    0.70
   0  -8  -4    0.60    0.90
   0   8   4    0.30    0.60
   0   8   4    0.70    0.80
  -1  -8  -4   15.80    2.00
  -1  -8  -4   17.30    2.30
   1   8   4   19.90    2.30
   1   8   4   19.20    1.90
  -2  -8  -4    3.40    1.10
  -2  -8  -4    0.40    0.80
   2   8   4    2.10    1.00
   2   8   4    4.60    1.20
  -3  -8  -4    3.80    1.00
  -3  -8  -4    3.20    1.20
   3   8   4    3.70    1.20
   3   8   4    4.80    1.30
  -4  -8  -4    0.60    1.00
  -4  -8  -4    0.10    1.00
   4   8   4    0.90    1.00
   4   8   4    1.70    1.70
   8  -9  -4    2.40    1.60
   8  -9  -4    0.80    1.00
   8  -9  -4    1.40    1.30
  -8   9   4    1.60    0.90
  -8   9   4   -1.30    0.90
   7  -9  -4    3.00    1.60
   7  -9  -4    2.60    1.50
   7  -9  -4    1.70    0.90
  -7   9   4    2.10    0.90
  -7   9   4    0.10    0.90
  -7   9   4   -0.10    1.00
   6  -9  -4    4.10    1.10
   6  -9  -4    4.30    1.60
   6  -9  -4    4.60    1.50
  -6   9   4    1.70    1.00
  -6   9   4    2.20    1.00
  -6   9   4    3.40    1.00
   5  -9  -4    1.30    1.20
   5  -9  -4    1.30    0.90
   5  -9  -4    2.40    1.40
  -5   9   4   -0.20    1.00
  -5   9   4    1.80    0.80
  -5   9   4   -1.40    1.10
   4  -9  -4    0.70    1.00
   4  -9  -4   -0.10    1.20
   3  -9  -4   -0.50    0.70
   3  -9  -4   -0.40    1.10
  -3   9   4   -1.80    0.80
  -3   9   4    0.60    1.80
   2  -9  -4    2.70    0.90
   2  -9  -4    3.90    1.50
  -2   9   4    2.80    0.90
  -2   9   4    3.30    1.00
  -2   9   4    4.80    1.80
   1  -9  -4    0.30    1.10
   1  -9  -4    1.70    0.80
  -1   9   4    1.10    1.90
  -1   9   4    1.10    0.80
  -1   9   4    0.30    0.70
   0  -9  -4    1.10    1.10
   0  -9  -4    1.20    0.90
   0   9   4    3.00    1.00
   0   9   4    2.90    0.80
  -1  -9  -4   16.10    2.50
  -1  -9  -4   15.70    2.10
   1   9   4   20.10    2.10
   1   9   4   19.70    2.40
  -2  -9  -4    1.30    0.90
  -2  -9  -4    1.40    1.00
   2   9   4    3.10    1.20
   6 -10  -4    3.60    1.50
   6 -10  -4    0.70    1.40
   6 -10  -4    0.50    0.90
  -6  10   4   -0.80    1.00
  -6  10   4   -1.60    1.00
  -6  10   4    1.20    0.80
   5 -10  -4    1.90    1.50
   5 -10  -4    4.80    1.50
  -5  10   4   -0.20    1.00
  -5  10   4   -0.20    1.10
   4 -10  -4   -1.30    1.30
  -4  10   4   -2.10    0.90
  -4  10   4   -2.10    1.10
   3 -10  -4    5.00    1.70
  -3  10   4    5.00    1.20
   2 -10  -4    3.00    1.50
   2 -10  -4    1.50    0.90
  -2  10   4    1.70    0.90
  -2  10   4    3.00    1.00
   1 -10  -4   13.70    2.10
   1 -10  -4   14.20    2.60
  -1  10   4   16.80    1.90
  -1  10   4   20.30    2.30
   0 -10  -4    4.80    1.60
   0 -10  -4    4.50    1.10
   1  11  -5    5.70    1.40
  -1 -11   5    1.20    1.40
   0  11  -5   -0.50    0.90
   0  11  -5    1.40    1.10
   0 -11   5   -1.80    1.20
  -1  11  -5    2.10    1.10
  -1  11  -5    5.70    1.30
   1 -11   5    4.20    1.60
  -2  11  -5   20.60    2.60
  -2  11  -5   27.00    2.70
   2 -11   5   22.90    3.50
   2 -11   5   24.30    3.10
  -3  11  -5   26.30    2.70
  -3  11  -5   22.00    2.70
   3 -11   5   23.10    3.00
   3 -11   5   25.10    3.40
  -4  11  -5   16.10    2.20
  -4  11  -5   11.00    1.70
   4 -11   5   11.60    2.50
   4 -11   5   10.40    1.90
   3  10  -5    4.80    1.20
  -3 -10   5    2.50    1.30
  -3 -10   5    1.40    1.20
   2  10  -5    1.70    1.00
  -2 -10   5    0.10    1.20
  -2 -10   5    0.10    1.10
   1  10  -5    5.40    1.20
   1  10  -5    4.50    1.00
  -1 -10   5    1.70    1.30
  -1 -10   5    3.50    1.40
   0  10  -5    1.80    1.00
   0  10  -5    0.30    0.80
   0 -10   5    0.80    1.20
  -1  10  -5    2.10    1.00
  -1  10  -5    4.40    1.10
   1 -10   5    3.20    1.40
  -2  10  -5    3.50    1.10
   2 -10   5    3.50    1.40
   2 -10   5    4.70    1.50
  -3  10  -5   -0.10    1.00
  -3  10  -5    1.80    1.00
  -3  10  -5    0.90    1.10
  -3  10  -5    2.10    1.30
   3 -10   5    0.60    1.30
   3 -10   5    0.70    1.20
   3 -10   5   -0.60    1.10
  -4  10  -5   27.40    3.20
  -4  10  -5   25.90    2.90
  -4  10  -5   27.10    2.90
   4 -10   5   29.50    3.60
   4 -10   5   30.00    3.50
   4 -10   5   27.60    2.90
  -5  10  -5    8.10    1.90
  -5  10  -5    6.10    1.50
  -5  10  -5    3.20    1.40
   5 -10   5    6.40    1.30
   5 -10   5   10.20    2.10
   5 -10   5    8.30    2.00
  -6  10  -5    2.40    1.50
  -6  10  -5   -1.60    1.40
   6 -10   5    2.80    1.20
   6 -10   5    2.80    1.80
   6 -10   5    3.70    1.80
   5   9  -5    0.80    1.20
   5   9  -5    0.50    1.20
  -5  -9   5   -0.30    1.00
  -5  -9   5   -1.50    1.20
   4   9  -5    1.20    1.70
   4   9  -5    1.60    1.00
  -4  -9   5    0.50    1.10
  -4  -9   5   -0.20    1.00
   3   9  -5   -1.20    0.90
  -3  -9   5   -1.00    0.90
  -3  -9   5   -0.30    1.00
   2   9  -5   -1.00    0.60
   2   9  -5    0.20    0.80
  -2  -9   5   -0.70    0.90
  -2  -9   5   -0.10    1.00
   1   9  -5    4.00    1.10
   1   9  -5    3.50    0.80
  -1  -9   5    3.60    1.10
  -1  -9   5    1.20    1.20
   0   9  -5  178.48   14.50
   0   9  -5  194.28   14.50
   0  -9   5  185.68   14.70
   0  -9   5  199.28   14.60
  -1   9  -5   18.20    2.10
  -1   9  -5   18.20    2.00
   1  -9   5   15.60    2.30
   1  -9   5   14.90    2.40
   1  -9   5   18.30    2.20
  -2   9  -5   38.90    4.10
  -2   9  -5   44.20    3.90
  -2   9  -5   48.00    4.00
   2  -9   5   50.09    4.10
   2  -9   5   47.10    4.60
   2  -9   5   48.10    4.30
  -3   9  -5   30.80    3.00
  -3   9  -5   30.80    3.00
  -3   9  -5   24.40    3.40
  -3   9  -5   28.00    3.20
   3  -9   5   34.40    3.00
   3  -9   5   35.30    3.40
   3  -9   5   34.00    3.50
  -4   9  -5    0.60    1.20
  -4   9  -5   -1.80    1.10
  -4   9  -5   -1.50    1.10
  -4   9  -5   -0.30    0.90
   4  -9   5   -0.40    1.20
   4  -9   5    0.00    1.30
   4  -9   5   -0.60    0.80
  -5   9  -5    0.80    1.40
  -5   9  -5    1.50    1.10
   5  -9   5    4.00    1.50
   5  -9   5    2.50    0.90
   5  -9   5    3.10    1.60
  -6   9  -5    3.00    1.50
  -6   9  -5   -0.20    1.20
   6  -9   5    2.10    1.70
   6  -9   5    1.40    0.90
  -7   9  -5    2.00    1.50
  -7   9  -5   -2.50    1.40
   7  -9   5    1.00    1.60
   7  -9   5    0.50    1.70
   7  -9   5    0.20    1.00
   6   8  -5    1.40    1.00
   6   8  -5    1.50    1.40
   6   8  -5   -0.40    1.50
  -6  -8   5   -0.40    1.40
  -6  -8   5   -0.20    1.20
   5   8  -5    1.40    1.20
   5   8  -5    1.60    1.00
   5   8  -5    2.50    1.50
  -5  -8   5    1.90    1.20
  -5  -8   5    1.10    1.00
   4   8  -5    0.90    0.90
   4   8  -5    0.10    1.00
  -4  -8   5   -0.60    0.90
  -4  -8   5   -0.10    0.90
   3   8  -5   -0.40    0.90
   3   8  -5   -0.40    0.50
   3   8  -5    0.00    0.80
  -3  -8   5   -0.80    0.80
  -3  -8   5   -0.30    0.90
   2   8  -5    6.00    1.00
   2   8  -5    8.70    1.40
  -2  -8   5    5.80    1.30
  -2  -8   5    6.70    1.30
   1   8  -5   29.00    2.60
   1   8  -5   29.10    2.80
  -1  -8   5   27.90    2.90
  -1  -8   5   27.80    2.90
   0   8  -5  282.37   21.00
   0   8  -5  275.47   21.00
   0  -8   5  305.87   21.10
   0  -8   5  278.87   21.10
   0  -8   5  244.78   21.20
  -1   8  -5   26.30    2.90
  -1   8  -5   31.40    2.80
  -1   8  -5   29.70    2.80
   1  -8   5   33.60    3.10
   1  -8   5   31.30    2.80
   1  -8   5   29.30    2.90
   1  -8   5   28.00    3.20
  -2   8  -5    0.90    0.90
  -2   8  -5    0.40    0.80
  -2   8  -5   -0.40    0.90
  -2   8  -5    0.40    1.00
   2  -8   5   -0.70    0.80
   2  -8   5   -0.50    1.00
   2  -8   5   -0.40    1.00
   2  -8   5   -1.00    0.60
   2  -8   5   -0.30    1.00
  -3   8  -5    7.40    1.20
  -3   8  -5    7.20    1.30
  -3   8  -5    6.20    1.40
  -3   8  -5    7.10    1.60
   3  -8   5    9.40    1.70
   3  -8   5    9.10    1.20
   3  -8   5    5.70    1.60
   3  -8   5    8.50    1.60
  -4   8  -5    7.00    1.60
  -4   8  -5    6.60    1.30
  -4   8  -5    7.30    1.80
  -4   8  -5    7.20    1.30
   4  -8   5    8.50    1.20
   4  -8   5   10.20    1.80
   4  -8   5    5.80    1.70
   4  -8   5    7.70    1.70
  -5   8  -5    7.20    1.60
  -5   8  -5    4.40    1.20
  -5   8  -5    5.80    1.30
  -5   8  -5    5.00    1.80
   5  -8   5    5.50    1.80
   5  -8   5    7.00    1.10
   5  -8   5    8.00    1.70
   5  -8   5    6.50    1.70
  -6   8  -5    0.90    1.30
  -6   8  -5   -1.10    1.10
   6  -8   5    0.80    1.40
   6  -8   5    0.00    0.70
   6  -8   5    1.20    1.50
  -7   8  -5    2.30    1.40
  -7   8  -5    5.80    1.70
   7  -8   5    4.30    1.00
   7  -8   5    7.10    2.10
   7  -8   5    3.90    1.70
  -8   8  -5   16.80    2.80
  -8   8  -5    9.20    1.80
   8  -8   5   11.70    1.70
   8  -8   5   11.10    2.30
   7   7  -5    2.00    1.30
   7   7  -5    0.40    1.60
   7   7  -5    1.90    1.10
  -7  -7   5   -0.30    1.20
  -7  -7   5    0.20    1.40
   6   7  -5    0.60    1.30
   6   7  -5    0.40    1.10
   6   7  -5    0.30    1.00
  -6  -7   5   -0.40    1.10
  -6  -7   5    0.90    1.10
   5   7  -5    0.20    1.00
   5   7  -5   -0.80    1.10
   5   7  -5    0.10    0.80
  -5  -7   5   -0.80    1.00
  -5  -7   5   -1.10    0.80
  -5  -7   5    0.70    1.00
   4   7  -5   15.40    1.60
   4   7  -5   16.80    1.90
   4   7  -5   16.20    2.40
   4   7  -5   12.50    2.10
  -4  -7   5   13.90    2.20
  -4  -7   5   16.50    1.90
  -4  -7   5   19.20    2.20
   3   7  -5    9.00    1.50
   3   7  -5   10.80    1.90
   3   7  -5    9.20    1.20
   3   7  -5    9.50    1.50
  -3  -7   5    7.90    1.40
  -3  -7   5    8.20    1.30
  -3  -7   5    8.40    1.50
   2   7  -5   27.40    2.70
   2   7  -5   27.70    2.60
   2   7  -5   28.50    2.40
  -2  -7   5   27.80    2.90
  -2  -7   5   23.40    2.70
   1   7  -5   43.60    3.50
   1   7  -5   41.50    3.60
  -1  -7   5   41.70    3.70
  -1  -7   5   40.20    3.60
   0   7  -5    3.80    0.90
   0  -7   5    4.00    1.00
   0  -7   5    4.60    1.00
   0  -7   5    4.50    1.00
  -1   7  -5   27.30    2.70
  -1   7  -5   31.50    2.70
  -1   7  -5   30.80    2.60
   1  -7   5   28.60    2.90
   1  -7   5   22.60    2.90
   1  -7   5   32.60    2.70
   1  -7   5   32.20    2.90
   1  -7   5   31.80    2.70
  -2   7  -5    0.70    0.70
  -2   7  -5    0.60    0.70
  -2   7  -5    0.70    1.00
  -2   7  -5    0.40    0.80
   2  -7   5    0.40    0.80
   2  -7   5    0.80    0.60
   2  -7   5    1.20    0.90
   2  -7   5    0.00    0.70
   2  -7   5    0.60    1.00
  -3   7  -5    7.50    1.70
  -3   7  -5    8.40    1.30
  -3   7  -5   10.20    1.50
  -3   7  -5   10.10    1.70
   3  -7   5   12.80    1.90
   3  -7   5   12.40    1.40
   3  -7   5    7.70    1.70
   3  -7   5   10.60    1.20
   3  -7   5    9.70    1.80
  -4   7  -5   79.39    6.50
  -4   7  -5   66.19    7.10
  -4   7  -5   86.79    6.50
  -4   7  -5   81.39    6.80
   4  -7   5   94.99    7.00
   4  -7   5   71.09    7.20
   4  -7   5   84.39    6.90
   4  -7   5   85.79    6.40
  -5   7  -5    2.20    1.30
  -5   7  -5    1.30    0.90
  -5   7  -5    2.90    1.50
  -5   7  -5    3.10    1.00
   5  -7   5    2.40    1.50
   5  -7   5    2.70    0.80
   5  -7   5    2.70    1.40
   5  -7   5    2.60    1.30
  -6   7  -5   49.60    5.70
  -6   7  -5   67.39    5.10
  -6   7  -5   55.69    5.20
   6  -7   5   54.19    4.60
   6  -7   5   50.59    5.70
   6  -7   5   61.89    5.30
  -7   7  -5   25.50    3.20
  -7   7  -5   29.60    3.10
   7  -7   5   28.60    3.60
   7  -7   5   22.60    2.40
   7  -7   5   24.50    3.20
  -8   7  -5    7.90    1.90
  -8   7  -5   13.60    2.20
  -8   7  -5    6.80    1.60
   8  -7   5    7.70    1.90
   8  -7   5    8.50    2.20
   8  -7   5    7.10    1.20
   8   6  -5    0.70    1.00
   8   6  -5   -0.40    1.20
   8   6  -5   -1.30    1.50
  -8  -6   5   -1.60    1.30
  -8  -6   5   -1.30    1.20
   7   6  -5    1.60    1.50
   7   6  -5    1.80    1.00
   7   6  -5    1.90    1.30
  -7  -6   5    2.50    1.20
  -7  -6   5    1.50    1.30
   6   6  -5    0.90    1.10
   6   6  -5    0.50    0.80
   6   6  -5    0.60    1.30
  -6  -6   5    0.70    1.30
  -6  -6   5    0.90    1.00
   5   6  -5    2.40    1.20
   5   6  -5    1.60    1.10
   5   6  -5    1.70    0.80
   5   6  -5    1.70    0.70
  -5  -6   5    1.20    1.10
  -5  -6   5    0.80    0.70
  -5  -6   5    1.70    0.90
   4   6  -5    4.40    0.90
   4   6  -5    4.20    1.40
   4   6  -5    4.60    1.20
   4   6  -5    5.10    0.80
  -4  -6   5    4.70    1.40
  -4  -6   5    5.00    1.00
  -4  -6   5    3.70    1.10
   3   6  -5   47.20    3.90
   3   6  -5   45.40    4.10
   3   6  -5   47.30    3.80
   3   6  -5   49.00    4.10
  -3  -6   5   45.50    4.00
  -3  -6   5   41.80    4.10
  -3  -6   5   46.50    3.90
   2   6  -5   50.79    4.40
   2   6  -5   49.70    4.20
   2   6  -5   53.19    4.10
  -2  -6   5   52.69    4.40
  -2  -6   5   51.39    4.30
  -2  -6   5   51.99    4.40
   1   6  -5  196.18   14.90
   1   6  -5  189.08   15.00
   1   6  -5  215.98   14.90
   1   6  -5  212.78   14.90
  -1  -6   5  183.28   14.90
  -1  -6   5  171.88   14.90
  -1  -6   5  202.28   15.00
  -1  -6   5  196.68   15.00
   0   6  -5   38.80    3.00
   0   6  -5   36.10    3.00
   0   6  -5   37.60    3.00
   0  -6   5   29.10    3.20
   0  -6   5   38.40    3.10
   0  -6   5   37.50    3.10
   0  -6   5   34.30    3.20
  -1   6  -5   25.80    2.20
  -1   6  -5   26.80    2.20
  -1   6  -5   21.80    2.30
   1  -6   5   19.50    2.50
   1  -6   5   26.10    2.50
   1  -6   5   25.70    2.20
   1  -6   5   22.90    2.40
   1  -6   5   26.90    2.20
  -2   6  -5   15.30    1.50
  -2   6  -5   10.70    1.90
  -2   6  -5   13.30    1.80
  -2   6  -5   14.40    1.50
   2  -6   5   11.30    1.90
   2  -6   5   13.70    1.40
   2  -6   5   13.20    1.70
   2  -6   5   14.00    1.90
   2  -6   5   15.80    1.40
  -3   6  -5   18.70    2.80
  -3   6  -5   23.50    2.20
  -3   6  -5   22.70    2.40
  -3   6  -5   24.20    2.30
   3  -6   5   25.20    2.60
   3  -6   5   22.50    2.80
   3  -6   5   25.40    2.10
   3  -6   5   24.40    2.50
   3  -6   5   27.20    2.10
  -4   6  -5    4.30    0.90
  -4   6  -5    4.40    1.10
  -4   6  -5    3.90    1.40
  -4   6  -5    2.60    0.90
   4  -6   5    4.70    1.20
   4  -6   5    3.30    1.40
   4  -6   5    5.40    0.70
   4  -6   5    4.20    1.20
   4  -6   5    5.00    0.80
  -5   6  -5   -0.70    1.00
  -5   6  -5    0.20    1.30
  -5   6  -5   -0.80    1.10
  -5   6  -5   -2.20    1.00
   5  -6   5   -1.60    1.20
   5  -6   5   -1.90    1.10
   5  -6   5   -0.30    0.60
   5  -6   5    0.20    0.60
   5  -6   5   -0.30    1.20
  -6   6  -5   65.39    5.10
  -6   6  -5   56.69    5.40
  -6   6  -5   52.69    5.80
   6  -6   5   66.99    5.40
   6  -6   5   69.19    5.70
   6  -6   5   54.89    4.80
   6  -6   5   54.79    5.90
  -7   6  -5    1.80    1.10
  -7   6  -5    2.90    1.20
  -7   6  -5    1.20    1.30
   7  -6   5    0.90    0.80
   7  -6   5    2.40    1.60
   7  -6   5    1.70    1.30
  -8   6  -5    1.30    1.50
  -8   6  -5   -0.30    1.20
  -8   6  -5    2.80    1.30
   8  -6   5    1.10    1.40
   8  -6   5    2.20    1.70
   8  -6   5    0.90    0.70
  -9   6  -5    2.00    1.60
  -9   6  -5    3.60    1.50
   9  -6   5    1.90    1.90
   9  -6   5    0.30    1.50
   9  -6   5    1.00    0.70
   8   5  -5    2.50    1.10
   8   5  -5    4.10    1.80
   8   5  -5    3.30    1.40
  -8  -5   5    3.80    1.40
  -8  -5   5    2.10    1.50
   7   5  -5    6.80    1.90
   7   5  -5    6.50    1.50
   7   5  -5    5.20    1.20
  -7  -5   5    7.10    1.80
  -7  -5   5    5.90    1.40
   6   5  -5    6.90    1.20
   6   5  -5    7.40    1.70
   6   5  -5   10.00    1.40
   6   5  -5    7.80    1.50
  -6  -5   5    6.90    1.60
  -6  -5   5    6.40    1.30
   5   5  -5   94.99    7.70
   5   5  -5   92.89    7.20
   5   5  -5   91.89    7.50
   5   5  -5   84.89    7.20
  -5  -5   5   91.69    7.40
  -5  -5   5   92.49    7.20
  -5  -5   5   90.79    7.60
   4   5  -5   -0.70    0.70
   4   5  -5    0.10    0.50
   4   5  -5    0.00    0.60
   4   5  -5   -1.80    0.80
  -4  -5   5   -1.50    0.70
  -4  -5   5   -0.80    0.80
   3   5  -5    1.30    0.80
   3   5  -5    2.20    0.60
   3   5  -5    2.00    0.50
   3   5  -5    1.20    0.70
  -3  -5   5    0.40    0.80
  -3  -5   5    1.00    0.80
  -3  -5   5    1.60    0.60
   2   5  -5    4.90    0.70
   2   5  -5    3.40    0.80
   2   5  -5    3.10    0.60
   2   5  -5    4.40    0.70
  -2  -5   5    2.20    0.70
  -2  -5   5    3.50    0.80
  -2  -5   5    3.60    0.70
   1   5  -5    4.90    0.80
   1   5  -5    3.70    0.80
   1   5  -5    4.90    0.70
   1   5  -5    5.70    0.80
   1   5  -5    5.10    0.90
  -1  -5   5    5.30    0.80
  -1  -5   5    4.50    0.90
  -1  -5   5    5.00    0.80
  -1  -5   5    4.20    0.70
  -1  -5   5    4.80    0.80
   0   5  -5    0.70    0.50
   0   5  -5    0.70    0.60
   0   5  -5   -0.10    0.50
   0   5  -5    0.30    0.40
   0   5  -5    0.80    0.40
   0  -5   5    2.10    0.60
   0  -5   5    0.80    0.60
   0  -5   5    1.10    0.50
   0  -5   5    0.70    0.40
   0  -5   5    0.80    0.50
  -1   5  -5  103.89    7.80
  -1   5  -5  104.19    7.80
  -1   5  -5   84.89    8.20
  -1   5  -5  102.59    8.00
   1  -5   5  109.29    7.80
   1  -5   5   88.49    8.20
   1  -5   5  117.99    8.10
   1  -5   5  107.19    7.90
   1  -5   5  100.99    8.00
  -2   5  -5   -0.30    0.50
  -2   5  -5   -0.60    0.70
  -2   5  -5    0.50    0.60
  -2   5  -5    0.20    0.50
   2  -5   5   -0.10    0.30
   2  -5   5   -0.10    0.60
   2  -5   5   -0.70    0.60
   2  -5   5    0.00    0.60
   2  -5   5    0.50    0.40
  -3   5  -5    3.10    0.80
  -3   5  -5    2.70    0.70
  -3   5  -5    2.50    1.00
  -3   5  -5    2.70    0.70
   3  -5   5    3.50    0.80
   3  -5   5    2.70    0.60
   3  -5   5    2.20    1.00
   3  -5   5    1.90    0.80
   3  -5   5    3.10    0.60
  -4   5  -5   -0.80    0.60
  -4   5  -5    0.00    0.60
  -4   5  -5   -0.70    1.00
  -4   5  -5   -0.40    0.70
   4  -5   5    0.00    0.50
   4  -5   5    0.40    1.00
   4  -5   5    0.60    0.70
   4  -5   5   -0.20    0.80
   4  -5   5    0.20    0.40
  -5   5  -5   12.60    2.70
  -5   5  -5   16.80    2.10
   5  -5   5   16.60    2.60
   5  -5   5   20.10    1.70
   5  -5   5   20.10    1.80
   5  -5   5   16.80    2.30
  -6   5  -5   41.50    3.60
  -6   5  -5   40.00    3.60
  -6   5  -5   35.00    3.80
  -6   5  -5   33.70    4.20
   6  -5   5   45.90    4.10
   6  -5   5   33.40    4.20
   6  -5   5   38.20    3.20
   6  -5   5   37.90    3.40
   6  -5   5   43.90    3.80
  -7   5  -5    0.50    1.20
  -7   5  -5    0.30    1.30
  -7   5  -5    1.30    1.00
  -7   5  -5    0.40    0.90
   7  -5   5   -0.10    0.60
   7  -5   5    0.40    1.20
   7  -5   5   -0.20    1.40
   7  -5   5    0.80    1.30
  -8   5  -5   12.20    2.00
  -8   5  -5    9.80    1.80
   8  -5   5    6.80    1.10
   8  -5   5   10.70    2.10
   8  -5   5    6.80    1.60
  -9   5  -5    1.60    0.70
  -9   5  -5    2.00    1.60
  -9   5  -5    3.30    1.40
   9  -5   5    2.60    0.80
   9  -5   5    3.50    2.10
   9  -5   5    0.30    1.40
   9   4  -5    2.00    1.30
   9   4  -5    2.20    1.70
   9   4  -5    2.40    1.00
  -9  -4   5    1.80    1.50
  -9  -4   5    0.50    1.20
  -9  -4   5    2.10    1.30
   8   4  -5   31.30    3.60
   8   4  -5   23.90    2.80
   8   4  -5   26.70    3.20
  -8  -4   5   27.30    3.30
  -8  -4   5   27.90    3.20
  -8  -4   5   27.40    3.20
   7   4  -5   25.70    3.00
   7   4  -5   25.40    2.70
   7   4  -5   27.50    3.30
   7   4  -5   28.30    2.50
  -7  -4   5   23.90    3.10
  -7  -4   5   24.10    2.80
   6   4  -5    0.20    1.00
   6   4  -5    1.10    0.60
   6   4  -5    1.10    1.20
   6   4  -5    0.60    0.70
  -6  -4   5    0.00    0.80
  -6  -4   5   -1.10    1.00
   5   4  -5   23.90    2.30
   5   4  -5   26.20    2.20
   5   4  -5   21.50    2.70
   5   4  -5   25.20    2.60
  -5  -4   5   22.70    2.20
  -5  -4   5   23.10    2.70
  -5  -4   5   20.90    2.50
   4   4  -5   22.40    2.20
   4   4  -5   25.80    2.10
   4   4  -5   24.70    2.50
   4   4  -5   24.00    2.60
  -4  -4   5   23.20    2.40
  -4  -4   5   23.70    2.50
  -4  -4   5   24.70    2.10
   3   4  -5   27.30    2.30
   3   4  -5   27.90    2.60
   3   4  -5   26.70    2.20
   3   4  -5   26.70    2.30
  -3  -4   5   26.40    2.40
  -3  -4   5   25.40    2.30
  -3  -4   5   24.90    2.50
   2   4  -5   -0.30    0.30
   2   4  -5    0.00    0.30
   2   4  -5   -0.30    0.40
   2   4  -5    0.30    0.30
  -2  -4   5    0.30    0.40
  -2  -4   5   -0.10    0.30
  -2  -4   5   -0.30    0.50
  -2  -4   5   -0.30    0.30
  -2  -4   5    0.30    0.50
   1   4  -5    7.00    0.80
   1   4  -5    4.10    0.60
   1   4  -5    4.50    0.90
   1   4  -5    4.70    0.70
   1   4  -5    6.30    0.80
  -1  -4   5    5.00    0.80
  -1  -4   5    5.90    0.90
  -1  -4   5    5.30    0.80
  -1  -4   5    4.20    0.90
  -1  -4   5    5.30    0.80
   0   4  -5  297.37   20.80
   0   4  -5  305.07   20.70
   0   4  -5  286.97   20.70
   0   4  -5  236.18   21.00
   0   4  -5  266.87   20.70
   0  -4   5  238.68   21.00
   0  -4   5  291.07   20.80
   0  -4   5  273.37   20.80
   0  -4   5  291.17   20.70
   0  -4   5  271.27   20.70
  -1   4  -5    0.00    0.60
  -1   4  -5    0.80    0.50
  -1   4  -5    0.90    0.40
   1  -4   5    0.10    0.60
   1  -4   5   -0.30    0.50
   1  -4   5    0.70    0.30
   1  -4   5    0.70    0.40
   1  -4   5    0.20    0.50
   1  -4   5    1.10    0.40
  -2   4  -5   11.70    1.10
  -2   4  -5   12.10    1.20
  -2   4  -5    8.20    1.60
  -2   4  -5    9.00    1.30
   2  -4   5   11.00    1.00
   2  -4   5    8.00    1.50
   2  -4   5    9.60    1.30
   2  -4   5   10.30    1.10
   2  -4   5   11.80    1.50
   2  -4   5   11.50    1.00
  -3   4  -5    0.40    0.50
  -3   4  -5    0.90    0.50
  -3   4  -5    0.40    0.60
  -3   4  -5    0.50    0.70
   3  -4   5    1.00    0.30
   3  -4   5    0.00    0.40
   3  -4   5   -0.20    0.60
   3  -4   5    0.10    0.40
   3  -4   5    1.30    0.70
   3  -4   5    0.70    0.60
  -4   4  -5  351.26   23.80
  -4   4  -5  288.47   24.00
  -4   4  -5  294.17   24.50
  -4   4  -5  321.47   24.10
  -4   4  -5  332.77   23.90
   4  -4   5  289.27   24.50
   4  -4   5  299.57   23.80
   4  -4   5  363.76   24.30
   4  -4   5  300.97   23.90
   4  -4   5  330.37   24.10
  -5   4  -5    6.20    1.40
  -5   4  -5    8.80    1.80
  -5   4  -5   11.00    1.60
  -5   4  -5   10.60    1.60
   5  -4   5    7.50    1.80
   5  -4   5   12.20    1.30
   5  -4   5   10.60    1.20
   5  -4   5    9.20    1.60
   5  -4   5   11.50    1.70
  -6   4  -5   43.20    3.90
  -6   4  -5   36.60    4.40
  -6   4  -5   52.29    3.80
  -6   4  -5   45.80    4.20
   6  -4   5   37.40    3.70
   6  -4   5   37.30    4.50
   6  -4   5   48.90    4.00
   6  -4   5   53.29    4.40
   6  -4   5   41.90    3.60
  -7   4  -5   47.60    5.20
  -7   4  -5   60.59    4.80
  -7   4  -5   62.69    4.90
   7  -4   5   57.79    4.70
   7  -4   5   47.70    4.30
   7  -4   5   49.50    4.50
   7  -4   5   45.80    5.20
  -8   4  -5    3.60    1.40
  -8   4  -5    3.90    1.20
  -8   4  -5    2.80    0.70
   8  -4   5    2.70    0.70
   8  -4   5    3.20    1.60
   8  -4   5    1.30    1.10
  -9   4  -5   -0.50    1.00
  -9   4  -5   -0.20    1.30
  -9   4  -5   -0.10    0.70
   9  -4   5   -1.50    1.00
   9  -4   5   -0.50    0.50
   9  -4   5   -2.40    1.70
   9   3  -5    1.20    1.20
   9   3  -5    1.30    0.90
   9   3  -5    3.50    1.70
  -9  -3   5    1.90    1.40
  -9  -3   5    1.70    1.20
  -9  -3   5    1.80    1.20
   8   3  -5   12.00    2.10
   8   3  -5    9.80    1.80
   8   3  -5   10.00    1.70
   8   3  -5   14.80    1.80
  -8  -3   5    8.30    1.60
  -8  -3   5    9.80    1.80
  -8  -3   5   10.40    1.90
   7   3  -5    4.00    1.00
   7   3  -5    4.40    1.30
   7   3  -5    8.10    1.30
   7   3  -5    5.80    1.60
  -7  -3   5    4.60    1.20
  -7  -3   5    5.20    1.20
  -7  -3   5    4.20    1.30
   6   3  -5    2.80    1.10
   6   3  -5    2.50    0.70
   6   3  -5    1.60    1.20
  -6  -3   5    0.80    1.10
  -6  -3   5    3.30    1.00
  -6  -3   5    3.00    1.00
   5   3  -5   38.80    3.70
   5   3  -5   38.20    3.40
   5   3  -5   42.30    3.30
   5   3  -5   41.20    3.70
  -5  -3   5   39.40    3.50
  -5  -3   5   42.20    3.30
  -5  -3   5   36.50    3.60
   4   3  -5   59.39    4.90
   4   3  -5   64.39    4.90
   4   3  -5   58.19    4.60
   4   3  -5   57.59    4.60
   4   3  -5   50.99    4.60
  -4  -3   5   57.59    4.80
  -4  -3   5   58.29    4.50
  -4  -3   5   57.99    4.70
   3   3  -5  174.18   12.90
   3   3  -5  176.78   13.00
   3   3  -5  172.18   12.90
   3   3  -5  170.28   12.90
  -3  -3   5  174.68   12.80
  -3  -3   5  149.29   12.80
  -3  -3   5  176.78   13.00
  -3  -3   5  166.58   13.00
   2   3  -5   -0.50    0.30
   2   3  -5   -0.20    0.20
   2   3  -5   -0.10    0.30
   2   3  -5   -0.70    0.40
   2   3  -5    0.00    0.30
  -2  -3   5   -0.70    0.50
  -2  -3   5    0.10    0.20
  -2  -3   5    0.00    0.30
  -2  -3   5   -0.20    0.40
  -2  -3   5    0.20    0.30
   1   3  -5  502.25   36.20
   1   3  -5  475.65   36.30
   1   3  -5  520.85   36.20
   1   3  -5  445.76   36.20
  -1  -3   5  512.55   36.30
  -1  -3   5  502.05   36.20
  -1  -3   5  448.16   36.20
  -1  -3   5  481.45   36.30
  -1  -3   5  477.75   36.30
  -1  -3   5  475.35   36.40
   0   3  -5   83.09    7.20
   0   3  -5   96.09    7.10
   0   3  -5  101.19    7.20
   0   3  -5   89.99    7.10
   0   3  -5  107.49    7.20
   0  -3   5   98.59    7.20
   0  -3   5  102.49    7.10
   0  -3   5   92.39    7.10
   0  -3   5   89.49    7.40
   0  -3   5   78.99    7.10
   0  -3   5   94.39    7.10
  -1   3  -5   20.10    1.90
  -1   3  -5   22.90    2.00
  -1   3  -5   22.90    1.90
  -1   3  -5   21.00    1.80
   1  -3   5   21.90    1.80
   1  -3   5   20.80    1.80
   1  -3   5   25.40    1.80
   1  -3   5   19.80    2.20
   1  -3   5   22.90    2.00
  -2   3  -5   45.80    3.50
  -2   3  -5   37.40    3.50
  -2   3  -5   43.30    3.40
  -2   3  -5   44.90    3.60
   2  -3   5   44.80    3.40
   2  -3   5   41.20    3.80
   2  -3   5   44.30    3.40
   2  -3   5   42.30    3.40
   2  -3   5   46.60    3.60
  -3   3  -5  218.38   17.70
  -3   3  -5  254.97   17.50
  -3   3  -5  240.18   17.60
  -3   3  -5  249.18   17.80
   3  -3   5  224.08   17.60
   3  -3   5  209.68   18.00
   3  -3   5  249.38   17.80
   3  -3   5  222.38   17.60
  -4   3  -5  164.78   11.60
  -4   3  -5  153.18   11.70
  -4   3  -5  158.78   11.80
   4  -3   5  133.89   12.10
   4  -3   5  166.38   11.80
   4  -3   5  145.89   11.50
   4  -3   5  141.99   11.60
  -5   3  -5    2.20    0.90
  -5   3  -5    1.70    0.80
  -5   3  -5    4.00    0.80
  -5   3  -5    2.80    1.10
   5  -3   5    2.70    0.70
   5  -3   5    1.70    0.60
   5  -3   5    2.40    0.90
   5  -3   5    3.20    0.60
   5  -3   5    2.80    1.20
   5  -3   5    2.60    1.10
  -6   3  -5   86.39    8.10
  -6   3  -5  103.99    7.70
  -6   3  -5  116.19    7.90
   6  -3   5   83.89    7.50
   6  -3   5   82.69    8.10
   6  -3   5  106.59    7.70
   6  -3   5   90.49    7.40
  -7   3  -5   65.09    6.50
  -7   3  -5   83.39    6.00
  -7   3  -5   69.49    5.60
  -7   3  -5   84.49    6.10
   7  -3   5   62.19    5.60
   7  -3   5   64.99    6.50
   7  -3   5   78.89    6.00
   7  -3   5   63.09    5.80
  -8   3  -5    0.00    0.90
  -8   3  -5    0.20    0.50
  -8   3  -5    0.80    0.80
  -8   3  -5    1.80    1.20
  -8   3  -5   -0.70    1.10
   8  -3   5    0.90    1.20
   8  -3   5   -0.40    0.90
   8  -3   5    0.80    0.70
   8  -3   5    0.10    0.50
   8  -3   5   -0.90    1.30
  -9   3  -5    2.30    0.70
  -9   3  -5    2.90    1.20
  -9   3  -5    2.50    1.20
   9  -3   5    2.70    0.70
   9  -3   5    1.10    1.20
  10   2  -5   13.50    2.70
  10   2  -5   17.70    2.80
  10   2  -5   18.60    2.50
 -10  -2   5   17.20    2.60
 -10  -2   5   12.90    2.40
 -10  -2   5   17.40    2.70
   9   2  -5    4.00    1.10
   9   2  -5    3.30    1.40
   9   2  -5    4.90    1.60
   9   2  -5    2.90    1.60
  -9  -2   5    4.00    1.40
  -9  -2   5    4.10    1.50
  -9  -2   5    3.50    1.30
   8   2  -5    5.90    1.10
   8   2  -5    5.80    1.10
   8   2  -5    7.40    1.70
   8   2  -5    5.80    1.40
  -8  -2   5    6.50    1.30
  -8  -2   5    4.90    1.40
  -8  -2   5    6.40    1.40
   7   2  -5   54.29    4.40
   7   2  -5   48.30    4.40
   7   2  -5   53.99    4.90
   7   2  -5   52.79    4.80
  -7  -2   5   55.49    4.70
  -7  -2   5   50.89    4.70
  -7  -2   5   49.50    4.50
   6   2  -5  172.68   13.30
   6   2  -5  163.08   13.10
   6   2  -5  174.28   13.10
   6   2  -5  178.78   13.50
  -6  -2   5  165.68   13.30
  -6  -2   5  171.48   13.20
  -6  -2   5  169.38   13.30
   5   2  -5   10.60    1.30
   5   2  -5   13.30    1.40
   5   2  -5   14.10    1.70
   5   2  -5   11.90    1.40
   5   2  -5   13.10    1.80
  -5  -2   5   15.10    1.70
  -5  -2   5   12.30    1.50
  -5  -2   5   14.80    1.80
   4   2  -5    0.20    0.40
   4   2  -5   -0.10    0.50
   4   2  -5    0.20    0.40
   4   2  -5    0.10    0.30
  -4  -2   5    0.00    0.30
  -4  -2   5   -0.40    0.60
  -4  -2   5    0.20    0.40
  -4  -2   5    0.70    0.60
  -4  -2   5    0.80    0.50
   3   2  -5   23.50    2.00
   3   2  -5   26.10    2.10
   3   2  -5   24.70    2.20
   3   2  -5   24.90    2.10
  -3  -2   5   25.20    2.20
  -3  -2   5   20.50    2.20
  -3  -2   5   24.00    2.10
  -3  -2   5   25.80    2.00
   2   2  -5 1214.98   84.39
   2   2  -5 1089.09   83.69
   2   2  -5 1146.19   84.09
   2   2  -5 1109.79   83.69
  -2  -2   5 1059.79   83.79
  -2  -2   5 1085.89   83.69
  -2  -2   5 1013.50   83.69
  -2  -2   5 1166.28   83.59
  -2  -2   5 1203.18   83.99
   1   2  -5   37.80    2.90
   1   2  -5   41.00    3.00
   1   2  -5   33.90    2.90
   1   2  -5   36.90    2.90
   1   2  -5   35.30    2.90
  -1  -2   5   34.10    2.90
  -1  -2   5   35.90    2.90
  -1  -2   5   41.80    3.10
  -1  -2   5   39.40    2.90
  -1  -2   5   35.70    2.90
   0   2  -5    7.80    0.90
   0   2  -5    9.20    0.80
   0   2  -5    8.60    0.80
   0   2  -5    8.90    1.00
   0  -2   5    7.10    0.70
   0  -2   5    8.70    1.10
   0  -2   5    8.20    0.80
   0  -2   5    8.00    0.80
   0  -2   5    8.60    0.90
  -1   2  -5   37.20    3.20
  -1   2  -5   38.60    3.00
  -1   2  -5   41.00    3.10
  -1   2  -5   44.10    3.20
   1  -2   5   35.90    3.10
   1  -2   5   36.10    3.10
   1  -2   5   43.60    3.20
   1  -2   5   43.30    3.10
   1  -2   5   37.90    3.40
  -2   2  -5  568.04   42.90
  -2   2  -5  573.64   43.10
  -2   2  -5  572.54   43.00
  -2   2  -5  657.13   43.10
   2  -2   5  546.75   43.00
   2  -2   5  553.94   43.30
   2  -2   5  654.93   43.20
   2  -2   5  559.44   43.00
   2  -2   5  483.65   42.90
   2  -2   5  580.34   43.00
  -3   2  -5    0.80    0.50
  -3   2  -5    1.30    0.40
  -3   2  -5    0.90    0.20
  -3   2  -5    1.30    0.60
   3  -2   5    1.30    0.70
   3  -2   5    1.00    0.50
   3  -2   5    0.90    0.40
   3  -2   5    1.20    0.70
   3  -2   5    1.90    0.40
   3  -2   5    1.20    0.30
  -4   2  -5   91.19    6.70
  -4   2  -5   89.69    6.80
  -4   2  -5   97.59    7.00
   4  -2   5   82.09    6.70
   4  -2   5   93.49    6.90
   4  -2   5   78.39    6.70
   4  -2   5   75.69    7.10
  -5   2  -5   50.19    4.10
  -5   2  -5   54.99    4.40
  -5   2  -5   60.49    4.50
   5  -2   5   46.00    4.20
   5  -2   5   45.70    4.70
   5  -2   5   56.89    4.40
   5  -2   5   49.99    4.10
  -6   2  -5    1.80    0.90
  -6   2  -5    1.90    1.10
  -6   2  -5    1.40    1.00
   6  -2   5    2.10    0.90
   6  -2   5   -0.10    1.10
   6  -2   5    3.40    1.20
   6  -2   5    0.70    0.70
   6  -2   5    2.50    0.80
  -7   2  -5    7.00    1.60
  -7   2  -5   10.40    1.70
  -7   2  -5    8.70    1.60
  -7   2  -5    8.50    1.10
   7  -2   5    8.40    1.60
   7  -2   5    5.60    0.90
   7  -2   5    7.40    1.70
   7  -2   5    6.20    1.20
   7  -2   5    6.70    1.20
   7  -2   5    7.40    1.30
  -8   2  -5    0.50    0.60
  -8   2  -5    0.40    0.90
  -8   2  -5    1.40    1.10
  -8   2  -5    1.30    0.90
   8  -2   5    1.50    0.80
   8  -2   5    0.90    0.60
   8  -2   5    0.80    1.50
   8  -2   5    0.00    0.90
  -9   2  -5    6.10    1.80
  -9   2  -5    5.20    1.20
  -9   2  -5    3.90    0.90
   9  -2   5    4.50    0.90
   9  -2   5    5.90    1.20
  10   1  -5    0.20    1.20
  10   1  -5    0.80    0.90
 -10  -1   5    0.20    1.20
 -10  -1   5    1.40    1.30
   9   1  -5    2.40    1.40
   9   1  -5    2.80    1.00
   9   1  -5    2.70    1.20
   9   1  -5    2.20    1.00
  -9  -1   5    2.50    1.20
  -9  -1   5    3.20    1.30
  -9  -1   5    1.50    1.20
   8   1  -5    5.40    1.30
   8   1  -5    6.00    1.10
   8   1  -5    5.50    1.10
   8   1  -5    6.60    1.60
  -8  -1   5    4.90    1.40
  -8  -1   5    4.90    1.20
  -8  -1   5    5.80    1.40
   7   1  -5  153.48   11.90
   7   1  -5  150.28   11.60
   7   1  -5  137.89   11.60
   7   1  -5  162.88   12.00
  -7  -1   5  147.69   11.60
  -7  -1   5  145.49   11.80
  -7  -1   5  152.18   11.80
   6   1  -5   28.90    2.60
   6   1  -5   26.90    2.60
   6   1  -5   26.10    2.70
   6   1  -5   30.80    2.90
  -6  -1   5   31.50    2.70
  -6  -1   5   31.40    2.90
  -6  -1   5   31.50    2.90
   5   1  -5    0.60    0.50
   5   1  -5    0.80    0.40
   5   1  -5    0.30    0.50
   5   1  -5   -0.10    0.60
  -5  -1   5    0.40    0.60
  -5  -1   5    0.90    0.70
  -5  -1   5    0.70    0.50
   4   1  -5    3.10    0.50
   4   1  -5    2.10    0.50
   4   1  -5    1.90    0.60
   4   1  -5    2.00    0.60
  -4  -1   5    2.20    0.50
  -4  -1   5    2.00    0.60
  -4  -1   5    2.60    0.30
  -4  -1   5    2.60    0.70
   3   1  -5   18.40    1.70
   3   1  -5   14.20    1.60
   3   1  -5   14.40    1.40
   3   1  -5   18.90    1.60
   3   1  -5   17.00    1.50
  -3  -1   5   17.70    1.70
  -3  -1   5   15.90    1.60
  -3  -1   5   19.60    1.60
  -3  -1   5   19.90    1.40
   2   1  -5  185.98   13.80
   2   1  -5  184.68   13.70
   2   1  -5  182.88   13.80
   2   1  -5  185.98   13.70
   2   1  -5  190.18   13.80
  -2  -1   5  201.98   13.70
  -2  -1   5  156.68   13.70
  -2  -1   5  174.18   13.80
  -2  -1   5  178.98   13.70
   1   1  -5  236.48   17.80
   1   1  -5  222.48   17.80
   1   1  -5  258.87   17.90
   1   1  -5  240.88   17.80
  -1  -1   5  232.58   17.80
  -1  -1   5  242.08   17.80
  -1  -1   5  226.28   17.80
   0   1  -5  666.63   50.99
   0   1  -5  604.54   50.99
   0   1  -5  698.03   50.99
   0  -1   5  721.83   50.99
   0  -1   5  709.73   50.99
   0  -1   5  614.44   51.09
   0  -1   5  799.02   51.19
   0  -1   5  680.83   50.89
   0  -1   5  637.94   50.89
  -1   1  -5    0.70    0.30
  -1   1  -5    1.60    0.40
  -1   1  -5    1.00    0.40
   1  -1   5    0.40    0.30
   1  -1   5    0.60    0.30
   1  -1   5    0.90    0.40
   1  -1   5    0.70    0.30
   1  -1   5    1.20    0.50
  -2   1  -5   -0.20    0.50
  -2   1  -5   -0.50    0.30
  -2   1  -5   -0.20    0.40
   2  -1   5    0.20    0.40
   2  -1   5    0.20    0.50
   2  -1   5    0.10    0.30
   2  -1   5    0.20    0.20
   2  -1   5   -0.10    0.30
   2  -1   5    0.00    0.30
  -3   1  -5   23.80    1.90
  -3   1  -5   25.90    1.90
  -3   1  -5   28.20    2.10
   3  -1   5   27.20    2.20
   3  -1   5   24.90    2.40
   3  -1   5   20.30    2.00
   3  -1   5   20.10    2.10
   3  -1   5   23.40    1.90
   3  -1   5   19.90    2.00
  -4   1  -5    2.80    0.70
  -4   1  -5    2.40    0.50
  -4   1  -5    3.60    0.70
  -4   1  -5    2.30    0.50
   4  -1   5    1.40    0.60
   4  -1   5    1.30    0.50
   4  -1   5    2.90    0.70
   4  -1   5    1.90    0.50
   4  -1   5    1.90    0.60
   4  -1   5    2.10    0.80
  -5   1  -5  184.68   13.20
   5  -1   5  159.88   13.40
   5  -1   5  157.38   13.40
   5  -1   5  174.78   13.30
   5  -1   5  182.08   13.20
   5  -1   5  186.08   13.80
  -6   1  -5   28.50    2.50
  -6   1  -5   25.10    2.20
   6  -1   5   22.30    2.80
   6  -1   5   20.30    2.50
   6  -1   5   20.30    2.50
   6  -1   5   22.80    2.20
   6  -1   5   28.40    2.50
  -7   1  -5    2.30    0.60
  -7   1  -5    2.40    0.90
  -7   1  -5    1.70    1.10
  -7   1  -5    3.00    0.90
   7  -1   5    2.10    0.90
   7  -1   5    1.90    0.60
   7  -1   5    2.00    0.80
   7  -1   5    2.30    0.90
  -8   1  -5   14.70    2.00
  -8   1  -5   11.80    1.90
  -8   1  -5   12.00    1.50
   8  -1   5   13.30    1.80
   8  -1   5   13.10    1.80
   8  -1   5   10.40    1.40
   8  -1   5   14.40    2.10
  -9   1  -5    2.20    1.00
  -9   1  -5    2.50    0.70
  -9   1  -5    2.00    1.00
   9  -1   5    2.20    0.70
   9  -1   5    2.30    1.30
   9  -1   5    3.70    1.00
  10   0  -5   -0.50    1.20
  10   0  -5   -0.70    0.80
  10   0  -5    0.90    1.00
 -10   0   5   -1.50    1.10
 -10   0   5   -0.10    1.30
   9   0  -5    5.90    1.20
   9   0  -5    6.80    1.50
   9   0  -5    6.90    1.30
  -9   0   5    6.50    1.50
  -9   0   5    6.40    1.50
   8   0  -5   34.60    3.20
   8   0  -5   35.50    3.50
   8   0  -5   33.30    3.10
  -8   0   5   31.10    3.40
  -8   0   5   33.30    3.50
  -8   0   5   29.10    3.80
   7   0  -5   14.10    1.70
   7   0  -5   14.60    1.70
   7   0  -5   12.50    2.10
   7   0  -5    9.70    1.80
  -7   0   5   13.90    1.70
  -7   0   5   15.00    2.00
  -7   0   5   14.60    2.00
   6   0  -5  191.98   15.00
   6   0  -5  187.28   15.00
   6   0  -5  212.68   15.20
   6   0  -5  172.98   15.10
  -6   0   5  206.48   15.20
  -6   0   5  205.88   15.00
  -6   0   5  199.68   15.10
   5   0  -5  173.48   14.90
   5   0  -5  184.98   14.80
   5   0  -5  194.28   14.80
   5   0  -5  216.08   15.00
  -5   0   5  203.58   15.00
  -5   0   5  196.78   14.90
  -5   0   5  196.98   14.80
   4   0  -5  344.77   28.10
   4   0  -5  358.66   28.00
   4   0  -5  399.46   28.10
   4   0  -5  367.76   28.00
  -4   0   5  383.06   28.10
  -4   0   5  359.26   28.00
  -4   0   5  395.06   28.00
   3   0  -5  292.37   25.70
   3   0  -5  349.07   25.80
   3   0  -5  337.17   25.80
   3   0  -5  342.37   25.70
   3   0  -5  379.56   25.80
  -3   0   5  364.26   25.80
  -3   0   5  324.77   25.80
  -3   0   5  355.36   25.70
   2   0  -5    1.50    0.30
   2   0  -5    0.70    0.40
   2   0  -5    1.40    0.30
   2   0  -5    1.10    0.30
  -2   0   5    1.30    0.40
  -2   0   5    1.40    0.30
  -2   0   5    0.70    0.30
  -2   0   5    1.80    0.20
  -2   0   5    2.20    0.60
   1   0  -5   34.40    3.10
   1   0  -5   38.90    3.20
   1   0  -5   47.00    3.30
   1   0  -5   40.70    3.20
  -1   0   5   45.30    3.20
  -1   0   5   35.80    3.20
  -1   0   5   47.20    3.20
  -1   0   5   41.80    3.20
   0   0  -5   21.90    1.70
   0   0  -5   19.00    1.60
   0   0  -5   21.90    1.60
   0   0   5   21.50    1.70
   0   0   5   18.80    1.70
   0   0   5   20.00    1.70
   0   0   5   21.40    1.70
  -1   0  -5  245.58   16.90
  -1   0  -5  213.18   16.80
  -1   0  -5  253.27   16.80
   1   0   5  222.38   16.80
   1   0   5  221.08   16.90
   1   0   5  210.48   16.80
   1   0   5  199.98   16.80
  -2   0  -5   61.79    4.20
  -2   0  -5   59.69    4.30
  -2   0  -5   50.39    4.20
   2   0   5   60.79    4.40
   2   0   5   51.29    4.20
   2   0   5   46.50    4.30
   2   0   5   59.69    4.60
   2   0   5   46.80    4.30
  -3   0  -5   58.49    4.10
  -3   0  -5   61.09    4.30
  -3   0  -5   51.69    4.20
   3   0   5   46.70    4.20
   3   0   5   54.59    4.50
   3   0   5   44.30    4.30
   3   0   5   59.79    4.30
   3   0   5   50.49    4.20
  -4   0  -5  205.68   14.90
   4   0   5  186.48   15.10
   4   0   5  222.18   15.40
   4   0   5  186.88   15.00
   4   0   5  183.98   15.00
   4   0   5  198.58   14.90
  -5   0  -5   73.19    5.40
   5   0   5   66.99    5.60
   5   0   5   73.29    5.90
   5   0   5   65.99    5.60
   5   0   5   62.19    5.70
   5   0   5   70.69    5.40
  -6   0  -5    9.00    1.20
  -6   0  -5    9.10    1.40
   6   0   5    9.80    1.50
   6   0   5    9.20    1.40
   6   0   5    8.50    1.10
   6   0   5   12.00    1.80
   6   0   5    9.80    1.50
  -7   0  -5    2.90    0.90
  -7   0  -5    3.70    0.90
  -7   0  -5    2.70    0.70
   7   0   5    2.30    0.90
   7   0   5    4.00    1.10
   7   0   5    2.60    0.70
  -8   0  -5    6.50    1.30
  -8   0  -5    6.30    1.00
   8   0   5    7.90    1.30
   8   0   5    7.40    1.50
   8   0   5    5.90    1.00
  -9   0  -5    0.90    1.10
  -9   0  -5   -0.70    0.90
  -9   0  -5   -0.40    0.60
   9   0   5    1.50    1.20
   9   0   5    1.10    0.90
   9   0   5    0.80    0.60
  10  -1  -5    2.80    1.40
  10  -1  -5    3.20    1.10
  10  -1  -5    4.30    1.30
 -10   1   5    2.10    1.30
 -10   1   5    4.00    1.10
 -10   1   5    3.10    1.40
   9  -1  -5  104.89    9.20
   9  -1  -5  115.69    9.30
   9  -1  -5  129.99    9.60
  -9   1   5  125.09    9.60
  -9   1   5  104.49    9.20
  -9   1   5  121.79    9.50
   8  -1  -5    0.80    0.80
   8  -1  -5    0.10    1.00
   8  -1  -5    0.80    1.00
   8  -1  -5    0.90    0.70
  -8   1   5    0.40    1.00
  -8   1   5    1.70    0.80
  -8   1   5    0.50    1.00
   7  -1  -5   18.80    2.00
   7  -1  -5   19.00    2.10
   7  -1  -5   16.90    2.30
   7  -1  -5   19.40    2.30
  -7   1   5   21.80    2.30
  -7   1   5   20.10    2.30
   6  -1  -5   46.00    4.10
   6  -1  -5   42.00    4.30
   6  -1  -5   54.79    4.30
   6  -1  -5   44.10    4.10
  -6   1   5   58.29    4.40
  -6   1   5   53.59    4.00
  -6   1   5   50.49    4.20
  -6   1   5   51.79    4.20
   5  -1  -5   36.10    3.50
   5  -1  -5   42.90    3.40
   5  -1  -5   36.60    3.20
   5  -1  -5   35.50    3.20
  -5   1   5   40.90    3.30
  -5   1   5   38.80    3.30
  -5   1   5   39.30    3.10
  -5   1   5   46.00    3.60
   4  -1  -5  119.59    9.70
   4  -1  -5  121.89    9.50
   4  -1  -5  143.39    9.70
   4  -1  -5  120.39    9.50
  -4   1   5  131.09    9.60
  -4   1   5  124.09    9.60
  -4   1   5  108.09    9.50
  -4   1   5  130.89    9.40
   3  -1  -5  238.28   18.10
   3  -1  -5  237.48   17.90
   3  -1  -5  233.88   17.90
   3  -1  -5  221.28   17.90
  -3   1   5  273.17   17.90
  -3   1   5  222.78   17.90
  -3   1   5  238.88   17.90
   2  -1  -5    6.10    0.70
   2  -1  -5    6.90    0.60
   2  -1  -5    6.90    0.80
   2  -1  -5    5.90    0.70
   2  -1  -5    6.60    0.80
  -2   1   5    6.30    0.70
  -2   1   5    7.10    0.60
  -2   1   5    8.30    0.70
  -2   1   5    9.00    0.80
   1  -1  -5  224.08   16.80
   1  -1  -5  222.38   16.90
   1  -1  -5  208.78   16.80
   1  -1  -5  210.58   16.80
   1  -1  -5  235.68   16.90
  -1   1   5  218.58   16.80
  -1   1   5  222.88   16.80
  -1   1   5  249.58   16.80
   0  -1  -5  735.53   62.19
   0  -1  -5  916.81   62.49
   0  -1  -5  799.62   62.09
   0   1   5  916.71   62.09
   0   1   5  778.12   62.09
   0   1   5  862.31   62.59
   0   1   5  809.62   62.09
  -1  -1  -5  161.18   12.10
  -1  -1  -5  179.38   12.30
  -1  -1  -5  153.68   12.10
   1   1   5  156.98   12.20
   1   1   5  150.88   12.20
   1   1   5  156.88   12.20
   1   1   5  157.78   12.20
   1   1   5  172.18   12.10
  -2  -1  -5   18.40    1.50
   2   1   5   18.20    1.50
   2   1   5   15.60    1.60
   2   1   5   17.40    1.60
   2   1   5   19.40    1.50
   2   1   5   18.00    1.70
  -3  -1  -5   13.80    1.20
   3   1   5   14.30    1.20
   3   1   5   12.80    1.40
   3   1   5   11.70    1.40
   3   1   5   12.90    1.50
  -4  -1  -5    4.00    0.80
  -4  -1  -5    2.20    0.60
   4   1   5    2.10    0.80
   4   1   5    3.10    0.60
   4   1   5    2.30    0.60
   4   1   5    2.40    0.70
   4   1   5    3.50    1.00
  -5  -1  -5   32.90    2.70
  -5  -1  -5   33.60    3.00
   5   1   5   31.50    2.90
   5   1   5   32.10    2.70
   5   1   5   29.30    2.90
   5   1   5   36.40    3.20
   5   1   5   27.50    3.10
  -6  -1  -5    4.40    0.80
  -6  -1  -5    4.90    1.10
   6   1   5    4.50    0.80
   6   1   5    5.10    1.20
   6   1   5    5.00    1.00
   6   1   5    4.50    0.90
  -7  -1  -5   21.20    2.40
  -7  -1  -5   22.90    2.10
   7   1   5   20.80    2.60
   7   1   5   21.00    2.10
   7   1   5   22.40    2.40
   7   1   5   23.70    2.40
  -8  -1  -5   -0.10    0.60
  -8  -1  -5   -0.10    0.90
   8   1   5    0.40    0.80
   8   1   5    1.10    1.00
   8   1   5    0.20    0.60
  11  -2  -5   -1.50    1.30
  11  -2  -5    0.30    1.10
  11  -2  -5    0.70    1.10
 -11   2   5   -0.70    1.10
 -11   2   5   -0.20    1.30
  10  -2  -5    3.70    1.30
  10  -2  -5    2.20    1.40
  10  -2  -5    2.00    0.90
 -10   2   5    1.30    1.20
 -10   2   5    0.60    1.30
 -10   2   5    2.70    1.00
   9  -2  -5    2.20    1.00
   9  -2  -5    2.20    0.90
   9  -2  -5    2.10    1.20
   9  -2  -5    2.90    1.20
  -9   2   5    2.20    0.90
  -9   2   5    1.90    1.30
  -9   2   5    2.00    1.20
   8  -2  -5   61.99    5.50
   8  -2  -5   76.19    5.80
   8  -2  -5   56.49    5.70
   8  -2  -5   66.89    5.60
  -8   2   5   69.29    5.70
  -8   2   5   73.99    5.70
  -8   2   5   64.89    5.50
   7  -2  -5   46.30    4.20
   7  -2  -5   42.80    4.40
   7  -2  -5   46.30    4.10
   7  -2  -5   55.29    4.40
  -7   2   5   53.49    4.50
  -7   2   5   45.60    4.10
  -7   2   5   52.09    4.30
  -7   2   5   52.79    4.20
   6  -2  -5   50.69    4.40
   6  -2  -5   64.19    4.70
   6  -2  -5   50.19    4.50
   6  -2  -5   49.20    4.70
  -6   2   5   62.69    4.90
  -6   2   5   58.39    4.50
  -6   2   5   49.60    4.40
  -6   2   5   57.59    4.60
   5  -2  -5  148.09   11.60
   5  -2  -5  145.79   11.90
   5  -2  -5  151.68   11.60
  -5   2   5  165.18   11.70
  -5   2   5  143.69   11.60
  -5   2   5  158.78   11.70
   4  -2  -5    1.70    0.40
   4  -2  -5    1.10    0.60
   4  -2  -5    1.30    0.40
   4  -2  -5    1.30    0.40
  -4   2   5    1.80    0.50
  -4   2   5    1.40    0.40
  -4   2   5    1.40    0.50
  -4   2   5    1.80    0.80
  -4   2   5    1.90    0.30
   3  -2  -5    0.20    0.40
   3  -2  -5    0.50    0.10
   3  -2  -5    0.10    0.30
   3  -2  -5    0.00    0.40
   3  -2  -5   -0.10    0.20
  -3   2   5    0.50    0.20
  -3   2   5   -0.50    0.70
  -3   2   5    0.40    0.30
  -3   2   5    0.50    0.30
   2  -2  -5   11.90    1.00
   2  -2  -5   11.70    1.30
   2  -2  -5   11.90    1.00
   2  -2  -5   10.00    1.00
   2  -2  -5   11.70    1.20
  -2   2   5   12.80    1.10
  -2   2   5   10.60    1.00
   1  -2  -5  107.89    8.30
   1  -2  -5  111.59    8.20
   1  -2  -5   95.29    8.10
   1  -2  -5  107.59    8.30
  -1   2   5  112.09    8.20
  -1   2   5  102.99    8.10
  -1   2   5  118.69    8.20
   0  -2  -5   94.99    8.30
   0  -2  -5  114.99    8.50
   0  -2  -5  117.59    8.50
   0  -2  -5  110.29    8.40
   0   2   5  113.19    8.40
   0   2   5  108.49    8.40
   0   2   5  113.99    8.40
   0   2   5  123.49    8.50
   0   2   5   98.89    8.30
  -1  -2  -5  129.39    9.30
  -1  -2  -5  114.89    9.20
  -1  -2  -5  138.99    9.30
   1   2   5  114.09    9.20
   1   2   5  113.89    9.30
   1   2   5  115.39    9.30
   1   2   5  128.19    9.10
   1   2   5  116.09    9.30
  -2  -2  -5   19.40    1.70
  -2  -2  -5   17.70    1.50
   2   2   5   14.90    1.60
   2   2   5   15.50    1.70
   2   2   5   15.80    1.60
   2   2   5   17.70    1.50
  -3  -2  -5  306.37   22.40
   3   2   5  282.37   22.60
   3   2   5  301.27   22.50
   3   2   5  293.37   22.50
   3   2   5  304.87   22.40
  -4  -2  -5   80.89    6.20
  -4  -2  -5   80.39    6.40
   4   2   5   83.59    6.20
   4   2   5   77.09    6.50
   4   2   5   77.39    6.30
   4   2   5   76.39    6.40
  -5  -2  -5   31.40    2.60
  -5  -2  -5   27.90    2.70
   5   2   5   23.00    2.90
   5   2   5   33.20    3.00
   5   2   5   28.70    2.80
   5   2   5   29.00    2.80
   5   2   5   31.50    2.60
  -6  -2  -5   -0.40    0.50
  -6  -2  -5    0.20    0.70
  -6  -2  -5   -0.10    0.70
   6   2   5   -0.30    0.50
   6   2   5   -0.60    0.80
   6   2   5    0.00    0.70
   6   2   5   -0.30    0.70
  -7  -2  -5    1.70    0.90
  -7  -2  -5    0.80    0.60
   7   2   5    0.70    0.60
   7   2   5    0.90    0.90
   7   2   5    2.00    1.10
   7   2   5    2.20    0.80
  -8  -2  -5    4.60    1.30
  -8  -2  -5    5.10    1.00
   8   2   5    4.60    1.20
   8   2   5    5.70    1.60
  11  -3  -5   12.30    2.30
  11  -3  -5   14.40    2.30
  11  -3  -5   10.80    2.00
 -11   3   5   18.10    2.30
 -11   3   5   15.20    2.70
  10  -3  -5   23.80    2.60
  10  -3  -5   23.20    2.90
  10  -3  -5   26.60    3.20
  10  -3  -5   20.70    3.30
 -10   3   5   24.90    3.00
 -10   3   5   24.10    2.60
   9  -3  -5   15.10    2.10
   9  -3  -5   14.80    2.40
   9  -3  -5   13.40    1.80
   9  -3  -5    9.00    1.90
  -9   3   5   10.40    2.00
  -9   3   5   13.20    1.80
  -9   3   5   15.10    2.20
   8  -3  -5    0.70    0.70
   8  -3  -5    0.80    0.80
   8  -3  -5    1.00    1.00
  -8   3   5    0.40    0.70
  -8   3   5    0.10    1.00
  -8   3   5    2.50    1.40
  -8   3   5    1.10    0.90
   7  -3  -5   10.80    1.90
   7  -3  -5   10.10    1.60
   7  -3  -5   13.00    1.50
  -7   3   5   14.60    2.30
  -7   3   5   12.30    1.70
  -7   3   5   14.00    1.50
  -7   3   5   13.90    1.70
   6  -3  -5   33.60    3.10
   6  -3  -5   33.80    3.00
   6  -3  -5   32.10    3.40
  -6   3   5   37.50    3.10
  -6   3   5   41.00    3.80
  -6   3   5   40.20    3.10
  -6   3   5   33.90    3.00
   5  -3  -5   37.60    3.70
   5  -3  -5   38.60    3.40
   5  -3  -5   39.30    3.30
  -5   3   5   47.00    3.40
  -5   3   5   38.20    3.30
  -5   3   5   45.20    3.40
   4  -3  -5    2.00    0.70
   4  -3  -5    2.00    0.50
   4  -3  -5    1.80    0.40
   4  -3  -5    1.60    0.60
  -4   3   5    2.40    1.00
  -4   3   5    2.30    0.50
  -4   3   5    2.00    0.40
  -4   3   5    2.90    0.50
   3  -3  -5    2.00    0.70
   3  -3  -5    3.70    0.60
   3  -3  -5    3.10    0.50
   3  -3  -5    2.90    0.60
   3  -3  -5    2.30    0.30
  -3   3   5    2.80    0.50
  -3   3   5    3.80    0.40
  -3   3   5    3.90    1.00
  -3   3   5    2.90    0.50
   2  -3  -5   33.20    2.60
   2  -3  -5   31.30    2.80
   2  -3  -5   30.60    2.80
   2  -3  -5   29.10    2.60
  -2   3   5   37.30    2.60
  -2   3   5   30.60    2.50
  -2   3   5   34.20    2.60
   1  -3  -5    5.50    1.00
   1  -3  -5    6.50    0.90
   1  -3  -5    6.90    0.80
   1  -3  -5    6.00    0.70
  -1   3   5    7.90    0.90
  -1   3   5    7.30    0.80
  -1   3   5    8.40    0.80
   0  -3  -5   39.00    3.40
   0  -3  -5   44.50    3.50
   0  -3  -5   45.10    3.60
   0  -3  -5   45.20    3.70
   0   3   5   47.10    3.60
   0   3   5   46.60    3.60
   0   3   5   47.50    3.60
   0   3   5   41.90    3.40
  -1  -3  -5   39.90    3.20
  -1  -3  -5   41.90    3.30
  -1  -3  -5   41.10    3.30
   1   3   5   42.60    3.20
   1   3   5   37.80    3.30
   1   3   5   37.90    3.30
   1   3   5   39.30    3.30
  -2  -3  -5   97.39    7.10
  -2  -3  -5   97.69    7.20
  -2  -3  -5   89.39    7.00
  -2  -3  -5   90.49    7.10
   2   3   5   88.69    7.10
   2   3   5   84.39    7.20
   2   3   5   90.59    7.20
  -3  -3  -5    1.80    0.70
  -3  -3  -5    1.20    0.70
  -3  -3  -5    0.30    0.50
   3   3   5    0.40    0.70
   3   3   5    2.40    0.90
   3   3   5    0.70    0.60
   3   3   5    0.00    0.60
  -4  -3  -5   29.70    2.80
  -4  -3  -5   32.10    2.60
   4   3   5   29.00    2.80
   4   3   5   31.50    2.80
   4   3   5   24.30    2.90
  -5  -3  -5    0.10    0.70
  -5  -3  -5    0.40    0.70
  -5  -3  -5   -0.20    0.50
   5   3   5    0.20    0.70
   5   3   5   -1.60    0.80
   5   3   5   -0.40    0.60
  -6  -3  -5   -0.20    0.70
  -6  -3  -5   -0.80    0.70
  -6  -3  -5   -0.30    0.50
   6   3   5   -0.30    0.90
   6   3   5   -0.10    0.70
   6   3   5    0.30    0.70
  -7  -3  -5    7.30    1.40
  -7  -3  -5   10.00    1.40
   7   3   5    7.10    1.40
   7   3   5    8.30    1.50
   7   3   5    8.80    1.70
  10  -4  -5    0.20    0.90
  10  -4  -5    1.70    1.40
  10  -4  -5    0.40    1.20
 -10   4   5    0.40    1.00
 -10   4   5    0.90    1.30
   9  -4  -5   -0.30    0.80
   9  -4  -5   -0.80    1.10
   9  -4  -5    0.00    0.90
  -9   4   5    0.20    1.00
  -9   4   5    0.10    0.80
   8  -4  -5    0.60    0.70
   8  -4  -5    1.00    0.90
   8  -4  -5    0.40    1.10
  -8   4   5    1.10    1.20
  -8   4   5    1.40    0.90
  -8   4   5    0.40    0.80
   7  -4  -5   -0.50    0.70
   7  -4  -5    0.70    0.60
   7  -4  -5    0.40    1.00
   7  -4  -5    0.40    0.60
  -7   4   5    0.20    0.60
  -7   4   5    0.00    1.20
  -7   4   5   -0.20    0.80
  -7   4   5    0.70    0.70
   6  -4  -5   13.70    2.20
   6  -4  -5   17.20    1.70
   6  -4  -5   14.20    1.80
  -6   4   5   18.60    2.50
  -6   4   5   19.90    1.80
  -6   4   5   19.80    1.70
  -6   4   5   15.90    1.70
   5  -4  -5   -0.20    0.40
   5  -4  -5    0.10    0.60
   5  -4  -5   -0.10    0.70
   5  -4  -5   -0.60    0.40
  -5   4   5   -0.40    0.40
  -5   4   5    0.80    0.40
  -5   4   5   -0.40    0.90
  -5   4   5    0.60    0.50
   4  -4  -5   -0.60    0.60
   4  -4  -5   -0.30    0.40
   4  -4  -5   -0.40    0.30
   4  -4  -5    0.30    0.60
  -4   4   5    0.10    0.40
  -4   4   5   -0.20    0.30
  -4   4   5   -0.80    0.90
  -4   4   5   -0.10    0.30
   3  -4  -5   -0.10    0.30
   3  -4  -5   -0.30    0.20
   3  -4  -5   -0.50    0.50
   3  -4  -5    0.20    0.60
  -3   4   5    0.00    0.30
  -3   4   5    0.00    0.30
  -3   4   5    0.30    0.40
  -3   4   5   -1.60    0.90
   2  -4  -5    5.30    0.70
   2  -4  -5    5.50    0.70
   2  -4  -5    4.10    0.90
   2  -4  -5    4.90    0.90
  -2   4   5    7.50    0.90
  -2   4   5    8.80    1.80
  -2   4   5    7.60    0.80
  -2   4   5    6.50    0.70
   1  -4  -5   14.10    1.30
   1  -4  -5   10.20    1.40
   1  -4  -5   11.40    1.40
   1  -4  -5   12.50    1.20
  -1   4   5   12.40    1.20
  -1   4   5   14.90    1.40
  -1   4   5   12.90    1.20
  -1   4   5   10.00    1.10
  -1   4   5   14.90    1.30
   0  -4  -5    7.50    1.00
   0  -4  -5    7.70    0.90
   0  -4  -5    8.10    1.20
   0  -4  -5    8.60    1.00
   0   4   5    8.20    1.00
   0   4   5    7.50    0.90
   0   4   5    8.10    1.20
  -1  -4  -5   36.70    3.40
  -1  -4  -5   43.60    3.50
  -1  -4  -5   41.50    3.50
  -1  -4  -5   42.60    3.40
   1   4   5   42.10    3.40
   1   4   5   40.80    3.50
   1   4   5   44.10    3.30
   1   4   5   41.10    3.50
  -2  -4  -5   23.80    2.30
  -2  -4  -5   25.70    2.40
  -2  -4  -5   25.20    2.40
   2   4   5   27.40    2.50
   2   4   5   24.70    2.40
   2   4   5   24.30    2.40
  -3  -4  -5   24.80    2.30
  -3  -4  -5   25.90    2.40
  -3  -4  -5   24.20    2.50
   3   4   5   23.80    2.60
   3   4   5   23.00    2.50
   3   4   5   27.90    2.50
  -4  -4  -5   33.50    2.80
  -4  -4  -5   29.40    2.60
  -4  -4  -5   28.20    2.80
   4   4   5   29.50    2.90
   4   4   5   26.40    3.00
   4   4   5   28.20    2.80
  -5  -4  -5    2.10    0.70
  -5  -4  -5    2.60    0.80
  -5  -4  -5    1.90    0.80
   5   4   5    2.00    0.90
   5   4   5    1.60    1.20
   5   4   5    1.90    0.90
  -6  -4  -5    0.20    0.70
  -6  -4  -5    0.30    0.90
   6   4   5    0.20    0.80
   6   4   5    0.70    1.00
   6   4   5    0.90    0.90
  -7  -4  -5    4.10    1.00
  -7  -4  -5    3.80    1.20
   7   4   5    5.80    1.50
   7   4   5    5.00    1.30
   7   4   5    5.10    1.30
  10  -5  -5    0.90    1.50
  10  -5  -5   -0.60    0.90
  10  -5  -5   -0.90    1.10
 -10   5   5   -0.60    0.90
 -10   5   5   -0.30    1.10
 -10   5   5   -0.30    0.90
   9  -5  -5    1.20    0.90
   9  -5  -5    0.30    1.00
   9  -5  -5    2.20    1.50
  -9   5   5    2.70    1.60
  -9   5   5    1.40    0.90
  -9   5   5    2.00    1.00
  -9   5   5    2.00    1.10
   8  -5  -5    2.40    1.00
   8  -5  -5    3.50    1.50
   8  -5  -5    2.40    0.90
  -8   5   5    3.70    1.00
  -8   5   5    3.10    0.90
  -8   5   5    3.70    1.00
  -8   5   5    2.70    1.60
   7  -5  -5   11.20    1.70
   7  -5  -5   11.40    1.90
   7  -5  -5   10.10    1.90
   7  -5  -5   14.50    1.60
  -7   5   5   14.50    1.60
  -7   5   5   15.10    2.70
   6  -5  -5    7.30    1.60
   6  -5  -5   10.50    1.30
   6  -5  -5    7.30    1.20
   6  -5  -5    9.90    1.50
  -6   5   5    8.50    1.30
  -6   5   5   11.60    1.40
  -6   5   5   11.70    2.40
   5  -5  -5   27.60    2.70
   5  -5  -5   27.50    2.90
   5  -5  -5   27.00    2.50
  -5   5   5   22.10    2.40
  -5   5   5   29.10    2.40
   4  -5  -5    2.20    0.60
   4  -5  -5    1.60    0.80
   4  -5  -5    1.60    0.90
  -4   5   5    3.10    0.60
  -4   5   5    4.70    0.70
  -4   5   5    2.40    1.40
  -4   5   5    3.40    0.60
   3  -5  -5   13.90    1.40
   3  -5  -5   14.00    1.80
   3  -5  -5   14.10    1.90
   3  -5  -5   14.80    1.40
  -3   5   5   16.80    1.50
  -3   5   5   11.90    1.40
  -3   5   5   14.80    1.40
   2  -5  -5   22.60    2.30
   2  -5  -5   22.10    2.00
   2  -5  -5   22.60    2.30
   2  -5  -5   24.20    2.00
  -2   5   5   19.10    1.90
  -2   5   5   22.20    2.00
  -2   5   5   27.70    2.10
  -2   5   5   26.90    2.10
   1  -5  -5   -0.10    0.50
   1  -5  -5    0.10    0.60
   1  -5  -5    3.10    0.60
  -1   5   5    0.90    0.60
  -1   5   5    0.60    0.50
  -1   5   5    0.60    0.50
  -1   5   5    0.50    1.10
  -1   5   5    0.90    0.50
   0  -5  -5    2.70    0.90
   0  -5  -5    4.80    0.70
   0  -5  -5    5.00    0.80
   0  -5  -5    4.20    0.80
   0   5   5    8.50    1.60
   0   5   5    5.90    0.90
   0   5   5    4.30    0.80
   0   5   5    6.70    1.00
   0   5   5    5.60    0.80
  -1  -5  -5    1.50    0.80
  -1  -5  -5    4.00    0.80
   1   5   5    3.90    0.60
   1   5   5    5.70    1.40
   1   5   5    2.90    0.80
   1   5   5    3.90    0.90
   1   5   5    3.70    0.80
  -2  -5  -5   35.10    3.00
  -2  -5  -5   33.60    3.10
  -2  -5  -5   34.80    3.20
   2   5   5   35.50    3.30
   2   5   5   33.70    3.10
   2   5   5   37.50    3.20
  -3  -5  -5    8.30    1.10
  -3  -5  -5   10.10    1.40
  -3  -5  -5    8.20    1.30
   3   5   5    8.70    1.30
   3   5   5    8.70    1.60
   3   5   5    9.10    1.50
  -4  -5  -5   12.80    1.60
  -4  -5  -5   13.80    1.90
  -4  -5  -5   12.30    1.50
   4   5   5   12.60    1.90
   4   5   5   12.00    1.90
   4   5   5    9.90    1.70
  -5  -5  -5    4.60    0.90
  -5  -5  -5    4.60    1.20
   5   5   5    5.30    1.40
   5   5   5    5.30    1.20
   5   5   5    5.70    1.30
  -6  -5  -5    1.40    0.80
  -6  -5  -5    1.50    0.90
   6   5   5    2.20    1.10
   6   5   5    4.10    1.10
   6   5   5    4.00    1.30
  10  -6  -5    0.90    1.60
  10  -6  -5   -1.30    1.10
 -10   6   5   -2.10    0.90
 -10   6   5   -0.20    1.00
 -10   6   5   -0.80    1.10
   9  -6  -5    0.20    1.30
  -9   6   5   -1.30    0.80
  -9   6   5   -1.30    0.90
  -9   6   5   -1.60    0.80
   8  -6  -5    6.00    1.80
   8  -6  -5    6.30    1.40
   8  -6  -5    6.70    1.20
   8  -6  -5    6.20    1.30
  -8   6   5    8.40    2.10
  -8   6   5    5.20    1.30
  -8   6   5    6.40    1.20
  -8   6   5    7.40    1.20
   7  -6  -5    2.30    1.30
   7  -6  -5    2.40    1.00
   7  -6  -5    0.50    0.80
  -7   6   5    0.90    1.50
  -7   6   5    1.20    0.80
  -7   6   5    1.90    0.80
  -7   6   5    1.70    0.80
   6  -6  -5    7.90    1.40
   6  -6  -5    8.00    1.70
   6  -6  -5    7.20    1.20
  -6   6   5    7.10    1.20
  -6   6   5   10.80    1.30
  -6   6   5   12.80    2.60
  -6   6   5   11.40    1.40
   5  -6  -5   91.49    7.50
   5  -6  -5   93.79    8.00
   5  -6  -5   91.59    7.90
  -5   6   5   86.39    7.50
  -5   6   5  112.79    7.60
  -5   6   5   99.39    7.50
   4  -6  -5   -0.20    0.90
   4  -6  -5    1.50    0.60
   4  -6  -5   -0.40    1.00
  -4   6   5    0.40    1.60
  -4   6   5    0.70    0.60
   3  -6  -5   46.80    4.40
   3  -6  -5   49.90    4.00
   3  -6  -5   49.50    3.90
   3  -6  -5   46.90    4.30
  -3   6   5   50.59    3.90
  -3   6   5   44.00    3.90
  -3   6   5   55.09    4.10
   2  -6  -5   -0.50    0.40
   2  -6  -5   -0.60    0.60
   2  -6  -5   -1.40    0.70
  -2   6   5    0.10    0.50
  -2   6   5   -0.20    0.60
  -2   6   5   -0.80    1.20
  -2   6   5   -0.40    0.50
   1  -6  -5   -0.10    0.60
   1  -6  -5    0.20    0.50
   1  -6  -5   -0.60    0.70
  -1   6   5    0.60    0.50
  -1   6   5    0.60    0.60
  -1   6   5    1.30    0.60
  -1   6   5   -0.90    1.30
   0  -6  -5   44.90    4.20
   0  -6  -5   49.00    4.00
   0   6   5   49.80    3.90
   0   6   5   52.09    4.10
   0   6   5   46.10    4.10
  -1  -6  -5   12.60    1.70
  -1  -6  -5   13.20    1.90
  -1  -6  -5   13.50    1.60
   1   6   5   17.30    1.50
   1   6   5   15.20    1.80
   1   6   5   16.00    1.90
   1   6   5   14.80    1.90
  -2  -6  -5    1.10    0.80
  -2  -6  -5   -0.10    0.60
  -2  -6  -5   -0.80    0.60
   2   6   5   -0.10    0.70
   2   6   5    0.10    0.80
   2   6   5   -1.30    0.60
  -3  -6  -5   51.99    4.20
  -3  -6  -5   50.09    4.40
  -3  -6  -5   47.60    4.30
   3   6   5   48.40    4.50
   3   6   5   51.09    4.40
   3   6   5   52.99    4.50
  -4  -6  -5    0.50    0.70
  -4  -6  -5    1.00    0.80
  -4  -6  -5    0.10    0.70
   4   6   5    0.10    0.90
   4   6   5   -0.50    0.90
   4   6   5   -0.50    0.70
  -5  -6  -5    1.40    0.80
  -5  -6  -5    1.20    0.90
   5   6   5    2.50    1.10
   5   6   5    1.90    1.10
   5   6   5    1.40    0.90
   9  -7  -5   -0.70    1.40
   9  -7  -5   -1.20    0.90
  -9   7   5   -1.00    0.80
  -9   7   5   -2.00    1.00
  -9   7   5   -1.50    0.90
   8  -7  -5   -0.60    1.30
   8  -7  -5   -0.90    0.90
   8  -7  -5    1.60    1.10
  -8   7   5   -0.10    0.80
  -8   7   5   -1.30    0.90
  -8   7   5   -0.50    1.00
   7  -7  -5    3.20    1.50
   7  -7  -5    2.20    0.90
   7  -7  -5    2.00    1.10
  -7   7   5    1.10    0.80
  -7   7   5    2.50    0.90
  -7   7   5    1.80    0.90
   6  -7  -5   27.90    3.50
   6  -7  -5   30.60    3.30
   6  -7  -5   28.80    2.90
  -6   7   5   28.10    2.90
  -6   7   5   31.30    2.80
  -6   7   5   36.40    2.90
   5  -7  -5   25.00    3.10
   5  -7  -5   21.60    2.40
   5  -7  -5   22.90    3.00
  -5   7   5   25.40    2.30
  -5   7   5   26.80    2.40
  -5   7   5   20.60    2.40
  -5   7   5   31.60    3.80
   4  -7  -5   25.80    3.00
   4  -7  -5   24.40    2.40
   4  -7  -5   28.90    3.10
  -4   7   5   27.20    2.40
  -4   7   5   30.10    2.60
  -4   7   5   22.80    2.30
   3  -7  -5    0.80    0.50
   3  -7  -5    0.80    1.00
   3  -7  -5    0.70    0.80
  -3   7   5    1.00    0.60
  -3   7   5    2.40    1.60
  -3   7   5    0.90    0.80
   2  -7  -5    1.10    0.80
   2  -7  -5    1.40    1.00
   2  -7  -5    1.30    0.70
  -2   7   5    2.00    1.60
  -2   7   5    1.60    0.70
  -2   7   5    2.60    0.80
   1  -7  -5   -1.40    0.70
   1  -7  -5   -0.70    0.50
  -1   7   5   -0.70    0.50
  -1   7   5   -1.60    1.40
  -1   7   5   -0.70    0.70
   0  -7  -5   22.10    2.50
   0  -7  -5   20.80    2.20
   0   7   5   23.10    2.40
   0   7   5   21.80    2.40
   0   7   5   22.90    2.10
  -1  -7  -5   20.30    2.30
  -1  -7  -5   18.30    2.00
   1   7   5   19.60    2.20
   1   7   5   17.60    2.20
  -2  -7  -5   31.00    2.90
  -2  -7  -5   31.40    3.10
  -2  -7  -5   35.80    3.30
   2   7   5   31.10    3.10
   2   7   5   30.30    3.20
   2   7   5   33.80    3.20
  -3  -7  -5    3.00    0.80
  -3  -7  -5    3.70    1.00
  -3  -7  -5    2.90    0.90
   3   7   5    3.90    1.10
   3   7   5    3.40    1.10
   3   7   5    2.80    0.90
  -4  -7  -5    0.50    0.80
  -4  -7  -5    0.60    0.70
   4   7   5    1.60    1.10
   4   7   5    1.00    1.00
   4   7   5    1.60    0.90
   9  -8  -5    1.20    1.20
   9  -8  -5    1.10    1.80
   9  -8  -5   -0.80    1.10
  -9   8   5   -0.10    1.10
  -9   8   5   -2.10    1.10
   8  -8  -5    5.50    1.50
   8  -8  -5    5.60    1.80
   8  -8  -5    4.10    1.20
  -8   8   5    2.80    1.10
  -8   8   5    2.90    1.20
  -8   8   5    3.60    1.10
   7  -8  -5   30.50    3.10
   7  -8  -5   31.40    3.60
   7  -8  -5   34.40    3.90
  -7   8   5   30.30    3.00
  -7   8   5   28.30    3.00
  -7   8   5   33.90    3.10
   6  -8  -5   98.89    8.80
   6  -8  -5  105.89    8.90
   6  -8  -5  103.59    8.30
  -6   8   5   97.09    8.30
  -6   8   5  117.99    8.40
  -6   8   5  106.39    8.30
   5  -8  -5   47.10    3.90
   5  -8  -5   50.29    4.70
   5  -8  -5   44.30    4.50
  -5   8   5   47.30    4.00
  -5   8   5   42.10    3.80
  -5   8   5   44.00    3.90
   4  -8  -5    0.30    1.00
   4  -8  -5    0.50    1.10
  -4   8   5    0.10    0.80
  -4   8   5    0.10    0.90
  -4   8   5    0.60    1.60
   3  -8  -5   -0.30    1.00
   3  -8  -5    0.10    0.90
  -3   8   5    1.00    1.60
  -3   8   5   -0.90    0.80
  -3   8   5   -0.70    0.70
   2  -8  -5   -0.80    1.00
   2  -8  -5   -0.90    0.60
  -2   8   5   -0.40    0.80
  -2   8   5   -1.00    1.50
   1  -8  -5   42.70    4.00
   1  -8  -5   41.50    3.50
  -1   8   5   37.60    3.40
  -1   8   5   39.50    3.60
   0  -8  -5   13.30    2.00
   0  -8  -5    8.20    1.30
   0   8   5   12.10    1.80
   0   8   5   12.00    1.40
  -1  -8  -5   18.60    2.50
  -1  -8  -5   14.90    2.00
   1   8   5   18.10    2.20
  -2  -8  -5    9.80    1.70
  -2  -8  -5    6.60    1.20
   2   8   5    7.40    1.40
   2   8   5   11.60    1.80
  -3  -8  -5    2.30    1.30
  -3  -8  -5    1.90    0.90
   3   8   5    3.00    1.10
   3   8   5    2.40    1.10
   8  -9  -5    2.80    1.10
  -8   9   5    0.50    1.20
  -8   9   5   -0.30    1.10
   7  -9  -5    2.80    1.50
   7  -9  -5    2.30    1.00
   7  -9  -5    1.90    1.50
  -7   9   5    0.40    0.80
  -7   9   5   -1.20    1.10
  -7   9   5   -0.50    0.90
   6  -9  -5    5.60    1.10
   6  -9  -5    5.10    1.60
   6  -9  -5    6.30    1.70
  -6   9   5    2.60    1.30
  -6   9   5    5.60    1.00
  -6   9   5    3.10    1.10
   5  -9  -5    1.30    1.20
   5  -9  -5    1.50    1.30
  -5   9   5   -0.50    0.80
  -5   9   5   -1.70    0.90
   4  -9  -5   -0.40    1.20
   4  -9  -5    0.70    0.90
   3  -9  -5    7.00    1.70
  -3   9   5    3.10    1.00
  -3   9   5    4.30    1.20
   2  -9  -5    3.50    1.40
   2  -9  -5    3.50    0.90
  -2   9   5    2.30    0.90
  -2   9   5    4.20    1.10
   1  -9  -5    2.00    0.90
   1  -9  -5    3.00    1.30
  -1   9   5    2.10    0.80
  -1   9   5    3.00    1.00
   0  -9  -5   44.70    4.50
   0  -9  -5   44.70    4.00
   0   9   5   48.00    4.20
  -1  -9  -5    9.20    1.40
  -1  -9  -5   12.40    2.10
   6 -10  -5    1.10    1.70
   6 -10  -5    2.40    1.40
  -6  10   5   -1.10    1.00
   5 -10  -5    1.80    1.40
   5 -10  -5   -1.00    1.30
   4 -10  -5    2.50    1.60
  -4  10   5   -1.40    1.10
  -4  10   5    0.80    1.20
   3 -10  -5   -0.10    1.30
  -3  10   5   -1.70    0.80
  -3  10   5    0.00    0.90
   2 -10  -5    0.80    1.00
   2 -10  -5    1.40    1.50
  -2  10   5    1.70    0.90
  -2  10   5    3.30    1.10
   1 -10  -5    3.00    1.10
   1 -10  -5    3.10    1.40
   1  11  -6    6.60    1.50
  -1 -11   6    4.10    1.60
   0  11  -6    2.20    1.10
   0  11  -6    1.50    1.00
   0 -11   6    0.10    1.40
  -1  11  -6    2.50    1.10
  -1  11  -6   -2.00    1.00
   1 -11   6   -2.20    1.30
  -2  11  -6    0.20    1.00
  -2  11  -6    4.40    1.20
   2 -11   6   -0.20    1.40
  -3  11  -6    3.30    1.10
  -3  11  -6   -0.40    1.10
   3 -11   6   -0.20    1.60
   3 -11   6   -2.50    1.40
  -4  11  -6    5.90    2.20
  -4  11  -6    5.60    1.50
   4 -11   6    8.00    1.60
   4 -11   6    7.70    2.30
   4 -11   6    6.20    2.20
   3  10  -6    3.40    1.10
  -3 -10   6    1.40    1.30
  -3 -10   6    1.00    1.40
   2  10  -6    6.10    1.30
  -2 -10   6    3.10    1.40
  -2 -10   6    3.00    1.30
   1  10  -6    1.40    0.90
   1  10  -6    4.10    1.20
  -1 -10   6    0.60    1.20
  -1 -10   6    0.60    1.20
   0  10  -6   29.50    2.90
   0  10  -6   27.00    2.80
   0 -10   6   29.80    3.10
   0 -10   6   25.70    3.10
  -1  10  -6    7.40    1.30
   1 -10   6    7.00    1.60
  -2  10  -6    8.50    1.50
   2 -10   6    8.30    1.60
   2 -10   6    7.90    1.80
  -3  10  -6   -0.10    1.20
  -3  10  -6    0.90    1.20
  -3  10  -6    2.50    1.20
   3 -10   6    0.00    1.40
   3 -10   6    0.00    1.20
   3 -10   6    2.30    1.60
  -4  10  -6   22.20    2.90
  -4  10  -6   23.70    3.00
  -4  10  -6   26.50    3.50
   4 -10   6   33.30    3.90
   4 -10   6   26.70    3.50
   4 -10   6   26.20    2.80
  -5  10  -6   25.50    3.30
  -5  10  -6   28.90    3.60
   5 -10   6   33.90    4.00
   5 -10   6   33.20    4.00
   5 -10   6   31.80    3.20
  -6  10  -6   11.60    2.20
  -6  10  -6    6.90    2.00
   6 -10   6   11.00    1.60
   6 -10   6   10.00    2.40
   6 -10   6   11.50    2.50
  -5  -9   6    0.60    1.20
  -5  -9   6    0.70    1.20
   4   9  -6    5.20    1.20
  -4  -9   6    3.80    1.30
  -4  -9   6    4.00    1.20
   3   9  -6   -0.30    0.90
   3   9  -6    0.30    1.10
  -3  -9   6   -0.70    1.10
  -3  -9   6   -0.60    1.00
   2   9  -6   -0.60    0.60
   2   9  -6    0.10    0.90
  -2  -9   6   -0.30    1.10
   1   9  -6   32.00    3.10
   1   9  -6   34.40    3.20
  -1  -9   6   35.90    3.40
  -1  -9   6   34.40    3.40
   0   9  -6   27.50    2.70
   0   9  -6   28.30    2.80
   0  -9   6   25.40    3.00
   0  -9   6   22.90    2.90
  -1   9  -6   62.99    5.30
  -1   9  -6   67.39    5.40
   1  -9   6   62.29    5.50
   1  -9   6   69.29    5.40
   1  -9   6   60.89    5.70
  -2   9  -6   47.60    4.50
  -2   9  -6   51.19    4.30
  -2   9  -6   48.80    4.30
   2  -9   6   52.49    4.80
   2  -9   6   46.80    4.40
   2  -9   6   50.89    4.90
  -3   9  -6   22.90    2.30
  -3   9  -6   22.20    2.40
  -3   9  -6   20.00    2.70
  -3   9  -6   17.10    2.80
   3  -9   6   22.70    2.90
   3  -9   6   21.70    3.00
   3  -9   6   20.40    2.40
   3  -9   6   17.50    2.90
  -4   9  -6   25.00    2.80
  -4   9  -6   25.10    3.20
  -4   9  -6   28.10    3.00
  -4   9  -6   19.40    3.40
   4  -9   6   19.70    3.70
   4  -9   6   26.60    2.60
   4  -9   6   28.90    3.40
   4  -9   6   28.90    3.50
  -5   9  -6    1.10    1.40
  -5   9  -6   -0.90    1.10
   5  -9   6    0.90    1.60
   5  -9   6    1.40    1.00
   5  -9   6    2.10    1.60
  -6   9  -6    4.40    1.50
  -6   9  -6    6.60    1.80
   6  -9   6    4.70    2.00
   6  -9   6    4.60    1.90
   6  -9   6    6.20    1.20
  -7   9  -6    0.30    1.60
   7  -9   6   -1.90    1.70
   7  -9   6   -1.20    0.90
   7  -9   6   -0.30    1.90
   6   8  -6   25.80    2.90
   6   8  -6   22.40    3.10
  -6  -8   6   22.60    3.40
  -6  -8   6   19.30    2.90
   5   8  -6   14.80    2.00
   5   8  -6   14.50    2.30
  -5  -8   6   10.00    1.60
  -5  -8   6    9.50    1.90
   4   8  -6    5.00    1.50
   4   8  -6    4.40    1.10
   4   8  -6    3.10    1.00
  -4  -8   6    5.30    1.10
  -4  -8   6    5.00    1.30
   3   8  -6   -0.80    0.80
   3   8  -6   -1.10    0.60
  -3  -8   6   -0.20    0.90
  -3  -8   6   -0.10    0.80
   2   8  -6    6.60    1.20
   2   8  -6    5.30    1.00
  -2  -8   6    7.70    1.30
  -2  -8   6    6.10    1.20
   1   8  -6    2.30    1.00
   1   8  -6    0.70    0.80
  -1  -8   6    2.60    1.00
  -1  -8   6    2.00    1.10
   0   8  -6   22.70    2.30
   0   8  -6   23.40    2.40
   0  -8   6   20.40    2.50
   0  -8   6   23.80    2.50
  -1   8  -6    0.60    0.80
  -1   8  -6    1.60    0.80
  -1   8  -6    1.10    0.80
   1  -8   6   -1.70    0.90
   1  -8   6    0.90    1.10
   1  -8   6   -1.70    0.90
   1  -8   6    0.80    1.00
   1  -8   6    0.70    1.10
  -2   8  -6   62.19    5.60
  -2   8  -6   67.49    5.50
  -2   8  -6   66.39    5.50
   2  -8   6   74.39    5.80
   2  -8   6   67.69    5.60
   2  -8   6   66.89    5.90
  -3   8  -6   -0.20    1.10
  -3   8  -6   -0.60    1.00
  -3   8  -6    0.60    0.90
  -3   8  -6    1.30    0.90
   3  -8   6   -0.10    1.10
   3  -8   6    0.10    1.20
   3  -8   6    0.50    0.80
   3  -8   6   -0.10    0.70
   3  -8   6    0.80    1.20
  -4   8  -6   16.10    2.30
  -4   8  -6   15.00    2.80
  -4   8  -6   18.60    2.60
   4  -8   6   13.90    2.80
   4  -8   6   19.40    2.70
   4  -8   6   20.10    2.00
   4  -8   6   18.30    2.80
  -5   8  -6    2.00    1.40
  -5   8  -6    0.60    1.20
  -5   8  -6    3.30    1.90
   5  -8   6    3.60    1.60
   5  -8   6    3.10    0.90
   5  -8   6    3.40    1.70
  -6   8  -6    2.70    1.60
  -6   8  -6    1.50    1.50
   6  -8   6    3.50    1.00
   6  -8   6    4.10    1.90
   6  -8   6    3.40    1.60
  -7   8  -6    2.50    1.40
  -7   8  -6   -2.30    1.40
  -7   8  -6    1.50    1.60
   7  -8   6    2.20    1.90
   7  -8   6   -0.30    0.80
   7  -8   6    1.40    1.60
   7   7  -6    0.70    1.00
   7   7  -6    0.40    1.20
   7   7  -6   -1.40    1.50
  -7  -7   6   -0.10    1.40
  -7  -7   6   -0.90    1.30
   6   7  -6   -2.00    1.20
   6   7  -6   -0.60    0.90
   6   7  -6    1.30    1.30
  -6  -7   6   -1.20    1.10
  -6  -7   6   -0.40    1.00
   5   7  -6   -0.20    1.10
   5   7  -6    0.10    0.60
   5   7  -6    0.10    0.80
  -5  -7   6   -0.30    0.80
  -5  -7   6    0.00    1.20
  -5  -7   6    0.90    1.00
   4   7  -6   -0.80    0.50
   4   7  -6   -0.70    0.70
   4   7  -6    0.00    0.90
  -4  -7   6    0.20    0.90
  -4  -7   6   -1.00    0.90
  -4  -7   6   -0.30    0.70
   3   7  -6   11.90    1.60
   3   7  -6   10.40    1.40
   3   7  -6   13.60    2.00
  -3  -7   6   10.70    1.60
  -3  -7   6    8.40    1.70
  -3  -7   6    9.60    1.40
   2   7  -6   32.20    2.90
   2   7  -6   32.50    3.00
  -2  -7   6   31.70    3.00
  -2  -7   6   34.10    3.20
   1   7  -6  141.49   11.20
   1   7  -6  143.19   11.10
  -1  -7   6  150.98   11.30
  -1  -7   6  147.29   11.30
   0   7  -6   37.20    3.20
   0   7  -6   41.10    3.20
   0   7  -6   38.10    3.20
   0  -7   6   32.10    3.40
   0  -7   6   34.50    3.20
   0  -7   6   34.20    3.30
  -1   7  -6    7.40    1.30
  -1   7  -6    7.90    1.20
  -1   7  -6    3.90    1.20
   1  -7   6    7.50    1.00
   1  -7   6    5.70    1.10
   1  -7   6    4.50    1.20
   1  -7   6    4.50    1.20
  -2   7  -6   11.80    1.80
  -2   7  -6   10.10    2.00
  -2   7  -6   13.30    1.60
  -2   7  -6   13.10    1.70
   2  -7   6    9.40    2.00
   2  -7   6   14.80    2.00
   2  -7   6   13.90    2.00
   2  -7   6   14.30    1.50
   2  -7   6   12.40    1.60
  -3   7  -6   15.10    2.50
  -3   7  -6   16.10    1.90
  -3   7  -6   17.90    2.00
  -3   7  -6   16.20    2.20
   3  -7   6   20.20    2.50
   3  -7   6   16.90    1.80
   3  -7   6   18.00    2.40
   3  -7   6   12.50    2.40
   3  -7   6   16.70    1.80
  -4   7  -6    0.00    1.30
  -4   7  -6    2.30    1.40
  -4   7  -6    1.70    1.00
  -4   7  -6    2.50    1.20
   4  -7   6    2.10    1.40
   4  -7   6    3.00    0.80
   4  -7   6    3.40    1.40
   4  -7   6    2.90    1.30
   4  -7   6    3.20    0.80
  -5   7  -6    3.60    1.60
  -5   7  -6    2.10    1.10
  -5   7  -6    2.60    1.40
   5  -7   6    3.70    0.90
   5  -7   6    4.80    1.50
   5  -7   6    2.20    1.50
   5  -7   6    3.00    1.60
  -6   7  -6   22.90    3.10
  -6   7  -6   22.10    2.80
   6  -7   6   26.50    3.50
   6  -7   6   27.40    3.20
   6  -7   6   19.60    2.20
  -7   7  -6   25.80    3.30
  -7   7  -6   25.20    3.00
  -7   7  -6   21.80    2.90
   7  -7   6   22.60    3.20
   7  -7   6   21.30    2.30
   7  -7   6   28.50    3.70
  -8   7  -6    2.90    1.70
  -8   7  -6    3.70    1.60
  -8   7  -6    0.60    1.50
   8  -7   6    3.70    2.10
   8  -7   6    1.50    0.90
   8  -7   6    1.80    1.70
   8   6  -6   12.50    2.20
   8   6  -6   11.70    2.50
   8   6  -6   15.00    2.70
  -8  -6   6   10.10    2.20
  -8  -6   6   16.30    2.50
  -8  -6   6    8.80    1.90
   7   6  -6   25.30    2.80
   7   6  -6   24.60    3.80
   7   6  -6   28.10    3.30
  -7  -6   6   26.10    3.00
  -7  -6   6   24.20    3.30
   6   6  -6    1.70    0.80
   6   6  -6    0.90    0.80
   6   6  -6    0.40    1.30
   6   6  -6    1.10    1.10
  -6  -6   6    1.40    1.10
  -6  -6   6   -0.40    1.10
   5   6  -6   -1.20    0.90
   5   6  -6   -0.20    0.70
   5   6  -6   -0.60    1.10
   5   6  -6    0.10    0.50
  -5  -6   6    0.00    0.70
  -5  -6   6    0.20    0.90
  -5  -6   6   -0.60    1.10
   4   6  -6    1.60    0.80
   4   6  -6    1.90    1.00
   4   6  -6    1.20    0.60
  -4  -6   6    0.70    0.80
  -4  -6   6    1.30    0.80
  -4  -6   6    0.30    1.00
   3   6  -6    8.40    1.40
   3   6  -6    9.90    1.60
   3   6  -6    8.30    1.20
  -3  -6   6   11.90    1.70
  -3  -6   6    8.70    1.20
  -3  -6   6    7.40    1.30
   2   6  -6   34.80    3.00
   2   6  -6   34.70    3.20
   2   6  -6   34.80    3.10
  -2  -6   6   35.80    3.10
  -2  -6   6   35.60    3.20
  -2  -6   6   35.80    3.20
   1   6  -6  241.38   18.20
   1   6  -6  266.67   18.30
   1   6  -6  238.68   18.30
  -1  -6   6  247.28   18.30
  -1  -6   6  220.08   18.40
  -1  -6   6  226.98   18.40
  -1  -6   6  245.98   18.30
   0   6  -6   46.40    3.90
   0   6  -6   50.99    4.00
   0   6  -6   49.50    3.90
   0  -6   6   45.20    4.00
   0  -6   6   49.50    4.00
   0  -6   6   45.00    4.10
  -1   6  -6   60.09    4.80
  -1   6  -6   62.89    4.80
  -1   6  -6   56.19    4.90
   1  -6   6   64.39    4.80
   1  -6   6   62.89    4.90
   1  -6   6   56.59    5.00
  -2   6  -6   17.40    2.60
  -2   6  -6   20.90    2.30
  -2   6  -6   21.90    2.10
  -2   6  -6   23.10    2.10
   2  -6   6   22.20    2.40
   2  -6   6   25.40    2.50
   2  -6   6   18.60    2.50
   2  -6   6   25.60    2.00
   2  -6   6   21.20    2.00
  -3   6  -6   -0.10    0.80
  -3   6  -6   -0.60    0.80
  -3   6  -6   -1.40    0.70
  -3   6  -6    0.10    0.90
   3  -6   6    0.10    0.60
   3  -6   6    0.20    0.90
   3  -6   6    0.30    0.50
   3  -6   6   -0.90    0.90
   3  -6   6   -0.90    0.90
  -4   6  -6    5.40    1.60
  -4   6  -6    6.00    1.10
  -4   6  -6    6.30    1.40
   4  -6   6    6.20    0.90
   4  -6   6    7.20    1.00
   4  -6   6    6.40    1.50
   4  -6   6    4.50    1.60
   4  -6   6    4.30    1.40
  -5   6  -6   60.89    6.60
  -5   6  -6   81.99    6.00
  -5   6  -6   73.89    6.30
   5  -6   6   67.89    5.70
   5  -6   6   81.19    6.30
   5  -6   6   63.89    6.70
   5  -6   6   86.79    6.60
   5  -6   6   65.29    5.80
  -6   6  -6   14.30    2.90
  -6   6  -6   13.60    2.60
  -6   6  -6   17.80    2.30
  -6   6  -6   17.70    2.30
   6  -6   6   15.00    1.80
   6  -6   6   21.90    3.00
   6  -6   6   18.50    2.60
  -7   6  -6    2.90    1.50
  -7   6  -6    1.60    1.20
  -7   6  -6    3.00    1.40
   7  -6   6    3.10    1.80
   7  -6   6    2.90    0.80
   7  -6   6    2.10    1.50
  -8   6  -6    6.40    1.90
  -8   6  -6    9.10    1.90
  -8   6  -6    6.00    1.50
   8  -6   6    6.50    1.10
   8  -6   6    7.30    1.90
   8  -6   6    7.10    2.20
   8   5  -6   15.00    2.60
   8   5  -6   15.10    2.20
   8   5  -6   13.30    2.60
  -8  -5   6   15.80    2.50
  -8  -5   6   22.20    2.90
  -8  -5   6   12.60    2.40
   7   5  -6    2.30    0.90
   7   5  -6    2.60    1.20
   7   5  -6    1.10    1.50
  -7  -5   6    2.40    1.20
  -7  -5   6    2.50    1.20
  -7  -5   6    2.00    1.30
   6   5  -6    3.80    1.50
   6   5  -6    3.40    1.00
   6   5  -6    2.90    1.20
   6   5  -6    2.80    0.70
  -6  -5   6    2.30    1.00
  -6  -5   6    2.40    1.30
   5   5  -6   14.60    1.80
   5   5  -6   13.90    1.60
   5   5  -6   14.50    2.10
  -5  -5   6   13.10    2.00
  -5  -5   6   14.90    1.80
  -5  -5   6   16.10    2.20
   4   5  -6    7.50    1.30
   4   5  -6    9.40    1.60
   4   5  -6    8.20    1.00
  -4  -5   6    5.40    1.20
  -4  -5   6    7.30    1.40
  -4  -5   6    6.40    1.00
   3   5  -6   56.59    4.80
   3   5  -6   60.39    4.80
   3   5  -6   62.39    5.00
  -3  -5   6   63.59    4.80
  -3  -5   6   60.59    5.10
  -3  -5   6   58.39    5.00
   2   5  -6    9.70    1.40
   2   5  -6   12.20    1.30
   2   5  -6   12.60    1.30
   2   5  -6   10.20    1.50
  -2  -5   6   13.20    1.50
  -2  -5   6   13.20    1.60
  -2  -5   6   10.90    1.40
   1   5  -6    5.90    0.90
   1   5  -6    3.20    0.80
   1   5  -6    5.40    0.90
   1   5  -6    3.90    0.70
   1   5  -6    3.30    0.70
  -1  -5   6    4.30    0.80
  -1  -5   6    4.50    0.80
  -1  -5   6    4.70    0.80
  -1  -5   6    3.40    0.80
  -1  -5   6    4.20    0.80
   0   5  -6   56.69    4.40
   0   5  -6   58.49    4.50
   0   5  -6   55.99    4.40
   0  -5   6   52.39    4.50
   0  -5   6   60.59    4.40
   0  -5   6   45.50    4.70
   0  -5   6   56.89    4.40
   0  -5   6   57.89    4.40
  -1   5  -6  110.19    8.50
  -1   5  -6  116.29    8.60
  -1   5  -6  118.39    8.70
   1  -5   6  109.59    8.70
   1  -5   6  114.39    8.60
   1  -5   6  117.49    8.50
   1  -5   6   92.99    8.90
  -2   5  -6   23.00    2.00
  -2   5  -6   21.80    2.00
  -2   5  -6   17.40    2.40
  -2   5  -6   23.10    2.20
   2  -5   6   22.40    1.90
   2  -5   6   21.30    1.90
   2  -5   6   26.50    2.40
   2  -5   6   17.00    2.40
   2  -5   6   20.60    2.20
  -3   5  -6   35.80    3.20
  -3   5  -6   32.50    3.70
  -3   5  -6   39.40    3.50
  -3   5  -6   40.10    3.30
   3  -5   6   43.20    3.50
   3  -5   6   36.70    3.10
   3  -5   6   41.90    3.50
   3  -5   6   38.10    3.10
   3  -5   6   33.40    3.80
  -4   5  -6   10.40    1.70
  -4   5  -6    8.60    1.90
  -4   5  -6   10.60    1.90
   4  -5   6   14.20    2.10
   4  -5   6    8.20    1.90
   4  -5   6   11.70    1.30
   4  -5   6   11.90    1.30
   4  -5   6   14.80    2.00
  -5   5  -6  366.56   26.20
  -5   5  -6  341.87   26.10
  -5   5  -6  399.76   26.00
  -5   5  -6  302.37   26.60
   5  -5   6  296.67   26.60
   5  -5   6  303.37   25.80
   5  -5   6  332.67   25.80
   5  -5   6  400.06   26.20
  -6   5  -6   24.70    2.90
  -6   5  -6   29.30    2.70
  -6   5  -6   20.00    3.10
   6  -5   6   19.90    2.10
   6  -5   6   27.80    2.80
   6  -5   6   17.50    2.20
   6  -5   6   19.30    3.20
  -7   5  -6    6.50    1.40
  -7   5  -6    7.30    1.60
  -7   5  -6    8.30    1.50
   7  -5   6    4.00    1.50
   7  -5   6    5.10    1.50
   7  -5   6   10.10    2.20
   7  -5   6    5.40    1.00
  -8   5  -6    3.40    1.60
  -8   5  -6    5.10    1.40
   8  -5   6    3.10    0.80
   8  -5   6    3.10    1.90
   8  -5   6    1.90    1.40
   9   4  -6    1.70    1.10
   9   4  -6    1.30    1.30
  -9  -4   6    0.60    1.30
  -9  -4   6    0.50    1.60
  -9  -4   6    2.90    1.30
   8   4  -6    2.30    1.00
   8   4  -6    0.20    1.50
   8   4  -6    2.30    1.30
  -8  -4   6    1.50    1.20
  -8  -4   6    2.20    1.30
  -8  -4   6    1.10    1.40
   7   4  -6   -1.80    1.30
   7   4  -6    0.30    0.80
   7   4  -6   -0.50    1.00
   7   4  -6    0.90    0.70
  -7  -4   6    0.30    0.90
  -7  -4   6   -0.20    1.20
  -7  -4   6    0.60    1.10
   6   4  -6   -0.20    0.50
   6   4  -6   -0.60    1.00
   6   4  -6   -0.50    1.10
   6   4  -6   -0.30    0.70
  -6  -4   6   -1.10    0.90
  -6  -4   6   -0.20    0.80
  -6  -4   6   -1.00    1.10
   5   4  -6   -0.40    0.60
   5   4  -6   -1.70    0.80
   5   4  -6   -1.00    0.50
  -5  -4   6   -1.10    0.80
  -5  -4   6   -1.70    0.70
   4   4  -6   61.89    5.20
   4   4  -6   63.29    5.10
   4   4  -6   65.69    5.40
  -4  -4   6   64.19    5.10
  -4  -4   6   66.39    5.50
  -4  -4   6   66.09    5.30
   3   4  -6  237.68   18.20
   3   4  -6  232.68   18.00
   3   4  -6  230.68   18.00
   3   4  -6  235.38   18.00
  -3  -4   6  244.48   18.10
  -3  -4   6  249.08   18.00
  -3  -4   6  237.88   18.20
   2   4  -6  143.39   10.00
   2   4  -6  127.49   10.00
   2   4  -6  125.09   10.00
   2   4  -6  128.09    9.90
  -2  -4   6  132.89   10.00
  -2  -4   6  129.09   10.00
  -2  -4   6  118.79   10.00
  -2  -4   6  133.19   10.10
  -2  -4   6  136.89   10.00
   1   4  -6    1.70    0.50
   1   4  -6    1.50    0.40
   1   4  -6    1.70    0.50
   1   4  -6    1.70    0.40
   1   4  -6    2.40    0.50
  -1  -4   6    2.10    0.60
  -1  -4   6    2.60    0.50
  -1  -4   6    2.00    0.50
  -1  -4   6    1.90    0.50
  -1  -4   6    2.00    0.60
  -1  -4   6    2.20    0.50
   0   4  -6   28.70    2.30
   0   4  -6   25.90    2.20
   0   4  -6   21.50    2.20
   0   4  -6   27.50    2.20
   0  -4   6   26.10    2.20
   0  -4   6   26.80    2.20
   0  -4   6   28.30    2.20
   0  -4   6   25.50    2.30
  -1   4  -6   30.80    2.50
  -1   4  -6   33.20    2.60
  -1   4  -6   26.20    2.60
  -1   4  -6   33.30    2.70
   1  -4   6   30.80    2.80
   1  -4   6   33.30    2.60
   1  -4   6   27.90    3.00
   1  -4   6   36.30    2.60
   1  -4   6   31.80    2.60
  -2   4  -6   18.90    1.60
  -2   4  -6   16.40    1.70
  -2   4  -6   15.40    1.50
  -2   4  -6   13.30    1.60
   2  -4   6   15.40    1.50
   2  -4   6   14.20    2.00
   2  -4   6   20.00    1.90
   2  -4   6   15.60    1.40
   2  -4   6   15.60    1.50
   2  -4   6   16.10    1.70
  -3   4  -6    0.00    0.80
  -3   4  -6   -0.20    0.70
  -3   4  -6   -0.90    0.60
   3  -4   6   -0.60    0.40
   3  -4   6    0.10    0.80
   3  -4   6    0.30    0.40
   3  -4   6   -0.70    0.80
   3  -4   6   -0.30    0.30
   3  -4   6   -0.60    0.60
  -4   4  -6    3.40    0.90
  -4   4  -6    1.90    1.00
  -4   4  -6    1.50    1.20
  -4   4  -6    0.60    0.80
   4  -4   6    2.00    1.20
   4  -4   6    2.60    1.20
   4  -4   6    3.50    0.60
   4  -4   6    3.00    0.60
   4  -4   6    2.60    1.00
  -5   4  -6  121.79    9.20
  -5   4  -6   97.79    9.60
  -5   4  -6  137.19    9.10
  -5   4  -6  125.19    9.30
   5  -4   6   98.49    8.90
   5  -4   6   98.89    9.60
   5  -4   6  108.99    8.90
   5  -4   6  135.09    9.30
  -6   4  -6   -0.90    1.10
  -6   4  -6    0.60    1.20
  -6   4  -6   -0.60    0.80
  -6   4  -6    0.40    1.00
   6  -4   6   -0.30    1.10
   6  -4   6   -0.50    1.00
   6  -4   6   -1.60    0.60
   6  -4   6   -0.80    1.30
  -7   4  -6    5.30    1.80
  -7   4  -6    6.80    1.30
  -7   4  -6    5.80    1.50
   7  -4   6    5.10    0.90
   7  -4   6    6.40    1.80
   7  -4   6    6.80    1.40
   7  -4   6    5.00    1.80
   7  -4   6    4.00    1.10
  -8   4  -6   -2.30    1.20
  -8   4  -6   -0.20    0.60
  -8   4  -6   -0.70    1.20
   8  -4   6    0.10    0.70
   8  -4   6   -2.30    1.50
   8  -4   6   -0.40    0.60
  -9   4  -6    2.00    1.30
  -9   4  -6    1.50    0.70
   9  -4   6    1.40    0.70
   9  -4   6   -0.70    1.20
   9   3  -6    0.30    0.90
   9   3  -6   -0.60    1.30
  -9  -3   6    0.10    1.40
  -9  -3   6    1.40    1.10
  -9  -3   6    0.00    1.10
   8   3  -6    1.20    0.90
   8   3  -6    0.90    1.20
   8   3  -6    2.00    0.80
  -8  -3   6    1.40    1.00
  -8  -3   6    1.60    1.30
  -8  -3   6    0.30    1.10
   7   3  -6   65.49    5.40
   7   3  -6   61.39    5.60
   7   3  -6   64.79    5.30
  -7  -3   6   63.79    5.40
  -7  -3   6   63.49    5.60
  -7  -3   6   63.29    5.70
   6   3  -6    1.80    0.70
   6   3  -6    2.00    1.00
   6   3  -6    1.80    0.80
  -6  -3   6    2.40    1.00
  -6  -3   6    2.50    1.00
  -6  -3   6    1.60    1.10
   5   3  -6    9.20    1.30
   5   3  -6   10.80    1.70
   5   3  -6   13.00    1.40
  -5  -3   6   10.40    1.80
  -5  -3   6   13.00    1.70
  -5  -3   6   11.50    1.60
   4   3  -6    5.40    0.80
   4   3  -6    4.90    0.90
   4   3  -6    8.40    1.30
   4   3  -6    6.60    1.00
  -4  -3   6    5.20    1.00
  -4  -3   6    6.50    1.10
  -4  -3   6    5.60    1.00
  -4  -3   6    7.20    0.90
   3   3  -6    4.10    0.70
   3   3  -6    3.80    0.60
   3   3  -6    3.40    0.60
   3   3  -6    2.40    0.70
  -3  -3   6    2.50    0.80
  -3  -3   6    3.30    0.60
  -3  -3   6    2.60    0.70
  -3  -3   6    2.00    0.70
  -3  -3   6    4.00    0.70
   2   3  -6   32.90    2.50
   2   3  -6   29.90    2.50
   2   3  -6   29.00    2.40
   2   3  -6   29.40    2.30
   2   3  -6   29.40    2.50
  -2  -3   6   26.50    2.50
  -2  -3   6   29.10    2.60
  -2  -3   6   29.80    2.40
  -2  -3   6   29.90    2.50
  -2  -3   6   31.30    2.40
  -2  -3   6   28.60    2.50
   1   3  -6   44.20    3.20
   1   3  -6   37.20    3.10
   1   3  -6   41.00    3.10
   1   3  -6   39.80    3.10
   1   3  -6   37.20    3.10
  -1  -3   6   36.30    3.30
  -1  -3   6   38.90    3.10
  -1  -3   6   33.20    3.10
  -1  -3   6   39.50    3.10
  -1  -3   6   43.20    3.10
  -1  -3   6   40.40    3.10
   0   3  -6   19.90    1.60
   0   3  -6   16.00    1.40
   0   3  -6   16.70    1.50
   0   3  -6   15.80    1.50
   0  -3   6   17.40    1.60
   0  -3   6   15.10    1.70
   0  -3   6   16.90    1.50
   0  -3   6   16.80    1.50
   0  -3   6   17.40    1.50
  -1   3  -6  139.19   11.30
  -1   3  -6  149.49   11.20
  -1   3  -6  161.28   11.30
  -1   3  -6  147.69   11.10
   1  -3   6  166.98   11.20
   1  -3   6  138.69   11.20
   1  -3   6  152.68   11.30
   1  -3   6  133.09   11.50
   1  -3   6  141.49   11.20
  -2   3  -6   26.00    2.40
  -2   3  -6   28.40    2.20
  -2   3  -6   31.30    2.50
  -2   3  -6   27.80    2.30
   2  -3   6   30.30    2.50
   2  -3   6   24.70    2.70
   2  -3   6   27.50    2.30
   2  -3   6   27.10    2.30
   2  -3   6   26.90    2.30
  -3   3  -6    0.30    0.50
  -3   3  -6    0.40    0.50
  -3   3  -6    0.00    0.70
   3  -3   6    0.40    0.60
   3  -3   6   -0.40    0.40
   3  -3   6    0.40    0.80
   3  -3   6    0.30    0.40
   3  -3   6    0.70    0.40
  -4   3  -6    6.80    1.20
  -4   3  -6    6.20    1.10
  -4   3  -6    9.50    1.20
   4  -3   6    6.00    1.00
   4  -3   6    6.00    1.40
   4  -3   6    6.40    1.00
   4  -3   6   10.50    1.80
   4  -3   6    8.10    1.40
  -5   3  -6    8.80    1.20
  -5   3  -6    8.80    1.70
  -5   3  -6   10.10    1.60
  -5   3  -6   10.90    1.80
   5  -3   6    8.60    1.10
   5  -3   6    7.80    1.70
   5  -3   6   11.50    1.60
   5  -3   6    7.10    1.10
   5  -3   6   13.10    2.10
   5  -3   6    5.80    1.10
  -6   3  -6    1.40    0.50
  -6   3  -6    0.30    1.00
  -6   3  -6    1.10    1.10
  -6   3  -6    0.70    1.10
   6  -3   6    1.00    1.00
   6  -3   6   -0.40    0.60
   6  -3   6    0.90    1.20
   6  -3   6   -0.60    0.70
   6  -3   6    0.90    1.40
  -7   3  -6    1.50    1.30
  -7   3  -6    2.80    0.70
  -7   3  -6    2.10    1.10
  -7   3  -6    1.70    1.30
   7  -3   6    1.80    0.80
   7  -3   6    0.60    1.10
   7  -3   6    1.40    1.30
   7  -3   6    1.70    0.60
   7  -3   6   -0.30    1.60
  -8   3  -6    0.20    1.00
  -8   3  -6   -0.40    0.60
  -8   3  -6   -1.00    1.40
   8  -3   6    0.40    0.70
   8  -3   6   -1.30    1.00
   8  -3   6    0.00    0.60
  -9   3  -6   -0.40    0.60
  -9   3  -6   -0.60    0.90
   9  -3   6   -0.20    0.60
   9  -3   6    0.70    0.80
  10   2  -6    2.10    1.10
  10   2  -6    1.30    1.40
 -10  -2   6    0.60    1.40
 -10  -2   6    0.90    1.60
   9   2  -6    1.30    0.90
   9   2  -6   -1.20    1.10
   9   2  -6    0.80    1.00
  -9  -2   6    0.30    1.30
  -9  -2   6   -0.20    0.90
  -9  -2   6   -0.70    1.10
   8   2  -6    0.00    1.10
   8   2  -6    1.50    0.80
   8   2  -6    1.40    0.80
  -8  -2   6    0.90    1.10
  -8  -2   6   -0.40    1.10
  -8  -2   6    0.20    0.90
   7   2  -6   12.10    1.80
   7   2  -6   11.60    1.70
   7   2  -6   13.30    2.20
  -7  -2   6   11.80    1.80
  -7  -2   6   15.00    2.10
  -7  -2   6   15.00    2.20
   6   2  -6    5.50    1.20
   6   2  -6    6.80    1.00
   6   2  -6    5.40    0.90
  -6  -2   6    4.50    1.10
  -6  -2   6    4.10    1.20
  -6  -2   6    5.50    1.20
   5   2  -6   23.10    2.20
   5   2  -6   25.90    2.50
   5   2  -6   19.60    2.10
   5   2  -6   20.70    2.10
  -5  -2   6   23.00    2.40
  -5  -2   6   26.20    2.40
  -5  -2   6   25.30    2.20
   4   2  -6    1.90    0.50
   4   2  -6    1.50    0.50
   4   2  -6    2.70    0.60
   4   2  -6    1.90    0.70
  -4  -2   6    1.80    0.70
  -4  -2   6    1.10    0.70
  -4  -2   6    1.70    0.40
  -4  -2   6    2.10    0.60
   3   2  -6  179.48   13.70
   3   2  -6  185.38   13.80
   3   2  -6  169.38   13.70
   3   2  -6  172.88   13.70
  -3  -2   6  174.78   13.80
  -3  -2   6  184.38   13.80
  -3  -2   6  196.18   13.60
  -3  -2   6  182.38   13.70
   2   2  -6  414.76   31.40
   2   2  -6  425.36   31.40
   2   2  -6  424.16   31.40
   2   2  -6  419.86   31.30
   2   2  -6  434.16   31.40
  -2  -2   6  418.06   31.40
  -2  -2   6  414.46   31.40
  -2  -2   6  370.26   31.40
  -2  -2   6  446.26   31.30
   1   2  -6  212.38   14.90
   1   2  -6  194.18   14.80
   1   2  -6  187.08   14.80
   1   2  -6  197.28   14.80
  -1  -2   6  209.48   15.00
  -1  -2   6  192.98   14.80
  -1  -2   6  198.48   14.80
  -1  -2   6  192.38   14.80
  -1  -2   6  187.68   14.80
   0   2  -6   84.89    5.90
   0   2  -6   74.69    5.80
   0   2  -6   75.19    5.80
   0   2  -6   74.59    5.70
   0  -2   6   78.69    5.80
   0  -2   6   72.39    5.70
   0  -2   6   78.29    6.00
   0  -2   6   66.59    5.70
   0  -2   6   71.79    5.80
   0  -2   6   78.29    5.80
  -1   2  -6  151.58   11.00
  -1   2  -6  148.39   10.90
  -1   2  -6  142.29   11.10
   1  -2   6  141.19   11.00
   1  -2   6  139.69   11.30
   1  -2   6  132.59   11.00
   1  -2   6  155.58   11.00
   1  -2   6  154.28   11.10
  -2   2  -6    4.10    0.70
  -2   2  -6    4.30    0.80
  -2   2  -6    4.90    0.80
   2  -2   6    4.10    0.60
   2  -2   6    5.00    0.60
   2  -2   6    4.60    0.80
   2  -2   6    4.00    0.90
   2  -2   6    4.10    0.70
  -3   2  -6  326.47   22.80
  -3   2  -6  316.37   23.00
   3  -2   6  273.57   22.80
   3  -2   6  265.37   23.20
   3  -2   6  334.67   23.00
  -4   2  -6    1.10    0.70
  -4   2  -6    0.60    0.50
  -4   2  -6    1.10    0.80
   4  -2   6   -0.30    0.80
   4  -2   6    0.20    0.50
   4  -2   6    0.70    0.70
   4  -2   6    0.40    0.50
   4  -2   6    0.70    0.40
  -5   2  -6   36.00    2.80
   5  -2   6   31.00    3.00
   5  -2   6   34.70    2.90
   5  -2   6   36.10    3.60
   5  -2   6   30.80    3.00
  -6   2  -6  103.09    7.20
   6  -2   6   89.29    7.30
   6  -2   6   93.99    7.10
   6  -2   6   81.19    7.30
   6  -2   6   91.19    7.90
  -7   2  -6    3.20    0.70
  -7   2  -6    2.40    1.20
  -7   2  -6    2.10    1.00
  -7   2  -6    3.50    1.30
   7  -2   6    3.40    1.00
   7  -2   6    3.60    0.70
   7  -2   6    2.40    1.10
   7  -2   6    3.00    1.00
   7  -2   6    3.10    1.30
  -8   2  -6    0.40    1.00
  -8   2  -6    1.00    1.00
  -8   2  -6    0.70    0.60
   8  -2   6    2.90    0.90
   8  -2   6   -0.40    0.90
   8  -2   6    1.00    0.70
  -9   2  -6    1.50    0.70
  -9   2  -6   -0.40    1.10
  -9   2  -6    1.20    1.00
   9  -2   6   -1.20    1.10
   9  -2   6    1.30    0.70
  10   1  -6   -0.50    1.20
  10   1  -6    0.60    0.90
  10   1  -6    0.00    0.90
 -10  -1   6   -0.80    1.30
 -10  -1   6   -1.10    1.20
   9   1  -6    3.00    1.50
   9   1  -6    4.30    1.10
   9   1  -6    4.40    1.10
  -9  -1   6    3.50    1.40
  -9  -1   6    4.50    1.40
   8   1  -6   -0.30    0.70
   8   1  -6    0.60    1.10
   8   1  -6    0.00    0.70
  -8  -1   6    0.80    1.00
  -8  -1   6   -1.20    0.90
  -8  -1   6    0.30    1.00
   7   1  -6   -1.40    0.60
   7   1  -6    0.20    0.60
   7   1  -6   -0.90    0.90
  -7  -1   6    0.30    0.80
  -7  -1   6   -0.80    1.00
  -7  -1   6    0.10    0.90
   6   1  -6  116.09    9.50
   6   1  -6  116.09    9.50
   6   1  -6  127.29    9.80
  -6  -1   6  128.09    9.50
  -6  -1   6  122.19    9.70
  -6  -1   6  126.59    9.70
   5   1  -6    7.20    1.30
   5   1  -6    9.70    1.20
   5   1  -6    9.80    1.50
   5   1  -6    7.20    1.20
  -5  -1   6   11.10    1.50
  -5  -1   6   10.50    1.40
  -5  -1   6   10.70    1.20
   4   1  -6   -0.10    0.40
   4   1  -6   -0.10    0.40
   4   1  -6    0.30    0.60
   4   1  -6    0.20    0.40
  -4  -1   6    0.30    0.50
  -4  -1   6    0.30    0.60
  -4  -1   6    0.50    0.50
   3   1  -6  244.88   19.40
   3   1  -6  225.48   19.30
   3   1  -6  263.57   19.40
   3   1  -6  251.37   19.40
   3   1  -6  275.47   19.50
  -3  -1   6  275.37   19.50
  -3  -1   6  245.28   19.40
  -3  -1   6  278.87   19.40
   2   1  -6  688.03   51.99
   2   1  -6  641.44   51.89
   2   1  -6  723.73   51.99
   2   1  -6  676.03   51.89
  -2  -1   6  795.82   51.89
  -2  -1   6  712.03   51.89
  -2  -1   6  718.73   51.99
  -2  -1   6  599.24   51.89
   1   1  -6  275.67   19.60
   1   1  -6  253.47   19.50
   1   1  -6  254.27   19.60
  -1  -1   6  264.77   19.50
  -1  -1   6  245.68   19.50
  -1  -1   6  268.47   19.60
   0   1  -6   79.59    5.90
   0   1  -6   90.09    6.00
   0   1  -6   76.39    6.00
   0  -1   6   79.99    5.90
   0  -1   6   76.99    5.90
   0  -1   6   70.59    5.90
   0  -1   6   79.69    6.00
   0  -1   6   67.69    5.90
  -1   1  -6   92.89    6.60
  -1   1  -6   86.79    6.70
   1  -1   6   93.79    6.70
   1  -1   6   82.39    6.60
   1  -1   6   77.59    6.60
   1  -1   6   90.49    6.90
   1  -1   6   83.79    6.70
  -2   1  -6  229.68   15.20
  -2   1  -6  219.78   15.40
   2  -1   6  223.88   15.40
   2  -1   6  197.88   15.60
   2  -1   6  176.98   15.30
   2  -1   6  169.68   15.20
   2  -1   6  196.48   15.20
  -3   1  -6   48.30    3.40
  -3   1  -6   40.00    3.10
   3  -1   6   36.10    3.20
   3  -1   6   38.80    3.10
   3  -1   6   34.00    3.10
   3  -1   6   36.30    3.20
   3  -1   6   40.40    3.60
  -4   1  -6    6.00    1.00
  -4   1  -6    4.00    0.60
  -4   1  -6    4.40    0.90
   4  -1   6    4.70    0.70
   4  -1   6    2.90    1.10
   4  -1   6    3.10    0.80
   4  -1   6    3.20    0.70
   4  -1   6    4.40    0.90
  -5   1  -6  257.17   18.60
   5  -1   6  254.57   19.20
   5  -1   6  236.28   18.70
   5  -1   6  222.88   18.70
   5  -1   6  256.77   18.60
  -6   1  -6    3.90    0.70
  -6   1  -6    4.20    1.10
  -6   1  -6    3.80    1.00
   6  -1   6    2.80    0.90
   6  -1   6    3.60    0.70
   6  -1   6    3.50    1.00
   6  -1   6    3.20    1.00
   6  -1   6    2.80    1.20
  -7   1  -6   -0.20    0.50
  -7   1  -6   -0.70    0.90
  -7   1  -6   -0.20    0.70
  -7   1  -6    0.10    0.90
   7  -1   6   -1.10    0.80
   7  -1   6    0.50    0.70
   7  -1   6    0.00    1.00
   7  -1   6    0.70    0.70
   7  -1   6    0.30    0.50
  -8   1  -6    8.00    1.50
  -8   1  -6   13.10    2.00
  -8   1  -6   10.30    1.40
   8  -1   6   10.20    1.40
   8  -1   6   11.00    1.70
   8  -1   6   12.10    1.90
  10   0  -6    2.90    1.10
  10   0  -6    2.90    1.50
  10   0  -6    4.90    1.20
 -10   0   6    3.20    1.50
 -10   0   6    2.00    1.10
 -10   0   6    3.90    1.50
   9   0  -6   18.00    2.60
   9   0  -6   22.30    2.90
   9   0  -6   19.70    2.40
  -9   0   6   20.30    2.70
  -9   0   6   21.20    2.80
   8   0  -6   28.70    3.20
   8   0  -6   26.10    2.70
   8   0  -6   28.40    2.90
  -8   0   6   28.70    3.10
  -8   0   6   26.70    3.10
   7   0  -6    1.30    0.70
   7   0  -6   -0.30    0.80
   7   0  -6   -0.30    1.00
   7   0  -6    0.10    0.60
  -7   0   6    1.40    1.00
  -7   0   6   -0.50    0.90
  -7   0   6    1.10    0.70
   6   0  -6    3.40    0.90
   6   0  -6    2.40    0.90
   6   0  -6    2.00    0.70
   6   0  -6    3.30    0.70
  -6   0   6    3.40    0.90
  -6   0   6    2.50    0.90
  -6   0   6    3.60    0.70
   5   0  -6   -0.50    0.40
   5   0  -6    0.80    0.70
   5   0  -6    0.30    0.50
   5   0  -6   -0.60    0.50
  -5   0   6   -1.20    0.70
  -5   0   6    0.40    0.50
  -5   0   6   -0.10    0.60
  -5   0   6    0.40    0.60
   4   0  -6   41.20    3.80
   4   0  -6   42.40    3.70
   4   0  -6   51.69    3.80
   4   0  -6   44.10    3.70
  -4   0   6   45.10    3.80
  -4   0   6   47.20    3.60
  -4   0   6   49.80    3.80
   3   0  -6  708.53   55.39
   3   0  -6  719.43   55.39
   3   0  -6  638.34   55.29
   3   0  -6  708.23   55.49
  -3   0   6  851.61   55.29
  -3   0   6  838.02   55.39
  -3   0   6  718.23   55.39
   2   0  -6   12.10    1.20
   2   0  -6   13.80    1.40
   2   0  -6   13.00    1.30
   2   0  -6   15.70    1.30
  -2   0   6   15.80    1.40
  -2   0   6   15.40    1.20
  -2   0   6   15.60    1.30
  -2   0   6   12.20    1.30
   1   0  -6  272.97   18.90
   1   0  -6  246.58   18.80
   1   0  -6  249.38   18.70
   1   0  -6  234.98   18.70
  -1   0   6  261.97   18.70
  -1   0   6  251.87   18.70
  -1   0   6  264.07   18.80
  -1   0   6  217.28   18.70
   0   0  -6    7.00    0.70
   0   0  -6    7.80    0.90
   0   0  -6    7.20    0.70
   0   0  -6    7.80    0.80
   0   0   6    6.60    0.80
   0   0   6    5.60    0.80
   0   0   6    6.40    0.80
   0   0   6    7.40    0.80
  -1   0  -6  507.95   39.80
  -1   0  -6  583.34   39.90
  -1   0  -6  629.04   39.70
   1   0   6  489.65   39.80
   1   0   6  529.45   39.80
   1   0   6  507.65   39.80
   1   0   6  474.35   39.80
  -2   0  -6    0.20    0.30
  -2   0  -6    1.30    0.50
   2   0   6    0.10    0.30
   2   0   6    0.00    0.40
   2   0   6    0.20    0.30
   2   0   6    0.40    0.60
   2   0   6   -0.60    0.30
  -3   0  -6   61.69    4.60
   3   0   6   70.59    5.10
   3   0   6   51.69    4.60
   3   0   6   56.09    4.80
   3   0   6   52.59    4.70
   3   0   6   62.19    4.60
  -4   0  -6   91.09    6.70
   4   0   6   80.09    6.80
   4   0   6   81.49    6.90
   4   0   6   79.69    6.80
   4   0   6   98.69    7.30
   4   0   6   89.59    6.70
  -5   0  -6   40.90    3.20
   5   0   6   36.50    3.30
   5   0   6   36.00    3.50
   5   0   6   37.70    3.10
   5   0   6   38.40    3.80
  -6   0  -6   16.00    2.00
  -6   0  -6   20.90    2.00
  -6   0  -6   15.60    1.60
   6   0   6   15.60    1.90
   6   0   6   14.60    2.00
   6   0   6   15.80    2.30
   6   0   6   14.30    1.60
  -7   0  -6   18.20    1.90
  -7   0  -6   18.00    2.30
  -7   0  -6   23.80    2.20
   7   0   6   17.70    2.20
   7   0   6   20.00    2.40
   7   0   6   16.70    1.90
  -8   0  -6    0.50    0.90
  -8   0  -6    0.70    0.60
  -8   0  -6    1.00    1.00
   8   0   6    1.50    0.70
   8   0   6    1.70    0.90
   8   0   6    3.00    1.20
  10  -1  -6    1.30    1.00
  10  -1  -6   -0.50    1.30
  10  -1  -6    2.40    1.10
 -10   1   6    1.40    1.50
 -10   1   6    0.60    1.30
 -10   1   6    0.70    1.00
   9  -1  -6    1.40    1.20
   9  -1  -6    1.80    1.00
   9  -1  -6    2.60    0.90
  -9   1   6    2.00    0.90
  -9   1   6    2.20    1.20
  -9   1   6    1.80    1.30
   8  -1  -6  104.69    9.60
   8  -1  -6  115.99    9.50
   8  -1  -6  111.79    9.40
   8  -1  -6  134.39    9.80
  -8   1   6  127.29    9.70
  -8   1   6  117.29    9.40
  -8   1   6  129.59    9.70
   7  -1  -6   11.10    1.70
   7  -1  -6   13.70    2.00
   7  -1  -6   14.40    1.60
   7  -1  -6   10.20    2.00
  -7   1   6   16.20    1.90
  -7   1   6   12.60    1.60
  -7   1   6   13.60    1.90
   6  -1  -6    1.80    0.60
   6  -1  -6    0.50    0.80
   6  -1  -6    1.60    0.80
   6  -1  -6    0.90    0.60
  -6   1   6    1.30    0.70
  -6   1   6    3.20    0.90
  -6   1   6    2.20    0.90
  -6   1   6    1.10    0.60
   5  -1  -6   29.40    2.80
   5  -1  -6   38.10    3.00
   5  -1  -6   29.80    3.00
   5  -1  -6   32.40    2.80
  -5   1   6   36.20    2.70
  -5   1   6   35.80    2.90
  -5   1   6   30.50    2.80
  -5   1   6   34.60    2.90
   4  -1  -6   43.60    4.00
   4  -1  -6   46.40    3.80
   4  -1  -6   43.80    3.80
  -4   1   6   53.99    3.90
  -4   1   6   46.10    3.80
  -4   1   6   46.90    3.80
  -4   1   6   53.39    3.70
   3  -1  -6   10.10    1.10
   3  -1  -6    7.80    0.90
   3  -1  -6    9.90    1.00
   3  -1  -6    9.00    1.00
  -3   1   6   10.80    1.10
  -3   1   6   10.50    0.90
   2  -1  -6  228.38   18.00
   2  -1  -6  245.08   17.90
   2  -1  -6  247.28   18.20
   2  -1  -6  230.88   18.10
   2  -1  -6  224.88   18.00
  -2   1   6  279.27   18.00
  -2   1   6  208.78   17.90
  -2   1   6  246.08   18.00
  -2   1   6  244.18   17.90
   1  -1  -6  152.18   12.30
   1  -1  -6  164.18   12.40
   1  -1  -6  173.38   12.50
   1  -1  -6  152.48   12.30
   1  -1  -6  164.98   12.30
  -1   1   6  162.58   12.40
  -1   1   6  164.28   12.30
  -1   1   6  178.28   12.40
   0  -1  -6   87.39    6.10
   0  -1  -6   71.29    5.90
   0  -1  -6   76.49    5.90
   0  -1  -6   79.69    6.00
   0   1   6   75.29    6.00
   0   1   6   88.89    6.00
   0   1   6   76.09    6.00
   0   1   6   77.89    5.90
   0   1   6   67.79    5.80
  -1  -1  -6   79.89    5.50
  -1  -1  -6   67.99    5.40
  -1  -1  -6   71.49    5.30
   1   1   6   67.19    5.50
   1   1   6   69.19    5.40
   1   1   6   67.59    5.50
   1   1   6   68.29    5.50
  -2  -1  -6   -0.90    0.50
  -2  -1  -6   -0.10    0.20
  -2  -1  -6   -0.70    0.40
   2   1   6   -0.60    0.30
   2   1   6   -0.20    0.60
   2   1   6   -0.60    0.40
   2   1   6   -0.20    0.20
  -3  -1  -6  250.97   18.10
   3   1   6  237.88   18.20
   3   1   6  230.88   18.20
   3   1   6  229.28   18.20
   3   1   6  247.68   18.10
  -4  -1  -6    3.00    0.90
  -4  -1  -6    1.90    0.80
  -4  -1  -6    1.30    0.50
   4   1   6    0.60    0.70
   4   1   6    1.20    0.90
   4   1   6    0.10    0.90
   4   1   6    0.90    0.60
   4   1   6    1.50    0.60
  -5  -1  -6    0.00    0.70
  -5  -1  -6    0.70    0.40
  -5  -1  -6    0.30    0.80
   5   1   6    0.90    0.90
   5   1   6   -0.50    0.80
   5   1   6    0.50    0.50
   5   1   6    0.20    0.60
   5   1   6   -0.40    0.60
  -6  -1  -6    1.20    0.80
  -6  -1  -6    1.50    0.80
  -6  -1  -6    1.00    0.60
   6   1   6    1.40    0.80
   6   1   6    0.90    0.90
   6   1   6    1.30    0.60
  -7  -1  -6    0.50    0.60
  -7  -1  -6    1.10    0.90
  -7  -1  -6    0.30    0.80
   7   1   6    1.00    0.60
   7   1   6    0.80    0.80
   7   1   6    2.30    1.00
  -8  -1  -6    5.10    1.30
  -8  -1  -6    5.40    1.00
   8   1   6    5.80    1.30
   8   1   6    4.90    1.00
   8   1   6    5.60    1.50
  10  -2  -6    3.10    1.50
  10  -2  -6    3.60    1.20
  10  -2  -6    3.10    1.00
 -10   2   6    3.40    1.00
 -10   2   6    2.10    1.40
 -10   2   6    3.50    1.40
   9  -2  -6    2.90    0.90
   9  -2  -6    0.50    1.00
   9  -2  -6    2.40    1.30
   9  -2  -6    2.60    1.00
  -9   2   6    2.80    0.90
  -9   2   6    1.40    1.20
  -9   2   6   -0.10    1.30
   8  -2  -6   40.00    3.60
   8  -2  -6   44.70    4.00
   8  -2  -6   31.70    3.80
   8  -2  -6   39.60    3.60
  -8   2   6   41.60    3.80
  -8   2   6   39.00    3.50
  -8   2   6   43.80    3.90
   7  -2  -6   49.20    4.10
   7  -2  -6   37.50    4.10
   7  -2  -6   40.60    3.90
   7  -2  -6   43.30    3.80
  -7   2   6   49.90    4.10
  -7   2   6   42.50    3.80
  -7   2   6   52.59    4.30
  -7   2   6   46.30    4.00
   6  -2  -6   45.10    3.70
   6  -2  -6   40.30    3.70
   6  -2  -6   40.60    4.00
  -6   2   6   45.80    3.70
  -6   2   6   42.40    3.60
  -6   2   6   50.39    3.80
   5  -2  -6   69.19    5.50
   5  -2  -6   65.09    5.50
   5  -2  -6   66.69    5.80
  -5   2   6   69.29    5.50
  -5   2   6   77.49    5.60
   4  -2  -6   67.99    5.60
   4  -2  -6   68.59    5.90
   4  -2  -6   71.99    5.60
  -4   2   6   72.19    5.60
  -4   2   6   79.79    5.70
   3  -2  -6   60.99    5.00
   3  -2  -6   63.69    4.70
   3  -2  -6   55.69    4.70
   3  -2  -6   57.59    4.90
   3  -2  -6   58.99    4.80
  -3   2   6   69.69    4.80
  -3   2   6   61.79    4.70
   2  -2  -6   14.70    1.30
   2  -2  -6   14.50    1.20
   2  -2  -6   15.30    1.50
   2  -2  -6   16.20    1.50
   2  -2  -6   13.80    1.30
  -2   2   6   13.20    1.20
  -2   2   6   18.20    1.30
  -2   2   6   14.80    1.40
   1  -2  -6    0.00    0.20
   1  -2  -6    0.30    0.20
  -1   2   6   -0.10    0.40
  -1   2   6   -0.70    0.30
  -1   2   6    0.60    0.90
  -1   2   6   -0.30    0.30
  -1   2   6    0.20    0.20
   0  -2  -6    6.80    0.80
   0  -2  -6    6.60    0.60
   0  -2  -6    5.70    0.90
   0  -2  -6    7.40    0.90
   0   2   6    6.40    0.90
   0   2   6    6.50    0.80
   0   2   6    5.90    0.70
   0   2   6    6.10    0.80
   0   2   6    6.60    0.90
  -1  -2  -6  233.18   15.50
  -1  -2  -6  213.18   15.50
  -1  -2  -6  200.48   15.40
   1   2   6  189.58   15.50
   1   2   6  195.18   15.40
   1   2   6  198.88   15.50
   1   2   6  196.18   15.40
  -2  -2  -6   -0.30    0.50
  -2  -2  -6    0.80    0.50
  -2  -2  -6    0.70    0.40
   2   2   6    0.30    0.50
   2   2   6    0.00    0.50
   2   2   6    1.30    0.80
   2   2   6    0.90    0.40
   2   2   6    0.40    0.50
  -3  -2  -6  118.59    8.90
   3   2   6  114.59    9.00
   3   2   6  111.39    9.10
   3   2   6  118.19    8.90
   3   2   6  117.69    9.10
  -4  -2  -6   74.59    5.70
  -4  -2  -6   76.79    5.90
   4   2   6   71.89    5.90
   4   2   6   69.99    5.90
   4   2   6   68.89    6.00
   4   2   6   71.99    5.70
  -5  -2  -6    0.40    0.50
  -5  -2  -6    0.50    0.70
  -5  -2  -6   -0.30    0.60
   5   2   6   -0.80    0.80
   5   2   6   -0.30    0.60
   5   2   6    0.70    0.70
   5   2   6   -0.60    0.80
   5   2   6   -0.40    0.50
  -6  -2  -6   11.90    1.70
  -6  -2  -6   10.70    1.40
  -6  -2  -6    9.90    1.60
   6   2   6    9.90    1.60
   6   2   6   11.40    1.70
   6   2   6   10.80    1.40
   6   2   6    8.30    1.60
  -7  -2  -6    6.80    1.40
  -7  -2  -6    7.30    1.10
  -7  -2  -6    9.20    1.70
   7   2   6   10.00    1.40
   7   2   6    8.00    1.40
   7   2   6    8.40    1.60
  10  -3  -6   70.89    6.00
  10  -3  -6   61.09    6.20
  10  -3  -6   66.89    5.80
 -10   3   6   67.89    5.80
 -10   3   6   81.39    6.30
   9  -3  -6    1.30    0.80
   9  -3  -6    2.80    1.10
   9  -3  -6    0.60    1.20
  -9   3   6   -1.10    1.10
  -9   3   6   -0.20    1.20
  -9   3   6    1.70    0.90
   8  -3  -6    3.70    1.00
   8  -3  -6    3.60    0.90
   8  -3  -6    4.40    1.30
  -8   3   6    3.80    1.20
  -8   3   6    4.90    1.00
  -8   3   6    3.60    1.10
   7  -3  -6   26.70    2.90
   7  -3  -6   27.40    3.20
   7  -3  -6   31.60    2.80
  -7   3   6   30.20    2.80
  -7   3   6   34.00    3.00
  -7   3   6   35.80    2.90
   6  -3  -6    2.30    1.00
   6  -3  -6    3.90    0.70
   6  -3  -6    2.40    0.70
   6  -3  -6    2.70    0.70
  -6   3   6    3.90    0.90
  -6   3   6    3.70    0.70
  -6   3   6    4.40    0.80
  -6   3   6    3.50    1.30
   5  -3  -6   53.99    4.60
   5  -3  -6   57.79    4.50
   5  -3  -6   53.69    4.90
  -5   3   6   61.59    4.60
  -5   3   6   55.19    4.50
   4  -3  -6    1.20    0.60
   4  -3  -6    1.10    0.40
   4  -3  -6    0.90    0.40
  -4   3   6    1.60    1.10
  -4   3   6    1.30    0.40
  -4   3   6    1.30    0.40
  -4   3   6    1.30    0.50
   3  -3  -6    7.10    1.20
   3  -3  -6    8.10    0.90
   3  -3  -6    7.30    0.90
   3  -3  -6    7.30    1.10
  -3   3   6    8.90    1.00
  -3   3   6   10.70    1.00
  -3   3   6    8.20    0.80
   2  -3  -6    2.30    0.60
   2  -3  -6    3.00    0.40
   2  -3  -6    2.00    0.70
  -2   3   6    4.00    0.50
  -2   3   6    2.70    0.50
  -2   3   6    5.60    1.30
  -2   3   6    4.30    0.70
  -2   3   6    2.80    0.50
   1  -3  -6  351.46   26.90
   1  -3  -6  306.87   26.90
   1  -3  -6  344.57   27.10
   1  -3  -6  343.67   27.10
  -1   3   6  385.96   27.00
  -1   3   6  349.96   26.90
  -1   3   6  376.06   27.00
  -1   3   6  414.86   27.00
   0  -3  -6  113.89    8.70
   0  -3  -6  111.19    8.50
   0  -3  -6  107.29    8.70
   0   3   6  102.39    8.40
   0   3   6  112.49    8.60
   0   3   6  116.99    8.60
   0   3   6  118.29    8.60
  -1  -3  -6    1.30    0.40
  -1  -3  -6    0.40    0.40
  -1  -3  -6    0.80    0.50
   1   3   6    0.60    0.50
   1   3   6    1.80    1.00
   1   3   6    0.50    0.50
   1   3   6    0.50    0.40
  -2  -3  -6  118.89    8.80
  -2  -3  -6  111.19    8.60
  -2  -3  -6  120.19    8.70
   2   3   6  109.29    8.80
   2   3   6  109.99    8.70
   2   3   6  104.79    8.80
  -3  -3  -6   12.40    1.60
  -3  -3  -6   11.80    1.60
  -3  -3  -6   12.80    1.30
   3   3   6   12.50    1.60
   3   3   6   10.10    1.70
   3   3   6    9.20    1.40
  -4  -3  -6   -0.90    0.70
  -4  -3  -6   -0.50    0.50
  -4  -3  -6    0.30    0.70
   4   3   6   -1.60    0.80
   4   3   6   -0.20    0.80
   4   3   6   -0.20    0.60
   4   3   6   -0.90    0.60
  -5  -3  -6   17.00    1.70
  -5  -3  -6   18.10    1.90
  -5  -3  -6   16.80    2.00
   5   3   6   13.60    2.10
   5   3   6   14.90    2.00
   5   3   6   16.10    2.00
  -6  -3  -6   -0.60    0.70
  -6  -3  -6   -0.30    0.80
  -6  -3  -6   -0.70    0.60
   6   3   6    0.50    0.80
   6   3   6   -0.10    0.80
   6   3   6    0.90    1.00
  -7  -3  -6    0.00    0.70
  -7  -3  -6    0.30    0.90
   7   3   6    1.70    1.20
   7   3   6    0.40    0.90
   7   3   6    0.90    0.80
  10  -4  -6    1.30    1.00
  10  -4  -6    0.80    1.40
  10  -4  -6    1.00    1.10
 -10   4   6    1.40    1.10
 -10   4   6    0.30    1.30
   9  -4  -6    3.20    1.20
   9  -4  -6    3.30    1.00
   9  -4  -6    3.10    1.50
  -9   4   6    2.40    1.20
  -9   4   6    2.60    1.00
   8  -4  -6   31.00    3.20
   8  -4  -6   34.30    3.20
   8  -4  -6   30.70    3.70
  -8   4   6   35.10    3.20
  -8   4   6   37.90    3.30
   7  -4  -6   -0.30    0.60
   7  -4  -6   -1.60    0.90
   7  -4  -6    0.10    0.80
   7  -4  -6   -0.70    0.60
  -7   4   6   -0.70    1.30
  -7   4   6   -0.90    0.60
  -7   4   6   -1.10    0.70
  -7   4   6   -0.60    0.70
   6  -4  -6   32.50    3.60
   6  -4  -6   36.70    3.10
   6  -4  -6   32.70    3.20
  -6   4   6   42.90    3.20
  -6   4   6   36.40    3.10
   5  -4  -6    0.10    0.40
   5  -4  -6   -0.20    0.70
   5  -4  -6   -0.10    0.50
   5  -4  -6    0.00    0.50
  -5   4   6    0.10    0.50
  -5   4   6    0.20    0.50
  -5   4   6   -0.30    1.10
  -5   4   6    0.70    0.50
   4  -4  -6   19.10    2.20
   4  -4  -6   18.50    2.10
   4  -4  -6   18.70    1.90
   4  -4  -6   23.10    1.90
  -4   4   6   20.90    1.80
  -4   4   6   23.70    1.90
   3  -4  -6   30.40    2.90
   3  -4  -6   28.50    2.50
   3  -4  -6   31.60    2.90
  -3   4   6   29.60    2.50
  -3   4   6   34.00    2.60
   2  -4  -6   16.70    1.80
   2  -4  -6   17.20    1.80
   2  -4  -6   14.70    1.50
   2  -4  -6   17.20    1.50
  -2   4   6   18.10    1.60
  -2   4   6   17.20    1.50
   1  -4  -6   85.49    7.10
   1  -4  -6   88.39    6.90
   1  -4  -6   83.79    7.10
  -1   4   6  100.69    7.00
  -1   4   6   93.99    6.90
  -1   4   6   81.29    6.80
  -1   4   6   93.29    7.00
   0  -4  -6  143.59   10.30
   0  -4  -6  127.99   10.30
   0  -4  -6  129.39   10.20
   0  -4  -6  129.19   10.40
   0   4   6  128.59   10.10
   0   4   6  136.09   10.20
   0   4   6  137.89   10.30
   0   4   6  135.89   10.30
  -1  -4  -6    4.60    0.80
  -1  -4  -6    7.30    1.00
  -1  -4  -6    4.40    0.70
  -1  -4  -6    4.20    1.00
   1   4   6    5.50    0.90
   1   4   6    5.70    0.90
   1   4   6    6.60    1.00
  -2  -4  -6   84.59    7.00
  -2  -4  -6   90.09    6.90
  -2  -4  -6   90.99    7.10
   2   4   6   88.29    7.10
   2   4   6   89.89    7.10
   2   4   6   86.69    7.00
  -3  -4  -6    0.30    0.40
  -3  -4  -6    0.50    0.80
  -3  -4  -6    0.90    0.80
   3   4   6    1.80    1.10
   3   4   6    0.30    0.80
   3   4   6   -0.10    0.60
   3   4   6    0.90    0.70
  -4  -4  -6    0.80    0.60
  -4  -4  -6    1.10    0.70
  -4  -4  -6    0.90    0.70
   4   4   6   -0.70    0.80
   4   4   6    0.00    0.70
   4   4   6    1.00    0.70
  -5  -4  -6    1.30    0.80
  -5  -4  -6    0.20    0.60
  -5  -4  -6    0.10    0.80
   5   4   6    1.40    0.80
   5   4   6    0.10    0.90
   5   4   6    0.10    0.90
  -6  -4  -6    1.80    1.00
  -6  -4  -6    3.10    0.90
   6   4   6    5.50    1.40
   6   4   6    3.40    1.10
   6   4   6    4.50    1.10
  10  -5  -6    0.50    1.00
  10  -5  -6    0.80    1.10
  10  -5  -6    2.60    1.70
 -10   5   6    0.70    1.10
 -10   5   6    0.80    1.00
 -10   5   6    1.70    1.30
   9  -5  -6   -0.30    0.80
   9  -5  -6   -0.50    1.00
   9  -5  -6    0.10    1.20
  -9   5   6   -0.30    0.80
  -9   5   6    0.80    1.80
  -9   5   6   -0.50    0.80
  -9   5   6   -0.10    1.00
   8  -5  -6    3.10    0.90
   8  -5  -6    2.70    1.00
   8  -5  -6    3.10    1.40
  -8   5   6    3.90    1.70
  -8   5   6    2.50    1.00
  -8   5   6    3.10    1.00
   7  -5  -6   -0.10    0.60
   7  -5  -6   -0.60    0.60
   7  -5  -6   -0.70    0.70
   7  -5  -6   -1.00    1.00
  -7   5   6   -1.40    1.30
  -7   5   6   -0.60    0.70
  -7   5   6    0.20    0.60
   6  -5  -6   -0.10    0.60
   6  -5  -6    0.00    1.00
   6  -5  -6    0.60    0.60
   6  -5  -6    0.00    0.70
  -6   5   6    0.10    0.60
  -6   5   6    0.60    0.60
  -6   5   6   -0.50    1.40
   5  -5  -6    2.20    0.90
   5  -5  -6    2.30    0.70
   5  -5  -6    2.50    1.10
  -5   5   6    3.80    0.80
  -5   5   6    3.80    0.70
  -5   5   6    5.30    0.70
  -5   5   6    3.40    1.60
   4  -5  -6   46.30    4.20
   4  -5  -6   49.80    4.60
   4  -5  -6   51.89    4.60
  -4   5   6   53.29    4.20
  -4   5   6   60.09    4.30
   3  -5  -6   72.89    6.10
   3  -5  -6   71.59    6.10
   3  -5  -6   69.19    5.70
  -3   5   6   65.39    5.70
  -3   5   6   82.29    5.80
  -3   5   6   79.29    5.70
   2  -5  -6   -0.60    0.50
   2  -5  -6    0.00    0.40
  -2   5   6   -0.10    0.50
  -2   5   6   -0.10    0.40
  -2   5   6   -0.30    1.30
  -2   5   6    0.10    0.50
   1  -5  -6   -1.10    0.60
   1  -5  -6   -0.50    0.50
   1  -5  -6   -0.20    0.40
  -1   5   6    0.10    0.40
  -1   5   6   -0.70    1.30
  -1   5   6    0.80    0.60
  -1   5   6    0.30    0.50
   0  -5  -6   25.40    2.70
   0  -5  -6   28.30    2.50
   0  -5  -6   24.50    2.60
   0  -5  -6   28.50    2.50
   0   5   6   30.40    2.40
   0   5   6   32.10    2.60
   0   5   6   29.70    2.60
   0   5   6   29.80    2.70
  -1  -5  -6   23.60    2.30
  -1  -5  -6   17.60    2.10
   1   5   6   23.90    2.30
   1   5   6   24.60    2.30
   1   5   6   24.10    2.30
  -2  -5  -6    4.90    1.10
  -2  -5  -6    5.80    1.10
  -2  -5  -6    5.60    0.90
   2   5   6    7.80    1.40
   2   5   6    4.70    1.10
   2   5   6    6.10    1.20
  -3  -5  -6    1.40    0.80
  -3  -5  -6    1.80    0.70
  -3  -5  -6    2.40    0.80
   3   5   6    2.00    0.80
   3   5   6    1.70    0.80
   3   5   6    1.40    1.00
  -4  -5  -6    1.20    0.80
  -4  -5  -6    1.20    0.70
  -4  -5  -6    0.60    0.80
   4   5   6    0.70    0.80
   4   5   6   -0.10    0.90
   4   5   6    1.00    0.80
  -5  -5  -6    5.10    1.10
  -5  -5  -6    4.10    1.00
  -5  -5  -6    4.30    1.10
   5   5   6    5.20    1.40
   5   5   6    5.30    1.20
  10  -6  -6    2.80    1.70
  10  -6  -6    0.40    1.30
  10  -6  -6   -0.60    1.20
 -10   6   6    0.50    1.20
 -10   6   6    0.60    1.00
 -10   6   6    0.90    1.10
   9  -6  -6   -0.10    1.30
   9  -6  -6   -1.10    0.80
  -9   6   6   -0.60    0.80
  -9   6   6   -1.40    0.80
  -9   6   6   -1.50    0.90
   8  -6  -6    0.60    1.30
   8  -6  -6   -1.10    0.80
   8  -6  -6   -1.10    0.70
   8  -6  -6    1.40    0.90
  -8   6   6   -0.20    0.80
  -8   6   6   -0.60    0.90
  -8   6   6   -0.50    0.90
   7  -6  -6    4.50    1.60
   7  -6  -6    3.60    1.00
   7  -6  -6    4.40    1.20
  -7   6   6    6.00    1.10
  -7   6   6    4.90    2.00
  -7   6   6    4.00    1.00
  -7   6   6    4.10    0.90
   6  -6  -6    4.10    0.90
   6  -6  -6    4.80    1.60
   6  -6  -6    5.20    1.20
  -6   6   6    5.40    0.90
  -6   6   6    5.70    1.00
  -6   6   6    8.20    2.00
  -6   6   6    4.60    0.90
   5  -6  -6    0.70    1.00
   5  -6  -6   -0.70    0.80
   5  -6  -6   -0.30    0.50
  -5   6   6   -0.10    0.60
  -5   6   6    1.50    0.70
  -5   6   6   -0.30    1.60
  -5   6   6   -0.70    0.50
   4  -6  -6   28.10    2.60
   4  -6  -6   29.10    3.20
   4  -6  -6   30.10    3.20
  -4   6   6   32.90    2.70
  -4   6   6   26.30    2.60
  -4   6   6   36.20    2.80
   3  -6  -6   13.40    2.00
   3  -6  -6   12.50    2.10
  -3   6   6   15.00    1.50
  -3   6   6   18.70    1.70
  -3   6   6   17.00    1.80
   2  -6  -6   14.20    1.80
   2  -6  -6   12.70    2.00
   2  -6  -6   14.10    1.50
  -2   6   6   14.80    1.50
  -2   6   6   17.40    1.60
  -2   6   6   16.00    1.70
   1  -6  -6   14.40    1.60
   1  -6  -6   12.50    1.70
   1  -6  -6   12.80    1.90
  -1   6   6   15.50    1.60
  -1   6   6   11.90    1.50
  -1   6   6   14.70    1.70
   0  -6  -6   -0.80    0.50
   0  -6  -6   -1.00    0.70
   0   6   6    0.60    0.70
   0   6   6   -0.90    1.40
   0   6   6   -0.40    0.60
  -1  -6  -6    7.60    1.40
  -1  -6  -6    9.30    1.30
  -1  -6  -6    9.30    1.60
   1   6   6    9.10    1.30
   1   6   6   11.70    1.60
   1   6   6   10.30    1.60
  -2  -6  -6   31.50    2.80
  -2  -6  -6   32.90    3.10
  -2  -6  -6   30.50    3.00
   2   6   6   31.40    3.10
   2   6   6   30.40    3.00
   2   6   6   32.40    3.10
  -3  -6  -6    2.30    0.90
  -3  -6  -6    1.30    0.80
  -3  -6  -6    0.70    0.60
   3   6   6    1.40    1.10
   3   6   6    2.00    0.90
   3   6   6    1.90    0.80
  -4  -6  -6    2.70    0.90
  -4  -6  -6    2.20    0.80
  -4  -6  -6    2.40    1.00
   4   6   6    1.50    1.10
   4   6   6    1.20    0.90
   4   6   6    2.20    1.00
  -5  -6  -6    6.30    1.30
  -5  -6  -6    4.10    1.10
   5   6   6    5.50    1.20
   5   6   6    7.70    1.50
   5   6   6    7.60    1.60
   9  -7  -6   -1.80    0.90
   9  -7  -6    0.60    1.50
  -9   7   6   -0.80    0.90
  -9   7   6   -0.10    0.90
  -9   7   6   -1.70    1.10
   8  -7  -6    0.90    1.00
   8  -7  -6    4.20    1.30
   8  -7  -6    1.90    1.50
  -8   7   6    1.30    1.00
  -8   7   6    2.30    1.10
  -8   7   6    2.20    1.00
   7  -7  -6   26.10    3.00
   7  -7  -6   28.10    3.50
   7  -7  -6   23.20    2.70
  -7   7   6   25.40    2.60
  -7   7   6   31.80    2.70
  -7   7   6   19.60    2.60
   6  -7  -6    9.70    1.60
   6  -7  -6   13.30    2.40
   6  -7  -6    9.00    1.90
  -6   7   6   14.20    1.80
  -6   7   6    9.50    1.60
  -6   7   6   12.20    1.60
   5  -7  -6    6.60    1.50
   5  -7  -6    6.80    1.60
   5  -7  -6    7.10    1.10
  -5   7   6   11.90    2.40
  -5   7   6   10.70    1.50
  -5   7   6    7.70    1.30
  -5   7   6    6.60    1.10
   4  -7  -6   -0.40    0.90
   4  -7  -6   -0.20    0.90
  -4   7   6   -1.90    1.60
  -4   7   6   -0.70    0.70
  -4   7   6   -0.30    0.60
   3  -7  -6   19.90    2.50
   3  -7  -6   20.40    2.40
  -3   7   6   17.70    2.00
  -3   7   6   18.40    2.10
   2  -7  -6    0.60    1.00
   2  -7  -6    1.80    0.80
   2  -7  -6    1.10    0.60
  -2   7   6    0.80    0.70
  -2   7   6    1.00    0.80
  -2   7   6    1.70    1.70
   1  -7  -6    9.90    1.30
   1  -7  -6    9.80    1.60
  -1   7   6    7.10    1.10
  -1   7   6   12.20    1.70
  -1   7   6    9.00    1.60
   0  -7  -6    2.80    0.80
   0  -7  -6    3.60    1.10
   0   7   6    3.70    1.00
   0   7   6    3.10    1.00
   0   7   6    6.30    1.80
  -1  -7  -6   15.20    2.00
  -1  -7  -6   14.50    1.70
   1   7   6   14.00    2.00
   1   7   6   16.40    2.10
  -2  -7  -6    0.20    0.60
  -2  -7  -6    1.20    0.90
   2   7   6    1.00    0.90
   2   7   6    2.30    0.90
  -3  -7  -6    6.80    1.30
  -3  -7  -6    5.80    1.10
  -3  -7  -6    5.50    1.20
   3   7   6    5.30    1.10
   3   7   6   10.00    1.80
   3   7   6    5.30    1.30
  -4  -7  -6    2.80    1.10
  -4  -7  -6    2.40    0.90
   4   7   6    4.10    1.30
   4   7   6    3.70    1.10
   4   7   6    3.30    1.20
   8  -8  -6    3.40    1.70
   8  -8  -6    3.20    1.30
   8  -8  -6    2.50    1.10
  -8   8   6    1.10    1.10
  -8   8   6    1.50    1.00
  -8   8   6    1.30    1.00
   7  -8  -6   25.70    3.20
   7  -8  -6   24.60    2.70
   7  -8  -6   27.90    3.60
  -7   8   6   23.50    2.70
  -7   8   6   30.30    2.80
  -7   8   6   26.50    2.60
   6  -8  -6   45.90    4.10
   6  -8  -6   44.00    4.70
   6  -8  -6   45.70    4.80
  -6   8   6   49.50    4.10
  -6   8   6   43.10    4.00
  -6   8   6   55.09    4.20
   5  -8  -6    2.10    1.20
   5  -8  -6    1.30    1.30
  -5   8   6    2.10    1.00
  -5   8   6    2.60    0.80
   4  -8  -6    2.50    1.30
   4  -8  -6    1.70    1.10
  -4   8   6    1.00    0.80
  -4   8   6    0.50    0.90
   3  -8  -6    8.10    1.60
   3  -8  -6    7.10    1.40
  -3   8   6    5.20    1.00
  -3   8   6    7.50    1.30
   2  -8  -6    7.80    1.10
   2  -8  -6    9.80    1.70
  -2   8   6    5.40    1.00
  -2   8   6    8.30    1.30
   1  -8  -6   24.30    2.40
   1  -8  -6   26.20    3.00
  -1   8   6   24.20    2.50
  -1   8   6   26.10    2.70
   0  -8  -6    0.80    0.70
   0  -8  -6    1.50    1.00
   0   8   6    1.50    2.00
   0   8   6    1.40    0.90
  -1  -8  -6    7.90    1.50
  -1  -8  -6    6.20    1.10
  -2  -8  -6    4.40    1.20
  -2  -8  -6    2.20    0.90
   2   8   6    4.90    1.20
   2   8   6    4.30    1.10
   7  -9  -6    2.20    1.50
   7  -9  -6    2.10    1.40
   7  -9  -6    1.30    0.90
  -7   9   6   -0.40    1.00
  -7   9   6    1.40    0.80
  -7   9   6   -1.10    1.00
   6  -9  -6    0.20    1.30
   6  -9  -6    0.90    1.20
  -6   9   6   -1.30    0.90
  -6   9   6   -1.80    1.00
   5  -9  -6    1.90    1.30
   5  -9  -6    1.00    1.40
  -5   9   6   -1.00    1.00
  -5   9   6   -1.00    0.90
   4  -9  -6   14.20    2.40
   4  -9  -6    9.40    2.00
  -4   9   6    5.90    1.30
  -4   9   6    7.90    1.40
   3  -9  -6    0.90    1.30
  -3   9   6   -0.90    0.90
   2  -9  -6    3.80    1.40
  -2   9   6    1.10    0.80
  -2   9   6    2.80    1.00
   1  -9  -6    5.80    1.20
   1  -9  -6    7.60    1.70
  -1   9   6   10.50    1.80
   0  -9  -6   27.30    3.20
   0  -9  -6   23.90    2.70
   0   9   6   29.30    2.90
  -1  -9  -6    2.30    1.20
   1   9   6    2.60    1.20
   4 -10  -6   -0.50    1.50
  -4  10   6   -2.10    1.00
   3 -10  -6    6.90    1.90
  -3  10   6    3.30    1.10
  -3  10   6    6.20    1.30
   0  11  -7    0.80    1.00
   0 -11   7   -1.90    1.40
  -1  11  -7   -2.30    1.00
  -1  11  -7    3.40    1.10
   1 -11   7   -2.60    1.30
  -2  11  -7   -0.90    1.20
  -2  11  -7    3.70    1.10
   2 -11   7   -1.60    1.30
  -3  11  -7   -0.10    1.30
   3 -11   7   -0.60    1.50
   3 -11   7   -1.30    1.60
  -3 -10   7    1.10    1.30
  -3 -10   7    1.90    1.50
   2  10  -7    0.40    0.80
   2  10  -7    2.70    1.20
  -2 -10   7   -3.00    1.40
  -2 -10   7   -1.00    1.20
   1  10  -7    2.20    1.10
   1  10  -7    0.30    0.90
  -1 -10   7   -0.50    1.40
  -1 -10   7    0.00    1.30
   0  10  -7    1.60    1.00
   0  10  -7    0.20    0.90
   0 -10   7    0.00    1.30
  -1  10  -7   -0.40    0.90
  -1  10  -7    3.40    1.10
   1 -10   7   -1.80    1.20
  -2  10  -7    3.70    1.20
  -2  10  -7    1.40    1.10
   2 -10   7   -1.80    1.50
   2 -10   7   -0.60    1.20
  -3  10  -7    9.90    1.90
  -3  10  -7    9.90    1.60
   3 -10   7   12.00    1.70
   3 -10   7   10.10    2.30
   3 -10   7    9.60    2.10
  -4  10  -7   23.80    3.20
  -4  10  -7   21.20    2.80
   4 -10   7   23.20    2.70
   4 -10   7   20.10    3.40
   4 -10   7   25.80    3.60
  -5  10  -7   21.80    3.60
  -5  10  -7   17.90    2.80
   5 -10   7   21.60    2.60
   5 -10   7   20.30    3.50
   5 -10   7   25.40    4.10
   4   9  -7    2.20    1.10
  -4  -9   7   -0.20    1.00
  -4  -9   7   -0.60    1.20
   3   9  -7   18.80    2.30
   3   9  -7   16.00    2.00
  -3  -9   7   18.00    2.60
  -3  -9   7   18.00    2.50
   2   9  -7    2.90    1.10
   2   9  -7    0.70    0.80
  -2  -9   7    1.60    1.10
  -2  -9   7    0.40    1.20
   1   9  -7    0.80    0.80
   1   9  -7    3.10    1.00
  -1  -9   7    0.80    1.20
  -1  -9   7   -0.30    1.10
   0   9  -7    1.50    0.90
   0   9  -7    2.10    1.00
   0  -9   7    0.80    1.20
   0  -9   7    0.10    1.20
  -1   9  -7   21.50    2.30
  -1   9  -7   21.20    2.30
   1  -9   7   18.70    2.50
   1  -9   7   20.40    2.40
  -2   9  -7    4.80    1.30
  -2   9  -7    3.90    1.10
   2  -9   7    4.00    1.50
   2  -9   7    4.10    1.50
   2  -9   7    3.40    1.10
   2  -9   7    3.30    1.30
  -3   9  -7   11.90    2.50
  -3   9  -7   19.20    2.20
  -3   9  -7   18.10    2.50
   3  -9   7   13.00    1.80
   3  -9   7   20.70    2.90
   3  -9   7   12.50    2.60
   3  -9   7   13.50    2.50
  -4   9  -7    4.10    1.60
  -4   9  -7    5.30    1.40
   4  -9   7    5.90    1.90
   4  -9   7    4.60    1.80
   4  -9   7    5.00    1.20
  -5   9  -7   -1.00    1.20
  -5   9  -7    1.40    1.60
   5  -9   7    1.30    1.10
   5  -9   7    0.70    1.70
   5  -9   7    2.30    1.90
  -6   9  -7   -2.50    1.30
  -6   9  -7   -1.20    1.60
   6  -9   7   -0.60    1.90
   6  -9   7   -1.80    1.60
   6  -9   7   -0.80    1.00
   6   8  -7   13.80    2.30
   6   8  -7   19.20    3.30
  -6  -8   7   11.10    2.10
   5   8  -7    0.90    1.00
  -5  -8   7    0.40    1.20
   4   8  -7    5.50    1.30
   4   8  -7    4.70    1.00
  -4  -8   7    5.00    1.20
  -4  -8   7    5.50    1.40
   3   8  -7    1.00    0.80
   3   8  -7    2.30    1.00
  -3  -8   7    2.80    1.00
  -3  -8   7    3.30    1.20
   2   8  -7   -1.40    0.70
   2   8  -7   -1.10    0.80
  -2  -8   7    1.40    1.00
  -2  -8   7   -0.60    1.00
   1   8  -7   12.40    1.70
   1   8  -7   12.20    1.70
  -1  -8   7   10.30    1.60
  -1  -8   7   17.10    2.10
   0   8  -7    8.60    1.50
   0   8  -7    9.90    1.50
   0  -8   7    4.60    1.30
   0  -8   7    6.20    1.30
  -1   8  -7   23.40    2.60
  -1   8  -7   27.00    2.50
  -1   8  -7   28.10    2.50
   1  -8   7   26.30    2.60
   1  -8   7   22.10    2.60
   1  -8   7   22.70    3.00
  -2   8  -7   23.90    2.80
  -2   8  -7   26.70    2.60
  -2   8  -7   26.60    2.50
   2  -8   7   28.50    3.10
   2  -8   7   22.50    3.10
   2  -8   7   22.70    2.40
   2  -8   7   20.80    2.60
  -3   8  -7  108.09    9.00
  -3   8  -7  108.19    8.70
   3  -8   7  106.29    8.70
   3  -8   7  109.29    8.60
   3  -8   7  125.49    9.20
   3  -8   7  106.99    9.10
  -4   8  -7   24.90    3.60
  -4   8  -7   27.20    3.00
  -4   8  -7   29.50    3.50
   4  -8   7   23.50    3.60
   4  -8   7   37.60    3.80
   4  -8   7   36.50    3.80
   4  -8   7   31.70    2.90
  -5   8  -7   17.20    3.00
  -5   8  -7   27.20    3.30
   5  -8   7   24.00    2.50
   5  -8   7   26.30    3.30
   5  -8   7   28.20    3.60
  -6   8  -7   -1.40    1.30
  -6   8  -7    4.80    1.50
  -6   8  -7    1.90    1.70
   6  -8   7    0.90    1.90
   6  -8   7    0.70    1.00
   6  -8   7    1.10    1.60
  -7   8  -7   15.30    2.60
  -7   8  -7    8.40    1.90
  -7   8  -7   10.60    2.40
   7  -8   7   15.40    2.50
   7  -8   7    9.20    1.50
   7  -8   7   11.30    2.70
   7   7  -7    3.50    1.50
   7   7  -7    4.40    1.40
  -7  -7   7    2.00    1.50
  -7  -7   7    3.20    1.40
  -7  -7   7    5.60    1.50
   6   7  -7    1.00    1.00
   6   7  -7    1.60    1.20
  -6  -7   7    2.10    1.30
  -6  -7   7    1.80    1.20
   5   7  -7    2.70    0.80
   5   7  -7    3.70    1.20
   5   7  -7    4.10    1.10
  -5  -7   7    3.30    1.30
  -5  -7   7    2.50    1.20
   4   7  -7    0.80    0.80
   4   7  -7    3.50    1.90
   4   7  -7    1.70    0.90
  -4  -7   7    2.10    1.20
  -4  -7   7    2.90    1.10
  -4  -7   7    2.10    1.00
  -3  -7   7   -0.10    0.80
  -3  -7   7    0.60    1.00
   2   7  -7  172.68   13.90
   2   7  -7  168.48   13.90
  -2  -7   7  196.48   14.00
  -2  -7   7  192.38   14.10
   1   7  -7  115.29    9.60
   1   7  -7  120.99    9.60
  -1  -7   7  134.39    9.80
  -1  -7   7  127.79    9.70
   0   7  -7   62.09    5.20
   0   7  -7   67.19    5.20
   0   7  -7   70.59    5.30
   0  -7   7   65.79    5.30
   0  -7   7   65.29    5.30
   0  -7   7   57.19    5.40
  -1   7  -7   85.39    6.90
  -1   7  -7   88.89    6.90
  -1   7  -7   88.39    7.00
   1  -7   7   84.69    6.90
   1  -7   7   82.79    7.10
   1  -7   7   90.59    6.90
  -2   7  -7   13.70    1.70
  -2   7  -7   15.30    1.70
  -2   7  -7    8.80    1.80
  -2   7  -7   12.70    2.00
   2  -7   7   12.20    1.90
   2  -7   7   14.00    1.60
   2  -7   7    8.90    1.80
   2  -7   7   12.30    1.70
  -3   7  -7   35.40    3.70
  -3   7  -7   41.40    3.40
   3  -7   7   29.20    3.90
   3  -7   7   38.10    3.30
   3  -7   7   37.20    3.20
   3  -7   7   41.50    3.80
  -4   7  -7    5.60    1.60
  -4   7  -7    7.10    1.30
  -4   7  -7    5.60    1.80
   4  -7   7    6.90    1.80
   4  -7   7    8.00    1.80
   4  -7   7    6.30    1.80
   4  -7   7    7.20    1.10
   4  -7   7    8.30    1.20
  -5   7  -7    1.10    1.40
  -5   7  -7    1.20    1.40
  -5   7  -7    1.60    1.20
   5  -7   7   -0.60    1.30
   5  -7   7    0.00    1.30
   5  -7   7    0.50    0.80
   5  -7   7    0.00    1.60
   5  -7   7   -2.40    1.20
  -6   7  -7    0.20    1.50
  -6   7  -7   -2.80    1.20
  -6   7  -7    2.20    1.30
   6  -7   7    1.30    1.50
   6  -7   7   -0.40    1.70
   6  -7   7    0.10    0.80
  -7   7  -7    1.70    1.50
  -7   7  -7    7.50    1.70
  -7   7  -7    3.50    2.00
   7  -7   7    4.70    1.10
   7  -7   7    4.50    1.80
   7  -7   7    4.90    2.40
   7   6  -7    2.00    1.30
   7   6  -7    2.00    1.00
  -7  -6   7    0.40    1.30
  -7  -6   7    2.20    1.30
  -7  -6   7    3.10    1.30
   6   6  -7    7.70    1.40
   6   6  -7    7.70    1.70
   6   6  -7    6.50    1.10
  -6  -6   7    7.50    1.50
  -6  -6   7    5.20    1.50
  -6  -6   7    7.10    1.50
   5   6  -7    0.50    1.00
   5   6  -7   -0.80    0.70
   5   6  -7   -0.90    0.60
  -5  -6   7   -0.40    1.00
  -5  -6   7   -0.90    0.90
   4   6  -7    1.90    0.90
   4   6  -7    4.50    1.20
   4   6  -7    1.60    0.70
  -4  -6   7    2.60    1.00
  -4  -6   7    1.70    1.10
  -4  -6   7    3.30    0.80
   3   6  -7    2.50    0.80
   3   6  -7    5.20    1.10
  -3  -6   7    5.20    1.10
  -3  -6   7    4.00    1.10
  -3  -6   7    4.20    0.90
   2   6  -7    4.40    1.00
   2   6  -7    5.30    0.90
  -2  -6   7    6.50    1.10
  -2  -6   7    5.10    1.00
  -2  -6   7    5.70    1.10
   1   6  -7   74.29    6.30
   1   6  -7   84.49    6.30
   1   6  -7   77.59    6.30
  -1  -6   7   80.39    6.40
  -1  -6   7   82.69    6.40
   0   6  -7   45.60    3.90
   0   6  -7   52.59    4.10
   0   6  -7   48.50    3.90
   0  -6   7   48.20    4.00
   0  -6   7   45.40    4.00
   0  -6   7   44.40    4.10
  -1   6  -7   81.89    6.40
  -1   6  -7   75.99    6.20
  -1   6  -7   78.49    6.30
   1  -6   7   84.49    6.30
   1  -6   7   75.19    6.40
   1  -6   7   81.69    6.30
  -2   6  -7    3.90    1.10
  -2   6  -7    2.90    1.20
  -2   6  -7    3.30    0.80
  -2   6  -7    3.30    0.80
   2  -6   7    3.60    0.80
   2  -6   7    4.00    1.10
   2  -6   7    2.80    0.70
   2  -6   7    2.70    1.10
  -3   6  -7    6.70    1.10
  -3   6  -7    7.60    1.40
  -3   6  -7    6.40    1.60
   3  -6   7    8.00    1.60
   3  -6   7    6.60    1.00
   3  -6   7    7.10    1.50
   3  -6   7    5.90    1.60
   3  -6   7    7.80    1.00
  -4   6  -7  109.39    8.10
  -4   6  -7   98.79    8.20
  -4   6  -7  111.29    8.40
   4  -6   7   97.59    7.90
   4  -6   7  117.69    8.40
   4  -6   7   92.09    7.80
   4  -6   7   83.39    8.60
  -5   6  -7   28.80    3.00
  -5   6  -7   28.30    2.90
  -5   6  -7   22.80    3.50
  -5   6  -7   29.80    3.30
   5  -6   7   21.10    2.40
   5  -6   7   21.90    3.50
   5  -6   7   27.40    2.50
   5  -6   7   32.50    3.20
  -6   6  -7    1.60    1.50
  -6   6  -7    2.60    1.30
  -6   6  -7   -0.30    1.10
   6  -6   7    1.90    1.40
   6  -6   7    0.20    0.80
   6  -6   7    0.40    1.70
   6  -6   7    1.20    0.80
  -7   6  -7    3.80    1.50
  -7   6  -7    7.40    1.80
  -7   6  -7    5.50    1.60
   7  -6   7    3.70    1.60
   7  -6   7    6.60    1.10
   7  -6   7    5.60    2.10
  -8   6  -7    7.60    1.80
  -8   6  -7    5.60    1.90
   8  -6   7    5.60    1.80
   8  -6   7    5.90    1.10
   8  -6   7    5.20    2.40
   8   5  -7    3.10    1.10
   8   5  -7    2.40    1.40
  -8  -5   7    1.30    1.20
  -8  -5   7    0.80    1.40
  -8  -5   7    2.40    1.30
   7   5  -7    0.40    0.60
   7   5  -7    0.00    1.20
   7   5  -7   -0.60    0.80
  -7  -5   7    0.50    1.20
  -7  -5   7   -0.90    1.20
  -7  -5   7   -0.30    1.00
   6   5  -7    4.70    1.10
   6   5  -7    2.80    0.80
   6   5  -7    3.40    1.20
  -6  -5   7    4.00    1.30
  -6  -5   7    3.20    1.10
  -6  -5   7    1.70    1.40
   5   5  -7    6.50    1.40
   5   5  -7    4.00    0.90
   5   5  -7    4.70    1.00
  -5  -5   7    5.20    1.30
  -5  -5   7    6.30    1.20
  -5  -5   7    3.10    1.30
   4   5  -7  101.09    8.40
   4   5  -7  113.09    8.70
   4   5  -7  101.79    8.50
  -4  -5   7  114.39    8.60
  -4  -5   7  116.79    8.40
  -4  -5   7  109.69    8.70
  -4  -5   7  100.89    8.60
   3   5  -7   63.29    5.30
   3   5  -7   66.29    5.30
   3   5  -7   66.39    5.50
  -3  -5   7   61.39    5.50
  -3  -5   7   70.39    5.30
  -3  -5   7   69.69    5.60
  -3  -5   7   70.09    5.50
   2   5  -7   56.79    4.30
   2   5  -7   50.59    4.50
   2   5  -7   52.09    4.30
   2   5  -7   48.60    4.40
  -2  -5   7   55.29    4.50
  -2  -5   7   56.89    4.60
  -2  -5   7   58.79    4.40
   1   5  -7   23.30    1.90
   1   5  -7   22.90    1.90
   1   5  -7   17.90    1.90
   1   5  -7   17.00    2.10
  -1  -5   7   22.60    2.10
  -1  -5   7   20.40    2.00
  -1  -5   7   24.70    2.10
  -1  -5   7   22.50    2.10
  -1  -5   7   16.90    2.10
   0   5  -7  125.59    9.20
   0   5  -7  117.59    9.10
   0   5  -7  110.89    9.10
   0  -5   7  119.79    9.20
   0  -5   7  121.29    9.10
   0  -5   7  116.49    9.10
  -1   5  -7   64.49    4.70
  -1   5  -7   49.00    5.10
  -1   5  -7   49.60    4.70
  -1   5  -7   68.69    4.90
  -1   5  -7   61.29    4.60
   1  -5   7   61.89    4.90
   1  -5   7   48.30    5.10
   1  -5   7   64.49    4.70
   1  -5   7   61.89    4.70
  -2   5  -7   14.10    1.90
  -2   5  -7   17.70    1.70
  -2   5  -7   18.60    2.00
  -2   5  -7   14.40    1.80
  -2   5  -7   14.30    2.20
   2  -5   7   15.50    1.60
   2  -5   7   17.30    2.10
   2  -5   7   15.90    1.60
   2  -5   7   13.00    2.10
  -3   5  -7   15.10    2.50
  -3   5  -7   19.30    2.00
  -3   5  -7   21.00    2.30
   3  -5   7   17.10    1.70
   3  -5   7   17.50    1.70
   3  -5   7   14.10    2.40
   3  -5   7   21.20    2.30
  -4   5  -7   89.59    7.40
  -4   5  -7   76.19    7.80
  -4   5  -7  107.29    7.30
  -4   5  -7  103.29    7.60
   4  -5   7   75.29    7.80
   4  -5   7   88.69    7.10
   4  -5   7  107.39    7.60
   4  -5   7   80.99    7.10
  -5   5  -7   32.90    2.90
  -5   5  -7   31.80    3.20
  -5   5  -7   20.80    3.40
  -5   5  -7   24.90    2.90
   5  -5   7   28.00    2.40
   5  -5   7   31.90    3.10
   5  -5   7   19.10    3.40
   5  -5   7   21.40    2.40
  -6   5  -7   14.40    2.40
  -6   5  -7   16.50    2.20
  -6   5  -7   11.90    2.00
  -6   5  -7   12.20    2.60
   6  -5   7   17.00    2.90
   6  -5   7   12.50    2.70
   6  -5   7   13.00    2.30
   6  -5   7    9.80    1.60
   6  -5   7   11.70    1.60
  -7   5  -7   -2.00    1.20
  -7   5  -7   -0.50    1.10
   7  -5   7    0.60    0.70
   7  -5   7   -0.10    0.70
   7  -5   7   -0.90    1.20
   7  -5   7   -1.40    1.60
  -8   5  -7    5.10    1.60
  -8   5  -7    4.90    1.90
  -8   5  -7    5.00    0.90
   8  -5   7    6.00    1.70
   8  -5   7    3.90    2.50
   8  -5   7    5.20    1.00
   9   4  -7    0.20    1.00
   9   4  -7   -0.10    1.30
  -9  -4   7    0.40    1.20
  -9  -4   7   -0.80    1.50
  -9  -4   7   -0.40    1.10
   8   4  -7    3.70    0.90
   8   4  -7    3.40    1.10
   8   4  -7    3.50    1.50
  -8  -4   7    4.50    1.70
  -8  -4   7    3.40    1.20
  -8  -4   7    3.20    1.40
   7   4  -7    3.00    1.40
   7   4  -7    3.30    1.00
   7   4  -7    2.40    0.90
  -7  -4   7    1.50    1.20
  -7  -4   7    3.30    1.40
  -7  -4   7    4.00    1.10
   6   4  -7   -0.90    0.90
   6   4  -7   -1.30    0.60
   6   4  -7   -0.50    0.70
  -6  -4   7   -0.20    0.80
  -6  -4   7   -0.70    1.00
   5   4  -7   45.30    3.90
   5   4  -7   39.00    3.60
   5   4  -7   41.30    3.70
  -5  -4   7   42.30    3.80
  -5  -4   7   41.30    4.00
  -5  -4   7   44.60    4.00
   4   4  -7    0.90    0.70
   4   4  -7    1.20    0.60
   4   4  -7    0.40    0.90
  -4  -4   7   -0.70    1.00
  -4  -4   7    0.80    0.90
  -4  -4   7    0.90    0.60
  -4  -4   7    1.70    0.80
   3   4  -7  192.08   15.50
   3   4  -7  205.68   15.60
   3   4  -7  193.48   15.40
   3   4  -7  187.78   15.40
  -3  -4   7  209.08   15.50
  -3  -4   7  196.68   15.60
  -3  -4   7  224.18   15.40
  -3  -4   7  220.38   15.70
   2   4  -7  146.29   11.80
   2   4  -7  148.89   11.70
   2   4  -7  150.88   11.70
   2   4  -7  164.58   11.70
  -2  -4   7  157.78   11.80
  -2  -4   7  159.28   11.80
  -2  -4   7  167.48   11.70
  -2  -4   7  137.29   11.80
   1   4  -7   11.20    1.20
   1   4  -7   11.10    1.20
   1   4  -7   10.30    1.20
  -1  -4   7   12.30    1.30
  -1  -4   7   11.90    1.30
  -1  -4   7   11.90    1.40
  -1  -4   7   10.30    1.40
  -1  -4   7   11.90    1.30
   0   4  -7    1.30    0.60
   0   4  -7    1.70    0.40
   0   4  -7    1.20    0.50
   0   4  -7    1.50    0.50
   0  -4   7    1.40    0.50
   0  -4   7    1.00    0.60
   0  -4   7    1.50    0.60
   0  -4   7    1.90    0.50
   0  -4   7    1.40    0.50
  -1   4  -7    5.20    0.90
  -1   4  -7    3.20    0.80
  -1   4  -7    4.80    0.70
  -1   4  -7    5.10    0.70
   1  -4   7    4.70    0.80
   1  -4   7    5.30    0.80
   1  -4   7    4.80    0.70
   1  -4   7    3.50    0.90
   1  -4   7    4.50    1.00
  -2   4  -7   -0.30    0.60
  -2   4  -7    0.90    0.80
  -2   4  -7   -0.30    0.50
   2  -4   7    0.20    0.70
   2  -4   7    0.60    0.50
   2  -4   7    0.40    0.70
   2  -4   7    0.10    0.40
   2  -4   7    0.50    0.50
  -3   4  -7    6.30    1.20
  -3   4  -7    8.20    1.10
   3  -4   7    8.90    1.10
   3  -4   7    7.60    1.10
   3  -4   7   10.60    1.60
   3  -4   7    6.90    1.50
  -4   4  -7   13.80    2.30
  -4   4  -7   13.80    2.50
  -4   4  -7   18.00    2.00
   4  -4   7   13.30    1.70
   4  -4   7   14.50    1.60
   4  -4   7   17.80    2.20
  -5   4  -7   16.20    2.20
  -5   4  -7   13.50    2.60
   5  -4   7   11.90    2.60
   5  -4   7   16.90    1.70
   5  -4   7   12.90    1.70
  -6   4  -7    7.10    1.40
  -6   4  -7    4.90    1.60
  -6   4  -7    5.70    1.50
   6  -4   7    6.60    1.80
   6  -4   7    4.80    1.60
   6  -4   7    5.80    1.40
   6  -4   7    3.90    0.90
   6  -4   7    3.70    0.90
  -7   4  -7   -0.90    1.10
  -7   4  -7   -1.20    1.40
  -7   4  -7   -0.40    0.50
   7  -4   7    0.10    0.60
   7  -4   7    1.60    0.80
   7  -4   7   -0.80    1.10
  -8   4  -7    0.90    1.20
  -8   4  -7   -0.80    1.60
  -8   4  -7    0.40    0.70
   8  -4   7    1.30    0.90
   8  -4   7    0.90    0.70
   8  -4   7   -0.70    1.20
   9   3  -7    0.90    1.30
   9   3  -7    4.40    1.00
   9   3  -7    2.40    1.10
  -9  -3   7    2.40    1.20
  -9  -3   7    1.60    1.50
  -9  -3   7    1.30    1.30
   8   3  -7    3.50    1.10
   8   3  -7    2.90    1.30
   8   3  -7    4.50    1.00
  -8  -3   7    2.00    1.30
  -8  -3   7    4.20    1.30
  -8  -3   7    3.10    1.40
   7   3  -7    7.20    1.20
   7   3  -7    6.50    1.50
   7   3  -7    5.70    1.00
  -7  -3   7    7.70    1.60
  -7  -3   7    8.10    1.40
  -7  -3   7    7.30    1.50
   6   3  -7   28.30    2.70
   6   3  -7   31.40    3.10
   6   3  -7   25.60    2.60
  -6  -3   7   27.10    3.00
  -6  -3   7   28.50    3.10
  -6  -3   7   30.60    2.90
   5   3  -7    3.60    0.80
   5   3  -7    2.30    0.70
   5   3  -7    3.60    1.00
  -5  -3   7    3.40    1.10
  -5  -3   7    3.30    1.00
  -5  -3   7    4.20    1.00
   4   3  -7   -0.10    0.50
   4   3  -7    0.30    0.60
   4   3  -7    0.50    0.70
   4   3  -7    0.50    0.50
  -4  -3   7   -0.10    0.70
  -4  -3   7    1.10    0.90
  -4  -3   7    1.60    0.70
   3   3  -7   11.70    1.50
   3   3  -7   10.60    1.30
   3   3  -7   11.10    1.30
   3   3  -7   11.30    1.40
  -3  -3   7   11.40    1.40
  -3  -3   7   14.90    1.50
  -3  -3   7   14.20    1.30
  -3  -3   7   15.90    1.70
  -3  -3   7   10.20    1.40
   2   3  -7  151.68   11.60
   2   3  -7  165.78   11.70
   2   3  -7  145.99   11.50
   2   3  -7  148.79   11.60
   2   3  -7  147.29   11.60
  -2  -3   7  142.99   11.70
  -2  -3   7  166.48   11.70
  -2  -3   7  158.78   11.60
  -2  -3   7  165.88   11.60
  -2  -3   7  134.89   11.60
  -2  -3   7  152.58   11.50
   1   3  -7   14.20    1.30
   1   3  -7   14.70    1.40
   1   3  -7   16.60    1.50
   1   3  -7   15.20    1.40
   1   3  -7   14.10    1.30
  -1  -3   7   14.50    1.40
  -1  -3   7   15.30    1.40
  -1  -3   7   14.90    1.40
  -1  -3   7   13.60    1.60
  -1  -3   7   11.70    1.30
  -1  -3   7   15.80    1.30
   0   3  -7    2.20    0.50
   0   3  -7    3.00    0.50
   0   3  -7    2.80    0.60
   0   3  -7    3.10    0.50
   0  -3   7    2.90    0.50
   0  -3   7    2.30    0.70
   0  -3   7    3.00    0.50
   0  -3   7    2.20    0.50
   0  -3   7    2.70    0.60
  -1   3  -7   23.30    2.00
  -1   3  -7   20.40    1.70
  -1   3  -7   16.30    1.80
  -1   3  -7   18.60    1.90
   1  -3   7   21.50    1.90
   1  -3   7   20.30    1.70
   1  -3   7   22.00    1.70
   1  -3   7   17.70    2.10
   1  -3   7   18.40    1.70
  -2   3  -7    0.40    0.70
  -2   3  -7    0.50    0.60
  -2   3  -7   -0.10    0.50
   2  -3   7    0.40    0.40
   2  -3   7    1.10    0.60
   2  -3   7    0.60    0.40
   2  -3   7    0.20    0.70
   2  -3   7    0.30    0.40
  -3   3  -7   15.80    1.90
  -3   3  -7   15.80    1.60
  -3   3  -7   14.90    1.80
   3  -3   7   13.10    1.50
   3  -3   7   14.60    1.50
   3  -3   7   13.50    1.50
   3  -3   7   12.80    2.10
   3  -3   7   18.10    1.90
  -4   3  -7  175.68   12.90
   4  -3   7  194.28   13.00
   4  -3   7  158.08   12.70
   4  -3   7  140.19   13.20
   5  -3   7   56.49    5.60
   5  -3   7   59.89    5.10
   5  -3   7   68.39    5.00
   5  -3   7   63.99    5.80
  -6   3  -7    8.10    1.90
  -6   3  -7   11.00    1.30
  -6   3  -7   13.40    1.90
  -6   3  -7   14.90    1.90
   6  -3   7    8.40    1.30
   6  -3   7    9.80    1.30
   6  -3   7   12.10    1.90
   6  -3   7    9.90    2.00
  -7   3  -7    7.40    1.60
  -7   3  -7    7.90    1.40
  -7   3  -7    5.30    0.90
   7  -3   7    5.00    1.10
   7  -3   7    7.00    1.50
   7  -3   7    4.80    0.90
  -8   3  -7    1.10    0.60
  -8   3  -7    0.20    1.10
   8  -3   7    0.50    0.60
   8  -3   7   -0.40    1.10
   8  -3   7    1.60    0.90
  10   2  -7    0.60    1.00
  10   2  -7    1.70    1.00
  10   2  -7   -2.00    1.30
 -10  -2   7   -1.00    1.40
 -10  -2   7   -0.60    1.40
   9   2  -7   -0.90    1.20
   9   2  -7    1.20    0.80
   9   2  -7    0.80    1.00
  -9  -2   7    0.70    1.10
  -9  -2   7   -1.40    1.20
  -9  -2   7    0.10    1.40
   8   2  -7    0.00    0.80
   8   2  -7    0.80    0.80
   8   2  -7   -0.60    1.10
  -8  -2   7   -0.30    0.80
  -8  -2   7   -0.40    1.10
  -8  -2   7    1.30    1.20
   7   2  -7    1.60    0.80
   7   2  -7   -0.20    1.00
   7   2  -7    0.40    0.60
  -7  -2   7   -0.50    0.80
  -7  -2   7   -0.40    1.00
  -7  -2   7    0.50    1.10
   6   2  -7   22.40    2.60
   6   2  -7   31.00    2.70
   6   2  -7   32.60    3.00
  -6  -2   7   31.40    3.00
  -6  -2   7   28.70    3.00
  -6  -2   7   26.90    2.70
   5   2  -7   -0.60    0.50
   5   2  -7   -0.60    0.50
   5   2  -7   -0.80    0.50
   5   2  -7   -0.10    0.70
  -5  -2   7   -1.20    0.80
  -5  -2   7   -0.50    0.60
  -5  -2   7   -0.40    0.70
   4   2  -7   36.70    3.20
   4   2  -7   41.50    3.30
   4   2  -7   33.50    3.10
   4   2  -7   32.70    3.10
  -4  -2   7   42.30    3.20
  -4  -2   7   39.30    3.40
  -4  -2   7   39.20    3.30
   3   2  -7  431.76   32.80
   3   2  -7  395.86   32.70
   3   2  -7  395.36   32.80
   3   2  -7  447.06   32.80
  -3  -2   7  463.75   32.80
  -3  -2   7  406.46   32.80
  -3  -2   7  490.35   32.70
  -3  -2   7  460.55   32.90
   2   2  -7   78.29    6.10
   2   2  -7   74.49    6.00
   2   2  -7   72.99    6.10
   2   2  -7   78.69    6.10
   2   2  -7   76.49    6.10
  -2  -2   7   84.19    6.00
  -2  -2   7   82.39    6.10
  -2  -2   7   89.49    6.30
  -2  -2   7   82.69    6.10
  -2  -2   7   67.29    6.00
   1   2  -7   38.40    3.20
   1   2  -7   44.00    3.30
   1   2  -7   38.20    3.20
   1   2  -7   40.50    3.20
  -1  -2   7   42.40    3.50
  -1  -2   7   39.40    3.20
  -1  -2   7   44.30    3.30
  -1  -2   7   40.60    3.20
  -1  -2   7   43.80    3.20
  -1  -2   7   33.80    3.10
   0   2  -7    0.40    0.20
   0   2  -7    1.30    0.50
   0   2  -7   -0.30    0.30
   0   2  -7    1.50    0.60
   0  -2   7    0.30    0.60
   0  -2   7    0.20    0.50
   0  -2   7   -0.20    0.30
   0  -2   7   -0.50    0.40
   0  -2   7   -0.10    0.30
  -1   2  -7  140.89   10.50
  -1   2  -7  149.99   10.40
   1  -2   7  143.09   10.40
   1  -2   7  119.79   10.40
   1  -2   7  131.69   10.40
   1  -2   7  147.59   10.50
   1  -2   7  126.29   10.70
  -2   2  -7    3.30    0.80
  -2   2  -7    2.60    0.70
   2  -2   7    2.00    0.50
   2  -2   7    2.30    0.50
   2  -2   7    2.30    0.70
   2  -2   7    2.00    0.80
   2  -2   7    0.80    0.50
  -3   2  -7  106.19    7.70
  -3   2  -7  109.59    7.50
   3  -2   7   81.39    7.50
   3  -2   7   94.29    7.50
   3  -2   7   85.59    8.00
   3  -2   7  111.59    7.80
  -4   2  -7   -0.60    0.90
  -4   2  -7   -0.30    0.70
   4  -2   7    0.10    0.80
   4  -2   7   -0.90    0.50
   4  -2   7   -0.90    0.80
  -5   2  -7    9.20    1.10
  -5   2  -7   10.40    1.60
  -5   2  -7   10.50    1.60
   5  -2   7    7.20    1.60
   5  -2   7   10.90    1.50
   5  -2   7    6.70    1.00
   5  -2   7    6.10    1.10
   5  -2   7    7.00    1.20
  -6   2  -7    0.00    1.20
  -6   2  -7    0.80    0.50
  -6   2  -7   -0.10    0.90
   6  -2   7    0.80    1.20
   6  -2   7    1.00    0.70
   6  -2   7   -0.70    0.60
   6  -2   7   -0.60    0.50
   6  -2   7   -0.50    0.90
  -7   2  -7    0.00    0.50
  -7   2  -7   -0.20    0.90
   7  -2   7   -0.10    0.50
   7  -2   7   -0.60    1.00
   7  -2   7    0.60    1.30
   7  -2   7    0.70    0.70
  -8   2  -7    1.40    1.10
  -8   2  -7    0.10    0.90
  -8   2  -7    1.30    0.70
   8  -2   7    0.80    0.60
   8  -2   7   -0.70    1.00
   8  -2   7    2.10    0.90
  10   1  -7    0.00    0.90
  10   1  -7    0.40    0.90
  10   1  -7   -1.10    1.30
 -10  -1   7   -2.40    1.50
 -10  -1   7   -2.00    1.20
   9   1  -7    5.80    1.20
   9   1  -7    3.80    1.10
   9   1  -7    5.70    1.60
  -9  -1   7    6.70    1.60
  -9  -1   7    6.40    1.60
   8   1  -7   60.59    5.20
   8   1  -7   65.09    5.60
   8   1  -7   59.29    5.20
  -8  -1   7   63.19    5.60
  -8  -1   7   63.89    5.60
  -8  -1   7   59.89    5.20
   7   1  -7    0.70    1.00
   7   1  -7    1.50    0.80
   7   1  -7    0.30    0.70
  -7  -1   7    0.80    0.80
  -7  -1   7    2.00    0.90
  -7  -1   7    0.50    1.10
   6   1  -7   -0.60    0.50
   6   1  -7   -0.60    0.80
   6   1  -7    0.50    0.60
  -6  -1   7   -0.90    0.70
  -6  -1   7   -0.60    0.90
  -6  -1   7    0.50    0.80
   5   1  -7    2.10    0.70
   5   1  -7    1.80    0.60
   5   1  -7    1.10    0.70
   5   1  -7    2.90    0.90
  -5  -1   7    2.90    0.90
  -5  -1   7    4.80    0.90
  -5  -1   7    3.30    0.70
   4   1  -7   35.60    3.50
   4   1  -7   35.90    3.40
   4   1  -7   46.60    3.60
   4   1  -7   39.80    3.40
  -4  -1   7   44.60    3.60
  -4  -1   7   43.10    3.50
  -4  -1   7   46.70    3.40
   3   1  -7  207.18   17.20
   3   1  -7  224.18   17.20
   3   1  -7  243.58   17.30
   3   1  -7  207.08   17.20
  -3  -1   7  249.68   17.30
  -3  -1   7  249.18   17.20
  -3  -1   7  212.18   17.20
   2   1  -7   20.20    1.70
   2   1  -7   19.60    1.80
   2   1  -7   19.90    1.90
   2   1  -7   19.70    1.70
  -2  -1   7   22.00    1.90
  -2  -1   7   18.50    1.80
  -2  -1   7   22.60    1.80
  -2  -1   7   23.20    1.70
   1   1  -7   57.79    4.40
   1   1  -7   56.29    4.30
   1   1  -7   54.39    4.30
  -1  -1   7   47.60    4.20
  -1  -1   7   60.49    4.20
  -1  -1   7   53.29    4.20
  -1  -1   7   55.39    4.30
   0   1  -7    4.80    0.50
   0   1  -7    6.80    0.70
   0   1  -7    8.00    1.00
   0  -1   7    5.80    0.70
   0  -1   7    5.50    0.80
   0  -1   7    5.40    0.70
   0  -1   7    7.80    1.20
   0  -1   7    6.70    0.70
  -1   1  -7  358.66   25.10
  -1   1  -7  340.37   25.20
   1  -1   7  290.97   25.10
   1  -1   7  318.67   25.10
   1  -1   7  352.86   25.50
   1  -1   7  356.76   25.20
   1  -1   7  321.37   25.10
  -2   1  -7   13.30    1.20
  -2   1  -7   13.10    1.40
  -2   1  -7   13.90    1.50
   2  -1   7    9.10    1.20
   2  -1   7   14.70    1.40
   2  -1   7   11.40    1.20
   2  -1   7   11.20    1.70
   2  -1   7    9.10    1.10
   2  -1   7    9.50    1.20
  -3   1  -7    4.00    0.90
  -3   1  -7    2.30    0.60
  -3   1  -7    4.80    0.90
   3  -1   7    1.60    0.60
   3  -1   7    4.10    0.90
   3  -1   7    1.80    0.70
   3  -1   7    3.10    0.60
   3  -1   7    3.00    0.90
  -4   1  -7    0.20    0.70
  -4   1  -7   -0.50    0.40
  -4   1  -7   -1.20    0.80
   4  -1   7   -0.70    0.80
   4  -1   7   -0.10    0.80
  -5   1  -7   12.80    1.40
  -5   1  -7   13.10    1.90
   5  -1   7   10.30    1.60
   5  -1   7   12.60    1.60
   5  -1   7   10.60    1.40
   5  -1   7   10.30    2.10
   5  -1   7   15.60    1.90
  -6   1  -7   22.60    3.20
  -6   1  -7   16.00    1.60
  -6   1  -7   17.00    2.10
   6  -1   7   14.80    2.40
   6  -1   7   13.00    1.80
   6  -1   7   15.60    2.00
   6  -1   7   16.70    1.70
   6  -1   7   18.00    2.10
  -7   1  -7    0.10    0.60
  -7   1  -7   -0.30    1.00
   7  -1   7   -0.10    0.60
   7  -1   7    0.60    0.80
   7  -1   7    1.30    0.90
   7  -1   7    0.60    1.20
  -8   1  -7    6.60    1.10
  -8   1  -7    9.50    1.60
  -8   1  -7    6.40    1.50
   8  -1   7   10.00    1.40
   8  -1   7   13.20    2.10
   8  -1   7   11.60    1.70
  10   0  -7    4.20    1.20
  10   0  -7    3.10    1.20
  10   0  -7    3.00    1.60
 -10   0   7    3.40    1.60
 -10   0   7    3.90    1.30
 -10   0   7    2.20    1.50
   9   0  -7   -1.10    1.20
   9   0  -7    1.10    0.90
   9   0  -7    0.80    0.80
  -9   0   7    0.40    1.20
  -9   0   7    0.50    1.20
   8   0  -7   38.90    3.80
   8   0  -7   32.90    3.30
   8   0  -7   32.80    3.30
  -8   0   7   39.30    3.70
  -8   0   7   35.70    3.70
   7   0  -7   23.40    2.90
   7   0  -7   36.30    3.20
   7   0  -7   31.70    2.80
   7   0  -7   26.70    2.80
  -7   0   7   32.50    3.10
  -7   0   7   30.40    3.10
   6   0  -7   -0.50    0.80
   6   0  -7   -0.30    0.50
   6   0  -7   -0.70    0.70
   6   0  -7    0.60    0.60
  -6   0   7    0.20    0.80
  -6   0   7   -0.40    0.80
  -6   0   7    0.40    0.60
   5   0  -7   -0.60    0.40
   5   0  -7   -0.60    0.50
   5   0  -7   -0.40    0.60
   5   0  -7   -0.80    0.50
  -5   0   7   -0.90    0.70
  -5   0   7   -0.80    0.70
  -5   0   7   -0.40    0.60
  -5   0   7   -0.40    0.40
   4   0  -7    0.80    0.40
   4   0  -7    0.00    0.40
   4   0  -7    0.10    0.60
   4   0  -7    0.10    0.40
   4   0  -7    0.10    0.50
  -4   0   7    0.20    0.40
  -4   0   7    1.00    0.80
  -4   0   7    0.80    0.60
  -4   0   7    0.60    0.50
   3   0  -7  105.29    8.30
   3   0  -7  107.69    8.20
   3   0  -7   97.59    8.20
   3   0  -7  109.79    8.20
  -3   0   7  114.49    8.20
   2   0  -7   87.19    7.10
   2   0  -7   80.49    7.00
   2   0  -7   83.19    7.00
   2   0  -7   78.89    7.00
   2   0  -7   95.29    6.90
  -2   0   7  102.89    7.00
  -2   0   7  103.59    6.90
  -2   0   7   89.49    7.00
  -2   0   7  105.39    7.10
   1   0  -7   31.00    2.50
   1   0  -7   30.00    2.40
   1   0  -7   27.70    2.30
   1   0  -7   24.10    2.20
   1   0  -7   30.60    2.30
  -1   0   7   27.40    2.30
  -1   0   7   30.70    2.40
  -1   0   7   30.30    2.30
  -1   0   7   31.60    2.30
   0   0  -7   12.30    1.20
   0   0  -7   14.80    1.40
   0   0  -7   12.10    1.20
   0   0  -7   14.70    1.30
   0   0   7   13.30    1.20
   0   0   7   14.00    1.20
   0   0   7   13.30    1.30
   0   0   7   12.80    1.20
  -1   0  -7   70.49    5.50
  -1   0  -7   79.19    5.70
  -1   0  -7   82.89    5.50
   1   0   7   71.79    5.50
   1   0   7   65.09    5.60
   1   0   7   64.19    5.50
   1   0   7   65.99    5.50
  -2   0  -7   69.69    5.10
   2   0   7   72.59    5.10
   2   0   7   63.29    5.20
   2   0   7   60.69    5.10
   2   0   7   60.29    5.10
  -3   0  -7    4.80    0.70
   3   0   7    4.70    0.70
   3   0   7    8.20    1.50
   3   0   7    4.90    0.80
   3   0   7    3.80    0.80
   3   0   7    5.30    1.00
  -4   0  -7   19.90    1.70
   4   0   7   18.90    1.70
   4   0   7   14.10    2.00
   4   0   7   18.50    2.40
   4   0   7   14.90    1.70
  -5   0  -7   26.50    2.50
  -5   0  -7   22.70    2.10
   5   0   7   20.50    2.20
   5   0   7   21.50    2.10
   5   0   7   21.90    2.80
   5   0   7   22.70    2.40
  -6   0  -7   -0.60    0.80
  -6   0  -7    0.50    0.50
   6   0   7    0.80    0.90
   6   0   7    0.50    1.00
   6   0   7   -0.30    0.50
   6   0   7   -0.20    0.70
  -7   0  -7    0.90    0.90
  -7   0  -7    0.30    0.60
  -7   0  -7    1.40    0.90
   7   0   7    0.10    0.60
   7   0   7    0.80    0.80
   7   0   7    0.50    1.00
  -8   0  -7    3.10    0.90
  -8   0  -7    2.50    1.20
  -8   0  -7    4.10    1.30
   8   0   7    4.60    1.20
   8   0   7    4.70    1.30
   8   0   7    2.90    0.80
  10  -1  -7    8.60    1.90
  10  -1  -7    8.40    1.50
  10  -1  -7    7.60    1.50
 -10   1   7    9.20    2.00
 -10   1   7    8.40    1.80
 -10   1   7    7.80    1.50
   9  -1  -7    0.70    0.80
   9  -1  -7    1.70    1.00
   9  -1  -7    0.40    1.20
  -9   1   7   -0.30    1.20
  -9   1   7    0.70    1.20
  -9   1   7    0.40    0.80
   8  -1  -7   14.00    1.80
   8  -1  -7   15.10    2.30
   8  -1  -7   14.80    1.90
  -8   1   7   14.50    1.90
  -8   1   7   12.20    2.20
  -8   1   7   13.60    2.30
   7  -1  -7    3.20    1.10
   7  -1  -7    2.70    0.80
   7  -1  -7    4.50    0.90
   7  -1  -7    2.20    1.10
  -7   1   7    2.90    1.20
  -7   1   7    3.80    0.90
  -7   1   7    2.80    1.00
   6  -1  -7   13.20    1.70
   6  -1  -7   13.50    2.00
   6  -1  -7   17.60    2.10
   6  -1  -7   17.20    1.70
  -6   1   7   15.80    1.70
  -6   1   7   16.50    1.90
  -6   1   7   18.10    2.00
   5  -1  -7    6.10    1.10
   5  -1  -7    5.80    0.90
   5  -1  -7    6.20    1.10
  -5   1   7    8.60    1.30
  -5   1   7    8.40    0.90
  -5   1   7    6.70    1.10
  -5   1   7    8.20    1.20
   4  -1  -7    1.00    0.60
   4  -1  -7    0.60    0.40
   4  -1  -7    0.70    0.40
   4  -1  -7    0.80    0.40
  -4   1   7    1.30    0.40
  -4   1   7    1.40    0.50
  -4   1   7    1.30    0.40
  -4   1   7    2.00    1.00
  -4   1   7    1.50    0.60
   3  -1  -7   41.50    3.30
   3  -1  -7   41.30    3.40
   3  -1  -7   38.60    3.40
   3  -1  -7   42.90    3.50
  -3   1   7   48.60    3.40
  -3   1   7   38.80    3.30
   2  -1  -7  235.58   17.40
   2  -1  -7  218.48   17.20
   2  -1  -7  222.08   17.30
   2  -1  -7  218.48   17.20
   2  -1  -7  236.18   17.20
  -2   1   7  245.18   17.20
  -2   1   7  226.08   17.10
   1  -1  -7    2.20    0.50
   1  -1  -7    3.10    0.40
   1  -1  -7    2.30    0.40
   1  -1  -7    1.90    0.60
   1  -1  -7    1.90    0.40
  -1   1   7    2.20    0.30
  -1   1   7    2.50    0.40
  -1   1   7    2.10    0.50
  -1   1   7    2.80    0.60
  -1   1   7    2.20    0.40
   0  -1  -7  101.19    7.70
   0  -1  -7  112.39    7.80
   0  -1  -7   90.09    7.50
   0  -1  -7   96.69    7.60
   0   1   7   94.09    7.60
   0   1   7  108.59    7.70
   0   1   7   96.99    7.60
   0   1   7   96.89    7.60
  -1  -1  -7   70.89    4.90
  -1  -1  -7   61.99    4.80
   1   1   7   60.69    4.80
   1   1   7   62.59    4.80
   1   1   7   56.99    4.90
   1   1   7   55.09    4.80
  -2  -1  -7   45.30    3.30
   2   1   7   43.10    3.30
   2   1   7   37.60    3.40
   2   1   7   39.10    3.50
   2   1   7   41.20    3.40
  -3  -1  -7  150.18   10.80
   3   1   7  134.19   10.90
   3   1   7  148.29   10.80
   3   1   7  132.99   11.00
   3   1   7  140.39   10.90
  -4  -1  -7  234.38   16.60
   4   1   7  206.68   16.70
   4   1   7  230.58   16.60
   4   1   7  209.88   16.70
   4   1   7  214.28   16.90
  -5  -1  -7    0.60    0.50
  -5  -1  -7    0.10    0.80
   5   1   7   -0.80    0.50
   5   1   7    0.50    0.80
   5   1   7    0.50    0.70
   5   1   7    0.00    1.00
  -6  -1  -7   -0.20    0.50
  -6  -1  -7    0.10    0.80
  -6  -1  -7    0.20    0.80
   6   1   7    1.00    0.80
   6   1   7    0.00    0.60
   6   1   7    1.20    0.90
  -7  -1  -7    0.10    0.60
  -7  -1  -7    0.80    1.00
  -7  -1  -7    0.00    1.00
   7   1   7    1.30    1.00
   7   1   7    1.10    0.70
   7   1   7    0.70    0.90
  10  -2  -7   38.70    3.90
  10  -2  -7   39.80    4.10
  10  -2  -7   49.40    4.60
 -10   2   7   39.60    3.90
 -10   2   7   41.30    4.20
 -10   2   7   43.90    4.40
   9  -2  -7    5.20    1.10
   9  -2  -7    5.30    1.50
   9  -2  -7    4.50    1.40
   9  -2  -7    5.50    1.20
  -9   2   7    2.30    1.40
  -9   2   7    4.90    1.50
  -9   2   7    4.80    1.20
   8  -2  -7   25.00    2.50
   8  -2  -7   25.40    2.60
   8  -2  -7   19.60    2.90
  -8   2   7   26.00    2.60
  -8   2   7   27.20    2.90
  -8   2   7   27.50    2.80
   7  -2  -7   12.10    2.30
   7  -2  -7   11.90    1.80
   7  -2  -7   16.20    1.80
  -7   2   7   17.00    2.00
  -7   2   7   16.00    1.80
  -7   2   7   21.80    3.10
  -7   2   7   15.80    2.10
   6  -2  -7    0.40    0.80
   6  -2  -7    1.80    0.60
   6  -2  -7   -0.50    0.60
  -6   2   7    0.40    0.70
  -6   2   7    1.10    0.60
  -6   2   7    1.00    1.20
  -6   2   7    1.80    0.80
   5  -2  -7   74.69    5.70
   5  -2  -7   66.89    5.80
   5  -2  -7   69.49    6.00
  -5   2   7   69.99    5.70
  -5   2   7   82.99    5.80
   4  -2  -7    3.00    0.70
   4  -2  -7    3.00    0.60
   4  -2  -7    3.40    0.80
   4  -2  -7    3.20    0.60
  -4   2   7    5.90    0.90
  -4   2   7    4.50    0.70
   3  -2  -7    1.90    0.40
   3  -2  -7    2.10    0.40
   3  -2  -7    2.20    0.60
   3  -2  -7    1.80    0.60
  -3   2   7    4.60    1.20
  -3   2   7    1.80    0.40
  -3   2   7    3.50    0.50
  -3   2   7    2.20    0.50
  -3   2   7    2.30    0.60
   2  -2  -7  132.49   10.80
   2  -2  -7  141.29   10.60
   2  -2  -7  127.29   10.60
   2  -2  -7  136.39   10.80
   2  -2  -7  145.29   10.60
  -2   2   7  162.38   10.60
  -2   2   7  152.08   10.70
  -2   2   7  125.19   10.60
   1  -2  -7  286.07   21.90
   1  -2  -7  295.47   21.90
   1  -2  -7  254.27   21.70
   1  -2  -7  288.57   21.70
  -1   2   7  286.07   21.70
  -1   2   7  317.77   21.80
  -1   2   7  319.67   21.80
  -1   2   7  269.27   21.70
   0  -2  -7   80.79    6.40
   0  -2  -7   82.29    6.60
   0  -2  -7   87.19    6.60
   0   2   7   83.89    6.50
   0   2   7   89.19    6.60
   0   2   7   84.19    6.50
   0   2   7   81.59    6.50
  -1  -2  -7   11.70    1.40
  -1  -2  -7   12.90    1.20
   1   2   7   12.00    1.40
   1   2   7   13.40    1.40
   1   2   7   13.00    1.30
   1   2   7   12.30    1.40
  -2  -2  -7    9.30    1.20
  -2  -2  -7   13.60    1.50
  -2  -2  -7   12.10    1.50
   2   2   7    9.40    1.40
   2   2   7   11.10    1.40
   2   2   7    9.70    1.40
   2   2   7    9.90    1.20
  -3  -2  -7   16.20    1.60
  -3  -2  -7   17.70    1.90
   3   2   7   14.60    1.80
   3   2   7   15.80    1.60
   3   2   7   14.40    1.80
   3   2   7   20.80    2.40
   3   2   7   12.50    1.90
  -4  -2  -7   11.90    1.80
  -4  -2  -7   11.90    1.60
  -4  -2  -7   11.70    1.40
   4   2   7   11.00    1.60
   4   2   7   10.40    1.60
   4   2   7   12.80    1.40
   4   2   7   13.80    2.20
   4   2   7    8.40    1.60
  -5  -2  -7    9.50    1.40
  -5  -2  -7    6.50    1.00
  -5  -2  -7    7.60    1.30
   5   2   7    7.50    1.10
   5   2   7    6.30    1.30
   5   2   7    7.30    1.50
   5   2   7    7.40    1.20
   5   2   7    5.90    1.10
  -6  -2  -7   20.00    2.10
  -6  -2  -7   14.80    2.10
  -6  -2  -7   16.50    1.80
   6   2   7   17.70    2.30
   6   2   7   16.70    1.90
   6   2   7   16.10    2.10
  -7  -2  -7    0.40    0.90
  -7  -2  -7    0.50    0.90
  -7  -2  -7    0.10    0.70
   7   2   7    0.50    0.70
   7   2   7    1.10    1.10
   7   2   7    0.70    0.90
  10  -3  -7    4.20    1.10
  10  -3  -7    4.20    1.60
  10  -3  -7    5.70    1.30
 -10   3   7    3.80    1.60
 -10   3   7    3.00    1.10
   9  -3  -7    9.50    2.10
   9  -3  -7   13.60    1.90
   9  -3  -7   14.00    2.00
  -9   3   7    9.80    1.80
  -9   3   7    9.50    1.80
  -9   3   7   12.60    1.80
   8  -3  -7    0.10    0.80
   8  -3  -7    0.40    0.70
   8  -3  -7    0.20    1.10
  -8   3   7    0.80    0.90
  -8   3   7   -0.10    1.00
  -8   3   7    0.50    1.00
   7  -3  -7    3.90    0.90
   7  -3  -7    2.30    0.90
   7  -3  -7    4.00    1.30
  -7   3   7    4.50    1.10
  -7   3   7    5.50    1.50
  -7   3   7    4.80    0.90
  -7   3   7    4.20    1.00
   6  -3  -7   31.40    3.50
   6  -3  -7   31.10    3.10
   6  -3  -7   36.80    3.10
  -6   3   7   42.40    3.20
  -6   3   7   37.20    3.10
   5  -3  -7    5.80    1.20
   5  -3  -7    6.50    1.10
   5  -3  -7    4.90    0.90
   5  -3  -7    5.10    0.90
  -5   3   7    7.30    0.90
  -5   3   7    8.70    1.20
   4  -3  -7   23.40    2.40
   4  -3  -7   21.40    2.10
   4  -3  -7   20.40    2.20
   4  -3  -7   24.30    2.00
  -4   3   7   26.30    2.10
  -4   3   7   23.30    2.00
   3  -3  -7   30.30    2.40
   3  -3  -7   27.30    2.40
   3  -3  -7   28.70    2.70
   3  -3  -7   26.40    2.60
  -3   3   7   27.70    2.30
  -3   3   7   33.20    2.50
   2  -3  -7    4.20    0.90
   2  -3  -7    4.70    0.70
   2  -3  -7    4.60    0.90
   2  -3  -7    5.20    0.70
  -2   3   7    4.30    0.60
  -2   3   7    5.60    0.90
  -2   3   7    6.00    0.70
   1  -3  -7   15.50    1.70
   1  -3  -7   15.70    1.50
   1  -3  -7   14.80    1.70
  -1   3   7   18.60    1.70
  -1   3   7   17.80    1.50
  -1   3   7   19.00    1.70
  -1   3   7   16.00    1.40
   0  -3  -7    3.70    0.80
   0  -3  -7    3.30    0.60
   0  -3  -7    3.90    0.80
   0   3   7    5.80    1.00
   0   3   7    4.20    0.70
  -1  -3  -7    0.00    0.40
  -1  -3  -7   -0.40    0.60
   1   3   7   -0.20    0.50
   1   3   7    0.50    0.50
   1   3   7   -0.40    0.50
   1   3   7    0.10    1.10
  -2  -3  -7  296.37   20.80
  -2  -3  -7  268.17   20.60
   2   3   7  280.77   20.80
   2   3   7  254.37   20.80
   2   3   7  274.37   20.60
   2   3   7  263.97   20.70
  -3  -3  -7   11.20    1.70
  -3  -3  -7   16.10    1.70
  -3  -3  -7   13.40    1.40
   3   3   7   10.50    1.60
   3   3   7   10.40    1.80
   3   3   7   15.40    1.50
   3   3   7   11.80    1.60
  -4  -3  -7   16.20    1.90
  -4  -3  -7   15.60    2.00
  -4  -3  -7   18.60    1.70
   4   3   7   21.10    2.50
   4   3   7   14.90    1.80
   4   3   7   12.70    1.90
   4   3   7   10.40    2.00
  -5  -3  -7    2.90    0.70
  -5  -3  -7    2.90    1.00
  -5  -3  -7    2.40    0.90
   5   3   7    3.00    1.10
   5   3   7    3.20    0.90
   5   3   7    3.40    1.00
  -6  -3  -7    2.10    1.00
  -6  -3  -7    2.50    0.80
  -6  -3  -7    3.20    1.10
   6   3   7    2.90    0.90
   6   3   7    3.60    1.20
   6   3   7    2.80    1.00
  10  -4  -7   15.30    2.30
  10  -4  -7   15.20    2.80
  10  -4  -7   15.90    2.20
 -10   4   7   16.20    2.40
 -10   4   7   15.80    2.60
   9  -4  -7   25.10    3.50
   9  -4  -7   32.00    3.10
   9  -4  -7   28.00    3.00
  -9   4   7   31.40    3.20
  -9   4   7   28.30    3.00
   8  -4  -7   22.00    2.30
   8  -4  -7   17.90    2.90
   8  -4  -7   16.70    2.40
  -8   4   7   23.30    2.60
  -8   4   7   29.40    3.50
  -8   4   7   22.40    2.30
   7  -4  -7    4.70    0.90
   7  -4  -7    3.00    1.30
   7  -4  -7    2.60    0.90
  -7   4   7    4.80    1.10
  -7   4   7    3.80    1.00
  -7   4   7    4.00    1.80
  -7   4   7    4.50    0.90
   6  -4  -7    1.30    0.80
   6  -4  -7    2.50    0.70
   6  -4  -7    2.70    0.70
   6  -4  -7    1.40    1.10
  -6   4   7    3.80    0.70
  -6   4   7    4.30    0.90
  -6   4   7    4.30    1.60
  -6   4   7    3.60    0.90
   5  -4  -7    4.70    0.80
   5  -4  -7    3.90    1.00
   5  -4  -7    4.80    1.10
   5  -4  -7    3.60    0.80
  -5   4   7    7.20    1.80
  -5   4   7    4.30    0.70
  -5   4   7    6.70    1.00
  -5   4   7    4.60    0.80
   4  -4  -7   33.40    3.10
   4  -4  -7   30.50    2.90
   4  -4  -7   32.30    3.30
  -4   4   7   36.40    2.90
  -4   4   7   39.60    2.90
   3  -4  -7   46.20    3.90
   3  -4  -7   46.80    4.20
   3  -4  -7   46.20    4.20
  -3   4   7   49.40    3.80
  -3   4   7   56.09    4.00
   2  -4  -7   11.50    1.60
   2  -4  -7   14.50    1.30
   2  -4  -7   10.30    1.60
  -2   4   7   15.70    1.50
  -2   4   7   15.90    1.50
  -2   4   7   14.20    1.30
   1  -4  -7    2.50    0.80
   1  -4  -7    2.60    0.60
   1  -4  -7    3.10    0.80
  -1   4   7    5.30    0.80
  -1   4   7    3.90    0.70
  -1   4   7    7.30    1.70
  -1   4   7    3.90    0.60
  -1   4   7    3.80    0.60
   0  -4  -7    8.70    1.40
   0  -4  -7    9.90    1.50
   0  -4  -7   11.10    1.20
   0   4   7   12.70    1.50
   0   4   7   12.90    1.40
   0   4   7   13.20    1.40
  -1  -4  -7   43.10    3.90
  -1  -4  -7   39.80    3.80
  -1  -4  -7   43.00    3.60
  -1  -4  -7   46.70    3.80
   1   4   7   48.40    3.90
   1   4   7   45.20    3.70
   1   4   7   42.70    3.80
  -2  -4  -7   49.00    4.10
  -2  -4  -7   48.00    4.00
  -2  -4  -7   49.60    4.20
   2   4   7   45.60    4.10
   2   4   7   48.50    4.30
   2   4   7   52.89    4.20
  -3  -4  -7   -0.40    0.60
  -3  -4  -7   -0.10    0.50
  -3  -4  -7    0.60    0.80
   3   4   7   -0.50    1.00
   3   4   7   -0.70    0.60
   3   4   7   -1.00    0.70
   3   4   7   -1.10    0.80
  -4  -4  -7    5.70    1.10
  -4  -4  -7    6.00    0.90
  -4  -4  -7    4.80    1.10
   4   4   7    5.90    1.40
   4   4   7    4.80    1.20
   4   4   7    5.30    1.10
  -5  -4  -7    1.40    0.80
  -5  -4  -7    1.00    0.70
  -5  -4  -7    0.80    0.90
   5   4   7    1.70    0.90
   5   4   7    1.60    1.10
   5   4   7    2.10    0.90
  -6  -4  -7    1.30    1.00
  -6  -4  -7    1.80    0.90
  -6  -4  -7    3.60    1.60
   6   4   7    2.70    1.30
   6   4   7    2.20    1.10
   6   4   7    4.80    1.20
  10  -5  -7    1.60    1.50
  10  -5  -7    0.00    1.00
  10  -5  -7    0.30    1.10
 -10   5   7    0.10    1.40
 -10   5   7    0.00    1.00
 -10   5   7    0.50    0.90
   9  -5  -7    1.00    1.40
   9  -5  -7   -1.40    0.80
   9  -5  -7   -0.40    0.90
  -9   5   7   -0.90    0.90
  -9   5   7    0.10    1.10
   8  -5  -7    3.60    1.20
   8  -5  -7    5.40    1.10
   8  -5  -7    5.90    1.70
  -8   5   7    6.30    1.90
  -8   5   7    4.30    1.20
  -8   5   7    5.00    1.10
   7  -5  -7    1.50    0.80
   7  -5  -7    0.60    1.20
   7  -5  -7    0.90    0.80
   7  -5  -7    2.80    0.80
  -7   5   7    1.90    0.90
  -7   5   7    1.80    0.80
  -7   5   7    2.50    1.70
   6  -5  -7   20.20    2.80
   6  -5  -7   20.50    2.40
   6  -5  -7   26.80    2.30
   6  -5  -7   18.80    2.50
  -6   5   7   23.60    2.20
  -6   5   7   27.40    2.40
   5  -5  -7   -0.40    0.50
   5  -5  -7   -0.60    0.80
   5  -5  -7    0.30    0.70
  -5   5   7    0.70    0.70
  -5   5   7    1.00    1.60
  -5   5   7    0.80    0.70
  -5   5   7    1.00    0.50
   4  -5  -7    0.40    0.50
   4  -5  -7    0.00    0.80
   4  -5  -7    0.00    0.80
  -4   5   7   -0.30    1.50
  -4   5   7    1.90    0.70
  -4   5   7    0.40    0.40
   3  -5  -7    2.10    0.60
   3  -5  -7    1.50    0.90
   3  -5  -7    1.50    0.90
  -3   5   7    2.40    0.50
  -3   5   7    3.00    0.70
  -3   5   7    4.10    0.80
  -3   5   7    4.00    1.60
   2  -5  -7   27.50    2.30
   2  -5  -7   23.10    2.60
   2  -5  -7   25.10    2.70
  -2   5   7   29.30    2.50
  -2   5   7   26.60    2.30
  -2   5   7   29.50    2.40
   1  -5  -7    4.70    1.00
   1  -5  -7    5.00    0.70
   1  -5  -7    3.60    0.90
  -1   5   7    7.10    1.30
  -1   5   7    5.20    0.90
   0  -5  -7    5.30    1.20
   0  -5  -7    5.50    0.90
   0  -5  -7    4.80    1.10
   0   5   7    7.80    1.30
   0   5   7    7.50    1.20
   0   5   7    6.50    1.10
  -1  -5  -7   64.49    5.30
  -1  -5  -7   65.59    5.40
  -1  -5  -7   62.29    5.50
   1   5   7   71.69    5.50
   1   5   7   66.79    5.40
   1   5   7   65.69    5.50
  -2  -5  -7    4.40    1.00
  -2  -5  -7    3.10    0.90
  -2  -5  -7    3.60    0.80
   2   5   7    4.10    1.00
   2   5   7    1.90    0.80
   2   5   7    8.20    1.80
   2   5   7    3.80    1.00
  -3  -5  -7   -0.20    0.70
  -3  -5  -7    0.10    0.60
  -3  -5  -7    0.30    0.70
   3   5   7   -0.10    0.80
   3   5   7    1.10    0.80
   3   5   7   -0.70    0.90
  -4  -5  -7   14.40    1.90
  -4  -5  -7   14.80    1.90
  -4  -5  -7   14.70    1.70
   4   5   7   14.10    2.00
   4   5   7   14.40    1.90
   4   5   7   12.20    2.10
  -5  -5  -7   -0.20    0.70
  -5  -5  -7    0.30    0.70
  -5  -5  -7    0.20    0.90
   5   5   7    1.60    1.10
   5   5   7    1.50    0.90
   5   5   7    0.20    0.80
   9  -6  -7    7.90    1.90
   9  -6  -7    4.90    1.30
   9  -6  -7    6.20    1.30
  -9   6   7    4.80    1.20
  -9   6   7    5.60    1.30
  -9   6   7    7.10    1.40
   8  -6  -7    3.30    1.00
   8  -6  -7    3.00    1.50
   8  -6  -7    2.50    1.00
  -8   6   7    3.70    1.10
  -8   6   7    3.50    1.10
   7  -6  -7    3.90    1.00
   7  -6  -7    4.50    1.20
   7  -6  -7    4.40    1.60
  -7   6   7    7.70    2.70
  -7   6   7    5.40    1.00
  -7   6   7    3.90    1.00
  -7   6   7    4.90    1.10
   6  -6  -7   -0.60    1.00
   6  -6  -7   -0.90    0.80
   6  -6  -7   -0.60    0.60
  -6   6   7    0.00    0.60
  -6   6   7   -0.70    0.60
  -6   6   7   -0.20    0.70
  -6   6   7   -1.10    1.70
   5  -6  -7   16.70    2.40
   5  -6  -7   13.20    1.70
   5  -6  -7   14.60    2.10
  -5   6   7   16.00    1.60
  -5   6   7   19.10    1.90
  -5   6   7   13.20    1.70
   4  -6  -7    1.40    1.00
   4  -6  -7    0.40    0.50
   4  -6  -7   -0.50    0.90
  -4   6   7   -0.70    1.70
  -4   6   7    0.80    0.50
  -4   6   7    0.10    0.80
  -4   6   7    1.20    0.70
   3  -6  -7    0.40    0.90
   3  -6  -7    1.30    0.90
  -3   6   7    0.80    0.70
  -3   6   7    1.40    0.70
  -3   6   7    1.10    0.50
  -3   6   7    2.00    1.50
   2  -6  -7   41.50    3.60
   2  -6  -7   41.10    4.00
   2  -6  -7   42.30    3.90
  -2   6   7   49.40    3.70
  -2   6   7   47.70    3.80
  -2   6   7   39.00    3.50
   1  -6  -7   -0.60    0.80
   1  -6  -7   -0.60    0.50
   1  -6  -7   -0.40    0.60
  -1   6   7   -0.10    0.60
  -1   6   7   -0.30    0.70
  -1   6   7   -0.60    1.60
   0  -6  -7    5.20    0.90
   0  -6  -7    5.10    1.20
   0   6   7    9.00    1.40
   0   6   7    5.90    1.10
  -1  -6  -7    4.10    1.00
  -1  -6  -7    2.30    0.70
   1   6   7    3.70    0.90
   1   6   7    3.00    1.00
   1   6   7    6.00    1.70
  -2  -6  -7    5.10    1.10
  -2  -6  -7    3.00    0.90
  -2  -6  -7    3.40    0.80
   2   6   7    4.00    1.00
   2   6   7    4.10    1.20
   2   6   7    5.20    1.10
  -3  -6  -7    1.60    0.80
  -3  -6  -7    1.90    0.90
  -3  -6  -7    1.50    0.70
   3   6   7    3.00    1.00
   3   6   7    1.90    1.10
   3   6   7    2.60    0.90
  -4  -6  -7    0.50    0.90
  -4  -6  -7    0.60    0.70
  -4  -6  -7   -0.10    0.80
   4   6   7    0.50    0.80
   4   6   7    1.70    1.00
   4   6   7    1.40    0.90
   9  -7  -7    2.40    1.70
   9  -7  -7    0.60    1.00
  -9   7   7    0.30    1.10
  -9   7   7    1.40    1.00
  -9   7   7    0.30    1.00
   8  -7  -7   -1.10    0.80
   8  -7  -7    1.20    1.10
   8  -7  -7   -0.50    1.30
  -8   7   7   -1.60    1.10
   7  -7  -7   -0.70    0.80
   7  -7  -7    1.70    1.10
   7  -7  -7    0.40    1.40
  -7   7   7   -0.60    0.80
  -7   7   7    2.20    0.90
  -7   7   7    0.10    1.00
   6  -7  -7   -0.60    1.20
   6  -7  -7   -0.10    1.00
   6  -7  -7   -0.90    0.70
  -6   7   7   -0.40    0.80
  -6   7   7   -0.10    0.80
   5  -7  -7    2.60    1.30
   5  -7  -7    2.90    1.30
   5  -7  -7    2.80    0.90
  -5   7   7    2.90    0.80
  -5   7   7    4.30    1.00
   4  -7  -7   -1.60    0.90
   4  -7  -7   -0.60    0.90
  -4   7   7   -1.40    1.80
  -4   7   7   -1.10    0.60
  -4   7   7   -0.80    0.80
   3  -7  -7    5.00    1.20
   3  -7  -7    3.40    1.20
  -3   7   7    2.50    0.70
  -3   7   7    3.70    1.00
   2  -7  -7    0.70    0.80
   2  -7  -7    0.70    0.90
  -2   7   7    1.00    1.80
  -2   7   7   -0.60    0.80
   1  -7  -7   11.70    1.60
   1  -7  -7   10.90    2.00
  -1   7   7   10.50    1.70
  -1   7   7   12.70    1.70
   0  -7  -7    4.30    0.90
   0  -7  -7    4.90    1.20
   0   7   7    5.80    1.10
   0   7   7    5.30    1.10
   0   7   7    8.70    2.00
  -1  -7  -7    2.70    1.00
  -1  -7  -7    1.30    0.70
   1   7   7    3.60    1.00
   1   7   7    2.10    1.00
  -2  -7  -7    1.00    0.70
  -2  -7  -7    2.30    0.90
   2   7   7    1.90    1.00
   2   7   7    2.50    0.90
  -3  -7  -7    1.50    0.90
  -3  -7  -7   -0.10    0.70
   3   7   7    1.80    1.00
   3   7   7    2.70    1.00
   8  -8  -7   -1.00    1.00
   8  -8  -7    1.50    1.30
   8  -8  -7    0.70    1.50
  -8   8   7   -0.90    0.90
   7  -8  -7   -0.80    0.80
   7  -8  -7    0.50    1.30
   7  -8  -7    1.30    1.40
  -7   8   7    0.40    0.90
  -7   8   7    0.10    0.80
  -7   8   7   -0.20    1.00
   6  -8  -7    1.50    1.50
   6  -8  -7    0.80    1.40
  -6   8   7    1.10    0.80
  -6   8   7    1.20    1.00
   5  -8  -7   -1.10    1.10
   5  -8  -7   -0.20    1.10
  -5   8   7   -0.90    0.90
  -5   8   7   -0.90    0.70
   4  -8  -7    0.50    1.00
   4  -8  -7    0.10    1.00
  -4   8   7   -1.60    0.80
  -4   8   7   -1.00    0.90
   3  -8  -7    4.30    1.30
  -3   8   7    2.80    1.10
  -3   8   7    0.90    0.80
   2  -8  -7    2.50    1.30
  -2   8   7   -0.30    0.90
   1  -8  -7   14.80    2.30
  -1   8   7   12.80    2.00
   0  -8  -7    0.10    0.80
   0  -8  -7    1.70    1.10
   0   8   7    2.00    0.90
  -1  -8  -7   -0.30    0.80
  -1  -8  -7    2.90    1.10
   1   8   7    1.60    0.90
   6  -9  -7    1.60    1.40
   6  -9  -7    1.70    1.30
  -6   9   7   -1.00    1.20
  -6   9   7   -0.30    1.00
   5  -9  -7    2.80    1.60
   5  -9  -7    1.70    1.20
  -5   9   7    0.40    1.20
  -5   9   7   -1.40    1.00
   4  -9  -7    1.70    1.40
  -4   9   7   -1.10    1.00
  -4   9   7   -1.80    0.80
   3  -9  -7   -0.70    1.10
  -3   9   7   -1.40    0.90
   2  -9  -7    1.00    1.20
  -2   9   7    1.40    1.00
   1  -9  -7   25.30    2.90
   1  -9  -7   28.70    3.30
  -1   9   7   29.00    2.90
   2  10  -8    0.40    1.00
   2  10  -8    2.30    1.10
  -2 -10   8   -2.40    1.20
  -2 -10   8   -2.70    1.30
   1  10  -8    6.60    1.30
   1  10  -8    4.10    1.10
  -1 -10   8    2.80    1.50
  -1 -10   8    1.90    1.50
   0  10  -8    2.10    1.10
   0  10  -8    0.00    1.00
   0 -10   8    0.10    1.30
   0 -10   8   -1.90    1.40
  -1  10  -8   14.30    2.20
  -1  10  -8   20.90    2.40
   1 -10   8   13.90    2.30
   1 -10   8   18.40    2.50
  -2  10  -8    0.10    1.10
   2 -10   8    1.90    1.30
  -3  10  -8   -1.40    1.60
  -3  10  -8   -1.70    1.20
   3 -10   8   -1.60    1.60
   3 -10   8   -0.30    1.20
  -4  10  -8   -0.80    1.60
   4 -10   8   -1.20    1.20
   4 -10   8   -3.00    1.70
   4   9  -8   -0.30    0.70
   4   9  -8    0.90    1.10
  -4  -9   8   -1.40    1.00
  -4  -9   8   -1.50    1.20
   3   9  -8    5.20    1.30
   3   9  -8    3.40    0.90
  -3  -9   8    1.30    1.30
  -3  -9   8    2.70    1.50
   2   9  -8   21.20    2.40
   2   9  -8   24.80    2.60
  -2  -9   8   24.10    2.90
  -2  -9   8   21.80    2.70
   1   9  -8   45.30    4.10
   1   9  -8   51.09    4.30
  -1  -9   8   49.70    4.50
  -1  -9   8   45.90    4.40
   0   9  -8    3.00    1.00
   0   9  -8    2.70    1.00
   0  -9   8    1.60    1.40
   0  -9   8    1.90    1.20
  -1   9  -8    1.70    0.90
  -1   9  -8   -0.90    0.90
   1  -9   8   -1.40    1.00
   1  -9   8   -1.80    1.00
  -2   9  -8    0.70    1.00
  -2   9  -8    0.50    1.20
   2  -9   8   -0.90    1.30
   2  -9   8   -1.20    1.00
   2  -9   8    0.30    1.00
  -3   9  -8    0.90    1.40
  -3   9  -8    1.90    1.20
   3  -9   8    1.30    1.10
   3  -9   8    0.10    1.60
  -4   9  -8    2.70    1.60
  -4   9  -8    2.90    1.30
   4  -9   8    0.70    1.90
   4  -9   8    2.10    1.80
   4  -9   8    3.30    1.20
  -5   9  -8    2.80    1.40
  -5   9  -8   -0.70    1.60
   5  -9   8   -2.10    1.90
   5  -9   8   -2.10    1.70
   5  -9   8   -0.20    1.00
  -6   9  -8    7.80    2.40
  -6   9  -8    7.00    2.60
   6  -9   8    4.90    2.70
   6  -9   8    6.40    1.40
   6  -9   8    4.50    3.10
   5   8  -8    0.90    1.00
   5   8  -8    0.30    0.70
  -5  -8   8   -0.70    1.20
   4   8  -8   -0.40    0.80
   4   8  -8    1.50    1.00
  -4  -8   8   -1.10    1.10
  -4  -8   8    0.20    1.20
   3   8  -8   -0.60    1.00
   3   8  -8    0.90    0.80
  -3  -8   8   -0.20    1.10
  -3  -8   8   -1.40    1.00
   2   8  -8   11.50    1.70
   2   8  -8    8.30    1.30
  -2  -8   8    9.40    1.50
  -2  -8   8    9.20    1.60
   1   8  -8   -0.50    0.90
   1   8  -8    1.30    0.90
  -1  -8   8    0.30    1.10
  -1  -8   8    0.40    1.10
   0   8  -8    1.50    0.90
   0   8  -8    2.80    0.90
   0  -8   8    0.70    1.00
   0  -8   8    1.10    1.10
  -1   8  -8    5.90    1.40
  -1   8  -8   11.00    1.60
  -1   8  -8    7.40    1.20
   1  -8   8    5.30    1.60
   1  -8   8    6.00    1.30
   1  -8   8    7.10    1.30
  -2   8  -8    8.00    1.60
  -2   8  -8    7.70    1.30
  -2   8  -8    5.10    1.50
   2  -8   8    6.80    1.80
   2  -8   8    5.80    1.60
   2  -8   8    8.50    1.30
   2  -8   8    5.30    1.30
  -3   8  -8  148.19   11.60
  -3   8  -8  141.49   11.30
   3  -8   8  144.69   11.20
   3  -8   8  140.49   11.20
   3  -8   8  147.69   11.70
  -4   8  -8   27.50    3.30
  -4   8  -8   24.60    2.90
  -4   8  -8   25.70    3.00
   4  -8   8   20.10    2.60
   4  -8   8   32.30    3.80
   4  -8   8   26.80    3.40
   4  -8   8   27.30    2.70
  -5   8  -8    0.00    1.20
  -5   8  -8   -0.50    1.50
   5  -8   8   -1.20    1.90
   5  -8   8   -2.30    1.50
   5  -8   8   -0.80    0.90
  -6   8  -8    1.10    1.50
  -6   8  -8   -2.60    1.50
   6  -8   8   -4.00    1.90
   6  -8   8   -1.70    1.70
   6  -8   8   -1.00    1.00
   6   7  -8   -0.90    0.90
   6   7  -8    0.50    0.70
   6   7  -8    0.00    1.20
  -6  -7   8   -1.10    1.10
  -6  -7   8    1.30    1.80
  -6  -7   8   -1.30    1.30
   5   7  -8    8.80    1.40
   5   7  -8   12.00    1.90
  -5  -7   8   10.70    1.90
  -5  -7   8   14.80    2.20
   4   7  -8   13.30    1.90
   4   7  -8   10.90    1.70
  -4  -7   8   13.90    2.30
  -4  -7   8   11.70    1.70
  -4  -7   8   16.00    2.20
   3   7  -8   10.30    1.50
   3   7  -8    9.90    1.50
  -3  -7   8   11.20    1.70
  -3  -7   8    9.70    1.50
   2   7  -8    4.50    0.90
   2   7  -8    5.10    1.00
  -2  -7   8    4.70    1.10
  -2  -7   8    5.10    1.30
   1   7  -8   29.20    2.80
   1   7  -8   32.90    2.90
  -1  -7   8   34.30    3.10
  -1  -7   8   29.00    3.00
   0   7  -8    4.80    1.00
   0   7  -8    5.00    1.00
   0   7  -8    6.00    1.20
   0  -7   8    4.40    1.10
   0  -7   8    5.00    1.20
  -1   7  -8   84.09    6.70
  -1   7  -8   88.99    6.90
  -1   7  -8   86.39    6.70
   1  -7   8   89.29    6.80
   1  -7   8   77.79    7.00
   1  -7   8   84.29    6.80
  -2   7  -8    6.80    1.40
  -2   7  -8    4.20    1.40
   2  -7   8    4.80    1.10
   2  -7   8    5.80    1.00
   2  -7   8    3.90    1.40
   2  -7   8    5.10    1.60
  -3   7  -8    0.70    1.20
  -3   7  -8    0.40    1.20
  -3   7  -8    1.60    1.00
  -3   7  -8    0.70    1.30
   3  -7   8    1.30    1.50
   3  -7   8    1.10    0.80
   3  -7   8   -0.40    1.10
   3  -7   8    1.50    0.90
  -4   7  -8    1.30    1.40
  -4   7  -8    3.10    1.20
  -4   7  -8   -1.40    1.10
  -4   7  -8    1.30    1.40
   4  -7   8    0.80    1.40
   4  -7   8    0.30    0.80
   4  -7   8    3.70    1.80
   4  -7   8    2.60    1.50
   4  -7   8    0.30    0.90
  -5   7  -8   23.30    2.90
  -5   7  -8   29.10    3.10
  -5   7  -8   28.60    3.40
   5  -7   8   20.40    2.50
   5  -7   8   24.40    2.60
   5  -7   8   28.90    3.40
   5  -7   8   34.80    3.90
  -6   7  -8    0.30    1.30
   6  -7   8   -0.60    0.80
   6  -7   8   -1.10    1.50
  -7   7  -8   -1.00    1.50
  -7   7  -8   -1.20    1.60
   7  -7   8   -0.60    0.90
   7  -7   8   -0.90    1.70
   7   6  -8    3.70    1.20
   7   6  -8    3.00    0.90
   7   6  -8    1.60    1.50
  -7  -6   8    4.00    1.40
  -7  -6   8    1.80    1.30
  -7  -6   8    1.60    1.50
   6   6  -8   15.90    1.90
   6   6  -8   19.40    2.80
   6   6  -8   14.50    2.20
  -6  -6   8   19.50    2.60
  -6  -6   8   16.60    2.80
  -6  -6   8   19.60    2.50
   5   6  -8    3.40    1.20
   5   6  -8    3.30    1.00
   5   6  -8    2.00    0.80
  -5  -6   8    3.30    1.30
  -5  -6   8    3.50    1.20
  -5  -6   8    5.80    1.30
   4   6  -8   14.20    1.90
   4   6  -8   12.50    1.90
  -4  -6   8   16.70    2.20
  -4  -6   8   19.90    2.20
   3   6  -8   -1.20    0.60
   3   6  -8   -1.60    0.70
  -3  -6   8   -1.30    0.70
  -3  -6   8   -0.50    0.90
  -3  -6   8   -0.30    0.90
   2   6  -8    2.00    0.90
   2   6  -8    1.90    0.70
  -2  -6   8    2.20    1.00
  -2  -6   8    2.90    1.10
  -2  -6   8    2.70    1.10
   1   6  -8   24.50    2.20
   1   6  -8   21.70    2.20
   1   6  -8   20.90    2.20
  -1  -6   8   24.60    2.40
  -1  -6   8   21.90    2.30
   0   6  -8    4.10    1.10
   0   6  -8    9.10    1.60
   0   6  -8    7.60    1.20
   0   6  -8    4.40    0.90
   0   6  -8    6.30    0.90
   0  -6   8    6.20    1.10
   0  -6   8    5.90    1.20
   0  -6   8    5.30    1.10
   0  -6   8    4.70    1.20
  -1   6  -8  121.99   10.00
  -1   6  -8  107.79    9.90
  -1   6  -8  134.29    9.90
   1  -6   8  133.59    9.90
   1  -6   8  136.89    9.90
   1  -6   8  133.29   10.10
  -2   6  -8  114.59    8.20
  -2   6  -8   87.99    8.20
   2  -6   8  104.09    8.10
   2  -6   8  103.39    8.10
   2  -6   8  110.99    8.40
  -3   6  -8   11.70    2.00
  -3   6  -8   15.00    2.10
  -3   6  -8   18.80    2.40
  -3   6  -8   12.00    2.50
   3  -6   8   18.50    2.40
   3  -6   8   13.50    2.50
   3  -6   8   14.00    1.70
   3  -6   8   16.30    1.80
  -4   6  -8   21.00    2.50
  -4   6  -8   28.50    3.00
  -4   6  -8   18.80    3.10
   4  -6   8   23.50    2.20
   4  -6   8   20.50    2.10
   4  -6   8   19.20    3.10
  -5   6  -8   -1.20    1.30
  -5   6  -8   -2.30    1.00
  -5   6  -8    1.70    1.20
  -5   6  -8    0.60    1.40
   5  -6   8   -0.20    1.30
   5  -6   8   -0.80    0.70
   5  -6   8    0.60    1.40
   5  -6   8   -1.40    1.60
   5  -6   8   -1.40    0.60
  -6   6  -8   10.10    2.00
  -6   6  -8    5.50    1.60
  -6   6  -8   11.00    1.80
   6  -6   8    8.10    1.30
   6  -6   8   10.40    1.90
   6  -6   8    7.10    1.30
   6  -6   8   10.10    2.40
  -7   6  -8   -2.20    1.30
  -7   6  -8   -1.10    1.50
   7  -6   8   -2.90    1.30
   7  -6   8   -1.10    0.70
   8   5  -8    5.00    1.60
   8   5  -8    5.20    1.10
   8   5  -8    4.70    1.30
  -8  -5   8    3.10    1.80
  -8  -5   8    5.40    1.50
  -8  -5   8    4.60    1.50
   7   5  -8    2.70    0.80
   7   5  -8    3.00    1.10
   7   5  -8    2.60    1.30
  -7  -5   8    2.30    1.50
  -7  -5   8    3.30    1.30
  -7  -5   8    3.60    1.30
   6   5  -8   -0.80    1.10
   6   5  -8   -0.60    0.60
   6   5  -8    0.20    0.80
  -6  -5   8   -0.80    0.90
  -6  -5   8   -0.30    1.00
  -6  -5   8   -0.80    1.10
   5   5  -8    1.30    0.90
   5   5  -8    0.20    0.80
   5   5  -8    0.10    0.60
  -5  -5   8    0.30    1.10
  -5  -5   8    1.00    1.20
  -5  -5   8    1.00    1.00
   4   5  -8   41.50    4.00
   4   5  -8   46.10    4.10
   4   5  -8   51.79    4.40
  -4  -5   8   52.89    4.30
  -4  -5   8   51.49    4.40
  -4  -5   8   51.09    4.40
   3   5  -8  232.38   18.80
   3   5  -8  230.68   18.80
  -3  -5   8  266.57   18.80
  -3  -5   8  252.77   18.90
  -3  -5   8  258.27   19.00
   2   5  -8  135.79   11.60
   2   5  -8  154.68   11.60
   2   5  -8  141.99   11.60
  -2  -5   8  155.18   11.70
  -2  -5   8  163.28   11.60
  -2  -5   8  158.78   11.70
   1   5  -8   35.80    2.90
   1   5  -8   31.00    2.80
   1   5  -8   30.40    2.80
  -1  -5   8   30.10    2.90
  -1  -5   8   31.80    2.90
  -1  -5   8   35.60    2.90
  -1  -5   8   31.80    2.80
   0   5  -8   22.00    2.10
   0   5  -8   19.50    1.90
   0   5  -8   18.40    1.80
   0  -5   8   19.70    2.00
   0  -5   8   21.70    1.90
   0  -5   8   16.10    1.90
   0  -5   8   16.90    2.10
  -1   5  -8   98.99    7.20
  -1   5  -8   90.79    7.00
  -1   5  -8   80.29    7.10
   1  -5   8   91.39    7.00
   1  -5   8   85.39    6.90
   1  -5   8   88.39    7.10
  -2   5  -8   19.80    2.10
  -2   5  -8   18.00    2.10
  -2   5  -8   18.40    2.50
   2  -5   8   19.80    1.80
   2  -5   8   16.90    2.40
   2  -5   8   17.00    1.80
  -3   5  -8   81.69    6.80
  -3   5  -8   91.19    6.60
  -3   5  -8   97.09    6.90
   3  -5   8   78.89    6.50
   3  -5   8   80.59    6.50
   3  -5   8   68.29    7.10
  -4   5  -8    9.60    1.70
  -4   5  -8    7.10    1.80
  -4   5  -8    8.20    1.30
   4  -5   8   10.00    1.40
   4  -5   8    6.10    1.70
   4  -5   8    6.90    1.10
  -5   5  -8    3.70    1.60
  -5   5  -8    2.50    1.10
  -5   5  -8    2.50    1.40
  -5   5  -8    4.50    1.30
   5  -5   8    2.10    0.80
   5  -5   8    4.20    1.40
   5  -5   8    3.40    0.90
   5  -5   8    4.20    1.60
  -6   5  -8    5.60    1.50
  -6   5  -8    6.60    1.80
   6  -5   8    4.90    1.50
   6  -5   8    4.30    1.00
   6  -5   8    3.30    0.90
  -7   5  -8   -0.50    1.30
  -7   5  -8   -1.60    1.50
   7  -5   8    0.30    0.80
   7  -5   8   -0.70    0.70
   7  -5   8   -2.40    1.30
  -8   5  -8    3.50    1.00
  -8   5  -8    5.50    1.80
  -8   5  -8    4.00    2.10
   8  -5   8    5.00    1.80
   8  -5   8    4.10    1.00
   9   4  -8    0.10    1.40
   9   4  -8    1.70    0.80
   9   4  -8   -0.10    1.20
  -9  -4   8    1.20    1.20
  -9  -4   8    0.70    1.30
  -9  -4   8    0.00    1.60
   8   4  -8    3.50    0.90
   8   4  -8    3.70    1.50
   8   4  -8    5.00    1.20
  -8  -4   8    3.20    1.60
  -8  -4   8    4.50    1.50
  -8  -4   8    3.60    1.30
   7   4  -8   -0.20    1.10
   7   4  -8    1.00    0.90
   7   4  -8   -0.50    0.70
  -7  -4   8    1.00    1.00
  -7  -4   8    0.30    1.30
  -7  -4   8    0.30    1.20
   6   4  -8   -1.40    0.90
   6   4  -8   -0.70    0.60
   6   4  -8   -1.60    0.70
  -6  -4   8    0.00    0.90
  -6  -4   8   -1.30    1.00
   5   4  -8    0.10    0.90
   5   4  -8    1.80    1.00
   5   4  -8    0.60    0.70
  -5  -4   8   -0.20    1.00
  -5  -4   8    1.70    0.90
  -5  -4   8    1.90    1.10
   4   4  -8   16.50    2.10
   4   4  -8   15.50    1.90
   4   4  -8   15.20    1.70
  -4  -4   8   18.10    2.00
  -4  -4   8   20.30    2.30
  -4  -4   8   13.20    2.10
   3   4  -8  107.89    9.20
   3   4  -8  109.89    9.20
   3   4  -8  109.89    9.20
   3   4  -8  119.79    9.40
  -3  -4   8  137.99    9.20
  -3  -4   8  131.59    9.40
  -3  -4   8  114.39    9.30
  -3  -4   8  128.09    9.40
   2   4  -8    0.70    0.50
  -2  -4   8    0.80    0.80
   1   4  -8  198.28   16.40
   1   4  -8  200.18   16.50
   1   4  -8  203.98   16.40
   1   4  -8  231.58   16.50
  -1  -4   8  222.98   16.50
  -1  -4   8  240.78   16.50
  -1  -4   8  226.28   16.50
  -1  -4   8  218.38   16.50
   0   4  -8    9.30    1.40
   0   4  -8   12.40    1.50
   0   4  -8   10.00    1.20
   0   4  -8   10.00    1.10
   0  -4   8   11.20    1.20
   0  -4   8   10.40    1.20
   0  -4   8    8.30    1.50
   0  -4   8   10.80    1.50
   0  -4   8   11.00    1.30
  -1   4  -8   58.89    5.20
  -1   4  -8   72.99    5.30
  -1   4  -8   65.99    5.10
   1  -4   8   58.79    5.10
   1  -4   8   65.79    5.10
   1  -4   8   66.89    5.30
   1  -4   8   62.69    5.10
  -2   4  -8   12.90    1.60
  -2   4  -8   14.90    1.80
  -2   4  -8   12.30    1.80
   2  -4   8   14.90    1.90
   2  -4   8   11.40    1.40
   2  -4   8   10.40    1.90
   2  -4   8   11.80    1.40
   2  -4   8   11.10    1.30
  -3   4  -8  171.58   11.90
  -3   4  -8  154.18   12.10
   3  -4   8  143.79   11.90
   3  -4   8  132.99   11.90
   3  -4   8  177.38   12.20
  -4   4  -8    5.90    1.60
  -4   4  -8    5.10    1.40
  -4   4  -8    7.70    1.20
   4  -4   8    5.90    1.00
   4  -4   8    4.10    1.60
   4  -4   8    6.70    1.50
   4  -4   8    8.60    1.30
  -5   4  -8    9.70    1.60
  -5   4  -8   11.60    1.90
  -5   4  -8    7.80    1.90
  -5   4  -8    8.50    1.80
   5  -4   8    7.90    1.20
   5  -4   8    7.50    1.90
   5  -4   8    8.70    1.60
   5  -4   8    7.80    1.10
  -6   4  -8   -0.50    1.10
  -6   4  -8   -1.90    1.20
   6  -4   8   -0.80    0.60
   6  -4   8   -2.10    1.10
   6  -4   8   -0.80    0.60
  -7   4  -8   -0.70    0.60
  -7   4  -8   -2.10    1.30
  -7   4  -8   -1.10    1.20
   7  -4   8   -0.90    0.60
   7  -4   8    0.10    0.70
   7  -4   8   -2.30    1.20
  -8   4  -8   -1.70    1.80
  -8   4  -8    0.90    1.40
  -8   4  -8    0.60    0.70
   8  -4   8    1.10    0.80
   8  -4   8    1.00    0.70
   8  -4   8   -0.10    1.30
   9   3  -8    2.70    0.90
   9   3  -8    0.90    1.00
   9   3  -8   -0.40    1.40
  -9  -3   8   -0.70    1.40
  -9  -3   8   -0.90    1.10
  -9  -3   8    1.00    1.40
   8   3  -8    0.90    1.20
   8   3  -8    0.70    0.70
   8   3  -8    0.60    0.90
  -8  -3   8    1.00    1.00
  -8  -3   8   -0.20    1.30
  -8  -3   8    1.50    1.20
   7   3  -8    2.70    0.80
   7   3  -8    4.60    1.10
   7   3  -8    3.90    1.30
  -7  -3   8    2.70    1.30
  -7  -3   8    3.40    1.40
  -7  -3   8    4.70    1.10
   6   3  -8    0.90    1.00
   6   3  -8    1.20    0.80
   6   3  -8    0.60    0.70
  -6  -3   8   -0.60    1.00
  -6  -3   8   -0.40    1.10
  -6  -3   8   -0.60    0.90
   5   3  -8   92.49    8.50
   5   3  -8  103.99    8.60
   5   3  -8  114.89    8.80
  -5  -3   8  114.89    8.80
  -5  -3   8  120.49    8.70
  -5  -3   8  111.09    8.80
   4   3  -8   51.59    4.70
   4   3  -8   63.09    5.00
   4   3  -8   53.59    4.80
  -4  -3   8   57.49    5.00
  -4  -3   8   65.09    4.90
  -4  -3   8   66.09    5.10
   3   3  -8   45.40    3.80
   3   3  -8   47.10    4.00
   3   3  -8   40.70    3.80
   3   3  -8   42.60    3.80
  -3  -3   8   49.20    4.00
  -3  -3   8   51.69    3.90
  -3  -3   8   54.49    3.70
  -3  -3   8   41.90    3.90
  -3  -3   8   47.20    4.40
   2   3  -8   44.50    3.70
   2   3  -8   48.80    3.80
   2   3  -8   47.20    3.80
   2   3  -8   43.90    3.90
   2   3  -8   45.40    3.70
  -2  -3   8   42.90    3.90
  -2  -3   8   40.30    3.70
  -2  -3   8   50.49    3.90
  -2  -3   8   48.90    3.70
  -2  -3   8   50.69    3.80
   1   3  -8  115.29    8.30
   1   3  -8  107.09    8.20
   1   3  -8  101.99    8.20
   1   3  -8   99.09    8.20
  -1  -3   8  107.79    8.20
  -1  -3   8  108.99    8.20
  -1  -3   8   96.59    8.40
  -1  -3   8  115.49    8.20
  -1  -3   8  108.59    8.10
   0   3  -8   18.20    1.60
   0   3  -8   16.90    1.60
   0  -3   8   18.50    1.70
   0  -3   8   14.60    1.60
   0  -3   8   15.10    1.90
   0  -3   8   17.30    1.60
   0  -3   8   16.70    1.60
  -1   3  -8  171.68   13.30
  -1   3  -8  177.88   13.10
  -1   3  -8  192.78   13.30
   1  -3   8  186.08   13.30
   1  -3   8  148.29   13.10
   1  -3   8  175.58   13.20
   1  -3   8  162.58   13.10
  -2   3  -8   11.00    1.30
  -2   3  -8    8.80    1.40
  -2   3  -8   12.00    1.60
   2  -3   8    7.20    1.10
   2  -3   8    9.50    1.70
   2  -3   8    8.30    1.20
   2  -3   8   10.90    1.50
   2  -3   8    7.20    1.10
  -3   3  -8  168.58   12.00
   3  -3   8  135.99   11.80
   3  -3   8  134.49   12.30
   3  -3   8  149.59   11.80
   3  -3   8  183.58   12.10
  -4   3  -8  104.09    7.20
   4  -3   8   91.59    6.90
   4  -3   8   77.29    7.50
   4  -3   8   78.19    6.90
  -5   3  -8   -1.90    1.10
  -5   3  -8   -0.80    1.00
   5  -3   8   -0.70    0.60
   5  -3   8   -1.10    1.00
   5  -3   8   -0.20    1.10
   5  -3   8   -0.50    0.60
  -6   3  -8    1.70    1.30
  -6   3  -8    2.20    1.20
  -6   3  -8    2.40    0.70
  -6   3  -8    2.70    1.60
   6  -3   8    2.00    0.70
   6  -3   8    1.90    0.80
   6  -3   8    1.60    1.40
   6  -3   8    1.80    1.20
  -7   3  -8    3.20    1.50
  -7   3  -8    3.40    0.80
  -7   3  -8    4.40    1.40
   7  -3   8    2.40    1.30
   7  -3   8    3.20    0.90
   7  -3   8    3.30    0.80
  -8   3  -8   -1.30    1.30
  -8   3  -8   -0.60    0.60
   8  -3   8   -0.80    0.60
   8  -3   8    0.30    0.80
   9   2  -8    2.60    0.90
   9   2  -8    1.40    1.00
   9   2  -8    1.00    1.40
  -9  -2   8   -0.40    1.40
  -9  -2   8    1.90    1.40
   8   2  -8   -1.20    1.10
   8   2  -8    0.90    0.80
   8   2  -8    0.50    0.90
  -8  -2   8   -1.70    1.10
  -8  -2   8   -0.30    1.20
  -8  -2   8    0.20    0.90
   7   2  -8    1.20    0.80
   7   2  -8   -0.50    1.10
   7   2  -8    0.20    0.80
  -7  -2   8   -0.20    0.80
  -7  -2   8    0.10    1.20
  -7  -2   8   -0.80    1.00
   6   2  -8    4.30    1.30
   6   2  -8    2.80    0.80
   6   2  -8    4.10    1.00
  -6  -2   8    5.00    1.20
  -6  -2   8    3.10    1.10
  -6  -2   8    3.30    1.30
   5   2  -8   27.90    2.90
   5   2  -8   32.90    3.10
   5   2  -8   39.00    3.30
  -5  -2   8   35.90    3.30
  -5  -2   8   35.90    3.20
  -5  -2   8   35.30    3.30
   4   2  -8  234.38   18.20
   4   2  -8  201.18   18.10
   4   2  -8  248.58   18.30
  -4  -2   8  258.07   18.20
  -4  -2   8  234.28   18.20
  -4  -2   8  262.37   18.30
   3   2  -8   10.60    1.40
   3   2  -8   12.80    1.40
   3   2  -8   11.20    1.30
   3   2  -8   11.60    1.60
  -3  -2   8   15.00    1.40
  -3  -2   8   14.20    1.60
  -3  -2   8   15.10    1.60
  -3  -2   8   10.20    1.50
   2   2  -8   31.50    2.80
   2   2  -8   34.30    2.90
   2   2  -8   31.30    2.80
   2   2  -8   32.50    2.70
  -2  -2   8   34.90    2.80
  -2  -2   8   35.90    2.90
  -2  -2   8   38.30    3.10
  -2  -2   8   28.20    2.80
  -2  -2   8   39.30    2.70
   1   2  -8   60.49    4.50
   1   2  -8   53.99    4.30
   1   2  -8   55.69    4.30
   1   2  -8   48.40    4.30
  -1  -2   8   60.19    4.40
  -1  -2   8   57.29    4.30
  -1  -2   8   55.09    4.30
  -1  -2   8   48.60    4.20
  -1  -2   8   57.79    4.60
   0   2  -8   28.10    2.30
   0   2  -8   31.60    2.50
   0   2  -8   28.80    2.40
   0  -2   8   26.00    2.30
   0  -2   8   29.00    2.50
   0  -2   8   25.90    2.70
   0  -2   8   27.80    2.40
   0  -2   8   23.90    2.30
  -1   2  -8   58.99    4.60
  -1   2  -8   61.49    4.40
   1  -2   8   55.99    4.50
   1  -2   8   52.59    4.80
   1  -2   8   61.39    4.60
   1  -2   8   55.39    4.40
   1  -2   8   48.80    4.40
  -2   2  -8   33.00    2.50
  -2   2  -8   31.00    2.70
   2  -2   8   29.20    2.50
   2  -2   8   31.50    2.70
   2  -2   8   23.60    2.40
   2  -2   8   24.80    2.90
  -3   2  -8    0.10    0.90
  -3   2  -8    1.20    0.80
  -3   2  -8    1.60    1.10
   3  -2   8    0.10    1.00
   3  -2   8    0.20    0.50
   3  -2   8    0.50    0.60
   3  -2   8    1.80    0.90
   3  -2   8    1.70    0.60
  -4   2  -8   18.30    1.70
  -4   2  -8   18.90    2.20
   4  -2   8   22.10    2.30
   4  -2   8   17.60    2.50
   4  -2   8   13.40    1.80
   4  -2   8   16.20    1.70
   4  -2   8   14.80    1.80
  -5   2  -8    1.70    1.00
  -5   2  -8    0.10    1.10
  -5   2  -8    1.40    0.50
   5  -2   8    1.10    1.00
   5  -2   8    1.90    0.70
   5  -2   8    0.20    0.60
   5  -2   8    2.00    0.60
   5  -2   8    1.00    1.10
  -6   2  -8    2.50    1.10
  -6   2  -8    2.20    1.30
  -6   2  -8    2.60    0.70
   6  -2   8    1.00    1.10
   6  -2   8    2.50    0.90
   6  -2   8    2.70    0.80
   6  -2   8    1.90    1.30
   6  -2   8    2.50    0.70
  -7   2  -8    3.70    0.80
  -7   2  -8    3.90    1.30
   7  -2   8    3.40    0.80
   7  -2   8    4.20    1.10
   7  -2   8    4.00    1.30
  -8   2  -8   -0.40    0.60
  -8   2  -8   -1.50    1.10
  -8   2  -8   -0.80    1.00
   8  -2   8    0.20    0.80
   8  -2   8    0.40    0.70
   8  -2   8   -1.80    1.10
  10   1  -8   -0.90    1.40
  10   1  -8    2.70    1.00
  10   1  -8    0.30    1.00
 -10  -1   8   -1.50    1.50
 -10  -1   8   -0.20    1.40
   9   1  -8   15.30    2.10
   9   1  -8   11.40    2.20
   9   1  -8   16.80    2.10
  -9  -1   8   14.40    2.60
  -9  -1   8   15.20    2.60
   8   1  -8    5.60    1.10
   8   1  -8    3.50    1.40
   8   1  -8    4.00    1.00
  -8  -1   8    4.90    1.40
  -8  -1   8    4.90    1.50
   7   1  -8    0.90    0.70
   7   1  -8    0.00    1.00
   7   1  -8    1.30    0.80
  -7  -1   8    0.90    0.80
  -7  -1   8   -0.30    1.10
  -7  -1   8    0.40    1.00
   6   1  -8   -1.30    0.70
   6   1  -8   -1.10    0.60
   6   1  -8   -1.00    0.70
   6   1  -8   -0.70    0.90
  -6  -1   8   -1.20    0.70
  -6  -1   8   -0.40    0.90
  -6  -1   8   -1.30    1.00
   5   1  -8   18.50    2.00
   5   1  -8   15.30    1.80
   5   1  -8   11.50    1.80
  -5  -1   8   18.70    2.10
  -5  -1   8   18.80    2.00
  -5  -1   8   16.60    1.70
   4   1  -8   16.60    1.90
   4   1  -8   10.30    1.60
   4   1  -8   12.00    1.50
   4   1  -8   13.60    1.50
  -4  -1   8   17.50    1.50
  -4  -1   8   18.00    1.80
  -4  -1   8   14.50    1.70
   3   1  -8    3.00    0.70
   3   1  -8    3.00    0.50
   3   1  -8    3.40    0.60
   3   1  -8    3.10    0.60
  -3  -1   8    4.40    0.70
  -3  -1   8    2.30    0.70
  -3  -1   8    4.60    0.80
   2   1  -8   11.50    1.10
   2   1  -8   11.00    1.20
   2   1  -8   10.90    1.10
   2   1  -8   11.10    1.30
  -2  -1   8   10.50    1.20
  -2  -1   8   12.70    1.10
  -2  -1   8   12.90    1.20
  -2  -1   8   12.70    1.30
   1   1  -8    0.90    0.30
   1   1  -8    1.10    0.50
   1   1  -8    0.40    0.40
   1   1  -8    1.00    0.40
  -1  -1   8    0.10    0.50
  -1  -1   8    0.20    0.30
  -1  -1   8    0.70    0.40
  -1  -1   8    1.40    0.70
  -1  -1   8    0.60    0.40
   0   1  -8  167.18   12.30
   0   1  -8  183.48   12.50
   0   1  -8  160.78   12.40
   0  -1   8  163.08   12.40
   0  -1   8  165.28   12.40
   0  -1   8  141.49   12.30
   0  -1   8  142.59   12.30
   0  -1   8  184.58   12.80
  -1   1  -8   70.39    5.10
  -1   1  -8   69.09    5.20
   1  -1   8   55.59    5.10
   1  -1   8   71.59    5.60
   1  -1   8   63.99    5.10
   1  -1   8   62.69    5.20
  -2   1  -8   49.10    3.80
  -2   1  -8   52.79    4.10
   2  -1   8   40.50    3.90
   2  -1   8   49.30    4.40
   2  -1   8   57.79    4.10
   2  -1   8   39.70    3.90
   2  -1   8   49.50    3.90
  -3   1  -8  132.49    9.90
   3  -1   8  135.69    9.90
   3  -1   8  112.69   10.00
   3  -1   8  136.99   10.50
  -4   1  -8   37.40    3.00
  -4   1  -8   32.20    2.60
   4  -1   8   25.10    2.80
   4  -1   8   23.50    2.60
   4  -1   8   29.20    2.60
   4  -1   8   30.70    3.30
  -5   1  -8    6.60    1.30
  -5   1  -8    5.90    0.90
  -5   1  -8    9.70    1.50
   5  -1   8    6.80    1.30
   5  -1   8    5.90    1.50
   5  -1   8    5.50    1.10
   5  -1   8    6.00    1.10
   5  -1   8    5.30    0.90
  -6   1  -8   -0.50    1.00
  -6   1  -8   -0.20    0.50
   6  -1   8   -0.30    0.50
   6  -1   8   -0.90    1.10
   6  -1   8    0.20    0.70
   6  -1   8   -0.10    0.70
  -7   1  -8   -1.00    1.00
  -7   1  -8    0.70    0.70
   7  -1   8    1.40    0.70
   7  -1   8    1.70    0.90
   7  -1   8   -0.10    0.80
  10   0  -8   -1.30    1.40
  10   0  -8    2.20    1.00
  10   0  -8    1.40    1.00
 -10   0   8    2.20    1.60
 -10   0   8    1.90    1.10
 -10   0   8    0.30    1.40
   9   0  -8    2.10    0.90
   9   0  -8    0.50    0.90
   9   0  -8   -0.20    1.30
  -9   0   8    1.20    1.50
  -9   0   8   -0.20    1.30
   8   0  -8    0.30    0.80
   8   0  -8    0.70    0.70
   8   0  -8   -1.00    1.10
  -8   0   8   -0.40    1.10
  -8   0   8   -0.30    1.10
   7   0  -8    9.00    1.50
   7   0  -8    7.20    1.20
   7   0  -8    8.70    1.50
   7   0  -8    6.40    1.30
  -7   0   8   10.60    1.80
  -7   0   8    6.90    1.50
   6   0  -8    1.30    0.90
   6   0  -8    2.30    0.80
   6   0  -8    3.00    1.00
   6   0  -8    1.10    0.70
  -6   0   8    3.40    1.00
  -6   0   8    1.80    0.70
  -6   0   8    2.00    1.10
   5   0  -8   -0.70    0.50
   5   0  -8   -0.70    0.60
   5   0  -8    0.30    0.80
  -5   0   8   -0.40    0.90
  -5   0   8    0.50    0.70
  -5   0   8   -0.30    0.80
  -5   0   8   -0.70    0.50
   4   0  -8   75.39    6.50
   4   0  -8   74.59    6.30
   4   0  -8   82.59    6.30
  -4   0   8   90.39    6.40
   3   0  -8   62.79    4.90
   3   0  -8   62.39    5.10
   3   0  -8   55.59    4.90
   3   0  -8   61.29    4.90
  -3   0   8   70.59    4.90
   2   0  -8    8.70    1.20
   2   0  -8    9.10    1.00
   2   0  -8   10.60    0.90
   2   0  -8    9.20    0.90
   2   0  -8    8.70    1.00
  -2   0   8    9.10    0.90
  -2   0   8   12.00    1.20
  -2   0   8    8.90    1.10
  -2   0   8   11.40    1.00
   1   0  -8   81.39    6.30
   1   0  -8   80.69    6.40
   1   0  -8   78.29    6.20
   1   0  -8   76.49    6.20
  -1   0   8   82.69    6.20
  -1   0   8   81.99    6.20
  -1   0   8   88.59    6.30
  -1   0   8   76.49    6.20
   0   0  -8    4.60    0.70
   0   0  -8    5.70    0.90
   0   0  -8    4.30    0.60
   0   0  -8    6.10    0.90
   0   0   8    5.20    0.70
   0   0   8    5.60    0.80
   0   0   8    5.10    0.80
   0   0   8    4.90    0.70
  -1   0  -8   23.70    2.00
  -1   0  -8   18.30    1.60
  -1   0  -8   21.10    1.80
   1   0   8   18.10    1.70
   1   0   8   17.60    1.70
   1   0   8   15.80    1.70
   1   0   8   18.10    1.80
  -2   0  -8    5.40    1.00
  -2   0  -8    3.60    0.60
   2   0   8    3.70    0.70
   2   0   8    4.20    0.70
   2   0   8    3.00    0.70
   2   0   8    3.60    0.80
   2   0   8    5.80    1.20
  -3   0  -8    9.10    1.50
  -3   0  -8    7.30    0.90
   3   0   8    6.80    1.00
   3   0   8    5.60    1.10
   3   0   8    9.10    1.10
  -4   0  -8   13.80    1.40
   4   0   8   12.20    1.80
   4   0   8   10.80    1.50
   4   0   8   11.90    1.50
   4   0   8   15.50    2.20
  -5   0  -8    0.40    0.50
  -5   0  -8   -0.70    0.90
   5   0   8   -0.40    0.50
   5   0   8   -1.00    0.60
   5   0   8    0.40    0.70
   5   0   8   -1.10    1.00
  -6   0  -8    5.60    0.90
  -6   0  -8    7.40    1.30
   6   0   8    5.10    0.90
   6   0   8    5.50    1.20
   6   0   8    5.30    1.50
   6   0   8    4.40    1.10
  -7   0  -8    0.80    0.70
  -7   0  -8    1.10    1.00
  -7   0  -8    1.00    1.20
   7   0   8    1.40    0.70
   7   0   8    2.70    1.10
   7   0   8    2.50    0.90
  10  -1  -8   -1.00    1.50
  10  -1  -8    1.50    1.00
  10  -1  -8    0.90    1.00
 -10   1   8   -1.20    1.40
 -10   1   8    1.50    1.10
 -10   1   8    0.50    1.40
   9  -1  -8   15.60    2.20
   9  -1  -8   19.70    2.90
   9  -1  -8   18.70    2.30
  -9   1   8   16.00    2.30
  -9   1   8   21.60    2.80
  -9   1   8   17.70    2.70
   8  -1  -8    5.00    1.10
   8  -1  -8    5.40    1.50
   8  -1  -8    8.90    1.50
   8  -1  -8    3.30    1.30
  -8   1   8    5.20    1.40
  -8   1   8    7.10    1.20
  -8   1   8    5.20    1.50
   7  -1  -8    1.30    0.80
   7  -1  -8   -1.20    0.60
   7  -1  -8   -0.30    0.90
   7  -1  -8   -1.40    0.90
  -7   1   8   -0.80    1.00
  -7   1   8    0.30    0.90
  -7   1   8    0.60    0.70
   6  -1  -8   20.70    2.40
   6  -1  -8   26.20    2.40
   6  -1  -8   23.00    2.70
  -6   1   8   31.70    2.70
  -6   1   8   27.90    2.40
   5  -1  -8   -1.00    0.60
   5  -1  -8   -0.70    0.40
  -5   1   8   -0.10    0.40
  -5   1   8   -1.70    1.10
  -5   1   8   -1.00    0.70
  -5   1   8   -0.20    0.60
   4  -1  -8    4.00    0.70
   4  -1  -8    4.40    0.70
   4  -1  -8    3.90    0.60
   4  -1  -8    4.20    0.90
  -4   1   8    4.80    0.80
  -4   1   8    6.60    1.00
   3  -1  -8   55.49    4.80
   3  -1  -8   59.09    4.70
   3  -1  -8   55.19    4.70
   3  -1  -8   60.29    4.60
  -3   1   8   71.19    4.70
  -3   1   8   55.69    4.60
   2  -1  -8    0.50    0.20
   2  -1  -8    0.30    0.20
   2  -1  -8   -0.10    0.30
   2  -1  -8   -0.20    0.50
   2  -1  -8    0.90    0.40
  -2   1   8    0.40    0.20
  -2   1   8    0.20    0.20
  -2   1   8   -0.10    0.50
  -2   1   8    0.80    0.40
  -2   1   8   -0.40    0.40
  -2   1   8    0.40    1.00
   1  -1  -8   60.19    4.80
   1  -1  -8   57.09    4.60
   1  -1  -8   55.09    4.70
   1  -1  -8   53.19    4.60
  -1   1   8   58.19    4.60
  -1   1   8   59.49    4.60
  -1   1   8   60.89    4.60
  -1   1   8   68.89    4.70
   0  -1  -8   52.59    4.00
   0  -1  -8   50.19    4.00
   0  -1  -8   45.80    3.80
   0   1   8   44.10    3.80
   0   1   8   47.20    3.80
   0   1   8   49.60    3.90
   0   1   8   48.90    3.90
  -1  -1  -8    1.60    0.60
  -1  -1  -8    2.40    0.70
  -1  -1  -8    0.90    0.40
   1   1   8    1.20    0.50
   1   1   8    1.00    0.40
   1   1   8    1.20    0.60
   1   1   8    1.40    1.00
   1   1   8    0.70    0.50
  -2  -1  -8  139.69    9.90
   2   1   8  122.29   10.00
   2   1   8  142.19    9.90
   2   1   8  124.19    9.90
   2   1   8  118.19    9.90
  -3  -1  -8   27.90    2.20
   3   1   8   27.50    2.30
   3   1   8   21.30    2.40
   3   1   8   23.30    2.40
  -4  -1  -8   20.00    1.80
   4   1   8   16.90    2.10
   4   1   8   22.20    2.60
   4   1   8   16.70    2.00
   4   1   8   16.80    1.80
  -5  -1  -8   -0.60    0.50
  -5  -1  -8   -0.70    0.80
   5   1   8   -0.70    0.90
   5   1   8    0.10    0.80
   5   1   8   -0.60    0.60
  -6  -1  -8    7.60    1.10
  -6  -1  -8   11.50    1.60
  -6  -1  -8    8.30    1.50
   6   1   8    7.20    1.20
   6   1   8    8.30    1.40
   6   1   8   11.10    1.90
  -7  -1  -8   12.50    1.80
  -7  -1  -8   18.40    2.50
  -7  -1  -8   11.50    2.00
   7   1   8   17.00    2.30
   7   1   8   15.70    2.30
   7   1   8   16.30    1.80
  10  -2  -8    1.90    1.20
  10  -2  -8    0.50    1.00
 -10   2   8    1.10    1.50
 -10   2   8    2.00    1.50
 -10   2   8    1.30    1.20
   9  -2  -8   13.80    2.10
   9  -2  -8   15.80    2.10
  -9   2   8   15.20    2.10
  -9   2   8   17.20    2.60
  -9   2   8   14.60    2.50
   8  -2  -8    2.50    1.00
   8  -2  -8    1.70    1.20
   8  -2  -8    3.90    1.00
  -8   2   8    3.20    1.20
  -8   2   8    2.40    1.40
  -8   2   8    4.10    1.00
   7  -2  -8    4.70    0.90
   7  -2  -8    2.40    1.20
   7  -2  -8    1.80    0.90
  -7   2   8    4.30    0.90
  -7   2   8    4.40    1.10
  -7   2   8    3.40    1.30
   6  -2  -8    8.40    1.50
   6  -2  -8    8.30    1.30
   6  -2  -8    7.40    1.20
  -6   2   8   11.90    1.60
  -6   2   8   12.80    1.60
  -6   2   8   11.10    1.30
   5  -2  -8   19.80    1.90
   5  -2  -8   19.50    1.90
   5  -2  -8   16.30    2.20
  -5   2   8   23.00    1.90
   4  -2  -8   46.30    3.40
   4  -2  -8   36.90    3.40
   4  -2  -8   38.20    3.60
   4  -2  -8   40.80    3.40
  -4   2   8   43.90    3.30
   3  -2  -8    2.90    0.50
   3  -2  -8    2.40    0.80
   3  -2  -8    2.80    0.70
   3  -2  -8    2.30    0.50
  -3   2   8    6.30    1.50
  -3   2   8    4.60    0.70
  -3   2   8    2.30    0.40
  -3   2   8    3.50    0.60
  -3   2   8    3.90    0.50
   2  -2  -8   -0.20    0.40
   2  -2  -8   -0.10    0.30
   2  -2  -8    0.00    0.30
   2  -2  -8   -0.60    0.50
  -2   2   8   -0.30    0.30
  -2   2   8   -0.20    0.20
  -2   2   8   -0.50    0.40
  -2   2   8   -0.40    1.10
  -2   2   8   -0.40    0.50
   1  -2  -8   -0.20    0.50
   1  -2  -8    0.40    0.30
   1  -2  -8    1.70    0.40
  -1   2   8    0.60    0.50
  -1   2   8   -0.20    0.40
  -1   2   8   -0.50    0.30
  -1   2   8    0.90    1.20
  -1   2   8    0.60    0.50
   0  -2  -8   92.39    7.40
   0  -2  -8   97.29    7.60
   0  -2  -8  100.79    7.60
   0   2   8   90.59    7.40
   0   2   8   93.39    7.40
   0   2   8   97.09    7.50
   0   2   8  102.29    7.50
  -1  -2  -8    6.30    1.00
  -1  -2  -8    6.10    1.10
  -1  -2  -8    6.20    0.80
   1   2   8    5.70    0.90
   1   2   8    6.40    0.80
   1   2   8    6.10    1.10
   1   2   8    4.70    0.90
  -2  -2  -8  180.68   13.40
   2   2   8  184.28   13.40
   2   2   8  162.98   13.60
   2   2   8  180.38   13.50
   2   2   8  172.08   13.50
  -3  -2  -8    0.30    0.80
  -3  -2  -8    0.30    0.50
   3   2   8   -0.90    0.80
   3   2   8    0.30    0.60
   3   2   8   -1.10    1.00
   3   2   8   -0.50    0.70
   3   2   8    0.10    0.60
  -4  -2  -8   -0.10    0.80
  -4  -2  -8    0.80    0.50
   4   2   8   -0.70    0.80
   4   2   8    0.50    0.60
   4   2   8    0.10    0.60
   4   2   8   -0.20    0.60
   4   2   8   -0.70    0.90
  -5  -2  -8    3.10    0.90
  -5  -2  -8    2.10    0.70
  -5  -2  -8    3.50    1.10
   5   2   8    2.40    0.90
   5   2   8    2.80    1.30
   5   2   8    2.00    1.00
   5   2   8    3.10    0.80
  -6  -2  -8    1.20    0.90
  -6  -2  -8    1.20    1.00
  -6  -2  -8    1.10    0.70
   6   2   8    1.60    0.80
   6   2   8    1.50    0.90
   6   2   8    2.20    1.10
  10  -3  -8    4.80    1.30
  10  -3  -8    5.00    1.70
  10  -3  -8    5.40    1.30
 -10   3   8    5.60    1.40
 -10   3   8    5.20    1.60
   9  -3  -8    7.50    1.40
   9  -3  -8    5.70    1.30
   9  -3  -8    4.70    1.60
  -9   3   8    8.60    1.60
  -9   3   8    7.40    1.70
  -9   3   8    6.80    1.40
   8  -3  -8    0.20    0.80
   8  -3  -8   -1.10    0.70
   8  -3  -8   -0.30    1.10
  -8   3   8   -0.10    0.80
  -8   3   8   -0.40    1.00
   7  -3  -8   12.00    1.90
   7  -3  -8   16.50    1.80
   7  -3  -8   12.50    2.20
  -7   3   8   19.60    2.10
  -7   3   8   17.70    2.10
  -7   3   8   16.70    1.80
   6  -3  -8    0.30    0.60
   6  -3  -8   -1.00    0.90
  -6   3   8   -0.20    0.70
  -6   3   8   -0.50    0.80
  -6   3   8   -1.30    1.30
  -6   3   8    0.30    0.60
   5  -3  -8    3.40    0.70
   5  -3  -8    3.20    0.90
   5  -3  -8    4.40    0.70
   5  -3  -8    4.10    1.10
  -5   3   8    7.90    1.80
  -5   3   8    5.60    0.90
   4  -3  -8   11.30    1.40
   4  -3  -8   13.60    1.30
   4  -3  -8    9.60    1.50
   4  -3  -8   12.20    1.70
  -4   3   8   14.80    1.50
  -4   3   8   12.70    1.30
   3  -3  -8   61.29    5.00
   3  -3  -8   64.29    5.20
   3  -3  -8   62.09    5.30
  -3   3   8   65.09    4.90
   2  -3  -8   11.70    1.50
   2  -3  -8   10.30    1.60
   2  -3  -8   12.60    1.30
  -2   3   8   13.50    1.20
  -2   3   8   15.40    1.50
  -2   3   8   15.10    1.30
   1  -3  -8    5.90    0.80
   1  -3  -8    3.80    0.90
   1  -3  -8    3.00    0.90
  -1   3   8    6.60    1.00
  -1   3   8    6.40    0.90
  -1   3   8    5.00    0.80
   0  -3  -8    6.60    0.90
   0  -3  -8    5.80    1.10
   0  -3  -8    6.00    1.00
   0   3   8    7.00    1.00
   0   3   8    8.30    1.20
   0   3   8    8.80    1.20
  -1  -3  -8    0.70    0.50
  -1  -3  -8   -0.10    0.70
  -1  -3  -8    0.50    0.80
   1   3   8    0.90    0.70
   1   3   8    0.50    0.60
   1   3   8    3.20    1.50
   1   3   8    1.60    0.70
  -2  -3  -8   77.09    6.10
  -2  -3  -8   85.49    6.40
   2   3   8   82.89    6.30
   2   3   8   80.29    6.20
   2   3   8   68.59    6.30
   2   3   8   72.59    6.30
  -3  -3  -8   35.70    3.10
  -3  -3  -8   40.00    3.20
  -3  -3  -8   32.70    2.90
   3   3   8   28.60    3.20
   3   3   8   32.30    3.10
   3   3   8   33.90    2.90
   3   3   8   31.80    3.00
  -4  -3  -8    4.40    1.10
  -4  -3  -8    3.80    1.00
  -4  -3  -8    3.50    0.80
   4   3   8    3.60    1.30
   4   3   8    2.90    0.90
   4   3   8    3.90    0.90
   4   3   8    3.00    1.10
  -5  -3  -8    7.10    1.10
  -5  -3  -8    8.10    1.40
  -5  -3  -8   10.70    1.70
   5   3   8    7.40    1.30
   5   3   8    9.20    1.60
   5   3   8   10.00    1.80
  -6  -3  -8   -0.20    0.90
  -6  -3  -8    1.40    1.00
  -6  -3  -8    1.00    0.70
   6   3   8    0.50    0.80
   6   3   8    2.20    1.20
  10  -4  -8    0.50    1.00
  10  -4  -8    0.90    1.50
  10  -4  -8    0.50    1.00
 -10   4   8   -0.40    1.30
 -10   4   8    0.30    1.10
   9  -4  -8   27.10    3.10
   9  -4  -8   32.10    3.10
   9  -4  -8   26.30    3.70
  -9   4   8   32.20    3.10
  -9   4   8   37.40    3.50
   8  -4  -8    1.50    1.30
   8  -4  -8    0.60    0.90
   8  -4  -8    0.90    0.80
  -8   4   8    3.70    1.70
  -8   4   8    0.80    1.10
  -8   4   8    2.10    0.90
   7  -4  -8    3.40    1.30
   7  -4  -8    3.50    0.90
   7  -4  -8    3.50    0.90
  -7   4   8    6.10    1.80
  -7   4   8    4.60    1.20
  -7   4   8    4.30    1.10
  -7   4   8    4.00    0.90
   6  -4  -8   12.90    2.30
   6  -4  -8   15.00    1.70
   6  -4  -8   11.20    1.70
  -6   4   8   18.60    1.90
  -6   4   8   21.90    3.10
  -6   4   8   16.90    1.70
   5  -4  -8   -0.40    0.60
   5  -4  -8   -0.30    0.50
   5  -4  -8   -0.90    0.80
  -5   4   8   -0.40    0.40
  -5   4   8   -0.60    0.60
  -5   4   8   -0.10    0.70
  -5   4   8   -0.10    1.50
   4  -4  -8    8.80    1.40
   4  -4  -8    7.80    1.40
   4  -4  -8    8.10    1.20
  -4   4   8    9.80    1.10
   3  -4  -8    4.10    0.60
   3  -4  -8    2.30    0.90
   3  -4  -8    3.60    0.90
  -3   4   8    4.00    0.70
   2  -4  -8   33.60    3.40
   2  -4  -8   34.30    3.30
  -2   4   8   42.40    3.20
   1  -4  -8   28.30    2.40
   1  -4  -8   26.10    2.60
   1  -4  -8   23.60    2.70
  -1   4   8   31.80    2.60
  -1   4   8   31.70    2.60
   0  -4  -8   21.00    2.40
   0  -4  -8   23.60    2.20
   0  -4  -8   20.50    2.40
   0   4   8   26.80    2.40
   0   4   8   26.10    2.20
   0   4   8   24.00    2.30
  -1  -4  -8    4.30    1.10
  -1  -4  -8    6.70    1.00
  -1  -4  -8    5.10    0.80
   1   4   8    5.30    0.90
   1   4   8    5.40    1.10
  -2  -4  -8   14.40    1.70
  -2  -4  -8   17.50    2.00
  -2  -4  -8   17.90    2.00
   2   4   8   13.00    2.00
   2   4   8   16.00    1.80
   2   4   8   17.90    2.00
  -3  -4  -8    1.00    0.80
  -3  -4  -8    1.50    0.60
  -3  -4  -8    0.10    0.80
   3   4   8   -0.20    0.90
   3   4   8   -0.60    1.10
   3   4   8    0.30    0.80
   3   4   8    0.70    0.70
  -4  -4  -8   26.30    2.50
  -4  -4  -8   23.20    2.70
  -4  -4  -8   27.50    2.80
   4   4   8   26.30    2.90
   4   4   8   29.00    2.90
   4   4   8   24.40    2.60
  -5  -4  -8    0.30    0.70
  -5  -4  -8    1.20    0.90
  -5  -4  -8    0.50    0.90
   5   4   8    2.30    0.90
   5   4   8    2.90    1.10
   5   4   8    1.50    0.80
   9  -5  -8    1.40    1.50
   9  -5  -8    1.60    1.00
   9  -5  -8    0.40    1.10
  -9   5   8    1.60    1.20
  -9   5   8    2.20    1.10
   8  -5  -8   -0.50    0.80
   8  -5  -8   -0.10    0.90
   8  -5  -8    0.40    1.30
  -8   5   8    0.30    2.60
  -8   5   8   -1.30    1.00
  -8   5   8    0.40    0.80
   7  -5  -8   14.10    1.70
   7  -5  -8   12.00    1.80
   7  -5  -8   11.30    2.10
  -7   5   8   14.40    2.00
  -7   5   8   13.20    1.70
  -7   5   8   20.40    3.20
   6  -5  -8    3.50    0.90
   6  -5  -8    2.90    1.10
   6  -5  -8    3.80    1.30
   6  -5  -8    4.40    0.90
  -6   5   8    5.60    0.90
  -6   5   8    5.40    1.10
  -6   5   8    8.70    2.20
   5  -5  -8   54.69    5.10
   5  -5  -8   54.39    4.90
   5  -5  -8   57.49    5.30
  -5   5   8   69.69    5.00
  -5   5   8   63.09    4.80
   4  -5  -8   -1.10    0.70
   4  -5  -8   -0.60    0.70
   4  -5  -8   -0.50    0.40
  -4   5   8   -0.40    0.40
  -4   5   8   -0.40    1.70
  -4   5   8   -0.70    0.60
  -4   5   8   -0.80    0.60
   3  -5  -8   33.70    3.50
   3  -5  -8   34.90    3.50
  -3   5   8   37.20    3.10
  -3   5   8   42.50    3.30
   2  -5  -8   17.30    2.20
   2  -5  -8   17.50    2.30
  -2   5   8   25.30    2.10
  -2   5   8   22.70    2.20
   1  -5  -8   -0.90    0.60
   1  -5  -8   -0.80    0.40
  -1   5   8   -1.30    1.60
  -1   5   8    0.00    0.60
  -1   5   8   -0.70    0.70
   0  -5  -8    7.40    1.40
   0  -5  -8    7.70    1.20
   0   5   8   10.40    1.50
   0   5   8   11.30    1.60
  -1  -5  -8    5.10    1.00
  -1  -5  -8    5.10    1.10
  -1  -5  -8    5.20    0.90
   1   5   8    5.10    1.00
   1   5   8    6.20    1.20
  -2  -5  -8    2.30    0.70
  -2  -5  -8    0.50    0.70
  -2  -5  -8    2.00    0.90
   2   5   8    2.00    0.80
   2   5   8    2.10    1.50
   2   5   8    1.00    0.90
   2   5   8    0.80    0.70
  -3  -5  -8   15.70    2.10
  -3  -5  -8   16.20    1.80
  -3  -5  -8   15.80    2.00
   3   5   8   17.10    1.90
   3   5   8   12.50    2.10
   3   5   8   17.50    2.10
  -4  -5  -8    0.40    0.70
  -4  -5  -8   -0.20    0.90
  -4  -5  -8    0.40    0.90
   4   5   8    0.90    0.80
   4   5   8    1.00    0.80
   4   5   8    1.30    1.00
   9  -6  -8   -0.20    1.00
   9  -6  -8    1.50    1.50
   9  -6  -8   -0.20    0.90
  -9   6   8   -0.30    0.80
  -9   6   8    0.10    1.00
  -9   6   8   -0.30    1.20
   8  -6  -8    0.10    1.40
   8  -6  -8    0.10    0.80
  -8   6   8    1.10    0.90
  -8   6   8    0.00    1.10
  -8   6   8    0.80    1.00
   7  -6  -8    4.20    1.20
   7  -6  -8    4.30    1.60
   7  -6  -8    3.40    1.00
  -7   6   8    4.00    1.00
  -7   6   8    4.30    1.20
  -7   6   8    4.80    1.00
   6  -6  -8    1.90    1.20
   6  -6  -8    2.20    1.10
   6  -6  -8    0.90    0.80
  -6   6   8    1.90    0.80
  -6   6   8    2.20    2.30
  -6   6   8    0.90    0.80
  -6   6   8    1.90    0.90
   5  -6  -8   13.90    1.90
   5  -6  -8   16.50    2.40
   5  -6  -8   18.20    2.50
  -5   6   8   21.10    2.00
  -5   6   8   16.80    1.70
  -5   6   8   15.30    1.80
   4  -6  -8    3.40    1.20
   4  -6  -8    3.10    1.30
  -4   6   8    7.80    2.30
  -4   6   8    3.70    0.70
  -4   6   8    3.70    1.00
   3  -6  -8   14.50    2.20
   3  -6  -8   16.30    2.20
  -3   6   8   16.30    1.90
  -3   6   8   14.60    1.60
  -3   6   8   18.40    1.80
   2  -6  -8   16.90    2.10
   2  -6  -8   18.80    2.30
  -2   6   8   21.20    2.10
  -2   6   8   19.40    2.20
   1  -6  -8    1.50    1.00
   1  -6  -8    1.50    0.60
  -1   6   8    3.10    0.90
  -1   6   8    4.50    2.00
  -1   6   8    2.70    0.80
   0  -6  -8   26.50    2.50
   0  -6  -8   25.80    2.90
   0   6   8   26.40    2.70
   0   6   8   30.10    2.80
  -1  -6  -8   20.10    2.40
  -1  -6  -8   18.40    2.00
   1   6   8   21.40    2.30
   1   6   8   17.90    2.20
  -2  -6  -8    0.50    0.80
  -2  -6  -8    0.00    0.60
   2   6   8    1.10    0.80
   2   6   8   -0.20    0.90
  -3  -6  -8    4.80    1.10
  -3  -6  -8    3.50    0.90
  -3  -6  -8    2.50    1.00
   3   6   8    3.40    1.00
   3   6   8    3.70    1.20
   3   6   8    5.80    1.20
   8  -7  -8    0.10    1.40
   8  -7  -8   -1.30    0.80
  -8   7   8   -0.70    0.80
  -8   7   8   -1.90    1.00
  -8   7   8   -1.30    0.80
   7  -7  -8   -1.20    0.80
   7  -7  -8   -0.40    1.00
   7  -7  -8   -0.60    1.30
   6  -7  -8   -0.50    0.70
   6  -7  -8    1.00    1.10
   6  -7  -8    1.30    1.30
  -6   7   8    0.80    0.80
  -6   7   8    1.10    0.80
  -6   7   8    0.20    1.00
   5  -7  -8    2.60    1.20
   5  -7  -8    3.20    1.30
  -5   7   8    2.80    1.00
  -5   7   8    2.90    0.90
   4  -7  -8   13.90    2.20
   4  -7  -8   13.50    2.20
  -4   7   8   17.50    2.00
  -4   7   8   12.60    1.70
   3  -7  -8    3.20    1.20
   3  -7  -8    3.30    1.00
  -3   7   8    1.50    0.90
   2  -7  -8    0.30    0.90
  -2   7   8   -1.50    0.80
   1  -7  -8    3.40    0.90
   1  -7  -8    3.70    1.20
  -1   7   8    2.80    1.00
   0  -7  -8   18.70    2.40
   0  -7  -8   15.30    1.90
   0   7   8   17.50    2.10
   0   7   8   18.50    2.20
  -1  -7  -8    5.30    1.30
   1   7   8    4.20    1.10
   1   7   8    4.60    1.10
  -2  -7  -8   -0.10    0.60
  -2  -7  -8    1.00    0.90
   2   7   8    0.70    0.90
   2   7   8    3.00    0.90
   7  -8  -8   -0.60    1.10
   7  -8  -8    0.00    1.30
  -7   8   8   -1.50    0.80
  -7   8   8   -1.80    1.00
   6  -8  -8   -0.10    1.20
   6  -8  -8   -1.20    1.10
  -6   8   8   -1.50    1.00
   5  -8  -8   -1.40    1.20
   5  -8  -8   -0.70    1.00
   4  -8  -8    1.90    1.10
   4  -8  -8    1.90    1.20
  -4   8   8    0.60    1.00
   3  -8  -8   10.50    1.90
  -3   8   8    7.60    1.40
   2  -8  -8    1.00    1.10
  -2   8   8    0.10    0.90
   1  -8  -8   13.30    2.30
  -1   8   8   16.10    2.30
   0  -8  -8    0.40    1.00
   0  -8  -8    0.00    0.70
   0   8   8    2.00    0.90
   5  -9  -8    0.50    1.20
   5  -9  -8    0.20    1.20
  -5   9   8   -1.70    1.10
   4  -9  -8    2.70    1.40
  -4   9   8   -0.10    1.10
   3  -9  -8    1.80    1.30
  -3   9   8   -0.40    1.00
  -2   9   8   20.20    2.90
   2  10  -9    1.70    1.10
   2  10  -9    5.10    1.30
  -2 -10   9    0.10    1.50
  -2 -10   9   -1.60    1.30
   1  10  -9    0.20    1.00
  -1 -10   9   -3.30    1.60
  -1 -10   9   -1.20    1.30
   0  10  -9    2.30    1.10
   0 -10   9    2.00    1.50
   0 -10   9    1.60    1.60
  -1  10  -9   -0.60    1.10
   1 -10   9   -0.70    1.30
   1 -10   9   -1.60    1.20
  -2  10  -9    2.20    1.20
   2 -10   9    2.70    1.40
  -3  10  -9    0.90    1.40
  -3  10  -9    0.60    1.70
   3 -10   9    0.60    1.80
   3 -10   9    2.10    1.30
   4   9  -9    0.40    0.80
   4   9  -9    1.80    1.10
  -4  -9   9   -2.50    1.40
   3   9  -9   -0.10    0.80
   3   9  -9    0.60    1.00
  -3  -9   9   -2.80    1.30
  -3  -9   9   -2.40    1.10
   2   9  -9    1.90    0.90
   2   9  -9    3.00    1.20
  -2  -9   9   -0.40    1.30
  -2  -9   9   -0.70    1.40
   1   9  -9    3.60    1.10
   1   9  -9    6.20    1.30
  -1  -9   9    2.60    1.30
  -1  -9   9    1.10    1.40
   0   9  -9    2.90    1.20
   0   9  -9    4.30    1.20
   0  -9   9    0.50    1.20
   0  -9   9    2.60    1.30
  -1   9  -9   13.30    2.00
   1  -9   9   15.50    2.20
   1  -9   9   11.00    1.80
  -2   9  -9    9.30    1.60
  -2   9  -9    6.40    1.70
   2  -9   9    9.70    1.50
   2  -9   9    7.60    2.10
  -3   9  -9   -0.60    1.20
  -3   9  -9   -2.50    1.40
  -3   9  -9    1.40    1.30
   3  -9   9   -3.10    1.70
   3  -9   9    1.40    1.20
   3  -9   9   -0.30    0.90
  -4   9  -9   -0.60    1.80
  -4   9  -9    1.10    1.50
  -4   9  -9   -1.70    1.30
   4  -9   9   -3.10    1.90
   4  -9   9    1.50    1.20
  -5   9  -9    0.20    1.50
  -5   9  -9   -3.20    1.80
   5  -9   9   -3.50    1.70
   5  -9   9   -1.10    1.10
   5   8  -9    1.40    0.80
   5   8  -9    3.80    1.30
  -5  -8   9   -0.30    1.50
   4   8  -9    0.00    1.10
   4   8  -9   -0.40    0.80
  -4  -8   9   -2.10    1.10
   3   8  -9   -0.90    0.70
   3   8  -9    0.20    0.90
  -3  -8   9   -1.60    1.00
  -3  -8   9   -0.10    1.30
   2   8  -9    0.80    0.80
   2   8  -9    1.00    0.90
  -2  -8   9   -0.60    1.20
  -2  -8   9   -0.80    1.10
   1   8  -9    0.40    0.90
   1   8  -9    1.30    0.80
  -1  -8   9   -1.00    1.00
  -1  -8   9    0.80    1.20
   0   8  -9    0.40    0.90
   0   8  -9    2.00    0.90
   0  -8   9    0.10    1.00
   0  -8   9    0.30    1.10
  -1   8  -9   -0.70    0.90
  -1   8  -9   -1.20    1.20
   1  -8   9    0.00    1.00
   1  -8   9   -1.30    1.00
  -2   8  -9    5.50    1.30
  -2   8  -9    5.30    1.30
  -2   8  -9    6.00    1.60
  -2   8  -9    3.80    1.40
   2  -8   9    4.50    1.60
   2  -8   9    7.00    1.20
   2  -8   9    6.90    1.30
   2  -8   9    3.90    1.40
  -3   8  -9    0.10    1.50
  -3   8  -9    0.50    1.30
  -3   8  -9    1.70    1.20
  -3   8  -9    2.00    1.20
   3  -8   9    2.80    1.00
   3  -8   9    0.50    1.60
   3  -8   9    2.50    1.10
   3  -8   9    0.50    1.30
  -4   8  -9    0.10    1.50
  -4   8  -9   -0.90    1.20
  -4   8  -9    1.80    1.40
   4  -8   9    1.80    0.90
   4  -8   9   -0.60    1.60
   4  -8   9    2.30    1.10
  -5   8  -9    0.30    1.70
  -5   8  -9   -0.20    1.60
   5  -8   9   -1.30    1.00
   5  -8   9   -2.40    1.60
  -6   8  -9    0.20    1.60
  -6   8  -9   -2.70    2.00
   6  -8   9   -1.80    1.00
   6  -8   9   -2.40    1.80
   6   7  -9    0.40    0.70
   6   7  -9    0.50    1.10
  -6  -7   9   -2.80    1.40
  -6  -7   9   -2.20    1.30
   5   7  -9    3.60    1.00
   5   7  -9    4.80    1.30
  -5  -7   9    4.00    1.50
  -5  -7   9    6.00    1.50
   4   7  -9    1.30    1.00
   4   7  -9    0.20    0.80
  -4  -7   9    1.00    1.20
   3   7  -9   -1.60    0.70
   3   7  -9   -0.50    0.90
  -3  -7   9   -1.80    0.80
  -3  -7   9   -1.60    1.00
   2   7  -9   14.50    1.80
   2   7  -9   14.50    1.80
  -2  -7   9   14.50    2.00
  -2  -7   9   18.50    2.30
   1   7  -9    0.30    0.80
   1   7  -9    1.20    0.80
  -1  -7   9    0.80    0.90
  -1  -7   9    0.70    1.10
   0   7  -9    0.20    0.90
   0   7  -9    1.10    0.90
   0   7  -9    1.40    1.10
   0  -7   9    0.00    0.90
   0  -7   9    0.20    0.90
  -1   7  -9   12.40    1.70
  -1   7  -9   10.10    1.70
  -1   7  -9    7.10    1.70
   1  -7   9   13.60    1.70
   1  -7   9    8.30    1.60
   1  -7   9    6.90    1.70
   1  -7   9   12.80    1.70
  -2   7  -9    7.70    1.70
  -2   7  -9    5.20    1.60
  -2   7  -9    7.10    1.50
  -2   7  -9    8.50    1.30
   2  -7   9   10.50    1.50
   2  -7   9    4.90    1.60
   2  -7   9    8.70    1.30
   2  -7   9    8.60    1.80
  -3   7  -9    0.70    1.20
  -3   7  -9    3.40    1.10
  -3   7  -9    1.90    1.40
  -3   7  -9    3.00    1.50
   3  -7   9    3.30    1.00
   3  -7   9    1.60    1.50
   3  -7   9    1.60    1.40
   3  -7   9    4.00    1.00
  -4   7  -9    5.70    1.80
  -4   7  -9    5.60    1.40
  -4   7  -9    6.80    1.60
   4  -7   9    5.10    1.00
   4  -7   9    5.10    1.80
   4  -7   9    7.30    1.30
  -5   7  -9    5.00    1.80
  -5   7  -9    7.50    1.90
  -5   7  -9    3.20    1.40
   5  -7   9    6.10    1.10
   5  -7   9    3.80    1.20
   5  -7   9    7.30    1.90
  -6   7  -9   -1.60    1.70
  -6   7  -9    0.60    1.50
   6  -7   9   -2.10    1.60
   6  -7   9   -1.50    0.90
   7   6  -9    0.40    1.00
   7   6  -9    0.90    0.70
   7   6  -9   -0.40    1.40
  -7  -6   9   -1.00    1.30
  -7  -6   9   -1.50    1.20
  -7  -6   9    2.40    1.50
   6   6  -9    0.00    1.20
   6   6  -9    0.00    0.80
   6   6  -9    0.20    1.00
  -6  -6   9   -0.30    1.10
  -6  -6   9   -1.40    1.20
   5   6  -9   -0.50    0.70
   5   6  -9    0.10    0.90
  -5  -6   9    0.10    1.30
  -5  -6   9   -0.90    1.10
   4   6  -9   -1.00    0.60
   4   6  -9    0.20    0.80
  -4  -6   9   -0.30    1.00
   3   6  -9    0.20    0.70
   3   6  -9    0.80    0.80
  -3  -6   9   -0.30    0.90
  -3  -6   9   -1.20    1.10
  -3  -6   9    0.80    1.00
   2   6  -9   -0.40    0.70
   2   6  -9   -0.70    0.90
   2   6  -9   -0.30    0.60
  -2  -6   9   -0.90    0.70
  -2  -6   9   -1.30    0.90
  -2  -6   9   -1.60    0.90
   1   6  -9    5.40    1.00
   1   6  -9    6.70    1.10
   1   6  -9    5.10    0.90
  -1  -6   9    5.20    1.20
  -1  -6   9    4.70    1.00
   0   6  -9   68.69    6.60
   0   6  -9   75.89    6.40
   0   6  -9   87.29    6.50
   0  -6   9   82.49    6.40
   0  -6   9   87.29    6.50
   0  -6   9   81.89    6.60
  -1   6  -9   22.40    2.70
  -1   6  -9   31.30    2.70
   1  -6   9   27.10    2.90
   1  -6   9   28.50    2.60
   1  -6   9   29.70    2.70
  -2   6  -9  123.99   10.20
  -2   6  -9  137.39   10.10
   2  -6   9  130.29   10.10
   2  -6   9  122.69   10.00
   2  -6   9  135.79   10.40
  -3   6  -9   86.89    7.20
  -3   6  -9   93.99    7.00
   3  -6   9   82.99    6.90
   3  -6   9   79.59    6.90
   3  -6   9   94.19    7.40
  -4   6  -9   13.40    2.00
  -4   6  -9   14.70    2.60
  -4   6  -9   10.20    2.20
   4  -6   9   14.10    1.60
   4  -6   9    9.20    2.10
   4  -6   9    9.10    1.50
  -5   6  -9   -2.00    1.10
  -5   6  -9    1.20    1.50
  -5   6  -9    1.40    1.30
   5  -6   9   -0.70    0.80
   5  -6   9    0.60    0.80
   5  -6   9   -0.30    1.40
  -6   6  -9   10.00    1.90
  -6   6  -9    6.80    2.00
   6  -6   9    9.20    2.00
   6  -6   9    6.00    1.20
   6  -6   9    5.40    1.10
  -7   6  -9   -1.90    1.60
  -7   6  -9   -0.50    1.60
   7  -6   9   -1.20    0.90
   7  -6   9   -1.30    1.60
   8   5  -9    1.90    1.10
   8   5  -9    0.90    1.40
  -8  -5   9    1.60    1.30
  -8  -5   9   -0.10    1.70
  -8  -5   9    2.10    1.40
   7   5  -9    2.90    0.90
   7   5  -9    3.20    1.40
   7   5  -9    3.80    1.20
  -7  -5   9    3.30    1.40
  -7  -5   9    2.40    1.60
  -7  -5   9    4.70    1.40
   6   5  -9    2.60    1.00
   6   5  -9    2.10    1.20
   6   5  -9    2.00    0.90
  -6  -5   9    3.70    1.20
  -6  -5   9    2.70    1.20
  -6  -5   9    2.20    1.30
   5   5  -9    0.70    0.90
   5   5  -9    1.20    1.00
   5   5  -9    0.00    0.60
  -5  -5   9    0.40    1.00
  -5  -5   9    0.40    1.10
  -5  -5   9    0.40    1.00
   4   5  -9    1.80    0.80
   4   5  -9    2.00    0.70
  -4  -5   9    2.50    1.20
  -4  -5   9    2.90    1.10
   3   5  -9   68.69    6.10
   3   5  -9   62.79    6.20
   3   5  -9   71.79    6.10
  -3  -5   9   90.09    6.20
  -3  -5   9   84.09    6.30
  -3  -5   9   88.09    6.50
   2   5  -9   61.99    5.10
   2   5  -9   57.99    5.00
   2   5  -9   54.79    5.00
  -2  -5   9   65.79    5.10
  -2  -5   9   69.09    5.30
  -2  -5   9   65.39    5.20
   1   5  -9   32.60    3.00
   1   5  -9   38.10    3.30
   1   5  -9   32.20    3.00
  -1  -5   9   37.80    3.20
  -1  -5   9   36.40    3.20
  -1  -5   9   37.10    3.10
   0   5  -9   70.49    6.40
   0   5  -9   85.89    6.50
   0   5  -9   78.29    6.30
   0  -5   9   77.09    6.30
   0  -5   9   76.59    6.40
   0  -5   9   84.29    6.30
   0  -5   9   86.69    6.30
  -1   5  -9    1.90    1.00
  -1   5  -9    2.70    1.10
  -1   5  -9    1.90    0.80
   1  -5   9    2.90    0.80
   1  -5   9    1.50    1.00
   1  -5   9    3.30    0.80
   1  -5   9    2.30    1.00
  -2   5  -9   27.90    2.60
  -2   5  -9   28.50    2.80
   2  -5   9   30.80    2.90
   2  -5   9   20.60    3.00
   2  -5   9   27.20    2.50
   2  -5   9   25.50    2.50
  -3   5  -9   28.70    2.90
  -3   5  -9   26.90    2.70
  -3   5  -9   20.70    2.60
   3  -5   9   21.50    2.30
   3  -5   9   21.00    2.20
   3  -5   9   17.90    2.90
   3  -5   9   29.10    2.80
  -4   5  -9   59.39    4.60
  -4   5  -9   42.90    5.00
   4  -5   9   62.49    4.70
   4  -5   9   48.20    4.20
   4  -5   9   41.30    4.90
   4  -5   9   45.10    4.10
  -5   5  -9   -2.20    1.30
  -5   5  -9   -0.50    1.10
   5  -5   9   -0.80    0.70
   5  -5   9   -0.70    1.20
  -6   5  -9    0.60    1.40
  -6   5  -9   -2.90    1.60
   6  -5   9   -1.00    1.40
   6  -5   9   -0.90    0.70
   6  -5   9    0.90    0.80
  -7   5  -9    0.30    1.70
  -7   5  -9   -0.20    0.70
  -7   5  -9    0.00    1.40
   7  -5   9   -1.20    1.40
   7  -5   9    1.90    0.90
   7  -5   9    1.00    0.90
   8   4  -9    0.20    1.30
   8   4  -9    2.00    1.10
   8   4  -9    1.70    0.80
  -8  -4   9    1.10    1.20
  -8  -4   9    0.30    1.50
  -8  -4   9    2.20    1.40
   7   4  -9    2.20    1.00
   7   4  -9    3.40    1.30
   7   4  -9    2.20    0.80
  -7  -4   9    1.70    1.10
  -7  -4   9    2.10    1.40
  -7  -4   9    2.30    1.40
   6   4  -9    1.60    1.20
   6   4  -9    2.00    0.80
   6   4  -9    2.60    1.00
  -6  -4   9    2.40    1.30
  -6  -4   9    1.90    1.00
  -6  -4   9    1.80    1.30
   5   4  -9   10.10    1.80
   5   4  -9    7.80    1.30
   5   4  -9    8.40    1.40
  -5  -4   9    8.20    1.60
  -5  -4   9    9.00    1.40
  -5  -4   9   10.90    1.80
   4   4  -9   -0.80    0.80
   4   4  -9   -0.80    0.70
   4   4  -9   -0.80    0.80
   4   4  -9    0.50    0.60
  -4  -4   9    0.70    1.00
  -4  -4   9   -0.40    0.80
  -4  -4   9   -0.10    1.10
   3   4  -9   11.00    1.50
   3   4  -9   12.60    1.70
   3   4  -9   13.90    1.60
  -3  -4   9   16.30    1.90
  -3  -4   9   15.60    2.00
   2   4  -9   82.79    7.00
   2   4  -9   78.69    7.00
   2   4  -9   86.39    7.10
  -2  -4   9  101.09    7.20
  -2  -4   9   95.29    7.00
  -2  -4   9   97.09    7.10
   1   4  -9   64.69    5.30
   1   4  -9   64.29    5.40
   1   4  -9   61.69    5.30
   1   4  -9   71.29    5.40
  -1  -4   9   73.59    5.40
  -1  -4   9   66.89    5.40
  -1  -4   9   65.59    5.30
  -1  -4   9   68.39    5.30
   0   4  -9  272.57   19.50
   0   4  -9  249.68   19.30
   0   4  -9  237.08   19.40
   0  -4   9  263.97   19.50
   0  -4   9  243.28   19.30
   0  -4   9  266.07   19.40
   0  -4   9  259.57   19.30
  -1   4  -9   66.39    5.20
  -1   4  -9   65.09    5.30
   1  -4   9   68.99    5.10
   1  -4   9   53.99    5.60
   1  -4   9   71.99    5.40
   1  -4   9   59.29    5.10
   1  -4   9   66.39    5.10
  -2   4  -9   50.39    4.20
  -2   4  -9   49.20    4.00
   2  -4   9   48.00    3.90
   2  -4   9   56.59    4.30
   2  -4   9   41.50    3.90
   2  -4   9   42.10    3.90
  -3   4  -9    4.50    1.00
  -3   4  -9    3.80    1.40
  -3   4  -9    4.90    1.20
   3  -4   9    4.90    1.30
   3  -4   9    3.80    0.90
   3  -4   9    3.50    1.40
   3  -4   9    4.20    0.90
  -4   4  -9   17.50    2.40
  -4   4  -9   16.00    2.20
  -4   4  -9   17.80    1.90
   4  -4   9   17.70    2.30
   4  -4   9   10.10    1.60
   4  -4   9   11.50    1.60
   4  -4   9    9.90    2.10
  -5   4  -9    4.30    1.50
  -5   4  -9    3.60    1.30
   5  -4   9    2.50    0.80
   5  -4   9    2.20    0.90
   5  -4   9    2.70    1.30
   5  -4   9    2.70    1.70
  -6   4  -9    6.60    1.60
  -6   4  -9    3.90    0.90
  -6   4  -9    6.50    1.90
   6  -4   9    4.40    1.00
   6  -4   9    6.40    1.60
   6  -4   9    4.80    1.00
  -7   4  -9    0.80    1.60
  -7   4  -9    2.40    1.50
  -7   4  -9    1.70    0.80
   7  -4   9    2.50    0.90
   7  -4   9    1.40    1.40
   7  -4   9    3.10    1.00
   9   3  -9    2.70    0.90
   9   3  -9    1.10    1.40
   9   3  -9    2.30    1.20
  -9  -3   9    3.50    1.70
  -9  -3   9   -0.10    1.50
  -9  -3   9    1.90    1.30
   8   3  -9    3.10    1.10
   8   3  -9    3.20    1.00
   8   3  -9    2.40    1.40
  -8  -3   9    3.40    1.30
  -8  -3   9    3.60    1.60
  -8  -3   9    3.20    1.50
   7   3  -9   10.60    1.90
   7   3  -9   11.10    1.70
   7   3  -9   14.60    2.40
  -7  -3   9   14.60    2.40
  -7  -3   9   14.90    2.40
  -7  -3   9   14.60    2.00
   6   3  -9    2.60    1.30
   6   3  -9    2.40    0.80
   6   3  -9    2.10    0.90
  -6  -3   9    0.70    1.20
  -6  -3   9    1.80    1.30
  -6  -3   9    2.30    1.00
   5   3  -9  175.18   14.50
   5   3  -9  188.68   14.70
  -5  -3   9  176.88   14.60
  -5  -3   9  201.78   14.60
  -5  -3   9  203.48   14.80
   4   3  -9  196.18   15.80
   4   3  -9  221.78   16.00
   4   3  -9  180.38   15.70
  -4  -3   9  239.48   16.10
  -4  -3   9  201.58   15.90
   3   3  -9  104.39    7.70
   3   3  -9   85.89    7.50
   3   3  -9   95.29    7.60
   3   3  -9   84.59    7.60
  -3  -3   9  111.79    7.70
  -3  -3   9   91.69    7.60
  -3  -3   9  112.09    7.80
   2   3  -9    9.70    1.40
   2   3  -9   11.20    1.40
   2   3  -9   11.90    1.50
  -2  -3   9   14.60    1.70
  -2  -3   9   11.10    1.70
  -2  -3   9   14.30    1.30
  -2  -3   9   13.60    1.60
   1   3  -9  119.69    9.20
   1   3  -9  129.39    9.30
   1   3  -9  109.39    9.10
  -1  -3   9  131.29    9.10
  -1  -3   9  117.19    9.20
  -1  -3   9  100.49    9.40
  -1  -3   9  128.99    9.20
  -1  -3   9  119.29    9.20
   0   3  -9  169.28   12.00
   0   3  -9  146.49   11.90
   0   3  -9  152.08   11.80
   0  -3   9  161.18   11.80
   0  -3   9  156.28   11.90
   0  -3   9  156.18   11.80
   0  -3   9  144.99   11.80
  -1   3  -9    0.00    0.80
  -1   3  -9   -0.90    0.60
  -1   3  -9   -0.20    0.70
   1  -3   9   -1.50    0.50
   1  -3   9   -0.20    0.70
   1  -3   9   -0.10    0.70
   1  -3   9   -1.20    0.50
  -2   3  -9   44.50    3.60
  -2   3  -9   44.20    3.30
   2  -3   9   40.40    3.30
   2  -3   9   35.00    3.90
   2  -3   9   48.90    3.70
   2  -3   9   33.10    3.30
   2  -3   9   32.70    3.30
  -3   3  -9   29.30    2.80
   3  -3   9   26.40    2.30
   3  -3   9   22.70    2.40
   3  -3   9   24.10    2.30
   3  -3   9   20.50    3.00
   4  -3   9   18.00    1.90
   4  -3   9   18.90    1.90
   4  -3   9   24.90    2.70
   4  -3   9   16.00    2.70
   4  -3   9   17.30    1.90
  -5   3  -9    0.50    0.60
  -5   3  -9   -1.10    1.20
  -5   3  -9    2.30    1.20
   5  -3   9   -0.80    1.10
   5  -3   9   -0.10    1.10
   5  -3   9   -1.20    0.60
   5  -3   9    0.20    0.60
  -6   3  -9    0.50    1.20
  -6   3  -9    0.20    0.60
  -6   3  -9   -0.80    1.40
   6  -3   9    0.80    0.70
   6  -3   9   -0.60    1.40
   6  -3   9    0.90    0.70
  -7   3  -9    1.90    0.70
  -7   3  -9    1.80    1.40
  -7   3  -9   -0.50    1.50
   7  -3   9    1.20    0.70
   7  -3   9    0.50    0.80
   7  -3   9    0.20    1.30
   9   2  -9    2.90    1.20
   9   2  -9    0.90    1.50
   9   2  -9    4.60    1.10
  -9  -2   9    1.40    1.60
  -9  -2   9    1.80    1.40
   8   2  -9    2.20    1.10
   8   2  -9    1.40    1.30
   8   2  -9    1.60    0.90
  -8  -2   9    1.50    1.10
  -8  -2   9    0.90    1.60
  -8  -2   9    2.10    1.30
   7   2  -9    3.00    0.80
   7   2  -9    1.90    1.20
   7   2  -9    1.90    0.90
  -7  -2   9    1.10    0.90
  -7  -2   9    0.60    1.20
  -7  -2   9    2.10    1.30
   6   2  -9    1.60    1.10
   6   2  -9    0.50    0.80
   6   2  -9    1.10    0.60
   6   2  -9    1.10    1.10
  -6  -2   9   -0.60    1.00
  -6  -2   9    0.20    1.10
  -6  -2   9   -0.60    1.00
   5   2  -9    8.40    1.50
   5   2  -9   12.40    1.90
   5   2  -9    9.20    1.40
   5   2  -9    7.20    1.30
  -5  -2   9   10.40    1.80
  -5  -2   9   13.80    1.70
   4   2  -9  225.98   19.00
   4   2  -9  266.87   19.20
  -4  -2   9  227.88   19.00
  -4  -2   9  265.77   19.00
  -4  -2   9  266.97   19.20
   3   2  -9   70.59    6.40
   3   2  -9   74.39    6.40
  -3  -2   9   78.29    6.40
  -3  -2   9   93.39    6.50
  -3  -2   9   95.29    6.60
   2   2  -9  119.39   10.20
   2   2  -9  126.79   10.30
   2   2  -9  132.89   10.40
   2   2  -9  121.49   10.20
  -2  -2   9  148.39   10.60
  -2  -2   9  150.68   10.30
  -2  -2   9  126.79   10.20
  -2  -2   9  151.08   10.20
   1   2  -9   31.40    2.70
   1   2  -9   28.70    2.60
   1   2  -9   28.00    2.50
  -1  -2   9   31.20    3.00
  -1  -2   9   30.40    2.60
  -1  -2   9   30.80    2.50
  -1  -2   9   29.20    2.60
   0   2  -9    0.30    0.50
   0   2  -9    1.20    0.70
   0   2  -9    0.80    0.60
   0  -2   9    0.10    0.60
   0  -2   9    1.20    0.80
   0  -2   9   -0.80    0.50
   0  -2   9    0.10    0.50
   0  -2   9    0.80    0.60
  -1   2  -9   24.60    2.30
  -1   2  -9   25.70    2.10
   1  -2   9   19.30    2.10
   1  -2   9   21.10    2.10
   1  -2   9   27.90    2.40
   1  -2   9   22.10    2.10
   1  -2   9   22.10    2.60
  -2   2  -9   34.80    2.70
  -2   2  -9   30.40    3.10
  -2   2  -9   35.90    3.10
   2  -2   9   24.60    2.70
   2  -2   9   30.90    2.70
   2  -2   9   25.10    3.20
   2  -2   9   37.10    3.20
  -3   2  -9    4.00    1.20
  -3   2  -9    4.70    1.30
  -3   2  -9    4.70    0.70
   3  -2   9    5.60    1.30
   3  -2   9    4.00    0.80
   3  -2   9    3.80    0.80
   3  -2   9    4.20    1.00
   3  -2   9    3.20    1.40
  -4   2  -9   25.60    2.70
  -4   2  -9   23.80    2.20
   4  -2   9   20.40    2.20
   4  -2   9   21.70    2.90
   4  -2   9   23.00    2.20
   4  -2   9   23.30    2.40
   4  -2   9   26.30    2.70
  -5   2  -9   12.20    2.10
  -5   2  -9    7.80    1.50
  -5   2  -9    6.50    1.00
   5  -2   9    9.10    1.40
   5  -2   9   10.70    1.60
   5  -2   9    6.40    1.10
   5  -2   9    7.30    1.10
   5  -2   9    7.10    1.70
  -6   2  -9    0.20    1.20
  -6   2  -9    0.10    0.60
  -6   2  -9   -0.40    1.30
   6  -2   9    0.60    0.70
   6  -2   9   -0.60    1.10
   6  -2   9    0.30    0.70
  -7   2  -9    1.60    1.30
  -7   2  -9    2.40    0.80
   7  -2   9    2.30    0.80
   7  -2   9    1.50    0.90
   7  -2   9    0.40    1.30
  10   1  -9   -2.10    1.60
  10   1  -9    0.00    1.20
 -10  -1   9   -3.20    1.60
   9   1  -9   11.90    1.80
   9   1  -9    8.70    1.50
   9   1  -9    7.40    1.90
  -9  -1   9    8.60    2.00
  -9  -1   9    8.80    1.90
   8   1  -9    5.20    1.50
   8   1  -9    5.40    1.10
   8   1  -9    5.90    1.20
  -8  -1   9    4.20    1.60
  -8  -1   9    5.30    1.50
   7   1  -9   23.40    3.00
   7   1  -9   33.30    3.20
   7   1  -9   28.70    2.80
   7   1  -9   28.50    2.80
  -7  -1   9   25.60    3.10
  -7  -1   9   28.10    3.30
  -7  -1   9   23.90    3.70
   6   1  -9   39.30    3.90
   6   1  -9   48.10    4.30
  -6  -1   9   49.80    4.30
  -6  -1   9   44.90    4.20
  -6  -1   9   47.50    4.00
   5   1  -9   46.10    3.70
   5   1  -9   31.70    3.50
   5   1  -9   33.30    3.40
  -5  -1   9   47.20    3.70
  -5  -1   9   40.70    3.60
   4   1  -9   43.10    3.80
   4   1  -9   41.60    3.90
   4   1  -9   48.40    3.80
  -4  -1   9   50.99    4.00
   3   1  -9    8.50    1.20
   3   1  -9    9.10    1.10
   3   1  -9    7.00    1.30
  -3  -1   9   10.40    1.30
   2   1  -9    7.60    1.00
   2   1  -9    8.00    1.20
   2   1  -9    7.40    1.00
   2   1  -9    6.00    1.10
  -2  -1   9    7.90    1.10
  -2  -1   9   10.10    1.10
  -2  -1   9    9.30    1.00
   1   1  -9   28.90    2.50
   1   1  -9   28.60    2.40
   1   1  -9   27.20    2.40
  -1  -1   9   29.40    2.40
  -1  -1   9   28.10    2.30
  -1  -1   9   28.20    2.40
  -1  -1   9   24.30    2.30
   0   1  -9   60.39    4.60
   0   1  -9   55.59    4.40
   0   1  -9   55.39    4.50
   0  -1   9   53.59    4.40
   0  -1   9   46.40    4.30
   0  -1   9   53.19    4.30
   0  -1   9   62.89    4.90
  -1   1  -9  143.69    9.90
  -1   1  -9  116.19    9.90
  -1   1  -9  141.09   10.10
   1  -1   9  140.09   10.50
   1  -1   9  118.39   10.00
   1  -1   9  123.39    9.90
  -2   1  -9  180.58   13.50
   2  -1   9  157.68   13.50
   2  -1   9  191.78   13.50
   2  -1   9  164.48   13.60
   2  -1   9  196.38   14.20
  -3   1  -9    6.60    1.30
  -3   1  -9    6.30    0.90
   3  -1   9    5.40    0.90
   3  -1   9    5.60    1.50
   3  -1   9    6.60    0.90
   3  -1   9    5.60    1.10
  -4   1  -9   -1.10    1.00
  -4   1  -9   -0.30    0.90
  -4   1  -9    0.70    0.50
   4  -1   9    0.00    0.60
   4  -1   9    0.30    0.60
   4  -1   9    0.70    0.70
   4  -1   9    0.50    1.00
  -5   1  -9    7.30    1.00
  -5   1  -9    9.30    1.50
  -5   1  -9   10.40    1.70
   5  -1   9    6.10    1.20
   5  -1   9    6.00    1.00
   5  -1   9    6.10    1.60
   5  -1   9    6.90    1.30
  -6   1  -9   19.90    1.90
   6  -1   9   17.50    2.20
   6  -1   9   14.90    2.10
   6  -1   9   18.30    1.90
  -7   1  -9   -0.80    1.10
  -7   1  -9   -1.00    0.60
   7  -1   9   -0.60    0.80
   7  -1   9    0.00    0.70
   7  -1   9    1.10    1.00
  10   0  -9   11.00    2.30
  10   0  -9   14.20    2.20
  10   0  -9   14.40    2.10
 -10   0   9   10.30    2.30
 -10   0   9   12.20    2.10
 -10   0   9   16.40    2.90
   9   0  -9    2.60    1.00
   9   0  -9    0.30    1.40
   9   0  -9    2.20    1.10
  -9   0   9    1.30    1.50
  -9   0   9    2.20    1.40
  -9   0   9    1.60    1.10
   8   0  -9    7.80    1.70
   8   0  -9    7.30    1.30
   8   0  -9    9.90    1.70
  -8   0   9    7.50    1.80
  -8   0   9    8.70    1.70
   7   0  -9    0.10    0.60
   7   0  -9   -1.00    0.90
   7   0  -9    0.10    1.10
   7   0  -9   -0.10    0.80
  -7   0   9   -0.80    1.00
  -7   0   9   -1.00    1.10
   6   0  -9   68.29    5.90
   6   0  -9   74.59    5.70
   6   0  -9   64.59    5.60
   5   0  -9   45.10    4.30
   5   0  -9   44.30    4.10
   5   0  -9   52.79    4.20
  -5   0   9   60.89    4.40
   4   0  -9    7.90    1.10
  -4   0   9    6.20    1.10
  -4   0   9    5.50    1.00
  -4   0   9    8.30    1.80
  -4   0   9    9.00    1.10
   3   0  -9   10.20    1.10
   3   0  -9    8.90    1.40
   3   0  -9    7.60    1.10
   3   0  -9    7.90    1.10
  -3   0   9   12.50    1.30
  -3   0   9   11.50    1.10
   2   0  -9   42.10    3.50
   2   0  -9   41.30    3.70
   2   0  -9   38.80    3.50
  -2   0   9   50.69    3.50
  -2   0   9   46.90    3.60
   1   0  -9   -0.30    0.50
   1   0  -9   -0.20    0.40
   1   0  -9    0.40    0.30
   1   0  -9   -0.40    0.60
  -1   0   9    2.40    1.00
  -1   0   9    0.00    0.50
  -1   0   9    0.40    0.40
  -1   0   9   -0.20    0.40
  -1   0   9   -0.60    0.40
   0   0  -9   -0.50    0.50
   0   0  -9   -0.80    0.40
   0   0  -9    1.30    0.70
   0   0   9   -0.60    0.50
   0   0   9    0.00    0.40
   0   0   9   -1.10    0.40
   0   0   9   -0.30    0.90
   0   0   9   -0.70    0.50
  -1   0  -9    2.70    0.90
  -1   0  -9    3.00    0.60
  -1   0  -9    4.10    1.10
   1   0   9    4.60    1.30
   1   0   9    1.60    0.60
   1   0   9    2.60    0.80
   1   0   9    2.80    0.60
  -2   0  -9   82.29    6.20
   2   0   9   72.79    6.30
   2   0   9   75.09    6.40
   2   0   9   88.49    6.20
  -3   0  -9   20.20    1.80
  -3   0  -9   23.00    2.30
   3   0   9   14.30    2.00
   3   0   9   14.90    1.90
   3   0   9   19.30    1.80
   3   0   9   21.80    2.70
  -4   0  -9    0.40    0.90
  -4   0  -9    0.40    0.50
  -4   0  -9    1.60    1.00
   4   0   9    0.60    0.80
   4   0   9    0.00    1.00
   4   0   9    0.00    0.60
   4   0   9    0.70    0.60
  -5   0  -9    0.10    1.00
  -5   0  -9    0.50    0.60
   5   0   9   -0.20    0.70
   5   0   9    1.10    0.80
   5   0   9   -0.10    1.10
   5   0   9   -0.20    0.60
  -6   0  -9   -0.30    0.60
  -6   0  -9   -1.20    1.00
   6   0   9    0.00    0.70
   6   0   9   -0.60    0.70
   6   0   9    0.90    0.90
  10  -1  -9   24.80    3.60
  10  -1  -9   21.50    2.70
  10  -1  -9   21.60    2.70
 -10   1   9   26.80    3.40
 -10   1   9   21.50    2.70
 -10   1   9   25.10    3.30
   9  -1  -9    4.00    1.10
   9  -1  -9    2.00    1.10
  -9   1   9    2.20    1.40
  -9   1   9    2.00    1.10
  -9   1   9   -0.60    1.50
   8  -1  -9    0.20    0.80
   8  -1  -9   -0.30    1.10
   8  -1  -9    0.00    0.80
  -8   1   9   -1.30    1.20
  -8   1   9    0.70    0.90
  -8   1   9    0.70    1.20
   7  -1  -9   -0.10    0.70
   7  -1  -9   -0.20    0.90
   7  -1  -9   -0.30    0.70
  -7   1   9    0.40    1.00
  -7   1   9   -0.30    1.10
  -7   1   9    0.60    0.80
   6  -1  -9   10.30    1.50
   6  -1  -9   10.40    1.80
   6  -1  -9   10.80    1.50
  -6   1   9   14.00    1.50
   5  -1  -9   -0.90    0.50
  -5   1   9   -1.10    1.30
  -5   1   9    0.40    0.50
  -5   1   9   -0.10    0.80
  -5   1   9    0.20    0.70
   4  -1  -9   -0.90    0.40
   4  -1  -9   -0.40    0.40
   4  -1  -9   -0.50    0.40
  -4   1   9   -1.40    1.10
  -4   1   9    0.30    0.60
  -4   1   9   -0.20    0.70
  -4   1   9   -0.10    0.50
  -4   1   9    0.20    0.40
   3  -1  -9   -0.80    0.50
   3  -1  -9   -0.60    0.30
   3  -1  -9   -0.80    0.40
   3  -1  -9   -0.80    0.40
  -3   1   9    0.80    0.60
  -3   1   9   -1.70    1.10
  -3   1   9   -0.50    0.40
  -3   1   9   -0.30    0.50
  -3   1   9    0.10    0.30
   2  -1  -9   13.60    1.40
   2  -1  -9   13.20    1.60
   2  -1  -9   12.90    1.50
  -2   1   9   16.30    1.40
   1  -1  -9    0.70    0.50
   1  -1  -9   -0.20    0.60
   1  -1  -9    0.50    0.40
   1  -1  -9    0.90    0.40
  -1   1   9    1.70    0.60
  -1   1   9    1.10    0.40
  -1   1   9    2.40    1.20
  -1   1   9    1.00    0.50
  -1   1   9    0.50    0.50
   0  -1  -9    3.60    0.90
   0  -1  -9    5.60    1.00
   0  -1  -9    4.90    0.70
   0   1   9    3.90    0.70
   0   1   9    5.40    0.80
   0   1   9    6.60    1.60
   0   1   9    5.10    0.80
   0   1   9    5.20    0.70
  -1  -1  -9   98.79    7.20
  -1  -1  -9   90.39    6.90
   1   1   9   82.99    7.00
   1   1   9   82.79    7.00
   1   1   9   84.49    7.00
   1   1   9   97.19    7.00
  -2  -1  -9    0.90    0.80
  -2  -1  -9   -1.40    0.50
  -2  -1  -9   -0.90    0.80
   2   1   9   -0.80    0.50
   2   1   9   -0.10    1.00
   2   1   9   -1.20    0.70
   2   1   9   -0.80    0.60
  -3  -1  -9   38.80    3.10
   3   1   9   32.30    3.20
   3   1   9   32.60    3.30
   3   1   9   40.60    3.10
  -4  -1  -9   -0.40    0.90
  -4  -1  -9    0.00    0.50
   4   1   9    0.10    0.80
   4   1   9    0.30    0.60
   4   1   9   -0.60    0.60
   4   1   9   -1.10    0.90
  -5  -1  -9    0.80    0.60
  -5  -1  -9    2.30    1.10
   5   1   9    1.30    0.80
   5   1   9    2.30    0.80
   5   1   9    1.40    0.90
  -6  -1  -9    4.10    0.90
  -6  -1  -9    2.90    1.10
  -6  -1  -9    5.70    1.40
   6   1   9    5.70    1.40
   6   1   9    4.30    1.10
   6   1   9    4.70    1.00
  10  -2  -9    3.00    1.20
  10  -2  -9    1.40    1.10
 -10   2   9   -1.20    1.40
 -10   2   9    0.40    1.50
 -10   2   9    1.10    1.10
   9  -2  -9    1.20    1.00
   9  -2  -9    2.10    1.00
   9  -2  -9    1.00    1.40
  -9   2   9    0.00    1.40
  -9   2   9    2.00    1.10
  -9   2   9    2.80    1.40
   8  -2  -9    3.30    1.40
   8  -2  -9    2.40    1.00
   8  -2  -9    4.20    1.10
  -8   2   9    3.40    1.30
  -8   2   9    4.60    1.10
  -8   2   9    2.60    1.50
   7  -2  -9    6.30    1.60
   7  -2  -9    9.60    1.50
  -7   2   9   11.20    1.90
  -7   2   9   10.80    1.60
  -7   2   9   13.70    1.90
   6  -2  -9   -0.80    0.80
   6  -2  -9   -0.30    0.60
  -6   2   9    0.00    0.80
  -6   2   9   -1.30    0.90
  -6   2   9   -0.80    0.60
  -6   2   9   -0.80    1.50
   5  -2  -9   17.80    2.40
   5  -2  -9   23.30    2.00
   5  -2  -9   19.90    2.10
  -5   2   9   23.10    2.00
   4  -2  -9   30.20    2.80
   4  -2  -9   28.40    3.00
   4  -2  -9   37.40    2.70
   4  -2  -9   29.40    2.90
  -4   2   9   33.90    2.70
   3  -2  -9    5.20    0.90
   3  -2  -9    4.40    1.00
   3  -2  -9    4.40    0.80
   3  -2  -9    6.50    0.80
  -3   2   9    6.70    1.00
  -3   2   9    8.00    1.10
  -3   2   9    6.60    0.80
  -3   2   9    7.30    1.10
   2  -2  -9   17.60    2.10
   2  -2  -9   19.60    2.00
   2  -2  -9   18.30    1.80
  -2   2   9   23.60    1.80
  -2   2   9   22.70    1.90
   1  -2  -9   51.69    4.10
   1  -2  -9   46.60    4.40
   1  -2  -9   46.70    4.30
  -1   2   9   49.50    4.10
  -1   2   9   53.39    4.20
  -1   2   9   60.89    4.30
  -1   2   9   53.79    4.20
   0  -2  -9    8.50    1.50
   0  -2  -9    8.40    1.10
   0  -2  -9    9.30    1.40
   0   2   9   11.30    1.40
   0   2   9    9.90    1.30
   0   2   9   11.70    1.40
   0   2   9    9.10    1.10
  -1  -2  -9    0.30    0.80
  -1  -2  -9    0.50    0.60
  -1  -2  -9    1.70    0.70
   1   2   9    0.00    0.60
   1   2   9    0.80    0.60
   1   2   9   -0.90    0.60
   1   2   9    3.90    1.40
   1   2   9   -0.70    0.70
  -2  -2  -9   -0.60    0.50
  -2  -2  -9    0.00    0.80
  -2  -2  -9    0.10    0.70
   2   2   9   -0.50    0.60
   2   2   9   -0.50    0.60
   2   2   9    0.90    0.60
   2   2   9    0.30    1.20
  -3  -2  -9   26.00    2.30
   3   2   9   24.30    2.50
   3   2   9   20.60    2.50
   3   2   9   20.70    2.30
   3   2   9   27.70    2.30
  -4  -2  -9    1.50    1.00
  -4  -2  -9    1.40    0.70
   4   2   9    2.00    0.80
   4   2   9    1.60    0.80
   4   2   9    1.50    1.20
   4   2   9    1.50    0.90
  -5  -2  -9    1.30    0.70
  -5  -2  -9    2.30    1.20
  -5  -2  -9    2.50    1.10
   5   2   9    2.60    1.10
   5   2   9    2.40    0.90
   5   2   9    3.10    0.90
  -6  -2  -9    0.30    0.70
  -6  -2  -9    0.60    1.00
  -6  -2  -9    1.00    1.00
   6   2   9    1.30    0.80
   6   2   9    1.00    1.00
   6   2   9    0.50    0.90
  10  -3  -9    0.50    1.10
  10  -3  -9    0.90    1.00
  10  -3  -9    0.70    1.30
 -10   3   9    0.80    1.40
 -10   3   9    0.10    1.10
   9  -3  -9    4.10    1.20
   9  -3  -9    4.20    1.20
   9  -3  -9    3.80    1.60
  -9   3   9    7.70    1.60
  -9   3   9    7.00    1.60
  -9   3   9    6.70    1.30
   8  -3  -9    2.00    0.90
   8  -3  -9    0.10    0.90
   8  -3  -9    1.80    1.30
  -8   3   9    1.50    1.10
  -8   3   9    1.30    0.90
  -8   3   9    0.10    1.20
   7  -3  -9    3.40    1.00
   7  -3  -9    5.00    1.00
   7  -3  -9    4.50    1.40
  -7   3   9    4.90    1.00
  -7   3   9    5.20    1.20
  -7   3   9    6.50    1.40
   6  -3  -9    1.40    1.10
   6  -3  -9    2.10    0.70
   6  -3  -9    3.20    0.80
  -6   3   9    5.40    2.00
  -6   3   9    4.70    0.90
  -6   3   9    3.30    0.80
  -6   3   9    4.80    1.10
   5  -3  -9    4.70    0.90
   5  -3  -9    5.00    1.10
   5  -3  -9    5.70    1.30
   5  -3  -9    7.90    1.00
  -5   3   9    8.60    1.10
   4  -3  -9    6.20    1.10
   4  -3  -9    6.10    1.00
   4  -3  -9    8.60    1.00
   4  -3  -9    5.30    1.20
  -4   3   9    7.40    0.90
   3  -3  -9   -0.80    0.70
   3  -3  -9    0.90    0.50
   3  -3  -9    0.60    0.60
  -3   3   9    1.90    1.70
  -3   3   9    1.70    0.70
  -3   3   9    1.20    0.60
  -2   3   9   17.80    1.70
  -2   3   9   15.30    1.70
   1  -3  -9   29.40    3.30
   1  -3  -9   35.60    3.00
   1  -3  -9   29.60    3.20
  -1   3   9   43.10    3.20
  -1   3   9   41.50    3.20
  -1   3   9   39.10    3.10
   0  -3  -9   -1.50    0.70
   0  -3  -9   -0.30    0.60
   0  -3  -9   -0.90    0.40
   0   3   9   -0.60    0.60
   0   3   9   -0.60    0.60
   0   3   9   -0.10    1.40
   0   3   9    1.10    0.60
  -1  -3  -9   52.89    4.30
  -1  -3  -9   50.19    4.00
  -1  -3  -9   53.29    4.20
   1   3   9   50.79    4.20
   1   3   9   42.60    4.20
   1   3   9   44.00    4.10
  -2  -3  -9   12.70    1.50
  -2  -3  -9   16.50    1.90
   2   3   9    9.60    1.60
   2   3   9   14.80    1.50
   2   3   9   12.70    1.70
   2   3   9   12.40    1.60
  -3  -3  -9    0.10    0.80
  -3  -3  -9   -0.40    0.50
  -3  -3  -9    0.40    0.70
   3   3   9   -0.20    0.80
   3   3   9   -1.10    1.30
   3   3   9    0.00    0.60
   3   3   9    0.50    0.70
  -4  -3  -9    0.90    0.80
  -4  -3  -9    1.50    0.70
  -4  -3  -9    1.20    0.90
   4   3   9    2.00    0.80
   4   3   9    2.00    1.30
   4   3   9    1.80    1.00
  -5  -3  -9    1.80    1.00
  -5  -3  -9    3.10    1.20
  -5  -3  -9    2.50    0.80
   5   3   9    2.40    0.90
   5   3   9    3.50    1.20
   9  -4  -9   -0.40    1.30
   9  -4  -9    0.30    0.90
   9  -4  -9   -0.50    0.90
  -9   4   9    0.10    1.00
  -9   4   9    0.50    1.30
   8  -4  -9    0.80    1.20
   8  -4  -9   -0.30    0.80
   8  -4  -9   -0.30    0.80
  -8   4   9   -2.60    1.60
  -8   4   9    0.90    0.90
  -8   4   9    1.40    2.20
  -8   4   9   -0.10    1.10
   7  -4  -9    5.60    1.10
   7  -4  -9    6.10    1.70
   7  -4  -9    5.50    1.10
  -7   4   9    5.80    1.10
  -7   4   9    7.50    1.30
  -7   4   9    7.30    1.30
  -7   4   9   10.40    2.30
   6  -4  -9   29.60    2.90
   6  -4  -9   24.70    3.00
   6  -4  -9   35.60    2.90
   6  -4  -9   29.60    3.40
  -6   4   9   30.90    2.80
  -6   4   9   38.70    3.00
   5  -4  -9    8.40    1.20
   5  -4  -9    5.60    1.40
   5  -4  -9    4.80    1.20
  -5   4   9   10.40    1.40
  -5   4   9    9.70    1.40
  -5   4   9    7.60    1.10
   4  -4  -9    2.90    0.90
   4  -4  -9    2.40    0.60
   4  -4  -9    1.90    1.00
  -4   4   9    5.30    0.90
  -4   4   9    4.80    2.00
  -4   4   9    3.30    0.60
  -4   4   9    4.00    0.90
   3  -4  -9    4.10    1.00
   3  -4  -9    2.70    1.00
  -3   4   9    9.80    2.30
  -3   4   9    5.40    0.90
   2  -4  -9   16.50    2.50
  -2   4   9   27.50    2.30
  -2   4   9   24.70    2.30
   1  -4  -9    0.00    0.60
   1  -4  -9   -0.60    0.50
   1  -4  -9   -0.70    0.70
  -1   4   9    0.20    0.70
  -1   4   9    0.30    0.70
  -1   4   9   -0.50    1.60
   0  -4  -9   -1.30    0.70
   0  -4  -9    0.30    0.60
   0  -4  -9   -0.70    0.50
   0   4   9    0.50    0.70
   0   4   9    0.20    0.70
   0   4   9   -0.80    1.50
   0   4   9   -0.60    0.60
  -1  -4  -9   31.50    2.60
  -1  -4  -9   30.90    3.00
   1   4   9   26.90    2.80
   1   4   9   33.10    2.90
   1   4   9   25.00    2.80
  -2  -4  -9    6.70    1.30
  -2  -4  -9    6.30    1.00
  -2  -4  -9    5.70    1.10
   2   4   9    9.60    2.00
   2   4   9    5.60    1.00
   2   4   9    4.20    1.20
   2   4   9    9.00    1.50
  -3  -4  -9   14.20    2.00
  -3  -4  -9   12.60    1.50
  -3  -4  -9   12.80    1.80
   3   4   9    9.90    1.70
   3   4   9   11.60    1.70
   3   4   9   14.30    1.80
  -4  -4  -9    0.70    0.80
  -4  -4  -9    0.50    0.70
  -4  -4  -9    1.80    1.00
   4   4   9    1.40    1.00
   4   4   9    0.80    0.70
   4   4   9    1.90    0.80
   9  -5  -9    3.10    1.70
   9  -5  -9    1.80    1.10
   9  -5  -9    2.50    1.10
  -9   5   9    0.60    1.30
  -9   5   9    1.20    1.10
   8  -5  -9   -0.30    1.20
   8  -5  -9   -0.10    0.90
   8  -5  -9   -0.30    0.80
  -8   5   9   -1.20    1.00
  -8   5   9   -1.00    0.80
   7  -5  -9    1.20    0.80
   7  -5  -9    1.70    1.30
   7  -5  -9    1.10    0.80
  -7   5   9    2.80    1.10
  -7   5   9    1.20    0.80
   6  -5  -9   15.40    2.30
   6  -5  -9   16.40    2.60
   6  -5  -9   16.50    2.00
  -6   5   9   24.40    2.40
  -6   5   9   21.90    2.20
  -6   5   9   19.30    2.00
   5  -5  -9    1.50    0.90
   5  -5  -9    1.10    1.10
   5  -5  -9    0.70    0.60
  -5   5   9    3.60    2.10
  -5   5   9    1.90    0.90
  -5   5   9    1.40    0.70
  -5   5   9    3.20    0.90
   4  -5  -9   11.10    1.80
   4  -5  -9   11.10    1.90
  -4   5   9   13.30    1.60
  -4   5   9   10.20    1.30
   3  -5  -9    1.90    1.00
   3  -5  -9    2.00    1.00
  -3   5   9    4.00    0.90
  -3   5   9    4.40    2.20
  -3   5   9    3.70    0.90
   2  -5  -9   -0.10    0.80
   2  -5  -9    0.10    0.70
  -2   5   9    0.10    0.70
  -2   5   9    0.30    0.80
  -2   5   9   -2.00    1.90
   1  -5  -9    2.70    0.80
   1  -5  -9    2.30    1.00
  -1   5   9    2.70    0.90
  -1   5   9    2.90    0.90
  -1   5   9    7.30    2.10
   0  -5  -9    9.70    1.30
   0  -5  -9   11.60    1.80
   0   5   9   12.40    1.70
   0   5   9   11.00    1.60
  -1  -5  -9   57.99    4.90
  -1  -5  -9   62.89    5.30
   1   5   9   56.09    5.10
   1   5   9   63.79    5.10
  -2  -5  -9    1.50    0.60
  -2  -5  -9    1.60    0.90
  -2  -5  -9    1.20    0.80
   2   5   9    0.90    1.00
   2   5   9    2.50    0.80
   2   5   9    2.00    0.80
  -3  -5  -9    0.00    0.80
  -3  -5  -9    1.20    0.90
  -3  -5  -9    0.70    0.70
   3   5   9    1.40    0.80
   3   5   9    1.30    0.90
   8  -6  -9    0.00    1.30
   8  -6  -9   -1.10    0.90
  -8   6   9   -0.90    0.80
  -8   6   9   -1.80    1.00
   7  -6  -9   -1.40    0.70
   7  -6  -9   -0.10    0.90
   7  -6  -9    0.40    1.30
  -7   6   9   -0.60    0.70
  -7   6   9   -0.80    0.90
   6  -6  -9    2.60    1.20
   6  -6  -9    2.80    1.40
   6  -6  -9    1.90    0.80
  -6   6   9    1.50    0.80
  -6   6   9    1.00    0.80
  -6   6   9    3.20    1.00
   5  -6  -9    0.10    1.00
   5  -6  -9    0.00    0.90
  -5   6   9   -1.20    0.80
  -5   6   9   -0.90    0.50
   4  -6  -9    0.80    1.00
   4  -6  -9    1.90    1.10
  -4   6   9    2.20    1.00
  -4   6   9    1.40    0.90
   3  -6  -9   15.00    2.30
   3  -6  -9   14.80    2.20
  -3   6   9   16.10    2.00
   2  -6  -9    0.70    0.70
   2  -6  -9    0.00    0.80
  -2   6   9   -0.80    0.80
  -2   6   9   -0.10    0.80
   1  -6  -9    3.70    1.10
  -1   6   9    3.30    1.00
  -1   6   9    4.90    1.10
   0  -6  -9   12.40    1.50
   0  -6  -9   13.60    2.10
   0   6   9   11.70    1.90
   0   6   9   13.90    1.90
  -1  -6  -9    7.60    1.40
  -1  -6  -9    6.40    1.00
   1   6   9    5.70    1.30
   1   6   9    9.20    1.60
  -2  -6  -9    1.00    1.00
  -2  -6  -9    0.40    0.60
   2   6   9    0.60    0.90
   2   6   9    2.20    0.90
   8  -7  -9    1.30    1.00
   8  -7  -9    0.60    1.60
  -8   7   9    1.10    1.00
  -8   7   9    0.40    1.30
  -8   7   9    1.40    1.10
   7  -7  -9   -1.30    0.80
   7  -7  -9    0.10    1.30
   7  -7  -9   -0.40    1.10
  -7   7   9   -2.00    1.00
  -7   7   9   -0.50    0.80
   6  -7  -9    4.60    1.50
   6  -7  -9    5.30    1.50
  -6   7   9    3.10    0.90
  -6   7   9    5.50    1.20
   5  -7  -9   -0.30    1.00
   5  -7  -9   -0.30    1.00
  -5   7   9   -1.70    0.90
   4  -7  -9   24.70    3.00
   4  -7  -9   26.00    3.10
  -4   7   9   28.40    2.80
   3  -7  -9    0.60    0.90
   3  -7  -9    1.60    1.00
  -3   7   9   -0.90    1.00
   2  -7  -9    1.20    1.00
  -2   7   9   -1.60    1.00
   1  -7  -9   11.90    2.10
  -1   7   9   11.80    1.90
  -1   7   9   14.10    1.90
   0  -7  -9    2.00    0.80
   0  -7  -9    3.40    1.20
   0   7   9    3.00    1.00
   0   7   9    2.00    0.90
  -1  -7  -9    1.60    0.80
  -1  -7  -9    1.60    1.00
   1   7   9    2.70    1.00
   1   7   9    3.80    1.00
   6  -8  -9   -0.90    1.10
   6  -8  -9    0.50    1.30
  -6   8   9   -1.90    1.00
   5  -8  -9    0.70    1.30
   5  -8  -9    1.60    1.20
  -5   8   9   -1.20    1.00
   4  -8  -9   13.40    2.20
  -4   8   9    8.20    1.60
   3  -8  -9    1.20    1.10
  -3   8   9   -0.60    1.00
   2  -8  -9   14.70    2.30
  -2   8   9   12.10    2.10
   1  -8  -9    8.70    1.80
  -1   8   9   13.00    1.90
   1  10 -10    3.40    1.90
   0  10 -10    0.60    1.30
   0 -10  10    0.10    1.50
   0 -10  10   -0.40    1.30
  -1  10 -10    1.60    1.30
   1 -10  10   -0.10    1.30
   1 -10  10    0.60    1.40
  -2  10 -10    2.10    1.70
   2 -10  10    2.40    1.50
   2 -10  10    2.40    1.50
   3   9 -10    2.00    1.20
   3   9 -10    0.30    1.00
  -3  -9  10   -2.20    1.40
   2   9 -10    2.70    1.10
   2   9 -10    3.80    1.20
  -2  -9  10    0.90    1.30
  -2  -9  10    0.30    1.70
   1   9 -10   30.60    3.20
  -1  -9  10   32.90    3.60
  -1  -9  10   34.70    3.60
   0   9 -10    7.30    1.50
   0  -9  10    8.10    1.60
   0  -9  10    8.80    1.70
  -1   9 -10    0.10    1.10
  -1   9 -10   -0.70    2.20
   1  -9  10    2.10    1.30
   1  -9  10    0.20    1.30
  -2   9 -10    1.60    1.60
  -2   9 -10    2.40    1.20
   2  -9  10    1.80    1.20
   2  -9  10    3.90    1.40
  -3   9 -10   -0.70    1.20
  -3   9 -10   -1.40    1.20
   3  -9  10   -0.80    1.10
   3  -9  10    0.20    1.30
  -4   9 -10    2.20    1.60
  -4   9 -10   -2.10    1.30
  -4   9 -10   -1.90    1.80
   4  -9  10    3.50    1.40
   5   8 -10    1.10    0.90
   5   8 -10    1.60    1.10
  -5  -8  10   -3.60    1.40
   4   8 -10    5.60    1.20
   4   8 -10    7.00    1.40
  -4  -8  10    4.60    1.70
   3   8 -10    8.30    1.40
   3   8 -10    7.20    1.30
  -3  -8  10    7.20    1.70
   2   8 -10   -0.10    0.90
   2   8 -10    1.60    1.00
  -2  -8  10   -1.20    1.10
  -2  -8  10    0.60    1.30
   1   8 -10    0.00    1.00
  -1  -8  10   -0.50    1.00
  -1  -8  10    0.90    1.30
   0   8 -10    3.20    1.30
   0   8 -10    3.50    1.10
   0  -8  10    5.60    1.40
   0  -8  10    3.70    1.30
  -1   8 -10    0.20    1.30
  -1   8 -10    1.70    1.10
   1  -8  10    1.40    1.10
   1  -8  10    1.60    1.10
  -2   8 -10    1.70    1.20
  -2   8 -10    1.00    1.40
  -2   8 -10    2.30    1.50
  -2   8 -10    1.10    1.10
   2  -8  10    4.00    1.20
   2  -8  10   -0.20    1.40
   2  -8  10    2.20    1.10
   2  -8  10    1.00    1.20
  -3   8 -10   -0.70    1.10
  -3   8 -10    0.80    1.40
  -3   8 -10   -2.30    1.70
   3  -8  10    2.00    1.20
   3  -8  10   -3.00    1.50
   3  -8  10    1.00    1.00
  -4   8 -10   -1.30    1.30
  -4   8 -10   -1.60    1.60
  -4   8 -10   -2.60    1.30
   4  -8  10   -0.20    0.90
   4  -8  10   -2.50    1.60
   4  -8  10   -0.60    1.10
  -5   8 -10   -2.90    2.00
  -5   8 -10   -0.10    1.50
   5  -8  10   -1.20    1.20
   5  -8  10   -2.50    1.70
   6   7 -10   -0.30    1.00
   6   7 -10    0.50    0.70
  -6  -7  10   -1.90    1.30
   5   7 -10    1.30    0.80
   5   7 -10    2.60    1.10
  -5  -7  10    0.10    1.40
  -5  -7  10   -0.80    1.50
   4   7 -10    0.10    1.00
   4   7 -10   -1.20    0.70
  -4  -7  10   -1.20    1.20
   3   7 -10    0.70    1.00
   3   7 -10   -0.70    0.70
  -3  -7  10   -2.40    1.10
   2   7 -10    0.30    0.80
   2   7 -10    0.30    0.80
  -2  -7  10   -2.30    1.00
  -2  -7  10   -1.00    1.10
   1   7 -10   13.90    2.20
   1   7 -10   14.40    2.00
  -1  -7  10   18.30    2.20
  -1  -7  10   18.90    2.30
   0   7 -10   -1.80    0.80
   0   7 -10   -2.30    1.10
   0  -7  10   -0.70    1.00
   0  -7  10   -1.00    1.00
  -1   7 -10   27.90    3.00
  -1   7 -10   26.80    2.80
  -1   7 -10   18.40    3.50
  -1   7 -10   27.70    2.70
   1  -7  10   31.60    2.70
   1  -7  10   19.40    3.10
   1  -7  10   24.80    2.90
   1  -7  10   31.90    2.70
  -2   7 -10    3.30    1.10
  -2   7 -10    3.20    1.20
  -2   7 -10    1.70    1.50
  -2   7 -10    1.20    1.30
   2  -7  10    1.30    1.40
   2  -7  10    1.80    1.30
   2  -7  10    5.40    1.20
   2  -7  10    3.20    1.00
  -3   7 -10    9.60    1.70
  -3   7 -10   10.40    1.90
  -3   7 -10   10.40    2.00
   3  -7  10    9.60    1.50
   3  -7  10    9.10    2.10
   3  -7  10   12.80    1.70
  -4   7 -10    4.10    1.90
  -4   7 -10    4.70    1.50
  -4   7 -10    7.00    1.70
   4  -7  10    6.00    1.30
   4  -7  10    5.70    1.90
   4  -7  10    5.80    1.10
  -5   7 -10    9.90    1.80
  -5   7 -10   12.60    2.20
  -5   7 -10   13.80    2.50
   5  -7  10   12.00    1.70
   5  -7  10   12.20    1.80
   5  -7  10   11.80    2.40
  -6   7 -10   -3.90    2.20
  -6   7 -10   -0.90    1.80
   6  -7  10   -0.90    1.00
   6  -7  10   -0.10    1.00
   6  -7  10   -2.00    1.90
   7   6 -10    2.60    1.20
   7   6 -10    1.70    0.90
  -7  -6  10   -1.90    1.40
  -7  -6  10   -1.90    1.30
   6   6 -10    7.70    1.30
   6   6 -10    7.30    1.50
  -6  -6  10    6.20    1.60
  -6  -6  10    7.00    1.80
   5   6 -10    5.80    1.10
   5   6 -10    5.20    1.20
  -5  -6  10    4.90    1.50
  -5  -6  10    4.00    1.50
   4   6 -10   -0.80    0.80
   4   6 -10   -0.50    0.80
  -4  -6  10   -2.20    1.20
  -4  -6  10   -2.60    1.00
   3   6 -10   -0.30    0.80
   3   6 -10   -1.10    0.80
  -3  -6  10   -0.90    1.10
  -3  -6  10   -1.10    1.00
   2   6 -10    5.00    1.00
   2   6 -10    5.70    1.10
   2   6 -10    5.70    1.00
  -2  -6  10    5.40    1.10
  -2  -6  10    5.80    1.30
   1   6 -10    0.50    0.90
   1   6 -10    1.00    0.80
  -1  -6  10    1.30    0.90
  -1  -6  10    0.70    1.00
   0   6 -10    2.20    1.80
   0   6 -10    2.90    0.90
   0   6 -10    3.40    1.10
   0  -6  10    2.00    1.10
   0  -6  10    4.10    1.00
   0  -6  10    3.80    1.00
  -1   6 -10    6.30    1.20
  -1   6 -10    5.50    1.50
  -1   6 -10   10.20    1.60
  -1   6 -10    9.20    1.60
   1  -6  10    7.50    1.20
   1  -6  10    4.70    1.40
   1  -6  10    8.00    1.60
   1  -6  10   10.00    1.30
  -2   6 -10   34.50    3.60
  -2   6 -10   37.40    3.30
  -2   6 -10   36.70    3.70
   2  -6  10   33.20    3.20
   2  -6  10   36.30    3.80
   2  -6  10   35.80    3.30
  -3   6 -10   42.80    4.10
  -3   6 -10   46.00    3.80
   3  -6  10   38.40    3.60
   3  -6  10   43.00    4.20
   3  -6  10   40.90    3.70
  -4   6 -10    4.50    1.50
  -4   6 -10    2.60    1.10
  -4   6 -10    2.70    1.70
   4  -6  10    3.20    1.10
   4  -6  10    3.20    1.60
   4  -6  10    1.90    0.90
  -5   6 -10    0.50    1.40
  -5   6 -10   -2.70    1.60
   5  -6  10    0.40    0.80
   5  -6  10   -1.10    1.40
   5  -6  10    0.70    0.90
  -6   6 -10    2.80    1.70
  -6   6 -10    0.00    1.80
   6  -6  10   -0.10    1.70
   6  -6  10    0.90    1.00
   6  -6  10    1.80    1.00
   7   5 -10    0.60    1.00
   7   5 -10   -0.80    1.10
   7   5 -10    1.10    0.90
  -7  -5  10    1.20    1.40
  -7  -5  10   -1.90    1.40
  -7  -5  10   -1.10    1.20
   6   5 -10   20.70    2.50
   6   5 -10   17.20    2.30
   6   5 -10   21.90    3.70
  -6  -5  10   19.90    2.80
  -6  -5  10   19.90    2.90
   5   5 -10    0.30    0.80
   5   5 -10   -1.10    0.80
  -5  -5  10   -2.20    1.00
  -5  -5  10   -0.50    1.10
   4   5 -10    8.30    1.30
   4   5 -10    9.40    1.40
  -4  -5  10    8.80    1.50
  -4  -5  10    8.80    1.70
   3   5 -10    2.30    0.90
   3   5 -10    1.70    0.80
   3   5 -10    1.80    0.70
  -3  -5  10    1.00    1.20
  -3  -5  10    2.40    1.10
   2   5 -10   -1.40    0.60
   2   5 -10    0.30    0.70
   2   5 -10   -0.30    0.70
  -2  -5  10   -0.40    0.90
  -2  -5  10   -0.90    0.90
  -2  -5  10   -0.20    0.70
   1   5 -10    5.60    1.00
   1   5 -10    6.20    1.20
  -1  -5  10    6.80    1.20
  -1  -5  10    7.50    1.20
  -1  -5  10    4.40    1.60
  -1  -5  10    6.80    1.10
   0   5 -10    7.70    1.40
   0   5 -10    5.30    1.10
   0   5 -10    5.00    1.10
   0  -5  10    4.40    1.30
   0  -5  10    6.20    1.00
   0  -5  10    7.40    1.10
   0  -5  10    5.20    1.10
   0  -5  10    7.30    1.90
  -1   5 -10   11.80    1.90
  -1   5 -10   14.50    2.40
  -1   5 -10   12.30    1.80
   1  -5  10   13.00    2.00
   1  -5  10   13.40    1.70
   1  -5  10   14.80    1.70
  -2   5 -10    0.10    1.00
  -2   5 -10   -0.40    1.20
  -2   5 -10    0.90    0.90
   2  -5  10    0.40    1.10
   2  -5  10    2.30    0.80
   2  -5  10    0.10    1.10
   2  -5  10    1.50    0.90
  -3   5 -10    2.10    1.40
  -3   5 -10    1.70    1.00
  -3   5 -10    2.20    1.20
   3  -5  10    1.20    1.20
   3  -5  10    1.90    1.40
   3  -5  10    0.90    0.90
   3  -5  10    3.70    0.90
  -4   5 -10    2.90    1.50
  -4   5 -10    1.40    1.50
  -4   5 -10    2.40    1.10
   4  -5  10    0.30    0.80
   4  -5  10    1.60    0.90
   4  -5  10    0.90    1.50
  -5   5 -10   -1.70    1.20
   5  -5  10   -0.20    1.40
   5  -5  10   -0.60    0.80
   5  -5  10   -0.20    0.70
  -6   5 -10   -2.90    1.80
  -6   5 -10   -0.60    1.40
   6  -5  10    0.70    0.80
   6  -5  10    0.00    0.90
   6  -5  10   -1.70    1.40
   8   4 -10   -1.50    1.50
   8   4 -10    0.40    1.10
   8   4 -10    1.20    0.90
  -8  -4  10   -3.20    1.40
  -8  -4  10   -0.90    1.40
  -8  -4  10   -2.40    1.10
   7   4 -10    1.40    1.00
   7   4 -10    0.60    1.40
   7   4 -10    1.50    0.80
  -7  -4  10    2.70    1.50
  -7  -4  10    0.90    1.50
  -7  -4  10    0.50    1.30
   6   4 -10    0.80    0.70
   6   4 -10    0.80    1.10
   6   4 -10    1.10    0.90
  -6  -4  10   -1.60    1.10
  -6  -4  10   -0.20    1.00
  -6  -4  10    0.50    1.10
   5   4 -10    1.50    1.10
   5   4 -10    1.40    0.90
   5   4 -10    1.00    0.70
  -5  -4  10   -0.70    1.00
  -5  -4  10   -0.10    1.20
  -5  -4  10    0.60    1.30
   4   4 -10   -0.80    0.70
   4   4 -10    0.10    0.60
   4   4 -10   -0.20    0.60
  -4  -4  10   -0.70    0.90
  -4  -4  10   -0.90    1.10
   3   4 -10    3.60    0.80
   3   4 -10    4.40    0.90
   3   4 -10    3.90    0.90
  -3  -4  10    4.10    1.20
  -3  -4  10    3.80    1.10
   2   4 -10    3.70    0.80
   2   4 -10    5.00    1.00
  -2  -4  10    4.30    0.90
  -2  -4  10    4.50    0.90
  -2  -4  10    4.40    1.10
   1   4 -10    0.90    0.70
   1   4 -10    0.90    0.90
  -1  -4  10    0.50    0.70
  -1  -4  10    1.20    0.80
  -1  -4  10    0.70    0.90
  -1  -4  10   -0.50    0.80
  -1  -4  10   -0.80    0.90
   0   4 -10  130.29   10.50
   0   4 -10  145.59   10.70
   0   4 -10  123.19   10.60
   0  -4  10  134.69   10.60
   0  -4  10  137.19   10.50
   0  -4  10  150.38   10.60
   0  -4  10  137.49   10.50
  -1   4 -10   42.50    3.80
  -1   4 -10   48.60    4.00
  -1   4 -10   38.80    3.60
   1  -4  10   39.40    3.60
   1  -4  10   45.10    3.70
   1  -4  10   46.50    4.00
   1  -4  10   41.60    3.60
  -2   4 -10   45.30    3.80
  -2   4 -10   43.70    3.40
  -2   4 -10   40.90    3.60
   2  -4  10   30.30    3.50
   2  -4  10   35.30    3.30
   2  -4  10   37.90    3.40
   2  -4  10   41.60    3.70
  -3   4 -10   -2.30    1.20
  -3   4 -10   -0.60    1.00
  -3   4 -10   -1.70    0.70
   3  -4  10   -0.80    1.00
   3  -4  10   -1.10    0.60
   3  -4  10   -0.70    1.10
  -4   4 -10    5.10    1.50
  -4   4 -10    4.10    1.30
   4  -4  10    2.50    0.80
   4  -4  10    1.60    0.90
   4  -4  10    2.30    1.30
   4  -4  10    2.60    1.40
  -5   4 -10   -1.20    1.20
   5  -4  10   -1.00    0.70
   5  -4  10   -0.30    0.70
   5  -4  10   -0.60    1.30
  -6   4 -10   -2.20    1.50
  -6   4 -10   -1.00    1.50
  -6   4 -10   -0.80    0.60
   6  -4  10    0.00    0.80
   6  -4  10   -1.50    1.50
   6  -4  10   -0.10    0.80
   9   3 -10    2.00    1.20
   9   3 -10   -2.00    1.40
   9   3 -10    2.00    0.90
  -9  -3  10    0.00    1.50
  -9  -3  10   -2.60    1.90
   8   3 -10    1.90    0.90
   8   3 -10    1.50    1.10
   8   3 -10    0.50    1.30
  -8  -3  10    1.30    1.40
  -8  -3  10    0.80    1.50
  -8  -3  10   -0.80    1.10
   7   3 -10    2.10    0.90
   7   3 -10    1.20    1.00
   7   3 -10    1.40    1.30
  -7  -3  10    0.50    1.20
  -7  -3  10   -1.10    1.10
  -7  -3  10    0.90    1.40
   6   3 -10    0.30    0.70
   6   3 -10   -0.90    1.00
   6   3 -10   -0.70    0.90
  -6  -3  10   -1.20    1.00
  -6  -3  10   -2.10    1.20
   5   3 -10   63.59    5.40
   5   3 -10   69.59    5.60
   5   3 -10   53.39    5.30
  -5  -3  10   69.49    5.60
  -5  -3  10   73.29    5.80
   4   3 -10   18.10    2.10
   4   3 -10   14.80    2.00
   4   3 -10   19.60    2.10
   4   3 -10   18.70    2.40
  -4  -3  10   19.60    2.30
  -4  -3  10   21.20    2.30
  -4  -3  10   22.70    2.60
   3   3 -10   58.59    4.70
   3   3 -10   52.09    4.60
   3   3 -10   49.70    4.70
  -3  -3  10   68.59    4.80
   2   3 -10   57.59    5.00
   2   3 -10   52.79    4.90
  -2  -3  10   71.69    5.10
  -2  -3  10   52.39    5.10
  -2  -3  10   65.99    5.00
  -2  -3  10   66.99    5.00
   1   3 -10   40.00    3.70
   1   3 -10   46.40    3.90
   1   3 -10   41.10    3.70
  -1  -3  10   47.10    3.70
  -1  -3  10   52.29    3.80
  -1  -3  10   38.20    4.10
  -1  -3  10   47.80    3.70
   0   3 -10   42.80    3.60
   0   3 -10   50.79    3.90
   0   3 -10   40.40    3.70
   0  -3  10   45.10    3.70
   0  -3  10   41.50    3.60
   0  -3  10   36.50    4.00
   0  -3  10   43.20    3.70
   0  -3  10   48.70    3.70
  -1   3 -10   20.00    2.10
  -1   3 -10   20.90    2.20
  -1   3 -10   23.00    2.40
   1  -3  10   23.10    2.30
   1  -3  10   18.80    2.00
   1  -3  10   16.90    2.00
   1  -3  10   20.40    2.00
   1  -3  10   18.40    2.50
  -2   3 -10    3.40    1.30
  -2   3 -10    4.10    1.20
  -2   3 -10    4.40    0.90
   2  -3  10    3.50    0.80
   2  -3  10    5.10    1.30
   2  -3  10    3.50    0.90
   2  -3  10    4.20    0.90
   2  -3  10    3.30    1.30
  -3   3 -10    3.00    1.30
  -3   3 -10    2.30    1.10
   3  -3  10    1.90    1.20
   3  -3  10    3.80    0.90
   3  -3  10    1.10    0.80
   3  -3  10    1.40    0.70
   3  -3  10    2.60    1.20
  -4   3 -10    0.80    1.40
  -4   3 -10    1.90    1.20
   4  -3  10   -0.70    0.70
   4  -3  10    1.10    0.70
   4  -3  10    0.70    1.20
   4  -3  10    0.80    1.20
  -5   3 -10   24.80    2.90
  -5   3 -10   23.90    2.70
  -5   3 -10   17.40    2.00
   5  -3  10   17.60    2.00
   5  -3  10   21.60    2.70
   5  -3  10   15.30    2.10
  -6   3 -10    2.40    1.60
  -6   3 -10    2.30    1.40
  -6   3 -10    2.60    0.80
   6  -3  10    1.30    1.40
   6  -3  10    2.30    0.80
   6  -3  10    1.30    0.80
   9   2 -10    4.20    1.30
   9   2 -10    3.70    1.70
   9   2 -10    5.60    1.10
  -9  -2  10    5.10    1.70
  -9  -2  10    3.90    1.80
   8   2 -10    2.40    1.10
   8   2 -10    3.60    1.00
   8   2 -10    0.50    1.30
  -8  -2  10    1.60    1.50
  -8  -2  10    1.70    1.50
   7   2 -10    1.00    0.70
   7   2 -10   -0.10    0.90
   7   2 -10   -1.60    1.10
  -7  -2  10   -2.00    1.30
  -7  -2  10   -1.20    1.10
  -7  -2  10   -1.70    0.90
   6   2 -10    2.00    0.80
   6   2 -10    1.00    1.30
   6   2 -10    1.30    1.00
   6   2 -10    2.50    0.90
  -6  -2  10    2.20    1.00
  -6  -2  10    0.90    1.30
  -6  -2  10    2.80    1.40
   5   2 -10   20.20    2.40
   5   2 -10   24.70    2.60
   5   2 -10   28.20    3.10
  -5  -2  10   28.30    2.60
  -5  -2  10   25.00    2.90
  -5  -2  10   30.40    3.00
   4   2 -10   20.20    2.10
   4   2 -10   18.10    2.20
   4   2 -10   22.70    2.10
  -4  -2  10   21.10    2.30
   3   2 -10    2.40    0.70
   3   2 -10    2.50    0.80
   3   2 -10    3.00    0.70
  -3  -2  10    3.30    1.10
  -3  -2  10    2.80    0.80
  -3  -2  10    3.20    0.90
  -3  -2  10    3.60    0.90
   2   2 -10  138.79   11.60
   2   2 -10  135.79   11.50
   2   2 -10  135.79   11.50
  -2  -2  10  164.38   11.50
  -2  -2  10  158.68   11.90
  -2  -2  10  172.38   11.60
   1   2 -10   31.90    2.90
   1   2 -10   34.80    3.10
   1   2 -10   30.50    2.90
  -1  -2  10   33.80    3.40
  -1  -2  10   35.30    2.90
  -1  -2  10   36.20    3.00
  -1  -2  10   34.20    2.90
   0   2 -10   81.89    6.00
   0   2 -10   73.19    5.90
   0   2 -10   74.19    5.80
   0  -2  10   66.09    5.80
   0  -2  10   75.29    5.80
   0  -2  10   72.99    5.80
   0  -2  10   68.99    6.20
  -1   2 -10   34.60    3.10
  -1   2 -10   34.70    3.00
  -1   2 -10   34.50    2.70
   1  -2  10   28.20    2.70
   1  -2  10   30.80    3.30
   1  -2  10   26.30    2.70
   1  -2  10   28.40    2.80
  -2   2 -10   -0.70    1.10
  -2   2 -10    1.40    1.00
   2  -2  10    0.80    0.60
   2  -2  10    1.10    0.80
   2  -2  10    1.70    1.10
   2  -2  10    0.80    1.00
   2  -2  10   -0.10    0.60
  -3   2 -10   22.10    2.40
  -3   2 -10   18.70    1.90
   3  -2  10   17.20    2.70
   3  -2  10   24.90    2.50
   3  -2  10   19.40    1.90
   3  -2  10   18.50    2.10
   3  -2  10   15.10    1.90
  -4   2 -10    1.10    0.60
  -4   2 -10    1.20    1.30
  -4   2 -10    0.90    1.10
   4  -2  10    0.10    1.10
   4  -2  10    0.70    0.70
   4  -2  10    1.10    1.20
   4  -2  10    1.10    0.70
   4  -2  10    1.20    0.70
  -5   2 -10    3.30    1.40
  -5   2 -10    2.60    1.40
  -5   2 -10    3.30    0.80
   5  -2  10    2.70    0.90
   5  -2  10    2.50    1.40
   5  -2  10    3.80    0.90
   5  -2  10    3.70    1.00
  -6   2 -10   -2.40    1.50
  -6   2 -10   -0.90    1.30
  -6   2 -10    0.10    0.60
   6  -2  10    0.40    0.90
   6  -2  10    0.70    0.80
   9   1 -10   -0.60    1.50
   9   1 -10    1.20    1.00
   9   1 -10    0.90    0.90
  -9  -1  10   -2.10    1.50
  -9  -1  10   -2.00    1.30
   8   1 -10    0.60    0.80
   8   1 -10   -0.10    0.90
   8   1 -10   -1.70    1.20
  -8  -1  10   -1.60    1.20
  -8  -1  10   -2.90    1.30
   7   1 -10   41.90    4.00
   7   1 -10   32.10    3.40
   7   1 -10   37.70    3.50
  -7  -1  10   37.40    3.80
  -7  -1  10   40.50    4.00
   6   1 -10  133.19   12.60
   6   1 -10  175.98   12.90
  -6  -1  10  154.28   12.80
  -6  -1  10  179.38   12.60
  -6  -1  10  176.78   12.90
   5   1 -10   30.60    2.70
   5   1 -10   25.90    2.90
   5   1 -10   28.30    2.70
  -5  -1  10   31.90    3.00
   4   1 -10   44.00    3.80
   4   1 -10   39.40    4.00
   4   1 -10   49.00    3.90
  -4  -1  10   52.29    4.10
   3   1 -10   -0.60    0.50
   3   1 -10   -1.30    0.60
  -3  -1  10    0.70    0.70
  -3  -1  10    0.30    0.70
  -3  -1  10   -0.50    0.90
  -3  -1  10   -0.40    0.90
   2   1 -10  118.59    9.90
   2   1 -10  127.29    9.90
   2   1 -10  123.39   10.00
  -2  -1  10  130.79    9.80
  -2  -1  10  143.99    9.90
   1   1 -10  121.79    9.20
   1   1 -10  119.29    9.40
   1   1 -10  110.59    9.30
  -1  -1  10  115.69    9.20
  -1  -1  10  125.19    9.20
  -1  -1  10  128.09    9.30
   0   1 -10   -1.10    0.50
   0   1 -10   -0.20    0.40
   0   1 -10    0.30    0.70
   0   1 -10   -1.10    0.70
   0  -1  10   -0.80    0.70
   0  -1  10    0.00    0.90
   0  -1  10   -1.00    0.50
   0  -1  10   -1.20    0.60
  -1   1 -10   -0.30    0.80
  -1   1 -10   -1.00    0.90
  -1   1 -10    0.20    0.50
   1  -1  10   -0.50    1.00
   1  -1  10    0.00    0.70
   1  -1  10    0.60    0.60
   1  -1  10    0.80    0.70
  -2   1 -10   17.80    1.90
  -2   1 -10   26.20    2.50
  -2   1 -10   22.10    2.40
   2  -1  10   17.10    2.00
   2  -1  10   18.80    2.10
   2  -1  10   20.70    2.80
   2  -1  10   21.40    2.00
  -3   1 -10   45.80    3.70
   3  -1  10   39.90    3.90
   3  -1  10   48.50    3.70
   3  -1  10   40.40    3.80
   3  -1  10   50.89    4.60
  -4   1 -10    0.30    1.10
  -4   1 -10    0.20    1.00
  -4   1 -10    1.40    0.60
   4  -1  10   -0.30    1.00
   4  -1  10    0.50    0.60
   4  -1  10    1.40    0.80
   4  -1  10    0.90    0.70
  -5   1 -10    4.70    0.90
  -5   1 -10    7.00    1.60
  -5   1 -10    8.00    1.60
   5  -1  10    5.20    1.10
   5  -1  10    5.40    1.20
   5  -1  10    9.90    1.30
  -6   1 -10    1.40    0.70
  -6   1 -10    2.50    1.30
   6  -1  10    2.60    0.80
   6  -1  10    3.50    1.10
   6  -1  10    1.20    0.90
   9   0 -10   -1.20    1.40
   9   0 -10    0.80    0.90
   9   0 -10    0.90    1.00
  -9   0  10   -1.80    1.30
  -9   0  10   -1.80    1.50
  -9   0  10    1.30    1.10
   8   0 -10    0.80    1.00
   8   0 -10    1.20    0.80
   8   0 -10    0.90    0.90
  -8   0  10   -1.00    1.40
  -8   0  10   -2.30    1.30
  -8   0  10    1.10    1.10
   7   0 -10   10.60    1.80
   7   0 -10   15.30    1.90
  -7   0  10   17.00    2.40
  -7   0  10   14.80    2.00
  -7   0  10   15.20    2.50
   6   0 -10   10.40    1.70
  -6   0  10   15.00    2.20
  -6   0  10   13.10    2.00
  -6   0  10   12.70    1.70
   5   0 -10   14.80    1.80
   5   0 -10   12.10    1.90
   5   0 -10   13.90    1.70
  -5   0  10   20.70    2.30
  -5   0  10   17.10    1.80
  -5   0  10   20.00    1.90
  -5   0  10   17.60    2.10
   4   0 -10   47.80    4.50
   4   0 -10   55.29    4.30
   4   0 -10   50.79    4.30
  -4   0  10   55.09    4.20
   3   0 -10    9.10    1.60
  -3   0  10    9.50    1.30
  -3   0  10   10.50    1.60
  -3   0  10    8.60    1.30
  -3   0  10   13.50    2.20
   2   0 -10   74.19    6.60
   2   0 -10   75.69    6.80
   2   0 -10   77.29    6.60
  -2   0  10   97.59    6.60
  -2   0  10   86.19    6.60
  -2   0  10   99.09    6.70
   1   0 -10    6.10    1.10
   1   0 -10    8.40    0.90
   1   0 -10    7.80    1.30
   1   0 -10    5.30    0.80
  -1   0  10    7.50    1.10
  -1   0  10    7.00    0.90
  -1   0  10    7.30    0.90
  -1   0  10    6.50    0.90
   0   0 -10   35.50    3.00
   0   0 -10   35.10    3.20
   0   0 -10   32.90    2.80
   0   0  10   30.10    2.90
   0   0  10   33.70    3.00
   0   0  10   33.50    2.80
  -1   0 -10    0.50    1.00
  -1   0 -10   -0.10    0.50
  -1   0 -10    0.40    0.90
   1   0  10    1.20    0.70
   1   0  10    0.30    0.70
   1   0  10   -0.10    1.10
   1   0  10    0.50    0.60
  -2   0 -10    0.10    1.00
  -2   0 -10   -0.10    0.50
  -2   0 -10    0.10    0.90
   2   0  10    0.30    0.60
   2   0  10   -1.40    1.10
   2   0  10   -0.50    0.70
   2   0  10    0.80    0.60
  -3   0 -10   29.10    2.70
  -3   0 -10   23.90    2.20
   3   0  10   19.10    2.20
   3   0  10   19.40    2.40
   3   0  10   25.30    3.10
   3   0  10   24.80    2.20
  -4   0 -10   -0.40    1.10
  -4   0 -10    0.20    0.50
  -4   0 -10    0.00    1.10
   4   0  10    0.40    0.70
   4   0  10    0.90    0.80
   4   0  10    0.30    0.60
  -5   0 -10    1.30    1.20
  -5   0 -10    1.20    0.70
   5   0  10    2.00    0.80
   5   0  10    2.20    0.90
   5   0  10    1.20    0.80
  -6   0 -10    0.70    0.70
  -6   0 -10    2.30    1.40
   6   0  10    1.00    0.80
   6   0  10    1.80    1.00
   6   0  10    0.60    0.90
   9  -1 -10    0.90    0.90
   9  -1 -10    1.00    1.70
   9  -1 -10    1.60    1.00
  -9   1  10   -2.60    1.50
  -9   1  10   -1.10    1.40
  -9   1  10    1.80    1.10
   8  -1 -10   19.70    3.00
   8  -1 -10   25.40    2.70
   8  -1 -10   20.40    2.60
  -8   1  10   22.90    2.60
  -8   1  10   22.70    3.00
  -8   1  10   27.30    3.00
   7  -1 -10    1.50    1.00
   7  -1 -10    0.10    0.70
   7  -1 -10    0.80    0.80
  -7   1  10    1.20    1.20
  -7   1  10    0.60    0.80
  -7   1  10    0.00    1.20
   6  -1 -10    1.10    0.70
   6  -1 -10    1.40    0.90
   6  -1 -10    0.00    0.80
  -6   1  10    2.10    1.00
  -6   1  10    1.90    1.20
  -6   1  10    1.10    0.80
   5  -1 -10   -1.50    0.70
   5  -1 -10   -0.50    0.50
   5  -1 -10   -0.60    0.50
  -5   1  10    0.20    0.50
  -5   1  10   -1.70    1.20
  -5   1  10   -1.10    0.80
  -5   1  10   -1.50    1.00
   4  -1 -10   30.40    2.40
   4  -1 -10   25.70    2.50
   4  -1 -10   23.40    2.80
  -4   1  10   29.60    2.40
   3  -1 -10   -0.20    0.60
   3  -1 -10   -0.10    0.70
   3  -1 -10    0.70    0.60
  -3   1  10    2.70    1.50
  -3   1  10    2.70    0.70
  -3   1  10    2.30    0.80
  -3   1  10    1.10    0.70
   2  -1 -10   36.20    3.10
   2  -1 -10   36.60    3.30
   2  -1 -10   33.30    3.40
  -2   1  10   45.90    3.30
   1  -1 -10    1.50    0.70
   1  -1 -10    0.90    0.40
   1  -1 -10   -0.70    0.80
  -1   1  10    0.30    0.70
  -1   1  10    0.40    0.70
  -1   1  10    1.80    1.40
  -1   1  10    0.40    0.60
  -1   1  10    0.80    0.40
   0  -1 -10  124.79    9.80
   0  -1 -10  139.69   10.10
   0  -1 -10  133.79   10.00
   0   1  10  131.59   10.00
   0   1  10  120.79    9.90
   0   1  10  116.69    9.90
   0   1  10  132.29    9.80
  -1  -1 -10  168.28   11.30
  -1  -1 -10  144.99   11.00
   1   1  10  131.89   11.10
   1   1  10  146.29   11.00
   1   1  10  129.39   11.10
  -2  -1 -10    2.40    0.60
  -2  -1 -10    2.60    1.20
  -2  -1 -10    3.70    1.10
   2   1  10    2.00    0.90
   2   1  10    2.30    0.70
   2   1  10    2.50    0.80
   2   1  10    2.80    1.40
  -3  -1 -10    3.40    1.10
  -3  -1 -10    1.40    0.60
  -3  -1 -10    3.50    1.00
   3   1  10    1.60    0.90
   3   1  10    2.20    1.30
   3   1  10    2.10    0.70
   3   1  10    1.60    0.80
  -4  -1 -10    5.10    0.90
  -4  -1 -10    9.60    1.60
   4   1  10    5.80    1.20
   4   1  10    6.20    1.00
   4   1  10    4.90    1.10
  -5  -1 -10    1.50    0.70
  -5  -1 -10    1.50    1.20
   5   1  10    0.70    0.80
   5   1  10    1.60    1.00
   5   1  10    1.80    0.80
   9  -2 -10    1.90    1.40
   9  -2 -10    3.80    1.20
   9  -2 -10    3.60    1.10
  -9   2  10    1.10    1.60
  -9   2  10    3.80    1.50
  -9   2  10    4.40    1.20
   8  -2 -10    2.90    1.00
   8  -2 -10    1.50    0.90
   8  -2 -10    2.50    1.40
  -8   2  10    2.10    1.00
  -8   2  10    2.20    1.20
  -8   2  10    0.80    1.40
   7  -2 -10   26.90    2.70
   7  -2 -10   23.20    2.60
   7  -2 -10   25.20    3.10
  -7   2  10   27.00    2.70
   6  -2 -10   -0.40    0.80
   6  -2 -10   -0.30    0.60
   6  -2 -10   -1.10    0.60
  -6   2  10   -0.90    0.60
  -6   2  10   -0.20    1.50
  -6   2  10   -0.40    0.90
  -6   2  10   -0.90    1.20
   5  -2 -10    0.80    0.50
   5  -2 -10    0.60    0.60
   5  -2 -10   -0.40    0.90
  -5   2  10    1.80    1.70
  -5   2  10    1.80    0.90
  -5   2  10    1.50    1.00
  -5   2  10    0.50    0.50
   4  -2 -10   20.10    2.30
   4  -2 -10   20.30    1.90
   4  -2 -10   17.90    2.00
   3  -2 -10   20.00    1.80
   3  -2 -10   17.70    2.00
   3  -2 -10   16.20    2.10
   2  -2 -10   -1.20    0.50
  -2   2  10   -1.90    1.50
  -2   2  10   -1.00    0.60
   1  -2 -10   -1.20    0.60
  -1   2  10   -0.60    0.50
  -1   2  10   -1.30    0.70
  -1   2  10    0.10    0.70
  -1   2  10   -2.30    1.40
  -1   2  10   -0.60    0.50
   0  -2 -10    1.80    0.90
   0  -2 -10    0.80    0.60
   0  -2 -10    0.70    0.90
   0   2  10    1.40    0.60
   0   2  10    2.40    0.80
   0   2  10    1.40    0.70
   0   2  10    2.10    0.70
   0   2  10    3.90    1.70
  -1  -2 -10   78.29    5.80
  -1  -2 -10   75.79    5.80
  -1  -2 -10   65.19    5.50
   1   2  10   70.19    5.50
   1   2  10   59.89    5.50
   1   2  10   66.89    5.60
  -2  -2 -10    2.10    0.90
  -2  -2 -10    2.00    0.80
  -2  -2 -10    0.90    0.60
   2   2  10    1.40    0.70
   2   2  10    1.10    0.80
   2   2  10    0.10    0.80
   2   2  10    2.00    1.40
  -3  -2 -10   -0.10    0.90
  -3  -2 -10    0.50    0.60
   3   2  10   -0.40    0.70
   3   2  10    0.10    1.40
   3   2  10    0.70    0.70
   3   2  10   -0.40    0.80
  -4  -2 -10   -0.30    0.60
  -4  -2 -10   -0.70    1.10
   4   2  10    0.80    0.90
   4   2  10    0.70    0.70
   4   2  10   -0.10    0.70
  -5  -2 -10    1.40    1.00
  -5  -2 -10    1.30    1.20
  -5  -2 -10    1.40    0.70
   5   2  10    1.30    1.00
   5   2  10    1.30    0.80
   5   2  10    1.80    0.90
   9  -3 -10   -0.20    0.90
   9  -3 -10    0.30    1.50
   9  -3 -10   -0.30    0.90
  -9   3  10   -3.20    1.40
  -9   3  10    0.60    1.00
  -9   3  10    0.50    1.30
   8  -3 -10   -0.30    0.80
   8  -3 -10    0.50    1.20
   8  -3 -10   -0.30    0.90
  -8   3  10   -0.70    0.90
  -8   3  10   -0.40    1.20
  -8   3  10   -2.00    1.20
   7  -3 -10   -0.70    0.70
   7  -3 -10   -0.20    1.00
   7  -3 -10    0.80    0.80
  -7   3  10    0.20    1.90
  -7   3  10   -1.30    1.10
  -7   3  10   -1.10    1.00
   6  -3 -10    0.60    0.70
   6  -3 -10    1.30    0.70
   6  -3 -10    1.10    1.10
  -6   3  10    2.80    1.90
  -6   3  10    2.00    1.20
  -6   3  10    0.60    0.70
  -6   3  10    1.10    0.90
   5  -3 -10    7.20    1.50
   5  -3 -10    7.50    1.30
   5  -3 -10    8.00    1.30
   5  -3 -10   10.80    1.20
  -5   3  10   11.30    1.20
   4  -3 -10    8.90    1.50
  -4   3  10   13.90    1.60
   3  -3 -10   10.90    1.80
   3  -3 -10   11.60    1.60
  -3   3  10   15.50    1.70
   2  -3 -10    2.50    1.00
   2  -3 -10    3.30    1.00
  -2   3  10    7.80    2.20
  -2   3  10    4.40    0.90
   1  -3 -10   10.20    1.60
   1  -3 -10    9.40    1.80
  -1   3  10   12.80    1.70
  -1   3  10   16.10    1.70
  -1   3  10   14.60    1.70
   0  -3 -10   46.10    3.80
   0  -3 -10   49.50    4.20
   0  -3 -10   48.50    4.20
   0   3  10   45.80    4.10
   0   3  10   51.29    4.10
   0   3  10   42.50    4.00
  -1  -3 -10    1.50    0.90
  -1  -3 -10   -0.10    0.50
  -1  -3 -10    1.20    0.80
   1   3  10   -0.30    0.70
   1   3  10   -0.20    0.60
   1   3  10   -1.70    0.70
   1   3  10    0.00    1.40
  -2  -3 -10    0.00    1.00
  -2  -3 -10    0.00    0.50
   2   3  10   -0.20    0.60
   2   3  10   -1.70    1.20
   2   3  10   -0.90    0.80
   2   3  10    0.70    0.70
  -3  -3 -10    6.60    1.30
  -3  -3 -10    5.00    1.10
  -3  -3 -10    5.40    0.90
   3   3  10    4.60    1.20
   3   3  10    4.70    1.00
  -4  -3 -10   -0.70    0.70
  -4  -3 -10   -0.60    0.70
  -4  -3 -10    0.20    1.00
   4   3  10    1.10    0.90
   4   3  10    0.20    0.70
   9  -4 -10   -0.40    1.30
   9  -4 -10    0.30    1.00
   9  -4 -10   -0.40    0.90
  -9   4  10    0.00    1.00
  -9   4  10   -0.60    1.30
   8  -4 -10   -0.40    0.90
   8  -4 -10   -0.40    1.20
   8  -4 -10   -1.20    0.80
  -8   4  10   -1.10    0.90
  -8   4  10   -0.60    1.10
  -8   4  10   -2.10    1.20
   7  -4 -10   12.10    1.80
   7  -4 -10   12.00    1.70
   7  -4 -10    8.80    1.90
  -7   4  10   15.40    2.20
  -7   4  10   15.30    2.10
  -7   4  10   10.50    1.70
   6  -4 -10    6.30    1.00
   6  -4 -10    5.20    1.00
   6  -4 -10    5.10    1.50
  -6   4  10    5.80    1.00
  -6   4  10    7.30    1.20
   5  -4 -10   26.90    2.60
   5  -4 -10   26.00    3.00
   5  -4 -10   25.10    2.70
  -5   4  10   29.30    2.40
   4  -4 -10   -0.20    0.70
   4  -4 -10   -0.30    0.80
  -4   4  10   -0.30    0.80
  -4   4  10   -0.50    0.80
  -4   4  10   -0.50    1.90
   3  -4 -10    1.30    0.90
   3  -4 -10    0.30    0.80
  -3   4  10    1.90    0.80
  -3   4  10    3.30    2.00
  -3   4  10    1.30    0.80
   2  -4 -10    3.20    1.10
   2  -4 -10    3.10    1.10
  -2   4  10    5.60    1.10
  -2   4  10    6.40    1.10
  -2   4  10    9.90    2.40
   1  -4 -10   13.00    1.80
   1  -4 -10   12.70    1.90
  -1   4  10   11.90    1.80
  -1   4  10   14.20    1.70
   0  -4 -10    1.90    0.90
   0  -4 -10    1.00    0.60
   0  -4 -10    3.00    0.80
   0   4  10    5.00    1.90
   0   4  10    0.70    0.90
   0   4  10    1.10    0.80
  -1  -4 -10   10.10    1.40
  -1  -4 -10   14.30    1.90
   1   4  10   10.20    1.50
   1   4  10   11.90    1.70
   1   4  10    7.40    1.50
  -2  -4 -10    0.20    0.80
  -2  -4 -10    0.00    0.50
  -2  -4 -10    0.10    0.90
   2   4  10   -0.70    0.80
   2   4  10    0.80    0.70
   2   4  10    1.30    0.70
  -3  -4 -10    1.00    0.80
  -3  -4 -10    3.80    1.10
  -3  -4 -10    1.50    0.70
   3   4  10    3.20    0.80
   3   4  10    2.50    1.00
   3   4  10    2.50    0.90
   9  -5 -10   -0.10    1.00
   9  -5 -10    0.60    1.00
  -9   5  10   -1.10    1.50
   8  -5 -10    2.30    1.50
   8  -5 -10    0.90    1.00
   8  -5 -10    2.00    0.90
  -8   5  10    1.90    1.00
  -8   5  10    1.70    1.20
   7  -5 -10    0.90    0.90
   7  -5 -10    2.30    1.40
   7  -5 -10    1.70    0.90
  -7   5  10   -0.10    0.80
  -7   5  10    1.00    1.00
   6  -5 -10    2.80    1.30
   6  -5 -10    3.00    1.00
   6  -5 -10    2.70    0.90
  -6   5  10    3.60    0.90
  -6   5  10    6.40    1.20
  -6   5  10    4.50    1.10
   5  -5 -10    7.00    1.50
   5  -5 -10    6.90    1.60
  -5   5  10    8.30    1.30
  -5   5  10   10.30    1.60
   4  -5 -10    0.40    0.90
   4  -5 -10    0.20    0.80
  -4   5  10   -1.40    2.40
  -4   5  10   -0.60    0.80
  -4   5  10   -1.50    0.80
   3  -5 -10    5.50    1.30
   3  -5 -10    5.80    1.30
  -3   5  10    7.30    1.20
  -3   5  10   11.60    3.10
  -3   5  10    9.30    1.40
   2  -5 -10   -0.50    0.90
   2  -5 -10    0.10    0.70
  -2   5  10   -0.90    0.90
  -2   5  10    0.80    0.80
   1  -5 -10    0.50    0.80
   1  -5 -10    1.00    0.70
  -1   5  10   -1.10    0.70
   0  -5 -10   19.00    2.20
   0  -5 -10   17.30    1.80
   0   5  10   14.10    2.00
   0   5  10   15.90    2.10
  -1  -5 -10    9.20    1.30
  -1  -5 -10   10.60    1.90
   1   5  10    6.40    1.40
  -2  -5 -10    2.90    1.20
  -2  -5 -10    2.50    0.80
   2   5  10    2.10    1.20
   2   5  10    3.00    1.10
   2   5  10    4.20    1.00
  -3  -5 -10    2.90    1.20
  -3  -5 -10    1.40    0.90
  -3  -5 -10    1.20    0.80
   3   5  10    4.10    1.40
   8  -6 -10    3.80    1.70
   8  -6 -10    3.20    1.10
  -8   6  10    4.70    1.10
  -8   6  10    4.70    1.40
   7  -6 -10    6.40    1.70
   7  -6 -10    5.60    1.10
  -7   6  10    7.80    1.30
   6  -6 -10    2.10    1.30
   6  -6 -10    2.70    1.10
  -6   6  10    2.20    1.10
   5  -6 -10    0.40    1.00
   5  -6 -10    0.30    1.00
  -5   6  10    0.20    1.00
   4  -6 -10    8.60    1.70
   4  -6 -10   12.10    2.30
  -4   6  10   16.40    1.80
  -4   6  10   12.60    1.90
   3  -6 -10    2.70    1.10
   3  -6 -10    2.70    1.10
  -3   6  10    4.20    1.00
  -3   6  10    1.00    1.00
   2  -6 -10    0.70    0.80
   2  -6 -10    0.70    0.90
  -2   6  10    0.30    0.70
  -2   6  10   -1.60    0.90
   1  -6 -10    5.00    1.20
  -1   6  10    3.60    1.00
  -1   6  10    3.00    1.10
   0  -6 -10    2.60    1.10
   0   6  10    3.90    1.10
   0   6  10    2.30    1.00
  -1  -6 -10    0.40    0.60
  -1  -6 -10    0.60    1.00
   1   6  10    2.70    0.90
   1   6  10    0.40    0.90
   7  -7 -10    2.80    1.30
   7  -7 -10    2.70    1.70
  -7   7  10    0.00    1.00
  -7   7  10    1.50    1.50
   6  -7 -10    1.60    1.30
   6  -7 -10    0.80    1.20
  -6   7  10   -0.40    1.00
   5  -7 -10   -0.50    0.90
   5  -7 -10    1.00    1.10
  -5   7  10   -1.00    1.00
   4  -7 -10    0.30    0.90
   4  -7 -10    1.60    1.20
  -4   7  10   -0.70    1.00
   3  -7 -10    1.20    1.10
   3  -7 -10    1.40    1.00
  -3   7  10   -1.70    1.10
   2  -7 -10    3.20    1.20
  -2   7  10    1.30    1.10
   1  -7 -10   14.20    2.30
  -1   7  10   14.30    2.10
  -1   7  10   16.50    2.10
   0  -7 -10    1.00    1.10
   0   7  10    1.40    0.90
   0   7  10    2.50    1.00
   2   9 -11   -0.80    1.00
  -2  -9  11   -2.00    1.50
  -2  -9  11   -1.60    1.40
   1   9 -11    0.40    1.20
  -1  -9  11    0.70    1.60
  -1  -9  11    0.00    1.20
   0   9 -11   16.90    2.50
   0  -9  11   18.00    2.50
   0  -9  11   15.20    2.30
  -1   9 -11   -1.30    1.40
  -1   9 -11    0.20    1.20
   1  -9  11    0.60    1.30
   1  -9  11   -0.40    1.40
  -2   9 -11   -2.20    1.50
  -2   9 -11    0.70    1.30
   2  -9  11    0.10    1.20
   2  -9  11    2.90    1.40
  -3   9 -11   -1.10    1.30
  -3   9 -11   -1.30    1.40
   3  -9  11   -3.20    1.70
   3  -9  11   -1.30    1.00
   3  -9  11    0.90    1.60
   4   8 -11    3.10    1.10
   4   8 -11    4.50    1.20
  -4  -8  11    2.10    1.60
   3   8 -11    1.30    1.00
   3   8 -11    0.90    1.10
  -3  -8  11   -2.10    1.30
   2   8 -11    0.20    1.00
  -2  -8  11   -0.50    1.30
  -2  -8  11   -0.50    1.20
   1   8 -11    0.20    1.10
  -1  -8  11    0.80    1.10
  -1  -8  11    1.90    1.50
   0   8 -11   -0.30    1.00
   0   8 -11   -1.00    1.20
   0  -8  11   -0.90    1.20
   0  -8  11   -0.60    1.10
  -1   8 -11    0.00    1.40
  -1   8 -11    0.50    1.10
   1  -8  11    0.80    1.30
   1  -8  11    0.70    1.20
  -2   8 -11    3.20    2.30
  -2   8 -11    4.20    1.30
  -2   8 -11    1.40    1.70
   2  -8  11    5.10    1.40
   2  -8  11    1.80    1.60
   2  -8  11    3.00    1.20
  -3   8 -11    4.20    1.40
  -3   8 -11    2.40    1.90
  -3   8 -11    4.60    1.70
   3  -8  11    4.60    1.20
   3  -8  11    3.10    2.00
   3  -8  11    4.60    1.40
  -4   8 -11    4.50    1.60
  -4   8 -11    8.00    1.80
  -4   8 -11    5.90    2.20
   4  -8  11    4.10    2.00
   4  -8  11    7.00    1.30
   4  -8  11    6.10    1.60
   5   7 -11    2.00    1.10
   5   7 -11    2.30    0.90
  -5  -7  11   -0.80    1.40
   4   7 -11   -0.30    1.00
   4   7 -11   -1.10    0.80
   3   7 -11    3.10    1.00
   3   7 -11    2.30    1.00
  -3  -7  11    0.30    1.40
   2   7 -11   26.30    2.90
  -2  -7  11   30.40    3.10
  -2  -7  11   34.00    3.30
   1   7 -11   10.10    1.70
   1   7 -11   11.70    1.90
  -1  -7  11   16.10    1.90
  -1  -7  11   16.70    2.20
   0   7 -11   -1.50    0.90
   0  -7  11   -1.00    1.00
   0  -7  11    0.00    1.00
  -1   7 -11    0.60    1.00
  -1   7 -11   -0.60    1.30
   1  -7  11    0.40    1.10
   1  -7  11    1.60    1.10
  -2   7 -11    4.10    1.50
  -2   7 -11    4.30    1.60
  -2   7 -11    4.10    1.20
  -2   7 -11    2.60    1.70
   2  -7  11    3.00    1.70
   2  -7  11    2.10    1.60
   2  -7  11    4.90    1.20
   2  -7  11    5.70    1.30
  -3   7 -11    3.10    1.80
  -3   7 -11    2.30    1.60
  -3   7 -11    0.90    1.20
   3  -7  11    1.90    1.80
   3  -7  11    2.70    1.20
   3  -7  11    3.80    1.20
  -4   7 -11    0.80    1.80
  -4   7 -11   -0.30    1.20
  -4   7 -11    2.30    1.50
   4  -7  11   -0.70    1.70
   4  -7  11    2.30    1.00
   4  -7  11    2.80    1.20
  -5   7 -11   -0.90    2.00
  -5   7 -11   -1.40    1.40
  -5   7 -11   -0.20    1.60
   5  -7  11   -0.10    0.90
   5  -7  11   -0.30    1.10
   5  -7  11   -0.50    1.80
   6   6 -11    0.90    0.80
   6   6 -11   -0.50    1.00
  -6  -6  11   -1.80    1.40
  -6  -6  11   -2.50    1.30
   5   6 -11    1.30    0.90
   5   6 -11    2.60    1.00
  -5  -6  11    0.60    1.40
  -5  -6  11   -0.20    1.30
   4   6 -11    8.60    1.30
   4   6 -11   11.30    1.90
  -4  -6  11    9.40    1.80
  -4  -6  11    7.20    1.80
   3   6 -11    3.40    1.10
  -3  -6  11    3.80    1.50
  -3  -6  11    3.70    1.30
   2   6 -11    0.20    0.90
   2   6 -11   -1.10    0.80
  -2  -6  11    0.50    1.10
  -2  -6  11   -0.60    1.10
   1   6 -11   -0.70    0.90
   1   6 -11   -0.30    1.00
  -1  -6  11    1.20    1.10
  -1  -6  11    1.80    0.90
   0   6 -11    7.30    1.20
   0   6 -11    5.90    1.60
   0  -6  11    9.30    1.30
   0  -6  11    6.60    1.30
  -1   6 -11   -0.10    1.10
  -1   6 -11   -0.80    1.00
  -1   6 -11   -1.50    1.20
  -1   6 -11    0.20    1.00
   1  -6  11   -0.10    0.90
   1  -6  11   -0.80    1.10
   1  -6  11    0.20    1.00
   1  -6  11    0.70    0.90
  -2   6 -11    6.20    1.50
  -2   6 -11    3.30    1.70
  -2   6 -11    6.60    1.70
  -2   6 -11    7.00    1.30
   2  -6  11    3.80    1.70
   2  -6  11    7.10    1.20
   2  -6  11    8.40    1.70
   2  -6  11    8.20    1.30
  -3   6 -11   -0.10    1.20
  -3   6 -11   -0.50    1.10
  -3   6 -11   -0.40    1.50
   3  -6  11   -0.20    0.90
   3  -6  11   -0.60    1.40
   3  -6  11    1.40    0.80
  -4   6 -11    0.90    1.60
  -4   6 -11    0.50    1.70
  -4   6 -11   -0.80    1.20
   4  -6  11   -1.20    1.70
   4  -6  11    0.30    0.80
   4  -6  11    1.90    1.00
  -5   6 -11    1.60    1.60
  -5   6 -11   -1.70    1.80
   5  -6  11    0.90    1.00
   5  -6  11   -0.50    1.60
   5  -6  11    1.90    1.00
   7   5 -11    4.80    1.40
   7   5 -11    4.90    1.10
  -7  -5  11    3.30    1.80
  -7  -5  11    1.30    1.50
   6   5 -11    1.00    1.00
   6   5 -11    0.80    0.80
  -6  -5  11   -1.90    1.20
  -6  -5  11   -1.30    1.40
   5   5 -11    0.60    0.80
   5   5 -11    0.20    0.90
  -5  -5  11   -1.10    1.20
  -5  -5  11   -1.70    1.30
   4   5 -11    0.60    0.80
   4   5 -11    1.20    0.80
  -4  -5  11   -0.20    1.20
  -4  -5  11   -0.10    1.10
   3   5 -11   -0.60    0.70
   3   5 -11   -0.80    0.70
  -3  -5  11   -1.20    1.10
  -3  -5  11    0.30    1.10
   2   5 -11   16.60    2.00
   2   5 -11   18.10    2.10
   1   5 -11    5.50    1.10
   1   5 -11    6.70    1.30
  -1  -5  11    6.60    1.10
  -1  -5  11    7.00    1.30
  -1  -5  11    8.20    1.30
   0   5 -11   35.80    3.80
   0   5 -11   38.90    3.80
   0   5 -11   33.50    3.60
   0  -5  11   45.40    3.50
   0  -5  11   40.10    3.70
   0  -5  11   43.50    3.50
  -1   5 -11   14.10    2.00
  -1   5 -11   12.60    2.00
  -1   5 -11   13.40    2.40
   1  -5  11   15.60    2.10
   1  -5  11   17.00    1.90
   1  -5  11   13.80    1.80
  -2   5 -11   19.20    2.60
  -2   5 -11   12.80    2.30
  -2   5 -11   17.40    2.00
   2  -5  11   16.40    1.90
   2  -5  11   14.70    2.40
   2  -5  11   17.70    2.00
  -3   5 -11    0.00    1.20
  -3   5 -11   -0.30    1.40
  -3   5 -11    0.30    1.00
   3  -5  11   -0.60    0.90
   3  -5  11   -0.70    1.30
   3  -5  11    1.10    0.80
  -4   5 -11    5.80    1.90
  -4   5 -11    6.00    1.60
   4  -5  11    3.90    1.10
   4  -5  11    6.50    1.80
   4  -5  11    5.50    1.20
  -5   5 -11    0.70    1.70
  -5   5 -11    1.70    1.60
   5  -5  11    2.20    1.00
   5  -5  11    1.00    1.60
   5  -5  11    0.90    0.90
  -6   5 -11   -2.50    2.60
   6  -5  11   -1.80    2.60
   8   4 -11   -0.50    1.60
   8   4 -11    2.20    1.10
   8   4 -11    3.10    1.00
  -8  -4  11    0.40    1.60
  -8  -4  11   -0.60    1.50
  -8  -4  11   -2.00    1.70
   7   4 -11    0.30    1.00
   7   4 -11   -1.80    1.10
   7   4 -11    0.50    0.80
  -7  -4  11   -2.50    1.20
  -7  -4  11   -1.50    1.50
  -7  -4  11    0.30    1.30
   6   4 -11    5.70    1.20
   6   4 -11    5.30    1.10
  -6  -4  11    5.00    1.40
  -6  -4  11    3.00    1.60
   5   4 -11    1.30    0.90
   5   4 -11    0.30    0.70
  -5  -4  11   -1.70    1.20
  -5  -4  11   -1.70    1.00
   4   4 -11   16.80    1.90
   4   4 -11   18.00    2.00
   4   4 -11   15.20    2.00
   3   4 -11   11.00    1.70
   3   4 -11   11.40    1.70
   2   4 -11    4.50    1.10
   2   4 -11    3.40    0.90
  -2  -4  11    5.10    1.20
  -2  -4  11    6.00    1.10
   1   4 -11   -1.20    0.70
   1   4 -11   -0.10    0.90
  -1  -4  11   -0.90    0.70
  -1  -4  11    1.00    0.90
  -1  -4  11    0.00    1.00
  -1  -4  11   -0.20    0.80
   0   4 -11   40.60    3.80
   0   4 -11   40.60    3.80
   0   4 -11   44.30    4.00
   0  -4  11   49.90    3.90
   0  -4  11   40.80    3.80
   0  -4  11   42.60    3.70
   0  -4  11   50.19    3.80
  -1   4 -11   14.80    1.80
  -1   4 -11   11.80    2.10
  -1   4 -11    9.80    1.80
   1  -4  11    8.60    1.90
   1  -4  11   13.50    1.60
   1  -4  11   11.90    1.60
   1  -4  11   10.90    1.80
   1  -4  11   15.30    1.60
  -2   4 -11   35.00    2.90
  -2   4 -11   28.60    3.10
  -2   4 -11   36.20    3.60
   2  -4  11   25.10    2.70
   2  -4  11   29.90    2.80
   2  -4  11   29.00    3.20
  -3   4 -11   -0.80    1.10
  -3   4 -11   -1.90    1.30
   3  -4  11   -0.30    0.70
   3  -4  11   -0.10    1.10
   3  -4  11   -0.90    1.20
   3  -4  11   -0.30    0.80
  -4   4 -11    8.90    1.90
  -4   4 -11    9.20    1.80
   4  -4  11    7.10    1.20
   4  -4  11    9.20    1.80
   4  -4  11    6.00    1.20
  -5   4 -11    0.10    1.60
  -5   4 -11    1.20    0.80
  -5   4 -11    2.60    1.50
   5  -4  11    1.30    1.50
   5  -4  11    2.60    1.00
   5  -4  11    0.20    0.80
  -6   4 -11    0.80    1.70
  -6   4 -11    1.10    0.80
  -6   4 -11   -0.10    1.70
   6  -4  11    2.70    0.90
   6  -4  11    1.40    0.90
   6  -4  11    1.10    1.70
   8   3 -11    3.50    1.30
   8   3 -11    0.80    1.40
   8   3 -11    3.10    1.00
  -8  -3  11    3.20    1.60
  -8  -3  11    1.90    1.70
  -8  -3  11    1.50    1.80
   7   3 -11    2.30    1.10
   7   3 -11    2.70    1.00
   7   3 -11    0.30    1.30
  -7  -3  11    0.30    1.40
  -7  -3  11    0.00    1.20
  -7  -3  11   -0.30    1.50
   6   3 -11    1.50    1.00
   6   3 -11   -0.50    1.20
   6   3 -11    0.60    0.70
  -6  -3  11   -0.80    1.30
  -6  -3  11    0.40    1.20
  -6  -3  11   -0.10    1.10
   5   3 -11   17.30    2.00
   5   3 -11   12.80    1.80
   5   3 -11   15.20    2.50
   5   3 -11   12.30    1.80
  -5  -3  11   11.10    2.50
  -5  -3  11   17.90    2.50
  -5  -3  11   18.00    2.20
   4   3 -11   61.09    5.70
   4   3 -11   80.59    5.80
   4   3 -11   67.29    5.60
   3   3 -11    5.20    1.00
   3   3 -11    5.60    1.10
  -3  -3  11    7.50    1.40
  -3  -3  11    7.00    1.20
   2   3 -11    0.00    0.80
   2   3 -11    2.70    0.90
  -2  -3  11    1.50    0.90
  -2  -3  11    1.60    0.90
  -2  -3  11    1.50    1.10
   1   3 -11    2.70    1.10
   1   3 -11    1.90    0.80
   1   3 -11    3.00    0.90
  -1  -3  11    2.70    1.20
  -1  -3  11    2.70    0.80
  -1  -3  11    4.60    0.90
  -1  -3  11    5.10    1.10
   0   3 -11   10.40    2.00
   0   3 -11   10.80    1.70
   0   3 -11   10.30    1.50
   0  -3  11    9.40    2.10
   0  -3  11   15.80    1.80
   0  -3  11   13.40    1.60
   0  -3  11   15.50    1.70
  -1   3 -11   -0.50    1.00
  -1   3 -11    0.10    0.90
  -1   3 -11    1.20    0.70
   1  -3  11    0.60    0.70
   1  -3  11    1.30    0.80
   1  -3  11    1.00    0.70
   1  -3  11    0.70    1.00
   1  -3  11   -0.10    1.00
  -2   3 -11   12.50    2.20
  -2   3 -11   12.10    1.80
   2  -3  11    8.10    1.80
   2  -3  11   13.50    1.90
   2  -3  11   11.20    1.50
   2  -3  11   10.60    1.50
   2  -3  11   11.60    1.50
  -3   3 -11   -0.90    1.20
  -3   3 -11   -0.90    1.10
   3  -3  11    1.00    0.70
   3  -3  11   -2.00    1.10
   3  -3  11   -1.50    0.70
   3  -3  11   -0.40    1.00
   3  -3  11    0.20    0.70
  -4   3 -11   -1.10    1.20
  -4   3 -11   -1.90    1.30
  -4   3 -11   -0.40    0.60
   4  -3  11    0.50    0.70
   4  -3  11   -0.30    1.20
   4  -3  11   -0.40    0.80
  -5   3 -11    1.90    1.50
  -5   3 -11    0.80    0.70
  -5   3 -11    1.00    1.60
   5  -3  11    1.90    0.90
   5  -3  11    2.70    0.90
   5  -3  11    0.50    1.40
  -6   3 -11    2.40    1.70
  -6   3 -11    0.00    1.90
  -6   3 -11    2.80    0.90
   6  -3  11    3.60    1.00
   6  -3  11    2.60    1.00
   6  -3  11    2.30    1.70
   9   2 -11    0.10    0.90
   9   2 -11    0.50    1.10
   9   2 -11   -2.10    1.50
  -9  -2  11   -4.70    2.70
  -9  -2  11   -2.40    1.40
   8   2 -11   -2.10    1.30
   8   2 -11    0.70    0.80
   8   2 -11   -0.10    1.10
  -8  -2  11   -0.60    1.30
   7   2 -11    1.50    0.90
   7   2 -11   -0.40    1.30
   7   2 -11    1.80    1.10
  -7  -2  11    0.00    1.50
  -7  -2  11    1.00    1.30
  -7  -2  11   -0.30    1.10
   6   2 -11    4.00    1.00
   6   2 -11    5.00    1.40
   6   2 -11    3.50    1.00
   6   2 -11    3.40    1.20
  -6  -2  11    4.70    1.30
  -6  -2  11    5.50    1.40
  -6  -2  11    5.10    1.60
   5   2 -11    2.40    0.80
   5   2 -11    2.10    0.90
   5   2 -11    1.30    0.80
  -5  -2  11    4.60    1.40
  -5  -2  11    3.50    1.20
  -5  -2  11    4.70    1.20
   4   2 -11    0.60    0.70
   4   2 -11    1.30    0.80
  -4  -2  11    1.40    1.00
  -4  -2  11    1.50    1.30
  -4  -2  11    1.90    0.90
   3   2 -11   11.70    1.70
   3   2 -11   10.40    1.80
  -3  -2  11   18.20    2.10
  -3  -2  11   16.40    1.80
  -3  -2  11   17.40    2.10
   2   2 -11   14.20    2.10
   2   2 -11   14.20    1.80
  -2  -2  11   21.70    2.50
  -2  -2  11   18.20    1.90
  -2  -2  11   18.40    2.10
   1   2 -11  234.88   19.10
   1   2 -11  253.07   19.20
   1   2 -11  242.88   19.00
  -1  -2  11  240.78   19.50
  -1  -2  11  273.97   19.10
  -1  -2  11  245.38   19.00
  -1  -2  11  268.57   19.00
   0   2 -11    1.80    0.90
   0   2 -11    2.30    1.10
   0   2 -11    3.00    0.80
   0  -2  11    2.50    1.10
   0  -2  11    1.50    0.80
   0  -2  11    2.30    0.70
   0  -2  11    2.00    1.00
  -1   2 -11   25.20    2.60
  -1   2 -11   27.20    2.80
   1  -2  11   25.30    2.30
   1  -2  11   25.40    3.00
   1  -2  11   24.00    2.40
   1  -2  11   23.10    2.30
  -2   2 -11   -1.00    0.50
  -2   2 -11   -1.30    1.00
  -2   2 -11   -0.90    0.90
   2  -2  11   -0.60    0.60
   2  -2  11   -0.90    0.60
   2  -2  11   -1.10    0.90
   2  -2  11   -1.20    0.60
  -3   2 -11   18.50    1.90
  -3   2 -11   22.30    2.50
   3  -2  11   17.90    2.00
   3  -2  11   18.20    1.90
   3  -2  11   16.50    2.70
   3  -2  11   15.20    1.90
  -4   2 -11   -0.10    1.20
  -4   2 -11   -1.90    1.30
  -4   2 -11    0.30    0.60
   4  -2  11    0.80    0.70
   4  -2  11    0.00    0.70
   4  -2  11   -0.30    0.70
  -5   2 -11    7.50    1.20
  -5   2 -11   13.30    2.20
  -5   2 -11   13.30    2.30
   5  -2  11    7.20    1.30
   5  -2  11    8.90    1.30
   5  -2  11   10.60    1.70
  -6   2 -11    4.70    2.10
  -6   2 -11    1.50    0.90
   6  -2  11    2.40    1.20
   6  -2  11    2.80    1.10
   9   1 -11   -3.00    1.40
   9   1 -11    0.90    1.10
   9   1 -11    1.10    0.90
  -9  -1  11   -2.30    1.30
  -9  -1  11   -3.10    1.60
   8   1 -11   -2.00    0.90
   8   1 -11   -2.80    1.30
   8   1 -11    0.50    0.80
  -8  -1  11   -1.50    1.30
   7   1 -11    5.60    1.20
   7   1 -11    5.80    1.30
   7   1 -11    4.20    1.10
  -7  -1  11    6.60    1.80
  -7  -1  11    4.60    1.50
   6   1 -11  116.69    9.60
   6   1 -11  142.59    9.70
   6   1 -11  109.89    9.80
   5   1 -11   14.20    1.70
   5   1 -11   11.40    1.70
   5   1 -11   10.60    1.80
  -5  -1  11   16.40    2.00
  -5  -1  11   18.70    1.90
  -5  -1  11   19.80    2.40
   4   1 -11    5.60    1.00
   4   1 -11    4.60    1.10
  -4  -1  11    6.20    1.10
  -4  -1  11    8.50    1.50
  -4  -1  11    7.20    1.10
  -3  -1  11   78.09    5.90
  -3  -1  11   70.59    5.90
   2   1 -11   20.20    2.10
   2   1 -11   21.90    2.40
   2   1 -11   21.70    2.10
   1   1 -11   25.80    2.70
   1   1 -11   24.60    2.30
   1   1 -11   22.90    2.40
  -1  -1  11   27.80    2.50
  -1  -1  11   29.00    2.60
  -1  -1  11   23.90    2.30
   0   1 -11    6.50    1.10
   0   1 -11    5.50    1.30
   0   1 -11    4.60    0.80
   0  -1  11    5.50    1.10
   0  -1  11    5.40    1.00
   0  -1  11    6.40    1.50
   0  -1  11    6.10    0.90
  -1   1 -11    0.70    0.70
  -1   1 -11    4.90    1.10
  -1   1 -11    4.50    1.20
   1  -1  11    2.70    0.90
   1  -1  11    3.10    1.30
   1  -1  11    2.40    0.80
   1  -1  11    4.00    0.80
  -2   1 -11    0.70    1.00
  -2   1 -11    0.30    1.20
  -2   1 -11    0.60    0.60
   2  -1  11    0.80    0.70
   2  -1  11    0.90    0.80
   2  -1  11    0.90    0.70
   2  -1  11    0.00    1.10
  -3   1 -11   -0.10    1.20
  -3   1 -11    1.00    0.60
  -3   1 -11    1.60    1.20
   3  -1  11    1.10    0.80
   3  -1  11    1.20    0.70
   3  -1  11    1.90    0.80
  -4   1 -11    1.10    1.30
  -4   1 -11    0.50    0.60
  -4   1 -11    0.40    1.20
   4  -1  11    1.70    0.80
   4  -1  11    0.50    0.70
   4  -1  11    1.60    0.80
  -5   1 -11    3.40    2.00
  -5   1 -11    6.60    1.60
  -5   1 -11    4.50    0.90
   5  -1  11    5.40    1.00
   5  -1  11    4.00    1.10
   5  -1  11    4.30    1.10
   9   0 -11    2.30    1.30
   9   0 -11    2.60    1.00
  -9   0  11    2.10    1.30
  -9   0  11   -0.70    1.70
  -9   0  11   -0.90    1.60
   8   0 -11    1.30    1.00
   8   0 -11    0.20    0.80
   8   0 -11    1.10    1.00
  -8   0  11    0.50    1.10
  -8   0  11   -0.90    1.50
   7   0 -11    3.10    0.90
  -7   0  11    3.60    1.10
  -7   0  11    5.20    1.40
   6   0 -11   10.40    1.50
   6   0 -11   11.30    1.80
   6   0 -11    6.60    1.20
  -6   0  11    9.40    1.50
  -6   0  11    7.10    1.50
   5   0 -11    0.70    0.60
   5   0 -11    0.40    0.60
   5   0 -11    0.60    0.80
  -5   0  11   -1.40    0.90
  -5   0  11   -0.90    1.20
  -5   0  11    0.30    0.60
  -4   0  11   58.59    5.10
  -4   0  11   67.19    5.10
   3   0 -11   17.10    2.30
   3   0 -11   19.30    2.00
   3   0 -11   20.30    2.20
  -3   0  11   25.80    2.20
   2   0 -11   14.60    2.10
   2   0 -11   16.20    1.80
  -2   0  11   19.10    1.80
  -2   0  11   18.40    1.80
  -2   0  11   21.90    2.10
   1   0 -11   53.79    4.80
   1   0 -11   54.29    4.70
  -1   0  11   53.29    4.60
  -1   0  11   64.89    4.70
   0   0 -11   31.80    2.80
   0   0 -11   25.90    2.50
   0   0 -11   31.20    3.00
   0   0  11   28.80    2.70
   0   0  11   31.60    2.60
   0   0  11   22.50    2.60
  -1   0 -11   63.69    4.80
  -1   0 -11   47.50    4.30
  -1   0 -11   55.49    4.70
   1   0  11   55.59    4.30
   1   0  11   46.20    4.50
  -2   0 -11    1.60    1.10
  -2   0 -11    1.00    1.10
  -2   0 -11    1.00    0.60
   2   0  11    1.00    1.30
   2   0  11    1.20    0.70
   2   0  11    1.60    0.80
   2   0  11    1.30    0.70
  -3   0 -11    9.60    1.40
  -3   0 -11   14.10    2.10
  -3   0 -11   14.60    2.10
   3   0  11    9.30    1.60
   3   0  11   10.60    1.40
   3   0  11    8.80    1.50
  -4   0 -11    8.40    1.60
  -4   0 -11    5.00    1.00
  -4   0 -11    7.70    1.60
   4   0  11    5.40    1.20
   4   0  11    6.20    1.10
   4   0  11    5.70    1.10
  -5   0 -11    6.70    1.60
  -5   0 -11    4.40    0.90
   5   0  11    5.10    1.20
   5   0  11    4.20    1.10
   5   0  11    4.90    1.00
   9  -1 -11    4.30    1.20
   9  -1 -11    3.70    1.30
   9  -1 -11    3.90    1.20
  -9   1  11    3.70    1.30
  -9   1  11    1.50    2.00
  -9   1  11    3.00    1.70
   8  -1 -11   70.19    5.50
   8  -1 -11   53.79    5.40
  -8   1  11   70.59    5.60
   7  -1 -11   35.20    3.10
   7  -1 -11   26.80    3.30
   7  -1 -11   29.50    3.00
  -7   1  11   35.00    3.20
   6  -1 -11    6.50    1.10
   6  -1 -11    6.40    1.10
   6  -1 -11    9.60    1.80
  -6   1  11    9.00    1.50
  -6   1  11   11.20    1.70
  -6   1  11    7.40    1.20
   5  -1 -11    3.50    1.10
   5  -1 -11    3.20    0.80
  -5   1  11    6.60    1.40
  -5   1  11    3.80    1.10
  -5   1  11    6.60    1.90
   4  -1 -11    9.90    1.90
   4  -1 -11   12.80    1.60
  -4   1  11   17.00    1.80
   3  -1 -11   91.29    7.60
   3  -1 -11   83.79    7.80
  -3   1  11  115.59    7.60
   2  -1 -11    3.40    0.80
   2  -1 -11    2.80    1.00
  -2   1  11    5.50    1.10
  -2   1  11    2.80    0.80
  -2   1  11    4.50    0.80
   1  -1 -11    0.60    0.90
   1  -1 -11    1.20    0.70
  -1   1  11   -0.70    0.60
  -1   1  11   -0.40    0.80
  -1   1  11   -1.00    0.70
  -1   1  11    2.40    1.50
   0  -1 -11   81.39    6.60
   0  -1 -11   93.79    7.00
   0  -1 -11   88.99    6.90
   0   1  11   80.99    6.70
   0   1  11   72.99    6.60
   0   1  11   87.69    6.60
  -1  -1 -11    2.00    1.00
  -1  -1 -11    2.30    1.10
  -1  -1 -11    1.60    0.70
   1   1  11    2.00    0.70
   1   1  11    1.90    0.70
   1   1  11    3.80    0.90
   1   1  11    2.70    1.50
  -2  -1 -11   17.30    2.10
  -2  -1 -11   13.40    1.50
   2   1  11   11.30    1.80
   2   1  11   12.70    1.70
  -3  -1 -11   -0.30    0.90
  -3  -1 -11   -0.60    1.00
  -3  -1 -11   -0.30    0.50
   3   1  11   -0.40    0.70
   3   1  11    0.60    0.70
   3   1  11   -0.30    0.70
  -4  -1 -11   -0.40    1.10
  -4  -1 -11    0.30    0.60
   4   1  11    0.30    0.80
   4   1  11    0.00    0.70
   4   1  11    0.30    0.70
  -5  -1 -11    2.30    1.40
  -5  -1 -11    1.90    0.80
   5   1  11    1.30    0.90
   5   1  11    2.20    1.10
   5   1  11    2.00    0.90
   9  -2 -11    2.90    1.00
   9  -2 -11    2.80    1.30
  -9   2  11   -1.60    1.60
  -9   2  11    0.90    1.50
  -9   2  11    2.90    1.20
   8  -2 -11   13.80    2.60
   8  -2 -11   16.40    2.20
   8  -2 -11   14.30    2.20
  -8   2  11   22.80    2.90
  -8   2  11   16.60    2.20
  -8   2  11   21.60    2.70
   7  -2 -11    6.90    1.30
   7  -2 -11    8.90    1.60
   7  -2 -11    6.10    1.50
  -7   2  11   11.70    2.10
  -7   2  11    7.20    1.30
  -7   2  11   11.40    1.80
   6  -2 -11    2.50    0.90
   6  -2 -11    2.60    0.80
   6  -2 -11    3.00    1.10
  -6   2  11    3.60    1.20
  -6   2  11    2.80    1.30
  -6   2  11    5.00    1.90
  -6   2  11    2.90    0.90
   5  -2 -11    4.00    0.80
   5  -2 -11    2.70    1.10
  -5   2  11    7.30    2.10
  -5   2  11    7.40    1.30
  -5   2  11    3.60    1.10
   4  -2 -11    1.60    0.70
   4  -2 -11    2.40    0.60
   4  -2 -11    2.10    1.00
  -4   2  11    3.10    2.00
  -4   2  11    5.30    1.10
  -4   2  11    3.10    0.90
   3  -2 -11   -0.10    0.80
   3  -2 -11    0.20    0.60
  -3   2  11    0.90    0.90
  -3   2  11   -0.20    0.70
  -3   2  11    0.80    1.90
   2  -2 -11    0.80    0.70
   2  -2 -11    0.90    0.80
  -2   2  11    0.00    0.80
  -2   2  11    2.50    1.80
  -2   2  11   -0.90    0.70
   1  -2 -11    2.40    0.90
   1  -2 -11    2.30    1.00
  -1   2  11    2.10    0.70
  -1   2  11    2.40    0.90
  -1   2  11    1.20    0.80
  -1   2  11    6.70    2.00
   0  -2 -11   21.60    2.50
   0  -2 -11   18.00    1.80
   0  -2 -11   18.80    2.20
   0   2  11   17.30    2.20
   0   2  11   20.50    1.90
   0   2  11   19.20    2.00
   0   2  11   17.30    2.10
  -1  -2 -11    4.80    1.20
  -1  -2 -11    5.20    1.10
  -1  -2 -11    2.70    0.80
   1   2  11    4.30    0.90
   1   2  11    4.00    1.10
   1   2  11    4.10    0.90
   1   2  11    5.10    1.80
  -2  -2 -11    0.00    0.80
  -2  -2 -11    0.00    0.90
  -2  -2 -11    0.00    0.50
   2   2  11   -0.60    0.70
   2   2  11   -0.10    0.60
   2   2  11    0.10    0.60
  -3  -2 -11    1.40    1.10
  -3  -2 -11    1.30    0.70
   3   2  11    0.60    0.70
   3   2  11    2.30    1.00
   3   2  11    0.70    0.70
  -4  -2 -11    2.60    0.80
  -4  -2 -11    3.40    1.30
   4   2  11    4.40    1.20
   4   2  11    2.40    1.00
   4   2  11    3.20    1.00
   9  -3 -11    4.60    1.20
   9  -3 -11    5.60    1.30
   9  -3 -11    6.90    1.70
  -9   3  11    7.20    2.10
  -9   3  11    8.40    2.00
  -9   3  11    7.20    1.40
   8  -3 -11    2.60    1.40
   8  -3 -11    2.00    1.10
   8  -3 -11    0.40    0.90
  -8   3  11   -1.00    1.00
  -8   3  11    0.60    1.30
  -8   3  11   -2.50    1.60
   7  -3 -11   -1.60    0.70
   7  -3 -11    0.70    1.10
   7  -3 -11    0.00    0.70
  -7   3  11   -1.80    1.20
  -7   3  11   -1.30    0.80
  -7   3  11   -0.80    1.10
   6  -3 -11    0.00    0.60
   6  -3 -11   -0.50    0.90
   6  -3 -11   -0.50    0.60
  -6   3  11   -0.70    0.60
  -6   3  11   -0.80    1.00
  -6   3  11   -0.30    1.10
  -6   3  11   -0.10    1.90
   5  -3 -11   19.70    2.70
   5  -3 -11   18.30    2.00
   4  -3 -11    0.10    0.80
   4  -3 -11    0.10    0.70
  -4   3  11    0.50    0.90
  -4   3  11    0.70    2.00
  -4   3  11   -0.40    0.80
   3  -3 -11    0.30    0.80
   3  -3 -11   -0.40    0.70
  -3   3  11    0.60    0.90
  -3   3  11    0.10    1.80
  -3   3  11   -1.10    0.80
   2  -3 -11   10.20    1.90
   2  -3 -11   11.30    1.80
  -2   3  11   14.90    1.70
  -2   3  11   11.80    1.80
   1  -3 -11   35.50    3.40
   1  -3 -11   31.90    3.30
  -1   3  11   36.30    3.30
  -1   3  11   37.30    3.30
   0  -3 -11   30.30    2.90
   0  -3 -11   30.90    2.90
   0  -3 -11   28.50    2.90
   0   3  11   24.80    2.80
   0   3  11   25.50    2.70
   0   3  11   27.10    2.60
  -1  -3 -11    0.30    0.90
  -1  -3 -11    0.90    0.70
  -1  -3 -11    0.00    0.60
   1   3  11   -0.80    0.60
   1   3  11    0.40    0.70
   1   3  11   -0.70    0.80
  -2  -3 -11   -0.30    1.00
  -2  -3 -11    0.30    0.60
   2   3  11    0.10    0.80
   2   3  11    0.20    0.60
  -3  -3 -11   10.10    1.70
  -3  -3 -11   12.20    1.60
  -3  -3 -11    8.20    1.40
   3   3  11   11.30    1.70
   3   3  11   10.10    1.80
   8  -4 -11    4.20    1.20
   8  -4 -11    3.70    1.50
   8  -4 -11    3.50    1.10
  -8   4  11    5.70    1.60
  -8   4  11    4.00    1.20
  -8   4  11    5.00    1.40
   7  -4 -11    0.40    1.20
   7  -4 -11   -0.50    0.90
   7  -4 -11    0.80    0.70
  -7   4  11   -0.50    0.90
  -7   4  11   -1.40    1.20
  -7   4  11   -0.70    1.10
   6  -4 -11    3.00    1.30
   6  -4 -11    2.80    0.90
  -6   4  11    3.60    1.20
  -6   4  11    3.60    1.30
   5  -4 -11    4.70    1.30
   5  -4 -11    4.30    1.10
  -5   4  11    6.20    1.20
   4  -4 -11    6.10    1.40
   4  -4 -11    6.10    1.30
  -4   4  11   10.40    1.60
  -4   4  11    6.30    1.20
  -4   4  11   11.20    3.10
   3  -4 -11    1.40    0.90
   3  -4 -11    2.40    1.00
  -3   4  11    1.80    1.00
  -3   4  11    2.30    2.60
  -3   4  11    0.60    0.90
   2  -4 -11    2.80    1.00
   2  -4 -11    2.30    1.00
  -2   4  11    3.20    1.00
  -2   4  11    3.20    1.00
   1  -4 -11    2.10    0.90
   1  -4 -11    0.90    0.90
  -1   4  11    1.20    0.90
  -1   4  11   -0.30    0.90
   0  -4 -11    2.40    0.80
   0  -4 -11    2.10    0.90
   0   4  11   -0.60    0.80
   0   4  11    0.70    0.90
  -1  -4 -11    1.60    0.70
  -1  -4 -11    1.00    1.00
   1   4  11    1.80    0.80
   1   4  11    1.20    1.00
  -2  -4 -11    1.90    1.10
  -2  -4 -11    1.30    0.80
  -2  -4 -11    1.20    0.90
   2   4  11    2.20    0.80
   2   4  11    2.90    1.00
  -3  -4 -11   -0.70    1.00
  -3  -4 -11   -1.20    0.80
  -3  -4 -11   -1.10    0.70
   3   4  11    1.10    1.10
   8  -5 -11   -1.50    0.90
   8  -5 -11    0.20    0.80
   8  -5 -11    0.30    1.30
  -8   5  11   -0.60    0.90
  -8   5  11   -1.80    1.20
   7  -5 -11    5.60    1.60
   7  -5 -11    5.20    1.10
  -7   5  11    6.20    1.40
  -7   5  11    5.60    1.10
   6  -5 -11    3.30    1.40
  -6   5  11    2.40    1.20
  -6   5  11    4.60    1.20
   5  -5 -11    0.20    0.90
   5  -5 -11    0.70    1.00
  -5   5  11   -0.20    1.10
  -5   5  11   -0.60    1.00
   4  -5 -11    2.70    1.20
   4  -5 -11    2.60    1.10
  -4   5  11    1.60    1.10
  -4   5  11    3.40    1.10
   3  -5 -11    2.70    1.10
   3  -5 -11    1.20    1.00
  -3   5  11    2.20    0.90
  -3   5  11   -0.10    1.00
   2  -5 -11    3.10    1.10
   2  -5 -11    4.80    1.10
  -2   5  11    3.70    1.10
  -2   5  11    3.60    1.20
   1  -5 -11    7.00    1.40
   1  -5 -11    8.80    1.50
  -1   5  11    5.70    1.20
   0  -5 -11    4.20    1.20
   0   5  11    3.90    1.20
   0   5  11    4.40    1.20
  -1  -5 -11    0.20    1.00
  -1  -5 -11    0.00    0.70
   1   5  11    0.60    0.90
   1   5  11    2.10    0.80
   7  -6 -11    2.20    1.40
  -7   6  11   -0.70    1.20
   6  -6 -11    1.80    1.10
   6  -6 -11    1.90    1.30
  -6   6  11    1.20    1.10
   5  -6 -11    3.90    1.30
   5  -6 -11    3.30    1.20
  -5   6  11    2.30    1.30
   4  -6 -11    0.70    0.90
   4  -6 -11    1.30    1.00
  -4   6  11    1.70    0.90
  -4   6  11   -0.90    1.00
   3  -6 -11    0.80    0.90
   3  -6 -11    1.10    0.90
  -3   6  11   -1.80    1.00
  -3   6  11    1.10    0.90
   2  -6 -11    1.80    1.00
   2  -6 -11    2.60    1.40
  -2   6  11    0.90    0.90
   1  -6 -11    1.20    1.00
  -1   6  11   -0.80    0.90
  -1   6  11    0.40    0.80
   0  -6 -11    2.10    1.20
   0   6  11    2.20    0.90
   0   6  11    1.90    1.00
   5  -7 -11    1.40    1.10
   5  -7 -11    0.70    1.10
  -5   7  11   -1.50    1.30
   4  -7 -11    1.30    1.10
   4  -7 -11    1.20    1.00
  -4   7  11   -1.90    1.10
   3  -7 -11    1.20    1.00
  -3   7  11   -2.00    1.00
  -2   7  11    5.70    1.50
  -2   7  11    7.50    1.90
   0  -9  12   -0.70    1.40
   0  -9  12   -0.30    1.30
   3   8 -12    1.40    1.10
  -3  -8  12   -2.50    1.50
   2   8 -12   -0.60    1.10
  -2  -8  12   -1.20    1.50
   1   8 -12    1.80    1.20
  -1  -8  12   -0.40    1.30
  -1  -8  12   -1.70    1.40
   0   8 -12    6.20    1.40
   0   8 -12    5.40    1.60
   0  -8  12    6.10    1.50
   0  -8  12    6.40    1.70
  -1   8 -12    0.20    1.70
  -1   8 -12    3.20    1.40
   1  -8  12    0.90    1.30
   1  -8  12    3.70    1.40
  -2   8 -12    0.00    1.20
  -2   8 -12   -1.00    1.60
   2  -8  12    0.20    1.30
   2  -8  12    0.10    1.30
  -3   8 -12    0.90    1.60
  -3   8 -12    0.70    1.30
  -3   8 -12   -0.80    1.90
   3  -8  12    2.30    1.40
   3  -8  12   -3.10    1.80
   3  -8  12    0.50    1.10
   5   7 -12   12.90    2.10
   5   7 -12   12.70    2.00
  -5  -7  12    6.90    2.30
   4   7 -12    0.00    0.90
  -4  -7  12   -2.70    1.40
   3   7 -12   -0.90    0.90
  -3  -7  12   -2.80    1.20
   2   7 -12   36.80    3.80
  -2  -7  12   45.10    4.10
   1   7 -12    2.60    1.30
   1   7 -12    3.80    1.20
  -1  -7  12    4.00    1.50
  -1  -7  12    5.40    1.40
   0   7 -12   -0.20    1.10
   0   7 -12   -2.30    1.20
   0  -7  12    0.80    1.10
   0  -7  12   -0.50    1.20
  -1   7 -12   -2.80    1.40
  -1   7 -12    0.90    1.10
   1  -7  12   -0.50    1.10
   1  -7  12    0.50    1.10
  -2   7 -12   10.30    2.00
  -2   7 -12   12.40    2.20
  -2   7 -12   18.50    2.40
   2  -7  12    9.90    1.70
   2  -7  12   11.80    1.90
   2  -7  12   11.80    2.30
  -3   7 -12    0.30    1.40
  -3   7 -12   -0.70    1.70
  -3   7 -12    0.60    1.60
   3  -7  12   -0.90    1.80
   3  -7  12    2.30    1.10
   3  -7  12    1.40    1.30
  -4   7 -12    0.30    1.30
  -4   7 -12    0.10    2.10
  -4   7 -12   -0.10    1.50
   4  -7  12    0.00    1.00
   4  -7  12   -0.80    1.20
   4  -7  12   -1.40    1.70
   6   6 -12   13.20    2.20
   6   6 -12   13.40    1.90
  -6  -6  12    8.50    2.00
  -6  -6  12    9.70    2.20
   5   6 -12   -0.10    0.90
   5   6 -12    0.70    0.90
  -5  -6  12   -3.20    1.60
   4   6 -12   -0.20    0.90
  -4  -6  12   -3.50    1.50
  -4  -6  12   -0.40    1.50
   3   6 -12    2.60    1.00
  -3  -6  12    2.40    1.40
  -3  -6  12    0.60    2.40
   2   6 -12   -0.40    1.00
   2   6 -12    1.10    0.90
  -2  -6  12    1.70    1.30
   1   6 -12   -0.40    0.90
   1   6 -12   -1.20    1.00
  -1  -6  12    0.70    1.00
  -1  -6  12   -1.10    1.10
   0   6 -12   -0.50    0.90
   0  -6  12    0.20    1.00
   0  -6  12   -1.00    1.00
  -1   6 -12    0.50    1.00
  -1   6 -12    1.00    2.10
  -1   6 -12    0.50    1.40
   1  -6  12   -0.60    1.30
   1  -6  12    2.30    1.20
   1  -6  12    0.60    1.00
   1  -6  12    0.10    1.10
  -2   6 -12   11.30    2.10
  -2   6 -12    8.50    1.70
  -2   6 -12   10.50    1.60
   2  -6  12   10.40    1.60
   2  -6  12   10.30    1.60
   2  -6  12   10.10    1.90
  -3   6 -12   25.70    2.70
  -3   6 -12   23.80    3.30
  -3   6 -12   21.60    2.90
   3  -6  12   18.40    3.00
   3  -6  12   20.80    2.50
   3  -6  12   14.60    2.30
  -4   6 -12    0.00    1.50
  -4   6 -12    1.00    1.80
   4  -6  12    0.20    0.90
   4  -6  12    3.20    1.20
   4  -6  12   -0.30    1.70
  -7  -5  12   -2.00    1.70
   6   5 -12    0.10    0.80
   6   5 -12    0.20    0.90
  -6  -5  12   -3.50    1.50
   5   5 -12   -0.30    0.80
   5   5 -12   -0.30    1.00
  -5  -5  12   -3.00    1.40
  -4  -5  12   49.50    4.80
  -4  -5  12   50.99    4.60
   3   5 -12    2.30    1.00
   3   5 -12    3.30    1.00
  -3  -5  12    4.10    1.50
  -3  -5  12    3.80    1.30
   2   5 -12    1.50    1.10
   2   5 -12    1.30    0.90
  -2  -5  12    2.00    1.20
  -2  -5  12    0.80    1.30
   1   5 -12   -1.30    0.90
   1   5 -12   -1.20    1.00
  -1  -5  12   -1.30    1.10
  -1  -5  12   -0.30    0.80
  -1  -5  12   -1.00    0.90
   0   5 -12    0.50    0.90
   0   5 -12   -2.00    1.10
   0  -5  12   -0.50    0.90
   0  -5  12    0.30    1.00
   0  -5  12    1.40    1.00
  -1   5 -12   12.80    2.10
  -1   5 -12   15.30    2.00
  -1   5 -12   13.60    2.30
   1  -5  12   14.50    2.50
   1  -5  12   15.80    1.90
   1  -5  12   16.40    2.00
  -2   5 -12    5.30    1.50
  -2   5 -12    6.60    1.70
  -2   5 -12    6.50    1.30
   2  -5  12    5.70    1.60
   2  -5  12    5.50    1.20
   2  -5  12    6.10    1.20
  -3   5 -12   -0.60    1.40
  -3   5 -12   -0.20    1.60
   3  -5  12   -0.10    1.00
   3  -5  12    0.30    0.90
   3  -5  12   -2.30    1.50
  -4   5 -12    1.20    1.80
  -4   5 -12    0.90    1.60
   4  -5  12    1.60    1.10
   4  -5  12    0.10    1.60
   4  -5  12    0.50    0.90
  -5   5 -12   -0.30    2.00
  -5   5 -12   -3.30    1.80
   5  -5  12    1.10    0.90
   5  -5  12    0.20    1.00
   5  -5  12   -2.60    1.80
   7   4 -12    1.40    0.80
   7   4 -12    1.30    1.10
  -7  -4  12   -0.70    1.70
  -7  -4  12   -2.20    1.30
   6   4 -12    0.80    1.00
   6   4 -12    1.00    0.90
  -6  -4  12   -2.10    1.30
   5   4 -12    0.80    0.80
  -5  -4  12   -1.20    1.40
  -5  -4  12    0.10    1.60
   4   4 -12   10.70    1.70
   4   4 -12   11.00    1.90
  -4  -4  12   16.50    2.50
  -4  -4  12   16.20    2.20
   3   4 -12   -0.50    0.70
   3   4 -12    0.50    0.90
  -3  -4  12   -0.90    1.00
  -3  -4  12   -0.60    1.40
   2   4 -12    4.70    1.30
   2   4 -12    5.00    1.20
  -2  -4  12    8.80    1.50
  -2  -4  12    6.80    1.30
   1   4 -12   16.20    2.10
   1   4 -12   18.20    2.30
  -1  -4  12   13.20    2.20
   0   4 -12   -1.20    0.80
   0   4 -12    1.10    0.90
   0  -4  12   -0.90    0.90
   0  -4  12   -0.50    0.90
   0  -4  12   -0.20    0.80
   0  -4  12    0.00    0.90
   0  -4  12   -0.80    0.80
  -1   4 -12    2.80    1.40
  -1   4 -12    4.90    1.00
  -1   4 -12    5.30    1.40
   1  -4  12    5.70    1.10
   1  -4  12    4.30    1.50
   1  -4  12    2.60    1.30
   1  -4  12    4.90    1.10
   1  -4  12    4.60    1.00
  -2   4 -12    0.60    1.40
  -2   4 -12    1.30    1.20
   2  -4  12    0.40    1.30
   2  -4  12    1.70    0.90
   2  -4  12    1.40    0.80
  -3   4 -12    3.80    1.50
  -3   4 -12    3.50    1.60
   3  -4  12    2.00    0.90
   3  -4  12    2.40    1.00
   3  -4  12    2.60    1.70
  -4   4 -12   -1.00    1.80
  -4   4 -12   -0.80    1.30
   4  -4  12   -1.10    1.40
   4  -4  12    0.80    0.90
   4  -4  12   -0.50    0.80
  -5   4 -12    0.40    1.50
  -5   4 -12   -1.10    1.80
  -5   4 -12   -0.40    0.80
   5  -4  12    0.50    0.90
   5  -4  12    0.20    1.60
   5  -4  12    0.20    0.80
   8   3 -12    4.50    1.20
   8   3 -12    6.60    1.40
   8   3 -12    2.10    1.90
  -8  -3  12    5.00    1.90
  -8  -3  12    4.50    2.10
   7   3 -12    0.90    0.90
   7   3 -12    1.00    1.00
  -7  -3  12   -1.80    1.40
  -7  -3  12   -3.00    1.30
   6   3 -12   -0.10    0.90
   6   3 -12   -1.10    0.70
  -6  -3  12   -3.10    1.60
   5   3 -12    2.00    0.90
   5   3 -12    2.60    0.90
  -5  -3  12    1.50    1.50
  -5  -3  12    3.20    1.40
   4   3 -12    0.90    0.80
   4   3 -12    1.00    0.80
  -4  -3  12    2.00    1.40
  -4  -3  12    1.90    1.10
   3   3 -12   -0.20    0.80
   3   3 -12   -0.50    0.90
  -3  -3  12   -1.90    1.10
  -3  -3  12   -0.20    1.00
   2   3 -12   25.10    2.60
   2   3 -12   27.60    2.80
  -2  -3  12   27.00    3.10
   1   3 -12   -0.40    0.70
   1   3 -12   -0.50    1.00
  -1  -3  12    0.00    0.90
  -1  -3  12    1.20    0.90
  -1  -3  12   -0.20    1.00
   0   3 -12   10.00    1.80
   0   3 -12   10.70    1.70
   0   3 -12    9.50    1.30
   0  -3  12   12.50    1.70
   0  -3  12   12.40    1.60
   0  -3  12    9.20    1.90
   0  -3  12   11.80    1.60
  -1   3 -12    7.40    1.40
  -1   3 -12    8.30    1.60
   1  -3  12    4.50    1.50
   1  -3  12    8.50    1.20
   1  -3  12    7.70    1.20
   1  -3  12    9.20    1.50
  -2   3 -12   10.20    1.80
  -2   3 -12    9.00    1.60
   2  -3  12    9.90    1.40
   2  -3  12    6.50    2.00
   2  -3  12   11.50    1.60
   2  -3  12    6.40    1.20
  -3   3 -12   -1.30    1.30
  -3   3 -12   -1.10    0.60
  -3   3 -12   -0.50    1.10
   3  -3  12    1.30    0.90
   3  -3  12   -0.60    0.80
   3  -3  12   -0.20    0.80
  -4   3 -12    1.10    0.80
  -4   3 -12    2.30    1.40
  -4   3 -12    1.30    1.60
   4  -3  12    1.40    0.90
   4  -3  12    1.50    0.90
  -5   3 -12   -0.10    0.70
  -5   3 -12    0.80    1.50
  -5   3 -12   -2.00    1.60
   5  -3  12    0.80    0.90
   5  -3  12    0.80    0.90
   8   2 -12    1.60    0.90
   8   2 -12    0.60    1.00
  -8  -2  12   -1.40    1.40
  -8  -2  12   -1.50    1.70
   7   2 -12    0.20    0.80
   7   2 -12    0.10    0.90
  -7  -2  12   -1.30    1.60
  -7  -2  12   -1.30    1.20
   6   2 -12    0.50    0.90
   6   2 -12    1.50    0.90
   6   2 -12   -0.10    0.80
  -6  -2  12   -0.50    1.10
  -6  -2  12    0.00    1.10
  -6  -2  12   -1.70    1.40
   5   2 -12    5.10    1.10
   5   2 -12    5.40    1.20
  -5  -2  12    8.90    1.40
  -5  -2  12    8.00    1.70
   4   2 -12   -0.70    0.90
   4   2 -12   -0.30    0.70
  -4  -2  12   -0.80    1.00
  -4  -2  12   -1.10    1.20
   3   2 -12   -1.00    0.80
   3   2 -12   -1.00    0.70
  -3  -2  12    0.00    0.90
  -3  -2  12   -0.40    1.10
  -3  -2  12   -0.20    0.90
   2   2 -12   14.10    2.20
   2   2 -12   15.90    1.90
  -2  -2  12   20.00    2.70
  -2  -2  12   20.80    2.10
  -2  -2  12   22.40    2.30
   1   2 -12   22.30    2.70
   1   2 -12   23.60    2.40
   1   2 -12   22.80    2.40
  -1  -2  12   29.20    2.50
  -1  -2  12   21.90    2.90
  -1  -2  12   24.60    2.40
   0   2 -12    1.30    0.90
   0   2 -12    0.50    0.60
   0   2 -12    0.70    1.10
   0  -2  12    0.80    1.10
   0  -2  12    0.60    0.80
   0  -2  12    2.00    0.90
   0  -2  12    2.40    0.80
  -1   2 -12    5.50    1.00
  -1   2 -12    9.50    1.60
  -1   2 -12    7.80    1.40
   1  -2  12    8.70    1.10
   1  -2  12    6.60    1.10
   1  -2  12    5.90    1.60
   1  -2  12    7.60    1.30
  -2   2 -12   -0.30    0.60
  -2   2 -12    0.50    1.10
  -2   2 -12    0.30    1.40
   2  -2  12    1.20    0.80
   2  -2  12    0.50    0.80
   2  -2  12    1.10    0.80
  -3   2 -12    6.20    1.10
  -3   2 -12   10.60    1.80
  -3   2 -12   10.60    1.80
   3  -2  12    6.90    1.20
   3  -2  12    6.90    1.30
   3  -2  12    7.50    1.20
  -4   2 -12    2.30    1.50
  -4   2 -12    0.80    1.50
  -4   2 -12    1.10    0.70
   4  -2  12    1.20    0.90
   4  -2  12    1.40    0.80
   4  -2  12    1.70    0.90
  -5   2 -12    3.30    1.80
  -5   2 -12    2.90    0.90
  -5   2 -12    3.90    1.60
   5  -2  12    3.00    1.00
   5  -2  12    4.30    1.00
   8   1 -12    0.00    1.10
   8   1 -12    1.00    0.80
  -8  -1  12   -1.60    1.60
  -8  -1  12   -2.10    1.30
  -8  -1  12   -0.20    1.10
   7   1 -12    0.90    0.90
   7   1 -12    0.70    0.90
   7   1 -12    0.00    0.90
  -7  -1  12   -0.90    1.20
  -7  -1  12   -1.90    1.60
   6   1 -12    0.00    0.70
   6   1 -12    1.70    0.90
   6   1 -12    1.40    0.90
  -6  -1  12    2.00    1.50
  -6  -1  12    1.80    1.30
  -5  -1  12   22.90    2.70
  -5  -1  12   26.30    3.00
  -5  -1  12   21.00    2.50
   4   1 -12   -1.50    0.80
   4   1 -12   -0.30    0.70
  -4  -1  12   -1.70    0.80
  -4  -1  12   -0.40    1.10
   3   1 -12   -1.40    0.80
   3   1 -12   -0.70    0.70
  -3  -1  12   -0.90    1.00
  -3  -1  12   -0.10    1.10
  -3  -1  12   -1.00    0.80
   2   1 -12    3.30    1.10
   2   1 -12    3.50    0.90
   2   1 -12    5.30    0.90
  -2  -1  12    5.50    1.50
   1   1 -12   -0.60    0.70
   1   1 -12   -0.40    0.90
  -1  -1  12   -0.50    0.90
  -1  -1  12    0.00    1.20
  -1  -1  12    0.10    0.80
   0   1 -12   -0.70    0.80
   0   1 -12   -1.00    1.00
   0   1 -12   -1.30    0.50
   0  -1  12   -1.20    0.60
   0  -1  12   -0.40    1.10
   0  -1  12    0.30    0.60
   0  -1  12   -1.10    0.80
  -1   1 -12    5.20    1.30
  -1   1 -12    3.60    0.80
  -1   1 -12    5.90    1.40
   1  -1  12    4.70    1.00
   1  -1  12    5.10    1.10
   1  -1  12    4.60    1.70
   1  -1  12    5.40    0.90
  -2   1 -12    2.90    1.40
  -2   1 -12    2.10    0.70
  -2   1 -12    4.40    1.30
   2  -1  12    4.50    1.10
   2  -1  12    2.60    0.90
   2  -1  12    3.80    0.80
  -3   1 -12    0.30    0.60
  -3   1 -12    0.40    1.20
  -3   1 -12   -1.20    1.20
   3  -1  12    0.40    0.90
   3  -1  12    0.70    0.70
   3  -1  12    0.30    0.70
  -4   1 -12    0.40    0.70
  -4   1 -12    0.10    1.50
  -4   1 -12    1.10    1.30
   4  -1  12    1.00    0.80
   4  -1  12    0.60    0.80
   4  -1  12    1.70    0.90
   8   0 -12    1.40    1.00
   8   0 -12    0.90    0.90
   8   0 -12    2.90    1.20
  -8   0  12   -1.30    1.70
  -8   0  12   -0.30    1.20
  -8   0  12   -1.20    1.40
   7   0 -12    3.30    1.10
   7   0 -12    2.10    0.90
   7   0 -12    4.30    1.30
  -7   0  12    2.10    1.20
  -7   0  12    4.30    1.80
  -7   0  12    4.50    1.60
   6   0 -12    1.00    0.90
   6   0 -12    2.00    0.90
  -6   0  12    1.00    1.20
  -6   0  12    0.20    1.40
   5   0 -12    0.10    0.60
   5   0 -12    0.40    0.90
  -5   0  12   -0.50    0.90
   4   0 -12   -0.90    0.80
   4   0 -12    0.20    0.60
  -4   0  12   -0.50    0.90
  -4   0  12   -1.50    1.50
  -4   0  12   -1.70    1.10
  -4   0  12   -2.50    1.00
   3   0 -12   62.89    6.20
  -3   0  12   82.79    6.90
  -3   0  12   88.79    6.50
  -3   0  12   82.49    6.20
   2   0 -12   27.20    2.90
   2   0 -12   24.20    2.50
  -2   0  12   31.60    2.60
   1   0 -12   11.50    1.90
   1   0 -12   10.80    1.70
  -1   0  12   16.10    2.80
  -1   0  12   14.30    1.80
  -1   0  12   12.30    1.60
   0   0 -12    0.20    0.60
   0   0 -12   -0.50    0.80
   0   0 -12    0.40    1.00
   0   0  12    0.60    0.60
   0   0  12   -0.20    0.70
   0   0  12   -0.20    0.80
   0   0  12    0.20    1.30
  -1   0 -12   17.70    2.00
  -1   0 -12   21.90    2.50
  -1   0 -12   20.10    2.40
   1   0  12   16.40    2.00
   1   0  12   22.30    3.10
   1   0  12   17.10    2.10
   1   0  12   22.00    2.10
  -2   0 -12   22.80    2.20
  -2   0 -12   26.60    2.90
  -2   0 -12   25.30    2.80
   2   0  12   17.20    2.10
   2   0  12   22.00    2.10
   2   0  12   17.20    2.30
  -3   0 -12    0.00    0.70
  -3   0 -12    0.10    1.20
  -3   0 -12   -0.30    1.30
   3   0  12    1.50    0.90
   3   0  12    1.20    0.80
   3   0  12    1.10    0.70
  -4   0 -12    2.10    1.40
  -4   0 -12    1.10    0.80
   4   0  12    2.90    0.90
   4   0  12    2.00    1.00
   4   0  12    1.40    0.90
   8  -1 -12   19.60    2.60
   8  -1 -12   27.50    2.90
   8  -1 -12   19.70    2.90
  -8   1  12   29.40    3.50
  -8   1  12   25.90    3.00
  -8   1  12   30.40    3.30
   7  -1 -12   57.19    4.40
   7  -1 -12   41.60    4.60
   7  -1 -12   47.20    4.40
  -7   1  12   56.19    4.40
   6  -1 -12    3.80    1.20
   6  -1 -12    4.10    0.90
  -6   1  12    3.00    1.30
  -6   1  12    2.90    1.60
   5  -1 -12    3.00    1.10
   5  -1 -12    3.30    0.80
  -5   1  12    3.60    1.10
  -5   1  12    5.90    2.00
  -5   1  12    4.60    1.40
   4  -1 -12    6.80    1.50
   4  -1 -12   10.10    1.50
  -4   1  12   17.10    3.20
  -4   1  12   11.10    1.70
  -4   1  12   14.50    2.00
   3  -1 -12   24.20    2.80
   3  -1 -12   23.00    2.50
   3  -1 -12   26.40    2.60
  -3   1  12   31.80    2.60
   2  -1 -12   33.90    3.20
   2  -1 -12   32.70    3.40
  -2   1  12   36.40    3.00
  -2   1  12   35.40    3.40
   1  -1 -12    0.00    0.80
   1  -1 -12    1.20    0.90
  -1   1  12   -0.40    0.70
  -1   1  12   -0.20    0.90
  -1   1  12    0.40    1.50
   0  -1 -12    5.20    1.20
   0  -1 -12    3.80    1.10
   0   1  12    3.20    1.00
   0   1  12    6.00    1.90
   0   1  12    4.40    0.90
  -1  -1 -12   22.20    2.20
  -1  -1 -12   23.70    2.70
  -1  -1 -12   27.70    2.80
   1   1  12   20.60    2.20
   1   1  12   24.00    2.30
   1   1  12   21.00    2.40
  -2  -1 -12    0.30    0.60
  -2  -1 -12   -0.70    1.10
  -2  -1 -12    0.00    1.10
   2   1  12    0.90    0.80
   2   1  12    0.40    0.70
   2   1  12    0.10    0.70
  -3  -1 -12    0.10    0.60
  -3  -1 -12    0.40    1.20
   3   1  12    1.60    1.00
   3   1  12    0.30    0.70
   3   1  12    0.50    0.70
  -4  -1 -12   25.00    2.40
   4   1  12   20.50    2.50
   4   1  12   23.90    2.70
   4   1  12   26.90    2.50
   8  -2 -12    3.70    1.10
   8  -2 -12    4.60    1.40
   8  -2 -12    4.40    1.10
  -8   2  12    4.10    1.80
  -8   2  12    4.40    1.60
  -8   2  12    4.00    1.20
   7  -2 -12    1.00    1.00
   7  -2 -12    0.90    1.00
   7  -2 -12    2.30    0.90
  -7   2  12   -1.80    1.30
  -7   2  12   -1.70    1.50
   6  -2 -12    0.90    1.00
   6  -2 -12    1.60    0.70
  -6   2  12   -2.70    1.30
  -6   2  12    1.00    2.00
  -6   2  12   -0.80    1.10
   5  -2 -12   37.70    4.10
   5  -2 -12   39.20    3.70
  -5   2  12   51.09    4.00
   4  -2 -12    1.70    1.00
   4  -2 -12    0.30    0.90
  -4   2  12    0.50    0.90
  -4   2  12   -0.50    1.80
  -4   2  12   -0.30    1.00
   3  -2 -12    1.40    0.90
   3  -2 -12    1.40    0.80
  -3   2  12    3.10    2.00
  -3   2  12    0.60    0.90
  -3   2  12    2.10    1.10
   2  -2 -12   42.30    4.10
   2  -2 -12   45.70    4.30
  -2   2  12   44.30    4.00
  -2   2  12   55.69    4.20
   1  -2 -12    6.00    1.30
  -1   2  12    6.50    1.30
  -1   2  12    4.40    1.10
  -1   2  12   10.70    2.40
  -1   2  12    6.10    1.00
   0  -2 -12   26.10    2.90
   0  -2 -12   25.00    2.70
   0   2  12   22.60    2.30
   0   2  12   22.40    2.50
  -1  -2 -12    1.10    0.90
  -1  -2 -12    0.10    0.90
  -1  -2 -12    0.00    0.60
   1   2  12    1.30    0.70
   1   2  12    0.00    0.80
   1   2  12    0.80    0.70
  -2  -2 -12   12.10    2.00
  -2  -2 -12    7.80    1.20
   2   2  12    6.10    1.20
   2   2  12   10.20    1.70
   2   2  12    9.70    1.30
  -3  -2 -12    0.90    0.70
  -3  -2 -12    1.20    1.30
   3   2  12    1.60    0.80
   3   2  12    2.50    0.90
   3   2  12    1.50    0.90
   8  -3 -12    3.40    1.10
   8  -3 -12    2.10    1.00
   8  -3 -12    3.20    1.50
  -8   3  12    2.40    1.50
  -8   3  12    1.30    1.70
  -8   3  12    1.30    1.10
   7  -3 -12    2.80    1.30
   7  -3 -12    1.60    0.80
  -7   3  12    0.60    1.30
  -7   3  12    0.50    1.40
   6  -3 -12    2.30    0.80
   6  -3 -12    4.00    1.30
  -6   3  12    1.30    1.20
  -6   3  12    3.10    1.40
   5  -3 -12   19.20    2.80
  -5   3  12   24.90    2.90
  -5   3  12   29.20    2.80
   4  -3 -12   24.00    2.60
   4  -3 -12   27.40    2.90
   3  -3 -12    1.60    0.80
   3  -3 -12    2.00    1.10
  -3   3  12    1.30    1.00
  -3   3  12    2.60    1.10
   2  -3 -12    5.60    1.30
   2  -3 -12    5.40    1.20
  -2   3  12    5.70    1.30
  -2   3  12    4.40    1.20
   1  -3 -12   63.09    5.40
   1  -3 -12   55.09    5.20
  -1   3  12   62.19    5.10
  -1   3  12   64.59    5.20
   0  -3 -12    3.20    1.00
   0  -3 -12    1.00    1.00
   0   3  12    1.20    1.10
   0   3  12    1.50    0.90
  -1  -3 -12    0.20    0.60
  -1  -3 -12    1.00    1.00
   1   3  12    0.40    0.70
   1   3  12    0.70    0.80
  -2  -3 -12    1.80    0.70
  -2  -3 -12    2.00    1.20
   2   3  12    1.10    0.70
   2   3  12    3.00    1.00
   8  -4 -12    0.40    1.20
   8  -4 -12    2.40    1.00
   8  -4 -12    1.70    1.50
  -8   4  12   -1.00    1.70
  -8   4  12    0.20    1.90
   7  -4 -12   14.40    2.00
   7  -4 -12   15.30    2.60
  -7   4  12   17.20    2.50
  -7   4  12   18.80    2.60
   6  -4 -12    7.10    1.70
  -6   4  12    7.40    1.60
   5  -4 -12    6.80    1.60
  -5   4  12    8.00    1.50
   4  -4 -12    3.10    1.20
   4  -4 -12    3.20    1.00
  -4   4  12    1.30    1.20
  -4   4  12    3.50    1.30
   3  -4 -12    2.90    1.00
   3  -4 -12    2.40    1.00
  -3   4  12    2.40    1.10
  -3   4  12    1.70    1.10
   2  -4 -12    1.80    1.00
   2  -4 -12    2.30    1.00
  -2   4  12    1.20    1.10
  -2   4  12    2.00    1.10
   1  -4 -12    3.20    1.00
   1  -4 -12    1.60    1.00
  -1   4  12    1.20    1.00
  -1   4  12   -0.10    0.90
   0  -4 -12    0.60    1.00
   0   4  12    0.60    0.80
   0   4  12    0.00    0.80
  -1  -4 -12    1.80    1.20
   1   4  12    2.50    1.00
   7  -5 -12    0.30    1.30
  -7   5  12   -1.20    1.30
   6  -5 -12    4.80    1.50
  -6   5  12    6.30    1.50
  -6   5  12    4.30    1.40
   5  -5 -12    2.20    1.20
   5  -5 -12    2.40    1.00
  -5   5  12    0.30    1.10
  -5   5  12   -0.90    1.10
   4  -5 -12    1.50    1.00
   4  -5 -12    0.70    0.90
  -4   5  12   -0.10    1.00
   3  -5 -12   22.00    2.90
   3  -5 -12   27.00    3.00
  -3   5  12   26.60    3.10
  -3   5  12   31.10    2.80
   2  -5 -12   12.40    1.90
  -2   5  12    8.60    1.50
  -2   5  12    6.40    1.50
   1  -5 -12    6.80    1.40
  -1   5  12    5.70    1.20
  -1   5  12    4.40    1.20
   0  -5 -12    0.60    1.00
   0   5  12    0.70    0.80
   0   5  12    0.80    0.80
   5  -6 -12    2.50    1.30
   5  -6 -12    2.10    1.20
  -5   6  12    0.10    1.30
   4  -6 -12    1.10    1.00
   4  -6 -12    1.70    1.00
  -4   6  12   -2.30    1.30
  -4   6  12    0.10    0.90
   3  -6 -12    2.40    1.10
   3  -6 -12    1.90    1.10
  -3   6  12    2.00    1.10
   2  -6 -12    2.10    1.10
  -2   6  12   -1.90    1.00
  -2   6  12    1.50    0.90
   1   8 -13   -1.40    1.50
  -1  -8  13   -1.90    1.40
   0   8 -13   -2.20    1.40
   0   8 -13    0.00    1.20
   0  -8  13   -1.20    1.40
   0  -8  13   -0.10    1.30
   1  -8  13    1.70    1.50
   1  -8  13    2.50    1.40
   4   7 -13    5.50    2.00
  -4  -7  13    0.80    2.20
   3   7 -13    6.10    1.40
  -3  -7  13    3.30    1.70
   2   7 -13    0.30    1.10
  -2  -7  13   -1.60    1.50
   1   7 -13    6.40    1.40
   1   7 -13    6.10    1.70
  -1  -7  13    9.20    1.80
   0   7 -13    5.50    1.50
   0   7 -13    3.50    1.80
   0  -7  13    6.00    1.50
   0  -7  13    4.10    1.50
  -1   7 -13   -1.40    1.50
  -1   7 -13    1.20    1.20
   1  -7  13    1.20    1.50
   1  -7  13    0.90    1.30
  -2   7 -13   58.39    5.50
  -2   7 -13   60.49    5.00
   2  -7  13   49.90    7.00
   2  -7  13   55.59    5.00
   2  -7  13   53.09    4.90
   5   6 -13    3.30    1.10
  -5  -6  13   -1.60    2.00
  -5  -6  13   -1.00    1.60
   4   6 -13    0.60    1.00
  -4  -6  13   -3.30    1.80
  -4  -6  13   -2.00    1.40
   3   6 -13    0.20    1.00
  -3  -6  13   -1.40    1.40
   2   6 -13   -0.70    1.10
   2   6 -13    1.50    1.00
  -2  -6  13   -0.30    1.30
   1   6 -13    7.40    1.70
   1   6 -13    5.10    1.30
  -1  -6  13    6.40    1.50
   0   6 -13    1.00    1.10
   0   6 -13    0.00    1.50
   0  -6  13   -0.30    1.10
   0  -6  13   -0.90    1.10
  -1   6 -13   12.40    2.10
  -1   6 -13   12.10    2.20
   1  -6  13   12.40    1.90
   1  -6  13   11.30    1.70
  -2   6 -13   -0.80    1.60
  -2   6 -13    0.40    1.10
  -2   6 -13   -0.40    1.30
   2  -6  13   -1.10    1.40
   2  -6  13    1.60    1.00
   2  -6  13    0.70    1.20
  -3   6 -13    1.10    1.80
  -3   6 -13    1.70    1.50
   3  -6  13    1.70    1.20
   3  -6  13    1.60    1.10
   3  -6  13    1.30    1.70
   6   5 -13    2.50    1.10
  -6  -5  13   -2.60    1.50
  -6  -5  13   -2.60    1.70
   5   5 -13    1.70    0.90
  -5  -5  13   -3.50    1.70
  -5  -5  13   -1.30    1.50
   4   5 -13    2.70    1.00
  -4  -5  13    0.10    1.80
  -4  -5  13    2.40    1.50
   3   5 -13   35.50    3.20
   3   5 -13   30.70    3.30
   2   5 -13    2.90    1.00
   2   5 -13    1.80    1.20
  -2  -5  13    0.80    1.50
  -2  -5  13    1.80    1.30
   1   5 -13   -0.50    1.00
   1   5 -13   -2.40    1.30
  -1  -5  13   -0.80    1.20
   0   5 -13   -0.10    0.90
   0   5 -13   -1.70    1.30
   0  -5  13    0.00    1.10
   0  -5  13   -1.00    1.10
   0  -5  13    0.00    1.10
  -1   5 -13   14.40    2.50
  -1   5 -13   15.40    2.10
  -1   5 -13    9.00    1.70
   1  -5  13   11.30    1.60
   1  -5  13    9.20    1.80
   1  -5  13   13.10    1.90
  -2   5 -13    0.30    1.50
  -2   5 -13    0.10    1.40
   2  -5  13    0.60    1.10
   2  -5  13    0.50    1.00
   2  -5  13   -0.70    1.60
  -3   5 -13    0.00    1.80
  -3   5 -13    0.00    1.40
   3  -5  13    1.80    1.30
   3  -5  13    0.80    1.00
   3  -5  13   -0.90    1.50
  -4   5 -13   14.20    2.50
  -4   5 -13   12.00    3.10
   4  -5  13   14.70    2.10
   4  -5  13   14.50    2.70
   4  -5  13    9.50    1.70
  -7  -4  13   -0.50    1.50
   6   4 -13    1.30    0.90
  -6  -4  13   -2.20    1.40
   5   4 -13    2.50    1.00
  -5  -4  13    1.70    1.90
  -5  -4  13    3.00    1.50
   4   4 -13    2.00    0.90
   4   4 -13    1.10    0.90
  -4  -4  13    1.00    1.30
  -4  -4  13    1.00    1.60
   3   4 -13    2.40    0.90
   3   4 -13    1.60    1.00
  -3  -4  13    1.30    1.40
  -3  -4  13    1.00    1.20
   2   4 -13   -1.60    1.00
   2   4 -13   -1.10    0.80
  -2  -4  13   -0.80    1.10
   1   4 -13    4.50    1.40
   1   4 -13    5.40    1.20
  -1  -4  13    3.90    1.30
  -1  -4  13    6.20    1.30
  -1  -4  13    5.50    1.40
   0   4 -13    2.30    0.90
   0   4 -13    0.50    1.30
   0  -4  13    2.40    1.00
   0  -4  13    2.60    1.10
   0  -4  13    2.40    1.00
   0  -4  13    0.40    1.10
  -1   4 -13    0.20    1.10
  -1   4 -13   -0.20    1.40
   1  -4  13    1.30    1.10
   1  -4  13    0.90    0.90
  -2   4 -13    4.90    1.50
  -2   4 -13    7.00    1.80
   2  -4  13    6.00    1.20
   2  -4  13    5.30    1.20
   2  -4  13    3.80    1.60
  -3   4 -13   20.30    3.10
  -3   4 -13   21.00    2.80
   3  -4  13   19.90    3.00
   3  -4  13   17.60    2.20
   3  -4  13   13.60    2.10
  -4   4 -13   -1.20    1.70
  -4   4 -13   -0.50    0.80
  -4   4 -13    0.00    1.60
   4  -4  13    1.60    1.10
   4  -4  13    0.20    0.90
   4  -4  13   -0.90    1.60
   7   3 -13    0.80    0.90
   7   3 -13   -0.80    1.60
  -7  -3  13   -3.80    1.70
  -7  -3  13   -3.90    2.00
   6   3 -13    1.70    0.90
  -6  -3  13   -2.40    1.70
  -6  -3  13   -1.80    1.40
   5   3 -13   37.30    3.30
   5   3 -13   32.50    3.40
   4   3 -13    1.60    0.80
   4   3 -13    0.30    0.80
  -4  -3  13   -1.00    1.40
  -4  -3  13    1.60    1.20
   3   3 -13   -0.30    0.70
   3   3 -13   -0.20    0.90
  -3  -3  13   -1.50    1.20
  -3  -3  13   -0.20    1.10
   2   3 -13    0.50    1.10
   2   3 -13    2.10    0.90
  -2  -3  13    1.30    1.20
  -2  -3  13    2.50    1.10
  -2  -3  13    1.90    1.30
   1   3 -13    0.70    0.80
   1   3 -13   -1.70    1.00
  -1  -3  13    0.80    1.00
  -1  -3  13   -0.20    1.00
  -1  -3  13   -0.20    0.90
   0   3 -13    0.60    0.90
   0   3 -13   -0.10    1.20
   0   3 -13    0.40    0.90
   0  -3  13    1.10    0.90
   0  -3  13    0.90    0.90
   0  -3  13    1.00    0.90
   0  -3  13   -0.60    1.00
  -1   3 -13   -0.60    1.30
  -1   3 -13   -0.40    1.00
   1  -3  13   -0.40    0.80
   1  -3  13   -0.30    0.80
   1  -3  13   -0.40    0.90
  -2   3 -13   -0.30    0.60
  -2   3 -13   -0.10    1.50
  -2   3 -13   -0.40    1.20
   2  -3  13    0.80    0.90
   2  -3  13    1.30    0.90
   2  -3  13   -0.20    0.80
  -3   3 -13    3.10    1.70
  -3   3 -13    2.70    1.50
  -3   3 -13    2.20    0.80
   3  -3  13    1.70    1.00
   3  -3  13    2.40    1.00
  -4   3 -13    2.50    1.60
  -4   3 -13    0.90    1.70
  -4   3 -13    1.10    0.90
   4  -3  13    1.80    1.00
   4  -3  13    1.80    1.00
   7   2 -13    4.00    1.10
  -7  -2  13    1.80    2.00
   6   2 -13    2.10    0.90
   6   2 -13    2.00    0.90
  -6  -2  13    2.30    1.80
   5   2 -13    2.90    1.00
   5   2 -13    2.00    1.00
  -5  -2  13    5.20    1.40
  -5  -2  13    1.80    1.60
   4   2 -13    0.20    0.70
   4   2 -13    0.00    0.90
  -4  -2  13   -0.40    1.00
  -4  -2  13   -1.10    1.40
   3   2 -13   10.00    1.90
   3   2 -13   11.10    1.70
  -3  -2  13   17.10    2.30
  -3  -2  13   15.20    1.90
   2   2 -13   13.50    1.70
   2   2 -13   10.30    1.80
  -2  -2  13   16.20    1.90
  -2  -2  13   15.40    2.10
  -2  -2  13   11.70    2.50
   1   2 -13    0.70    0.80
   1   2 -13    0.10    0.80
   1   2 -13   -1.30    1.10
  -1  -2  13   -0.40    0.80
  -1  -2  13    0.80    1.00
  -1  -2  13   -1.00    1.00
   0   2 -13   -0.80    0.90
   0   2 -13   -0.60    1.10
   0  -2  13    0.00    0.90
   0  -2  13   -0.70    1.10
   0  -2  13    0.70    0.80
  -1   2 -13   -0.60    0.70
  -1   2 -13    1.80    1.30
  -1   2 -13    0.90    1.20
   1  -2  13    0.70    0.90
   1  -2  13    1.80    0.90
   1  -2  13    1.40    0.90
  -2   2 -13   -1.30    1.30
  -2   2 -13   -0.80    0.60
  -2   2 -13   -0.80    1.30
   2  -2  13    0.10    0.80
   2  -2  13   -1.00    0.80
   2  -2  13    0.10    0.80
  -3   2 -13    1.60    1.40
  -3   2 -13    0.80    0.70
  -3   2 -13    1.20    1.70
   3  -2  13    2.10    0.90
   3  -2  13    2.60    1.00
   3  -2  13    1.70    0.90
  -4   2 -13    0.70    1.50
  -4   2 -13   -1.50    1.50
  -4   2 -13    0.00    0.80
   4  -2  13    0.70    0.90
   4  -2  13    1.70    0.90
   4  -2  13    2.30    1.00
   8   1 -13    2.10    1.30
   8   1 -13    2.00    1.00
  -8  -1  13   -2.20    1.60
  -8  -1  13   -2.80    2.00
  -8  -1  13    2.00    1.30
   7   1 -13    1.60    1.00
   7   1 -13    0.70    0.80
  -7  -1  13   -0.40    1.30
  -7  -1  13   -2.90    1.70
   6   1 -13   -0.50    0.80
   6   1 -13    1.10    1.00
  -6  -1  13   -1.50    1.60
  -6  -1  13    0.00    1.20
   5   1 -13    1.80    1.00
   5   1 -13    2.10    0.80
  -5  -1  13    1.70    1.50
   4   1 -13    4.80    1.30
   4   1 -13    3.50    0.90
  -4  -1  13    3.90    1.20
  -4  -1  13    4.20    1.50
   3   1 -13   16.90    2.50
   3   1 -13   19.20    2.10
  -3  -1  13   22.80    3.00
  -3  -1  13   24.70    2.30
  -3  -1  13   24.20    2.60
   2   1 -13    1.20    0.70
   2   1 -13   -0.80    1.00
  -2  -1  13    0.60    0.80
  -2  -1  13   -0.60    1.10
  -2  -1  13   -1.30    1.10
   1   1 -13   -1.00    1.00
   1   1 -13   -0.10    0.80
  -1  -1  13   -1.50    0.90
  -1  -1  13   -0.90    1.10
  -1  -1  13    0.20    0.90
   0   1 -13    2.10    1.00
   0   1 -13    0.20    1.20
   0  -1  13    0.30    0.80
   0  -1  13    1.00    0.90
  -1   1 -13   40.90    3.60
  -1   1 -13   29.00    2.90
  -1   1 -13   36.70    3.40
   1  -1  13   35.40    3.00
   1  -1  13   32.90    3.20
   1  -1  13   27.10    3.00
  -2   1 -13    2.40    0.80
  -2   1 -13    4.30    1.50
  -2   1 -13    3.30    1.40
   2  -1  13    3.70    0.90
   2  -1  13    2.70    0.90
   2  -1  13    4.40    1.10
  -3   1 -13   -1.20    1.30
  -3   1 -13   -0.60    0.60
  -3   1 -13   -0.20    1.30
   3  -1  13    0.70    0.80
   3  -1  13    0.20    0.80
   3  -1  13    0.90    0.90
   8   0 -13    4.60    1.40
   8   0 -13    5.80    1.40
   8   0 -13    5.80    1.20
  -8   0  13    4.50    2.10
  -8   0  13    6.00    1.90
  -8   0  13    3.80    2.10
   7   0 -13    0.10    0.80
   7   0 -13    1.60    1.00
  -7   0  13    0.70    1.30
  -7   0  13   -0.30    1.70
   6   0 -13    0.80    0.90
   6   0 -13    0.20    0.70
  -6   0  13   -2.10    1.60
  -6   0  13   -0.60    1.20
   5   0 -13    1.80    1.00
   5   0 -13    2.00    0.80
  -5   0  13    1.10    1.10
  -5   0  13    0.80    1.60
   4   0 -13    0.50    0.90
   4   0 -13    0.70    0.70
  -4   0  13    0.10    1.30
  -4   0  13   -2.10    1.50
   3   0 -13   25.50    2.50
   3   0 -13   22.40    2.90
  -3   0  13   34.40    2.70
   2   0 -13   13.80    2.20
   2   0 -13   15.10    1.90
  -2   0  13   18.60    1.90
  -2   0  13   21.00    2.30
   1   0 -13    5.40    1.40
   1   0 -13    5.60    1.20
  -1   0  13    5.60    2.00
  -1   0  13    5.30    1.10
  -1   0  13    6.00    1.30
   0   0 -13    0.20    1.00
   0   0 -13   -0.30    0.90
   0   0  13    0.20    0.90
   0   0  13   -0.10    0.70
  -1   0 -13    1.80    1.20
  -1   0 -13    1.70    1.20
  -1   0 -13    1.90    0.70
   1   0  13    1.70    0.80
   1   0  13    1.50    0.90
   1   0  13    1.90    0.80
  -2   0 -13    0.40    1.40
  -2   0 -13    0.90    0.70
  -2   0 -13    1.60    1.30
   2   0  13    0.50    0.70
   2   0  13    1.20    0.80
   2   0  13    1.90    1.00
  -3   0 -13    1.60    1.50
  -3   0 -13   -0.40    1.40
  -3   0 -13    0.60    0.70
   3   0  13    2.40    1.00
   3   0  13    1.00    0.80
   3   0  13    1.10    0.90
   8  -1 -13    2.90    1.00
   8  -1 -13    2.80    1.20
  -8   1  13    1.90    1.60
  -8   1  13    2.50    2.20
   7  -1 -13   12.70    1.90
   7  -1 -13   11.40    2.20
  -7   1  13   19.00    2.80
   6  -1 -13    1.20    0.80
   6  -1 -13    0.90    1.10
  -6   1  13   -1.40    1.50
  -6   1  13   -0.70    1.20
   5  -1 -13    0.30    1.00
   5  -1 -13    1.00    0.80
  -5   1  13   -0.90    1.60
  -5   1  13   -1.20    1.10
  -5   1  13   -1.60    1.30
   4  -1 -13    0.80    1.00
   4  -1 -13    1.00    0.60
  -4   1  13   -1.70    1.90
  -4   1  13   -1.00    1.00
  -4   1  13    1.10    1.20
   3  -1 -13    3.00    1.10
  -3   1  13    2.00    2.10
  -3   1  13    4.20    1.20
   2  -1 -13    0.40    0.80
   2  -1 -13    0.10    0.90
  -2   1  13   -0.60    1.10
  -2   1  13   -0.30    1.10
   1  -1 -13    4.90    1.30
   1  -1 -13    4.30    1.10
  -1   1  13    3.80    0.90
  -1   1  13    4.40    1.20
   0  -1 -13    8.10    1.50
   0  -1 -13    8.30    1.50
   0   1  13    6.40    1.30
   0   1  13    6.10    1.20
  -1  -1 -13   -0.30    1.00
  -1  -1 -13    0.60    1.00
  -1  -1 -13    0.00    1.20
   1   1  13    0.70    0.70
   1   1  13    0.40    0.90
   1   1  13   -0.40    0.70
  -2  -1 -13    0.20    1.10
  -2  -1 -13   -0.10    0.60
  -2  -1 -13   -0.20    1.10
   2   1  13    1.10    0.80
   2   1  13    1.40    0.90
   2   1  13    0.80    0.70
  -3  -1 -13    4.70    1.80
  -3  -1 -13    2.90    0.90
   3   1  13    3.10    1.00
   3   1  13    3.70    1.00
   3   1  13    4.20    1.20
  -8   2  13    0.50    1.80
  -8   2  13    1.60    1.50
   7  -2 -13    1.50    1.10
   7  -2 -13    1.50    0.90
  -7   2  13   -1.20    1.50
   6  -2 -13    2.00    0.80
   6  -2 -13    2.20    1.10
  -6   2  13   -2.10    1.40
  -6   2  13    1.30    1.30
   5  -2 -13    7.70    1.60
   5  -2 -13   10.80    1.50
  -5   2  13   13.00    2.20
  -5   2  13   10.70    1.80
  -4   2  13   60.89    5.00
  -4   2  13   52.49    4.90
   3  -2 -13    9.60    1.60
   3  -2 -13    6.80    1.40
  -3   2  13    5.40    1.20
   2  -2 -13   12.10    1.90
   2  -2 -13   13.10    2.10
  -2   2  13   16.50    2.10
   1  -2 -13    4.10    1.20
   1  -2 -13    3.70    1.20
  -1   2  13    4.30    1.20
   0  -2 -13    0.40    0.90
   0  -2 -13   -0.20    1.00
   0   2  13    0.90    1.00
   0   2  13    1.20    0.70
  -1  -2 -13    0.90    1.00
  -1  -2 -13    0.80    1.10
   1   2  13    0.10    0.70
   1   2  13    2.90    0.90
  -2  -2 -13   -0.30    0.70
  -2  -2 -13   -0.20    1.10
   2   2  13    0.60    0.90
   2   2  13    2.50    1.00
   2   2  13    0.40    0.70
   7  -3 -13    5.70    1.60
   7  -3 -13    4.80    1.10
  -7   3  13    6.50    2.00
  -7   3  13    5.90    1.60
   6  -3 -13    1.90    1.20
   6  -3 -13    0.60    1.20
  -6   3  13   -0.70    1.20
   5  -3 -13    5.10    1.40
  -5   3  13    3.80    1.30
  -5   3  13    5.60    1.50
   4  -3 -13   13.70    2.30
  -4   3  13   17.80    2.30
  -4   3  13   12.60    2.30
   3  -3 -13    3.70    1.20
   3  -3 -13    2.50    0.90
  -3   3  13   -0.60    1.00
  -3   3  13    1.20    1.10
   2  -3 -13    1.00    0.90
   2  -3 -13    2.70    1.10
  -2   3  13   -0.10    1.00
  -2   3  13   -2.00    1.10
   1  -3 -13    1.20    1.00
   1  -3 -13    2.90    1.10
  -1   3  13    1.60    1.00
   0  -3 -13    2.10    1.00
   0  -3 -13    0.20    1.10
   0   3  13    1.00    0.90
  -1  -3 -13    1.90    1.20
   1   3  13    3.10    1.00
   6  -4 -13    8.10    1.80
  -6   4  13   15.50    2.30
  -6   4  13    9.40    1.90
   5  -4 -13    1.70    1.20
  -5   4  13    1.20    1.30
  -5   4  13    0.60    1.20
   4  -4 -13    5.40    1.40
   4  -4 -13    5.00    1.30
  -4   4  13    5.00    1.50
  -4   4  13    6.50    1.50
   3  -4 -13    4.10    1.10
  -3   4  13    0.10    1.30
  -3   4  13    2.90    1.20
   2  -4 -13    1.50    1.10
   2  -4 -13    3.10    1.00
  -2   4  13   -1.80    1.10
  -2   4  13    1.00    1.00
   1  -4 -13    5.10    1.20
   1  -4 -13    4.60    1.30
  -1   4  13    4.50    1.20
  -1   4  13    3.30    1.30
   0  -4 -13    1.40    1.20
   0   4  13    2.70    1.00
   5  -5 -13    4.60    1.90
   5  -5 -13    5.40    1.50
  -5   5  13    2.10    1.40
  -5   5  13    5.70    1.60
   4  -5 -13    4.40    1.30
   4  -5 -13    2.90    1.10
  -4   5  13    3.40    1.40
   3  -5 -13    6.50    1.40
  -3   5  13    3.50    1.40
   2  -5 -13   14.80    2.20
   2  -5 -13   11.30    2.10
  -2   5  13   12.30    2.10
  -2  -7  14    1.00    2.80
   1   7 -14   -2.50    1.40
   1   7 -14   -0.90    1.10
  -1  -7  14   -2.10    1.50
   0   7 -14    1.70    1.30
   0   7 -14   -1.70    1.60
   0  -7  14   -2.20    1.50
   4   6 -14    7.90    1.80
  -4  -6  14    9.30    2.20
   3   6 -14    0.80    1.00
  -3  -6  14   -0.40    1.60
   2   6 -14   -1.70    1.10
   2   6 -14    0.90    1.00
  -2  -6  14   -1.20    1.40
   1   6 -14   -0.90    1.30
   1   6 -14    0.10    1.10
  -1  -6  14   -0.90    1.40
   0   6 -14   18.60    3.00
   0   6 -14   20.20    2.70
   0  -6  14   19.20    2.90
  -1   6 -14    1.80    1.80
  -1   6 -14    4.20    1.20
   1  -6  14    1.90    1.30
   1  -6  14    4.60    1.40
   2  -6  14    4.00    1.70
   5   5 -14    1.30    1.00
  -5  -5  14   -2.30    1.80
  -5  -5  14   -2.80    1.60
   4   5 -14    2.80    1.10
  -4  -5  14    2.90    1.80
  -4  -5  14    0.90    1.80
   3   5 -14    2.40    1.20
   3   5 -14    3.50    1.20
  -3  -5  14    1.60    1.70
  -3  -5  14    4.40    1.60
   2   5 -14    7.10    1.40
   2   5 -14    7.10    1.60
  -2  -5  14   11.90    1.90
  -2  -5  14    8.30    1.90
   1   5 -14   -1.00    1.30
   1   5 -14   -0.10    1.00
  -1  -5  14   -0.80    1.20
   0   5 -14    1.00    1.00
   0   5 -14    1.50    1.70
   0  -5  14    1.60    1.20
  -1   5 -14   20.90    3.20
   1  -5  14   26.20    2.90
   1  -5  14   19.90    2.60
  -2   5 -14    0.80    1.40
  -2   5 -14   -0.70    1.70
   2  -5  14   -1.60    1.50
   2  -5  14    1.10    1.10
   2  -5  14   -0.10    1.30
   6   4 -14    4.60    1.80
  -6  -4  14    0.70    1.70
  -6  -4  14   -1.30    2.00
   5   4 -14    3.50    1.10
  -5  -4  14    4.00    2.20
  -5  -4  14    3.40    1.80
   4   4 -14    0.90    0.90
   4   4 -14    0.20    1.00
  -4  -4  14   -0.40    1.40
  -4  -4  14   -0.60    1.80
   3   4 -14    2.10    1.20
   3   4 -14    2.70    1.00
  -3  -4  14    3.00    1.40
  -3  -4  14    2.60    1.60
   2   4 -14    5.50    1.20
   2   4 -14    6.40    1.50
  -2  -4  14    4.40    1.40
  -2  -4  14    2.90    1.60
   1   4 -14    0.00    1.40
   1   4 -14    0.20    1.00
  -1  -4  14    0.50    1.20
  -1  -4  14   -0.20    1.10
   0   4 -14    8.50    1.90
   0   4 -14    9.00    1.40
   0  -4  14    8.40    1.50
   0  -4  14   10.40    1.70
  -1   4 -14   -0.70    1.60
  -1   4 -14   -0.30    1.30
   1  -4  14    1.10    1.00
   1  -4  14    1.90    1.00
  -2   4 -14   -0.90    1.60
  -2   4 -14   -0.10    1.30
   2  -4  14   -0.10    1.00
   2  -4  14   -1.00    1.00
   6   3 -14    7.40    1.40
  -6  -3  14    7.10    1.80
  -6  -3  14    7.80    2.30
   5   3 -14    9.70    1.80
   5   3 -14   11.20    1.80
  -5  -3  14   10.30    2.30
  -5  -3  14   10.60    1.80
   4   3 -14    5.30    1.30
   4   3 -14    6.00    1.20
  -4  -3  14    9.40    1.60
  -4  -3  14    7.80    2.00
   3   3 -14    0.50    0.90
   3   3 -14   -0.60    1.00
  -3  -3  14   -2.80    1.30
   2   3 -14   -0.90    1.20
   2   3 -14    1.70    0.90
  -2  -3  14    1.10    1.30
  -2  -3  14    1.00    1.10
   1   3 -14    0.60    0.80
   1   3 -14   -1.50    1.20
  -1  -3  14   -0.50    1.00
  -1  -3  14   -0.20    1.10
   0   3 -14    5.10    1.30
   0   3 -14    5.40    1.70
   0  -3  14    4.00    1.30
   0  -3  14    4.70    1.20
  -1   3 -14   -1.20    1.50
  -1   3 -14   -1.00    1.20
  -1   3 -14   -0.10    0.70
   1  -3  14    0.00    0.90
   1  -3  14    0.00    0.90
   1  -3  14    0.30    0.90
  -2   3 -14    1.20    1.70
  -2   3 -14    3.10    1.60
  -2   3 -14    1.90    0.80
   2  -3  14    2.30    1.00
   2  -3  14    4.10    1.10
   2  -3  14    1.40    1.00
  -3   3 -14    2.10    1.60
  -3   3 -14    2.20    0.90
  -3   3 -14    1.90    1.90
   3  -3  14    1.90    1.90
   3  -3  14    3.80    1.10
  -7  -2  14    1.60    2.50
   6   2 -14    3.30    1.10
   6   2 -14    2.90    1.00
  -6  -2  14    3.40    2.00
   5   2 -14    1.70    1.00
   5   2 -14    1.90    0.90
  -5  -2  14    0.50    1.60
  -5  -2  14    0.70    1.40
   4   2 -14   -0.20    0.90
   4   2 -14    0.50    0.80
  -4  -2  14   -2.60    1.40
  -4  -2  14    0.00    1.20
   3   2 -14    0.10    0.80
   3   2 -14   -0.20    1.00
  -3  -2  14   -1.40    1.50
  -3  -2  14   -0.20    1.10
   2   2 -14    2.20    1.30
   2   2 -14    4.40    1.00
  -2  -2  14    3.20    1.10
  -2  -2  14    1.20    1.40
  -2  -2  14    2.50    1.40
   1   2 -14    1.20    1.30
  -1  -2  14    2.50    1.00
  -1  -2  14    2.90    1.20
   0   2 -14    6.30    1.40
   0   2 -14    6.30    1.70
   0  -2  14    6.70    1.50
   0  -2  14    5.70    1.30
  -1   2 -14   -1.60    1.30
  -1   2 -14   -0.70    1.40
   1  -2  14    1.40    1.30
   1  -2  14    0.50    0.90
   1  -2  14    0.80    1.00
  -2   2 -14   24.20    2.50
  -2   2 -14   30.10    3.40
  -2   2 -14   28.40    3.40
   2  -2  14   24.30    2.70
   2  -2  14   20.50    2.60
   2  -2  14   27.70    2.60
   3  -2  14    2.60    1.10
   7   1 -14    1.10    0.90
  -7  -1  14   -4.30    2.00
   6   1 -14    4.80    1.20
   6   1 -14    4.80    1.30
  -6  -1  14    6.00    2.00
   5   1 -14    0.60    0.80
   5   1 -14    0.80    1.10
  -5  -1  14   -2.00    1.50
   4   1 -14   10.30    1.60
   4   1 -14    6.90    1.50
  -4  -1  14    9.10    1.70
  -4  -1  14    9.60    1.90
   3   1 -14    0.20    1.10
   3   1 -14    1.20    0.70
  -3  -1  14    0.30    1.00
  -3  -1  14   -1.60    1.40
  -3  -1  14   -0.10    1.40
   2   1 -14    3.40    1.30
  -2  -1  14    3.80    1.10
  -2  -1  14    4.90    1.50
   1   1 -14   -0.70    0.80
   1   1 -14   -1.30    1.10
  -1  -1  14    0.00    0.80
  -1  -1  14   -0.40    1.00
   0   1 -14   -0.50    1.00
   0   1 -14   -0.80    1.20
   0  -1  14   -1.00    0.90
   0  -1  14   -0.40    0.90
  -1   1 -14    0.40    1.30
  -1   1 -14   -1.70    1.30
   1  -1  14    1.30    0.90
   1  -1  14    0.90    0.90
  -2   1 -14   -0.30    0.70
  -2   1 -14   -1.10    1.40
  -2   1 -14   -0.50    1.40
   2  -1  14    1.70    0.90
   2  -1  14    2.30    1.00
   2  -1  14    0.70    0.90
   7   0 -14    2.00    1.00
   7   0 -14    1.80    1.00
  -7   0  14   -0.60    1.40
  -7   0  14   -1.40    1.80
   6   0 -14    0.60    0.90
   6   0 -14    1.20    1.00
  -6   0  14   -3.50    1.60
   5   0 -14    0.60    1.00
   5   0 -14    1.40    0.80
  -5   0  14   -2.70    1.50
   4   0 -14   15.40    1.90
   4   0 -14   12.60    2.20
  -4   0  14   20.30    2.60
   3   0 -14    3.80    1.30
  -3   0  14    6.00    1.50
   2   0 -14    0.60    1.10
  -2   0  14    0.20    1.10
  -2   0  14    0.60    0.80
   1   0 -14    6.90    1.60
   1   0 -14    7.70    1.40
  -1   0  14    7.80    1.40
  -1   0  14    6.50    1.20
   0   0 -14   15.80    2.30
   0   0 -14   17.90    2.50
   0   0  14   14.90    2.10
   0   0  14   12.90    1.90
  -1   0 -14   -0.40    1.40
  -1   0 -14   -1.40    1.20
   1   0  14    0.60    0.80
   1   0  14    1.30    1.10
  -2   0 -14    3.00    0.90
  -2   0 -14    3.70    1.60
  -2   0 -14    5.00    1.50
   2   0  14    4.40    1.00
   2   0  14    4.20    1.20
   2   0  14    3.60    1.00
   7  -1 -14    2.00    1.10
   7  -1 -14    2.20    1.00
  -7   1  14   -0.90    1.50
  -7   1  14   -1.50    1.80
   6  -1 -14    1.50    0.80
   6  -1 -14    1.10    1.00
  -6   1  14   -2.00    1.50
  -6   1  14   -1.60    1.20
   5  -1 -14    4.60    1.00
   5  -1 -14    4.10    1.30
  -5   1  14    4.00    1.80
  -5   1  14    3.10    1.60
   4  -1 -14    1.50    1.10
  -4   1  14    1.00    1.30
   3  -1 -14    1.10    1.10
  -3   1  14    1.00    1.20
   2  -1 -14    0.60    0.80
   2  -1 -14    0.20    1.10
  -2   1  14    0.60    1.10
   1  -1 -14    2.10    1.20
   1  -1 -14    1.50    1.00
  -1   1  14    1.60    1.10
  -1   1  14    0.90    0.90
   0  -1 -14   11.80    2.10
   0  -1 -14    8.20    1.60
   0   1  14    6.20    1.20
   0   1  14    7.90    1.40
  -1  -1 -14    1.30    1.20
  -1  -1 -14    0.70    1.20
   1   1  14    1.70    1.00
   1   1  14    1.20    0.80
   6  -2 -14    5.00    1.10
   6  -2 -14    5.50    1.40
  -6   2  14    6.40    1.80
  -6   2  14    4.40    1.50
   5  -2 -14    2.00    1.10
  -5   2  14    1.30    1.40
  -5   2  14   -0.40    1.20
   4  -2 -14    5.60    1.50
  -4   2  14    5.40    1.40
  -4   2  14    9.30    1.60
   3  -2 -14    0.80    1.00
   3  -2 -14    1.70    1.10
  -3   2  14    0.90    1.20
   2  -2 -14    0.50    1.00
   2  -2 -14    0.00    0.90
  -2   2  14    0.40    1.00
   1  -2 -14    2.90    1.10
   1  -2 -14    1.40    1.10
  -1   2  14    1.30    1.00
   0  -2 -14    0.70    1.10
   0  -2 -14   -0.70    1.00
   0   2  14    1.30    0.90
   6  -3 -14    2.80    1.50
  -6   3  14    1.20    1.50
  -6   3  14    0.00    1.40
   5  -3 -14    3.70    1.30
  -5   3  14   -1.30    1.20
  -5   3  14    1.50    1.40
   4  -3 -14    4.50    1.30
  -4   3  14    6.80    1.60
  -4   3  14    3.00    1.30
   3  -3 -14    2.10    1.10
   3  -3 -14    2.30    1.00
  -3   3  14   -0.80    1.20
  -3   3  14    1.70    1.20
   2  -3 -14    2.90    1.10
   2  -3 -14    1.50    1.00
  -2   3  14    3.00    1.30
   1  -3 -14    1.00    1.00
   1  -3 -14    0.70    1.10
  -1   3  14    1.50    1.00
  -4   4  14    0.00    1.30
  -4   4  14    3.10    1.30
  -3   4  14    2.90    1.40
  -3   4  14    5.10    1.30
   3   5 -15   -0.30    1.00
   3   5 -15   -0.20    1.10
  -3  -5  15   -1.70    1.60
   2   5 -15   -1.30    1.10
   2   5 -15   -1.20    1.30
  -2  -5  15   -1.40    1.50
   1   5 -15    0.40    1.10
   1   5 -15    0.70    1.50
  -1  -5  15   -0.40    1.40
   0   5 -15   19.20    3.20
   0   5 -15   18.20    2.60
   0  -5  15   19.80    3.00
   4   4 -15    1.00    1.10
   4   4 -15    1.20    0.90
  -4  -4  15   -0.30    1.50
  -4  -4  15   -2.80    1.70
   3   4 -15    0.80    1.00
   3   4 -15   -0.10    1.10
  -3  -4  15   -3.30    1.50
  -3  -4  15   -1.80    1.40
   2   4 -15    0.80    1.10
   2   4 -15   -0.80    1.20
  -2  -4  15   -0.50    1.30
  -2  -4  15   -3.10    1.60
   1   4 -15    8.90    1.60
   1   4 -15    8.60    2.00
  -1  -4  15   10.00    1.70
  -1  -4  15    9.70    1.80
   0   4 -15    8.60    2.00
   0  -4  15    9.30    1.60
  -1   4 -15    5.50    2.40
  -1   4 -15    5.20    2.10
   1  -4  15    6.40    1.50
   5   3 -15    1.30    0.90
   5   3 -15    2.80    1.10
  -5  -3  15   -3.40    2.00
  -5  -3  15   -2.50    1.40
   4   3 -15    5.70    1.30
   4   3 -15    6.20    1.50
  -4  -3  15    6.20    2.00
  -4  -3  15    5.50    1.80
   3   3 -15    6.90    1.30
   3   3 -15    8.40    1.70
  -3  -3  15   11.10    1.90
  -3  -3  15   10.30    2.10
   2   3 -15    2.80    1.00
   2   3 -15    1.50    1.40
  -2  -3  15    2.70    1.50
  -2  -3  15    1.50    1.40
   1   3 -15    2.10    1.50
  -1  -3  15    3.50    1.40
  -1  -3  15    3.70    1.30
   0   3 -15    2.20    1.80
   0  -3  15    2.80    1.20
   0  -3  15    4.20    1.50
  -1   3 -15    2.40    1.80
  -1   3 -15    0.00    1.40
   1  -3  15    2.10    1.20
   1  -3  15   -0.40    1.10
   5   2 -15    0.20    0.80
   5   2 -15    1.40    1.00
  -5  -2  15   -1.60    1.80
   4   2 -15    5.60    1.40
   4   2 -15    5.40    1.20
  -4  -2  15    5.50    1.90
  -4  -2  15    6.90    1.70
   3   2 -15   -0.40    1.10
   3   2 -15    1.30    0.80
  -3  -2  15   -1.30    1.20
   2   2 -15    4.40    1.60
  -2  -2  15    5.30    1.50
  -2  -2  15    5.60    1.40
   1   2 -15    1.80    1.60
  -1  -2  15    2.20    1.30
  -1  -2  15    2.60    1.20
   0   2 -15    1.30    1.70
   0   2 -15    0.00    1.10
   0  -2  15    0.20    1.10
   0  -2  15    1.30    1.00
  -1   2 -15   -1.30    1.30
  -1   2 -15   -0.60    1.60
   1  -2  15   -1.10    1.00
   1  -2  15    1.70    1.20
  -6  -1  15    8.70    2.80
   5   1 -15    0.70    0.80
   5   1 -15    0.40    1.00
  -5  -1  15   -3.10    1.60
   4   1 -15    0.60    0.80
   4   1 -15   -0.10    1.20
  -4  -1  15   -2.60    1.50
   3   1 -15    0.50    1.20
  -3  -1  15   -0.80    1.30
  -3  -1  15   -0.40    1.00
   2   1 -15    2.10    1.30
  -2  -1  15    1.00    1.00
  -2  -1  15    1.30    1.50
   1   1 -15    0.80    1.30
  -1  -1  15    0.10    1.30
  -1  -1  15    0.30    1.00
   0   1 -15   10.60    2.10
   0   1 -15   10.10    1.90
   0  -1  15   11.80    2.00
   0  -1  15    9.20    1.60
  -1   1 -15    2.90    1.70
  -1   1 -15    2.40    1.40
   1  -1  15    4.80    1.20
   1  -1  15    4.00    1.10
   5   0 -15    0.20    1.00
   5   0 -15    1.30    0.90
  -5   0  15   -2.40    1.60
   4   0 -15    0.20    1.00
  -4   0  15   -1.40    1.40
   3   0 -15    1.10    1.10
  -3   0  15   -0.10    1.30
   2   0 -15    0.80    1.20
  -2   0  15    1.60    1.20
   1   0 -15   17.60    2.70
   1   0 -15   18.40    2.60
  -1   0  15   16.30    2.20
  -1   0  15   19.50    2.70
   0   0 -15    0.90    1.30
   0   0 -15    1.90    1.50
   0   0  15    1.90    1.20
   0   0  15    1.30    0.90
   5  -1 -15    4.90    1.40
  -5   1  15    5.80    1.80
   4  -1 -15    1.60    1.20
  -4   1  15    0.60    1.40
   3  -1 -15    2.30    1.20
  -3   1  15    2.40    1.40
   2  -1 -15    0.10    1.00
   2  -1 -15    0.80    1.10
  -2   1  15   -0.80    1.10
   1  -1 -15    2.30    1.10
   1  -1 -15    3.20    1.30
  -1   1  15    3.00    1.20
   4  -2 -15    4.00    1.50
  -4   2  15    3.70    1.70
   3  -2 -15    0.40    1.10
  -3   2  15   -0.20    1.20
   2  -2 -15    2.90    1.20
  -2   2  15    3.00    1.40

_computing_structure_solution     'SHELXT 2014/4 (Sheldrick, 2014)'
;
_shelx_hkl_checksum              30158
loop_
_space_group_symop_operation_xyz
'x, y, z'
'-x, -y, -z'
loop_
_atom_site_label
_atom_site_type_symbol
_atom_site_fract_x
_atom_site_fract_y
_atom_site_fract_z
_atom_site_U_iso_or_equiv
_atom_site_adp_type
_atom_site_occupancy
_atom_site_site_symmetry_order
_atom_site_calc_flag
_atom_site_refinement_flags_posn
_atom_site_refinement_flags_adp
O1 O 0.25832(17) 0.18653(16) 0.29532(12) 0.0471(4) Uani 1 1 d . .
O2 O -0.23908(18) 0.05316(19) 0.06709(13) 0.0535(4) Uani 1 1 d . .
O3 O -0.0130(2) -0.04063(19) 0.13373(17) 0.0652(5) Uani 1 1 d . .
N2 N 0.63043(18) 0.33339(18) 0.54386(13) 0.0368(4) Uani 1 1 d . .
N1 N 0.3694(2) 0.16099(17) 0.48925(15) 0.0394(4) Uani 1 1 d . .
C8 C 0.6375(2) 0.4346(2) 0.36053(15) 0.0352(4) Uani 1 1 d . .
C17 C -0.0792(2) 0.0687(2) 0.13343(17) 0.0427(4) Uani 1 1 d . .
C7 C 0.5495(2) 0.3380(2) 0.42976(15) 0.0347(4) Uani 1 1 d . .
C14 C 0.3884(2) 0.2344(2) 0.39743(16) 0.0387(4) Uani 1 1 d . .
C6 C 0.5217(2) 0.2261(2) 0.57817(16) 0.0374(4) Uani 1 1 d . .
C9 C 0.8059(2) 0.5263(2) 0.40899(18) 0.0453(5) Uani 1 1 d . .
H9 H 0.8604 0.5268 0.4865 0.054 Uiso 1 1 calc R U
C16 C -0.0047(3) 0.2322(3) 0.20236(19) 0.0488(5) Uani 1 1 d . .
H16 H -0.0703 0.3057 0.1918 0.059 Uiso 1 1 calc R U
C15 C 0.1487(2) 0.2840(2) 0.27861(17) 0.0437(4) Uani 1 1 d . .
H15 H 0.1831 0.3889 0.3219 0.052 Uiso 1 1 calc R U
C2 C 0.5389(3) 0.1701(3) 0.68456(19) 0.0479(5) Uani 1 1 d . .
C5 C 0.2367(3) 0.0418(2) 0.4984(2) 0.0516(5) Uani 1 1 d . .
H5 H 0.1370 0.0008 0.4370 0.062 Uiso 1 1 calc R U
C10 C 0.8944(3) 0.6162(3) 0.3455(2) 0.0530(5) Uani 1 1 d . .
H10 H 1.0070 0.6767 0.3803 0.064 Uiso 1 1 calc R U
C13 C 0.5615(3) 0.4367(3) 0.2445(2) 0.0569(6) Uani 1 1 d . .
H13 H 0.4491 0.3762 0.2088 0.068 Uiso 1 1 calc R U
C18 C -0.3230(3) -0.1014(3) -0.0074(2) 0.0629(6) Uani 1 1 d . .
H18A H -0.2603 -0.1236 -0.0647 0.094 Uiso 1 1 calc R U
H18B H -0.4382 -0.1027 -0.0473 0.094 Uiso 1 1 calc R U
H18C H -0.3266 -0.1816 0.0397 0.094 Uiso 1 1 calc R U
C3 C 0.4058(3) 0.0504(3) 0.6918(2) 0.0582(6) Uani 1 1 d . .
H3 H 0.4153 0.0102 0.7605 0.070 Uiso 1 1 calc R U
C4 C 0.2553(3) -0.0138(3) 0.5990(2) 0.0608(6) Uani 1 1 d . .
H4 H 0.1680 -0.0954 0.6072 0.073 Uiso 1 1 calc R U
C11 C 0.8166(3) 0.6169(3) 0.2307(2) 0.0585(6) Uani 1 1 d . .
H11 H 0.8759 0.6772 0.1872 0.070 Uiso 1 1 calc R U
C12 C 0.6508(3) 0.5275(4) 0.1815(2) 0.0707(8) Uani 1 1 d . .
H12 H 0.5973 0.5280 0.1039 0.085 Uiso 1 1 calc R U
C1 C 0.7001(3) 0.2420(4) 0.7814(2) 0.0673(7) Uani 1 1 d . .
H1A H 0.6855 0.2072 0.8523 0.101 Uiso 1 1 calc R U
H1B H 0.7242 0.3568 0.7950 0.101 Uiso 1 1 calc R U
H1C H 0.7942 0.2083 0.7591 0.101 Uiso 1 1 calc R U
loop_
_atom_site_aniso_label
_atom_site_aniso_U_11
_atom_site_aniso_U_22
_atom_site_aniso_U_33
_atom_site_aniso_U_23
_atom_site_aniso_U_13
_atom_site_aniso_U_12
O1 0.0383(7) 0.0435(8) 0.0479(8) -0.0018(6) -0.0010(6) 0.0071(5)
O2 0.0416(7) 0.0606(9) 0.0497(8) 0.0055(7) -0.0009(6) 0.0123(6)
O3 0.0512(9) 0.0450(9) 0.0843(12) 0.0090(8) -0.0079(8) 0.0100(7)
N2 0.0355(7) 0.0382(8) 0.0383(8) 0.0129(6) 0.0084(6) 0.0107(6)
N1 0.0399(8) 0.0305(7) 0.0485(9) 0.0086(6) 0.0146(7) 0.0074(6)
C8 0.0364(8) 0.0317(8) 0.0376(9) 0.0098(7) 0.0078(7) 0.0092(6)
C17 0.0358(9) 0.0493(11) 0.0409(10) 0.0154(8) 0.0056(7) 0.0074(7)
C7 0.0352(8) 0.0306(8) 0.0374(9) 0.0081(7) 0.0070(7) 0.0081(6)
C14 0.0375(9) 0.0337(9) 0.0406(9) 0.0042(7) 0.0053(7) 0.0073(7)
C6 0.0393(9) 0.0338(8) 0.0439(10) 0.0116(7) 0.0142(7) 0.0135(7)
C9 0.0386(9) 0.0504(11) 0.0422(10) 0.0114(8) 0.0059(7) 0.0050(8)
C16 0.0475(10) 0.0472(11) 0.0495(11) 0.0113(9) 0.0034(8) 0.0162(8)
C15 0.0463(10) 0.0370(9) 0.0436(10) 0.0074(8) 0.0070(8) 0.0073(7)
C2 0.0560(12) 0.0510(11) 0.0518(11) 0.0238(9) 0.0254(9) 0.0251(9)
C5 0.0467(11) 0.0370(10) 0.0718(14) 0.0093(9) 0.0237(10) 0.0055(8)
C10 0.0417(10) 0.0539(12) 0.0602(13) 0.0184(10) 0.0124(9) 0.0020(9)
C13 0.0481(11) 0.0657(14) 0.0463(12) 0.0227(10) -0.0018(9) -0.0012(10)
C18 0.0456(11) 0.0669(15) 0.0599(14) -0.0004(11) -0.0005(10) 0.0044(10)
C3 0.0722(15) 0.0551(13) 0.0692(15) 0.0319(11) 0.0407(12) 0.0265(11)
C4 0.0631(14) 0.0475(12) 0.0830(17) 0.0230(11) 0.0387(13) 0.0110(10)
C11 0.0588(13) 0.0573(13) 0.0662(14) 0.0334(11) 0.0198(11) 0.0112(10)
C12 0.0649(15) 0.0883(19) 0.0546(14) 0.0398(13) 0.0028(11) 0.0063(13)
C1 0.0648(15) 0.0914(19) 0.0549(14) 0.0376(13) 0.0133(11) 0.0262(13)
loop_
_atom_type_symbol
_atom_type_description
_atom_type_scat_dispersion_real
_atom_type_scat_dispersion_imag
_atom_type_scat_source
C C 0.0033 0.0016 'International Tables Vol C Tables 4.2.6.8 and 6.1.1.4'
H H 0.0000 0.0000 'International Tables Vol C Tables 4.2.6.8 and 6.1.1.4'
N N 0.0061 0.0033 'International Tables Vol C Tables 4.2.6.8 and 6.1.1.4'
O O 0.0106 0.0060 'International Tables Vol C Tables 4.2.6.8 and 6.1.1.4'
loop_
_geom_angle_atom_site_label_1
_geom_angle_atom_site_label_2
_geom_angle_atom_site_label_3
_geom_angle
C14 O1 C15 116.03(14)
C17 O2 C18 115.59(17)
C6 N2 C7 106.48(15)
C14 N1 C5 130.49(18)
C14 N1 C6 106.06(14)
C5 N1 C6 123.39(18)
C13 C8 C9 117.17(18)
C13 C8 C7 122.63(17)
C9 C8 C7 120.18(16)
O3 C17 O2 122.53(19)
O3 C17 C16 126.83(17)
O2 C17 C16 110.64(17)
C14 C7 N2 108.93(16)
C14 C7 C8 129.47(17)
N2 C7 C8 121.51(15)
N1 C14 O1 118.11(16)
N1 C14 C7 107.77(16)
O1 C14 C7 133.94(18)
N2 C6 N1 110.73(16)
N2 C6 C2 130.86(18)
N1 C6 C2 118.40(17)
C10 C9 C8 121.83(19)
C10 C9 H9 119.1
C8 C9 H9 119.1
C15 C16 C17 125.14(18)
C15 C16 H16 117.4
C17 C16 H16 117.4
C16 C15 O1 121.53(18)
C16 C15 H15 119.2
O1 C15 H15 119.2
C3 C2 C6 117.4(2)
C3 C2 C1 123.9(2)
C6 C2 C1 118.7(2)
C4 C5 N1 118.0(2)
C4 C5 H5 121.0
N1 C5 H5 121.0
C9 C10 C11 120.1(2)
C9 C10 H10 120.0
C11 C10 H10 120.0
C12 C13 C8 120.7(2)
C12 C13 H13 119.7
C8 C13 H13 119.7
O2 C18 H18A 109.5
O2 C18 H18B 109.5
H18A C18 H18B 109.5
O2 C18 H18C 109.5
H18A C18 H18C 109.5
H18B C18 H18C 109.5
C2 C3 C4 122.3(2)
C2 C3 H3 118.8
C4 C3 H3 118.8
C5 C4 C3 120.5(2)
C5 C4 H4 119.7
C3 C4 H4 119.7
C12 C11 C10 119.0(2)
C12 C11 H11 120.5
C10 C11 H11 120.5
C11 C12 C13 121.3(2)
C11 C12 H12 119.4
C13 C12 H12 119.4
C2 C1 H1A 109.5
C2 C1 H1B 109.5
H1A C1 H1B 109.5
C2 C1 H1C 109.5
H1A C1 H1C 109.5
H1B C1 H1C 109.5
loop_
_geom_bond_atom_site_label_1
_geom_bond_atom_site_label_2
_geom_bond_distance
O1 C14 1.369(2)
O1 C15 1.372(2)
O2 C17 1.345(2)
O2 C18 1.432(3)
O3 C17 1.197(3)
N2 C6 1.327(2)
N2 C7 1.383(2)
N1 C14 1.366(2)
N1 C5 1.374(2)
N1 C6 1.393(2)
C8 C13 1.386(3)
C8 C9 1.389(2)
C8 C7 1.456(2)
C17 C16 1.461(3)
C7 C14 1.372(2)
C6 C2 1.412(3)
C9 C10 1.375(3)
C9 H9 0.9300
C16 C15 1.322(3)
C16 H16 0.9300
C15 H15 0.9300
C2 C3 1.370(3)
C2 C1 1.494(3)
C5 C4 1.346(4)
C5 H5 0.9300
C10 C11 1.373(3)
C10 H10 0.9300
C13 C12 1.379(3)
C13 H13 0.9300
C18 H18A 0.9600
C18 H18B 0.9600
C18 H18C 0.9600
C3 C4 1.407(4)
C3 H3 0.9300
C4 H4 0.9300
C11 C12 1.367(3)
C11 H11 0.9300
C12 H12 0.9300
C1 H1A 0.9600
C1 H1B 0.9600
C1 H1C 0.9600
