#------------------------------------------------------------------------------
#$Date: 2019-11-17 14:47:45 +0200 (Sun, 17 Nov 2019) $
#$Revision: 230608 $
#$URL: file:///home/coder/svn-repositories/cod/cif/7/15/65/7156540.cif $
#------------------------------------------------------------------------------
#
# This file is available in the Crystallography Open Database (COD),
# http://www.crystallography.net/
#
# All data on this site have been placed in the public domain by the
# contributors.
#
data_7156540
loop_
_publ_author_name
'Chandrasekhar, Attoor'
'Ramkumar, Venkatachalam'
'Sankararaman, Sethuraman'
_publ_section_title
;
 Palladium catalyzed carbonylative annulation of the C(sp<sup>2</sup>)-H
 bond of N,1-diaryl-1H-tetrazol-5-amines and
 N,4-diaryl-4H-triazol-3-amines to quinazolinones.
;
_journal_issue                   44
_journal_name_full               'Organic &amp; biomolecular chemistry'
_journal_page_first              8629
_journal_page_last               8638
_journal_paper_doi               10.1039/c8ob02516a
_journal_volume                  16
_journal_year                    2018
_chemical_formula_moiety         'C15 H10 F N5 O'
_chemical_formula_sum            'C15 H10 F N5 O'
_chemical_formula_weight         295.28
_space_group_crystal_system      triclinic
_space_group_IT_number           2
_space_group_name_Hall           '-P 1'
_space_group_name_H-M_alt        'P -1'
_symmetry_space_group_name_Hall  '-P 1'
_symmetry_space_group_name_H-M   'P -1'
_atom_sites_solution_hydrogens   geom
_audit_creation_method           SHELXL-2014/7
_audit_update_record
;
2018-04-03 deposited with the CCDC.
2018-10-25 downloaded from the CCDC.
;
_cell_angle_alpha                77.8244(14)
_cell_angle_beta                 77.638(2)
_cell_angle_gamma                85.281(2)
_cell_formula_units_Z            2
_cell_length_a                   6.7614(3)
_cell_length_b                   8.5686(4)
_cell_length_c                   11.9894(4)
_cell_measurement_reflns_used    2931
_cell_measurement_temperature    296(2)
_cell_measurement_theta_max      25.62
_cell_measurement_theta_min      2.71
_cell_volume                     662.75(5)
_computing_cell_refinement       'Bruker SAINT'
_computing_data_collection       'Bruker APEX2'
_computing_data_reduction        'Bruker SAINT'
_computing_molecular_graphics    'Bruker SHELXTL'
_computing_publication_material  'Bruker SHELXTL'
_computing_structure_refinement  'SHELXL-2014/7 (Sheldrick, 2014)'
_computing_structure_solution    'SHELXS-97 (Sheldrick 2008)'
_diffrn_ambient_temperature      296(2)
_diffrn_measured_fraction_theta_full 0.978
_diffrn_measured_fraction_theta_max 0.978
_diffrn_measurement_device_type  'Bruker APEX-II CCD'
_diffrn_measurement_method       '\f and \w scans'
_diffrn_radiation_type           MoK\a
_diffrn_radiation_wavelength     0.71073
_diffrn_reflns_av_R_equivalents  0.0227
_diffrn_reflns_av_unetI/netI     0.0253
_diffrn_reflns_Laue_measured_fraction_full 0.978
_diffrn_reflns_Laue_measured_fraction_max 0.978
_diffrn_reflns_limit_h_max       8
_diffrn_reflns_limit_h_min       -8
_diffrn_reflns_limit_k_max       9
_diffrn_reflns_limit_k_min       -10
_diffrn_reflns_limit_l_max       14
_diffrn_reflns_limit_l_min       -14
_diffrn_reflns_number            9042
_diffrn_reflns_point_group_measured_fraction_full 0.978
_diffrn_reflns_point_group_measured_fraction_max 0.978
_diffrn_reflns_theta_full        24.993
_diffrn_reflns_theta_max         24.993
_diffrn_reflns_theta_min         1.774
_exptl_absorpt_coefficient_mu    0.109
_exptl_absorpt_correction_T_max  0.989
_exptl_absorpt_correction_T_min  0.973
_exptl_absorpt_correction_type   multi-scan
_exptl_absorpt_process_details   'SADABS V2014/5(Bruker AXS.Inc)'
_exptl_crystal_colour            yellow
_exptl_crystal_density_diffrn    1.480
_exptl_crystal_description       REctangular
_exptl_crystal_F_000             304
_exptl_crystal_size_max          0.250
_exptl_crystal_size_mid          0.220
_exptl_crystal_size_min          0.100
_refine_diff_density_max         0.127
_refine_diff_density_min         -0.188
_refine_diff_density_rms         0.036
_refine_ls_extinction_method     none
_refine_ls_goodness_of_fit_ref   1.049
_refine_ls_hydrogen_treatment    constr
_refine_ls_matrix_type           full
_refine_ls_number_parameters     200
_refine_ls_number_reflns         2276
_refine_ls_number_restraints     0
_refine_ls_restrained_S_all      1.049
_refine_ls_R_factor_all          0.0557
_refine_ls_R_factor_gt           0.0373
_refine_ls_shift/su_max          0.001
_refine_ls_shift/su_mean         0.000
_refine_ls_structure_factor_coef Fsqd
_refine_ls_weighting_details
'w=1/[\s^2^(Fo^2^)+(0.0467P)^2^+0.1295P] where P=(Fo^2^+2Fc^2^)/3'
_refine_ls_weighting_scheme      calc
_refine_ls_wR_factor_gt          0.0873
_refine_ls_wR_factor_ref         0.1018
_reflns_Friedel_coverage         0.000
_reflns_number_gt                1697
_reflns_number_total             2276
_reflns_threshold_expression     'I > 2\s(I)'
_cod_data_source_file            c8ob02516a2.cif
_cod_data_source_block           1075
_cod_depositor_comments
'Adding full bibliography for 7156537--7156540.cif.'
_cod_database_code               7156540
_shelx_shelxl_version_number     2014/7
_shelx_space_group_comment
; 
The symmetry employed for this shelxl refinement is uniquely defined 
by the following loop, which should always be used as a source of 
symmetry information in preference to the above space-group names. 
They are only intended as comments. 
;
_shelx_estimated_absorpt_t_min   0.973
_shelx_estimated_absorpt_t_max   0.989
_shelx_res_file
; 
  
    1075.res created by SHELXL-2014/7 
  
TITL 1075 in P-1 
CELL 0.71073   6.76140   8.56862  11.98945  77.8244  77.6383  85.2805 
ZERR   2.00   0.00030   0.00039   0.00039   0.0014   0.0023   0.0023 
LATT 1 
SFAC C  H  N  O  F 
UNIT 30  20  10  2  2 
OMIT -3 50 
L.S. 8 
ACTA 
BOND $H 
FMAP 2 
PLAN 5 
CONF 
SIZE 0.10 0.22 0.25 
TEMP 23.000 
WGHT    0.046700    0.129500 
FVAR       0.24262 
MOLE 1 
C1    1    0.211230    0.253181    1.066343    11.00000    0.03643    0.03268 = 
         0.03598   -0.00384   -0.00868   -0.00284 
C2    1    0.148189    0.294478    1.176166    11.00000    0.04899    0.04147 = 
         0.03786   -0.00149   -0.00890   -0.00799 
AFIX  43 
H2    2    0.109305    0.216394    1.242545    11.00000   -1.20000 
AFIX   0 
C3    1    0.145141    0.449909    1.183494    11.00000    0.04394    0.05017 = 
         0.03751   -0.01571   -0.00576   -0.00543 
C4    1    0.201509    0.571287    1.087381    11.00000    0.03857    0.03464 = 
         0.04987   -0.01330   -0.00842   -0.00359 
AFIX  43 
H4    2    0.197818    0.677000    1.095773    11.00000   -1.20000 
AFIX   0 
C5    1    0.262533    0.532148    0.980178    11.00000    0.03809    0.03053 = 
         0.04324   -0.00478   -0.00729   -0.00356 
AFIX  43 
H5    2    0.300379    0.612514    0.915131    11.00000   -1.20000 
AFIX   0 
C6    1    0.269249    0.373277    0.966258    11.00000    0.03076    0.03001 = 
         0.03690   -0.00583   -0.00740   -0.00276 
C7    1    0.334514    0.195357    0.850228    11.00000    0.03819    0.02796 = 
         0.03578   -0.00392   -0.00624   -0.00342 
C8    1    0.216665    0.086472    1.057849    11.00000    0.04825    0.03385 = 
         0.03838   -0.00046   -0.00902   -0.00498 
C9    1    0.466769    0.193392    0.637665    11.00000    0.04964    0.03202 = 
         0.03655   -0.00961   -0.00507    0.00255 
C10   1    0.642064    0.276441    0.615887    11.00000    0.05802    0.04685 = 
         0.04437   -0.01150   -0.00647   -0.00762 
AFIX  43 
H10   2    0.706045    0.281175    0.676403    11.00000   -1.20000 
AFIX   0 
C11   1    0.721099    0.352027    0.503974    11.00000    0.06490    0.05205 = 
         0.05415   -0.00958    0.00498   -0.01092 
AFIX  43 
H11   2    0.838330    0.409196    0.488327    11.00000   -1.20000 
AFIX   0 
C12   1    0.625990    0.342632    0.415464    11.00000    0.08081    0.05281 = 
         0.04228   -0.00340    0.00198    0.00443 
AFIX  43 
H12   2    0.678916    0.393624    0.339606    11.00000   -1.20000 
AFIX   0 
C13   1    0.452741    0.258100    0.438545    11.00000    0.07883    0.06184 = 
         0.04426   -0.01452   -0.02209    0.01548 
AFIX  43 
H13   2    0.391728    0.251805    0.377173    11.00000   -1.20000 
AFIX   0 
C14   1    0.365396    0.181451    0.550934    11.00000    0.05289    0.04235 = 
         0.04847   -0.01620   -0.01489    0.00775 
C15   1    0.174076    0.092595    0.575289    11.00000    0.06234    0.07647 = 
         0.08489   -0.02215   -0.02875   -0.00355 
AFIX 137 
H15A  2    0.206122   -0.020142    0.586197    11.00000   -1.50000 
H15B  2    0.106844    0.124626    0.510730    11.00000   -1.50000 
H15C  2    0.086678    0.116367    0.644544    11.00000   -1.50000 
AFIX   0 
F1    5    0.084440    0.491721    1.289289    11.00000    0.08328    0.06855 = 
         0.04492   -0.02425   -0.00016   -0.01556 
N1    3    0.333034    0.343842    0.854374    11.00000    0.04514    0.02803 = 
         0.03624   -0.00385   -0.00549   -0.00313 
N2    3    0.386776    0.121215    0.756852    11.00000    0.05496    0.02847 = 
         0.03862   -0.00733   -0.00621   -0.00321 
N3    3    0.368245   -0.039363    0.792885    11.00000    0.07208    0.03028 = 
         0.05046   -0.00796   -0.00797   -0.00464 
N4    3    0.304815   -0.072899    0.902954    11.00000    0.07349    0.02804 = 
         0.05008   -0.00754   -0.00787   -0.00396 
N5    3    0.281788    0.069884    0.941656    11.00000    0.05137    0.02436 = 
         0.03995   -0.00367   -0.00741   -0.00372 
O1    4    0.174954   -0.029757    1.135629    11.00000    0.09486    0.03348 = 
         0.04510    0.00498   -0.00584   -0.00919 
HKLF 4 
  
REM  1075 in P-1 
REM R1 =  0.0373 for    1697 Fo > 4sig(Fo)  and  0.0557 for all    2276 data 
REM    200 parameters refined using      0 restraints 
  
END 
  
WGHT      0.0467      0.1295 
  
REM Highest difference peak  0.127,  deepest hole -0.188,  1-sigma level  0.036 
Q1    1   0.2765  0.3056  1.0237  11.00000  0.05    0.13 
Q2    1   0.2015  0.0367  0.4781  11.00000  0.05    0.12 
Q3    1   0.1584  0.0203  0.6680  11.00000  0.05    0.11 
Q4    1   0.2814  0.4319  0.7966  11.00000  0.05    0.11 
Q5    1   0.1562  0.4481  1.4021  11.00000  0.05    0.10 
;
_shelx_res_checksum              90962
_shelx_hkl_file
; 
   1   0   0   58.76    1.30 
   1   0   0   58.27    1.31 
   1   0   0   58.32    1.31 
   1   0   0   57.81    1.30 
   1   0   0   58.32    1.32 
  -1   0   0   56.58    1.31 
  -1   0   0   59.10    1.31 
  -1   0   0   57.76    1.30 
  -1   0   0   48.53    1.31 
   2   0   0  275.05    6.18 
   2   0   0  283.31    6.22 
   2   0   0  284.89    6.18 
   2   0   0  278.38    6.20 
   2   0   0  285.54    6.20 
  -2   0   0  278.71    6.19 
  -2   0   0  277.40    6.18 
  -2   0   0  277.39    6.21 
   3   0   0    2.93    0.19 
   3   0   0    3.06    0.19 
   3   0   0    3.15    0.18 
   3   0   0    3.12    0.19 
   3   0   0    2.93    0.18 
  -3   0   0    3.00    0.16 
  -3   0   0    3.01    0.19 
  -3   0   0    2.99    0.18 
   4   0   0    7.02    0.34 
   4   0   0    6.87    0.32 
   4   0   0    6.69    0.33 
   4   0   0    6.42    0.35 
  -4   0   0    7.16    0.30 
  -4   0   0    6.62    0.35 
  -4   0   0    6.19    0.33 
   5   0   0   -0.09    0.07 
   5   0   0    0.11    0.09 
   5   0   0   -0.10    0.06 
  -5   0   0    0.05    0.08 
  -5   0   0    0.01    0.07 
   6   0   0    0.93    0.16 
   6   0   0    0.85    0.20 
   6   0   0    0.76    0.16 
  -6   0   0    0.84    0.18 
   7   0   0    0.19    0.15 
  -7   0   0    0.35    0.15 
  -8   0   0    0.02    0.14 
  -8  -1   1    0.13    0.16 
   8   1  -1    0.03    0.10 
  -7  -1   1    0.44    0.15 
   7   1  -1    0.54    0.15 
   7   1  -1    0.58    0.13 
   7   1  -1    0.25    0.11 
   7   1  -1    0.61    0.13 
  -6  -1   1    0.61    0.17 
   6   1  -1    0.47    0.14 
   6   1  -1    0.59    0.12 
   6   1  -1    0.66    0.18 
   6   1  -1    0.70    0.14 
  -5  -1   1    0.40    0.12 
   5   1  -1    0.56    0.12 
   5   1  -1    0.66    0.15 
   5   1  -1    0.88    0.12 
   5   1  -1    0.72    0.12 
  -4  -1   1    8.14    0.37 
  -4  -1   1    8.48    0.39 
   4   1  -1    7.61    0.35 
   4   1  -1    8.20    0.30 
   4   1  -1    8.19    0.39 
   4   1  -1    8.01    0.35 
   4   1  -1    7.80    0.32 
  -3  -1   1    2.97    0.19 
  -3  -1   1    3.13    0.19 
  -3  -1   1    2.99    0.17 
   3   1  -1    2.92    0.18 
   3   1  -1    2.90    0.15 
   3   1  -1    2.95    0.19 
   3   1  -1    3.03    0.20 
   3   1  -1    3.02    0.16 
   3   1  -1    3.25    0.18 
  -2  -1   1    1.51    0.12 
  -2  -1   1    1.30    0.11 
  -2  -1   1    1.45    0.09 
   2   1  -1    1.30    0.08 
   2   1  -1    1.55    0.11 
   2   1  -1    1.33    0.11 
   2   1  -1    1.44    0.12 
   2   1  -1    1.39    0.10 
  -1  -1   1   92.31    2.04 
  -1  -1   1   89.73    2.07 
  -1  -1   1   90.12    2.08 
   1   1  -1   93.59    2.07 
   1   1  -1   92.13    2.08 
   1   1  -1   95.22    2.07 
   1   1  -1   89.98    2.04 
   0  -1   1    5.13    0.17 
   0  -1   1    5.19    0.14 
   0  -1   1    5.16    0.16 
   0  -1   1    5.04    0.15 
   0  -1   1    5.05    0.15 
   0   1  -1    5.12    0.15 
   0   1  -1    5.13    0.16 
   0   1  -1    5.15    0.15 
   0   1  -1    5.11    0.13 
   1  -1   1  303.55    6.92 
   1  -1   1  315.21    6.92 
   1  -1   1  318.73    6.91 
   1  -1   1  324.08    6.94 
   1  -1   1  316.93    6.93 
  -1   1  -1  315.70    6.92 
  -1   1  -1  322.75    6.93 
  -1   1  -1  312.74    6.93 
   2  -1   1    2.21    0.13 
   2  -1   1    2.25    0.13 
   2  -1   1    2.47    0.14 
   2  -1   1    2.51    0.15 
   2  -1   1    2.73    0.15 
  -2   1  -1    2.46    0.14 
  -2   1  -1    2.33    0.13 
  -2   1  -1    2.53    0.14 
   3  -1   1    0.54    0.11 
   3  -1   1    0.48    0.10 
   3  -1   1    0.55    0.09 
   3  -1   1    0.43    0.09 
   3  -1   1    0.54    0.08 
  -3   1  -1    0.40    0.08 
  -3   1  -1    0.45    0.09 
  -3   1  -1    0.33    0.08 
  -3   1  -1    0.48    0.08 
  -3   1  -1    0.41    0.08 
   4  -1   1    9.48    0.41 
   4  -1   1    9.86    0.40 
   4  -1   1    9.69    0.41 
   4  -1   1    9.07    0.41 
  -4   1  -1    8.63    0.38 
  -4   1  -1    9.04    0.36 
  -4   1  -1    9.72    0.39 
  -4   1  -1    9.73    0.42 
   5  -1   1    2.16    0.25 
   5  -1   1    2.01    0.22 
   5  -1   1    1.85    0.21 
  -5   1  -1    2.43    0.26 
  -5   1  -1    2.36    0.26 
   6  -1   1   -0.09    0.08 
   6  -1   1   -0.03    0.08 
   6  -1   1    0.16    0.13 
  -6   1  -1    0.11    0.09 
  -6   1  -1   -0.16    0.17 
   7  -1   1   -0.26    0.09 
  -7   1  -1    0.13    0.13 
   8  -1   1   -0.22    0.16 
  -8   1  -1    0.20    0.15 
  -7  -2   2   -0.10    0.10 
   7   2  -2    0.02    0.09 
   7   2  -2    0.25    0.10 
   7   2  -2    0.06    0.09 
   7   2  -2    0.06    0.13 
  -6  -2   2    0.47    0.15 
   6   2  -2    0.55    0.16 
   6   2  -2    0.40    0.12 
   6   2  -2    0.55    0.15 
   6   2  -2    0.29    0.11 
   6   2  -2    0.52    0.11 
  -5  -2   2    0.72    0.14 
   5   2  -2    1.05    0.18 
   5   2  -2    0.79    0.12 
   5   2  -2    0.76    0.16 
   5   2  -2    0.90    0.15 
  -4  -2   2    2.88    0.19 
  -4  -2   2    2.48    0.23 
   4   2  -2    3.21    0.25 
   4   2  -2    2.66    0.21 
   4   2  -2    3.13    0.17 
   4   2  -2    2.83    0.19 
  -3  -2   2    2.86    0.16 
  -3  -2   2    2.82    0.20 
  -3  -2   2    2.96    0.20 
   3   2  -2    3.10    0.19 
   3   2  -2    3.09    0.15 
   3   2  -2    2.64    0.17 
   3   2  -2    2.99    0.19 
   3   2  -2    3.03    0.21 
  -2  -2   2   32.90    0.82 
  -2  -2   2   32.57    0.87 
  -2  -2   2   32.65    0.87 
   2   2  -2   33.06    0.89 
   2   2  -2   34.29    0.87 
   2   2  -2   33.50    0.80 
   2   2  -2   33.74    0.86 
  -1  -2   2   52.18    1.22 
  -1  -2   2   50.93    1.18 
  -1  -2   2   49.74    1.22 
  -1  -2   2   51.12    1.22 
   1   2  -2   51.32    1.23 
   1   2  -2   50.42    1.23 
   1   2  -2   50.81    1.16 
   1   2  -2   51.51    1.20 
   0  -2   2   12.56    0.37 
   0  -2   2   12.47    0.35 
   0  -2   2   12.74    0.33 
   0  -2   2   13.16    0.36 
   0   2  -2   12.80    0.39 
   0   2  -2   12.72    0.34 
   0   2  -2   13.20    0.35 
   1  -2   2    2.83    0.12 
   1  -2   2    2.78    0.14 
   1  -2   2    2.75    0.13 
   1  -2   2    2.39    0.13 
  -1   2  -2    2.62    0.12 
  -1   2  -2    2.60    0.13 
  -1   2  -2    2.62    0.15 
   2  -2   2   12.98    0.41 
   2  -2   2   13.32    0.43 
   2  -2   2   13.27    0.40 
   2  -2   2   12.89    0.41 
   2  -2   2   12.79    0.38 
  -2   2  -2   13.29    0.40 
  -2   2  -2   13.02    0.40 
  -2   2  -2   13.34    0.42 
   3  -2   2    0.05    0.05 
   3  -2   2    0.07    0.06 
   3  -2   2    0.17    0.06 
   3  -2   2    0.17    0.06 
   3  -2   2    0.17    0.07 
   3  -2   2    0.16    0.06 
  -3   2  -2    0.12    0.05 
  -3   2  -2    0.11    0.06 
  -3   2  -2    0.09    0.06 
   4  -2   2   10.84    0.46 
   4  -2   2   11.16    0.42 
   4  -2   2   10.81    0.39 
   4  -2   2   11.38    0.45 
   4  -2   2   11.07    0.44 
  -4   2  -2    9.34    0.44 
  -4   2  -2   11.48    0.54 
  -4   2  -2   10.69    0.42 
   5  -2   2    0.33    0.11 
   5  -2   2    0.35    0.10 
   5  -2   2    0.44    0.13 
   5  -2   2    0.38    0.12 
  -5   2  -2    0.30    0.11 
  -5   2  -2    0.66    0.16 
   6  -2   2   -0.01    0.10 
   6  -2   2    0.00    0.10 
   7  -2   2    0.02    0.14 
   8  -2   2   -0.14    0.17 
  -7  -3   3   -0.10    0.12 
   7   3  -3    0.09    0.09 
   7   3  -3    0.07    0.14 
   7   3  -3    0.10    0.08 
   7   3  -3    0.04    0.10 
  -6  -3   3   -0.05    0.09 
   6   3  -3   -0.07    0.05 
   6   3  -3    0.07    0.08 
   6   3  -3    0.02    0.07 
   6   3  -3    0.13    0.13 
  -5  -3   3    0.23    0.09 
  -5  -3   3    0.45    0.14 
   5   3  -3    0.38    0.12 
   5   3  -3    0.11    0.08 
   5   3  -3    0.49    0.14 
   5   3  -3    0.35    0.08 
  -4  -3   3    4.31    0.23 
  -4  -3   3    3.82    0.27 
   4   3  -3    4.16    0.27 
   4   3  -3    4.17    0.27 
   4   3  -3    4.28    0.20 
   4   3  -3    4.06    0.29 
  -3  -3   3   29.18    0.77 
  -3  -3   3   28.81    0.84 
  -3  -3   3   28.27    0.77 
   3   3  -3   29.11    0.73 
   3   3  -3   27.49    0.80 
   3   3  -3   27.94    0.87 
   3   3  -3   27.98    0.83 
  -2  -3   3   25.40    0.66 
  -2  -3   3   24.50    0.72 
   2   3  -3   25.25    0.75 
   2   3  -3   25.09    0.63 
   2   3  -3   25.29    0.69 
   2   3  -3   24.91    0.74 
  -1  -3   3   32.39    0.86 
  -1  -3   3   35.34    0.93 
  -1  -3   3   31.97    0.86 
  -1  -3   3   33.16    0.81 
   1   3  -3   31.54    0.89 
   1   3  -3   32.68    0.83 
   1   3  -3   32.73    0.82 
   0  -3   3   54.89    1.35 
   0  -3   3   55.80    1.35 
   0  -3   3   56.48    1.37 
   0  -3   3   55.41    1.41 
   0  -3   3   56.27    1.31 
   0   3  -3   56.43    1.32 
   0   3  -3   56.53    1.40 
   0   3  -3   56.86    1.32 
   1  -3   3    0.07    0.04 
   1  -3   3    0.04    0.04 
   1  -3   3    0.04    0.04 
   1  -3   3    0.07    0.05 
   1  -3   3    0.01    0.03 
  -1   3  -3    0.05    0.04 
  -1   3  -3    0.01    0.05 
  -1   3  -3    0.01    0.03 
   2  -3   3    2.11    0.16 
   2  -3   3    2.33    0.16 
   2  -3   3    2.32    0.16 
   2  -3   3    2.18    0.14 
   2  -3   3    2.37    0.15 
   2  -3   3    2.17    0.15 
  -2   3  -3    2.24    0.17 
  -2   3  -3    2.12    0.14 
  -2   3  -3    2.16    0.15 
   3  -3   3    6.28    0.29 
   3  -3   3    5.59    0.29 
   3  -3   3    5.71    0.26 
   3  -3   3    6.51    0.30 
   3  -3   3    5.59    0.28 
   3  -3   3    5.85    0.28 
  -3   3  -3    5.79    0.33 
  -3   3  -3    6.48    0.28 
   4  -3   3    0.51    0.11 
   4  -3   3    0.50    0.12 
   4  -3   3    0.29    0.11 
   4  -3   3    0.60    0.11 
   4  -3   3    0.68    0.13 
  -4   3  -3    0.65    0.11 
   5  -3   3    0.03    0.08 
   5  -3   3   -0.02    0.09 
   5  -3   3    0.06    0.10 
   5  -3   3   -0.03    0.08 
   5  -3   3    0.20    0.10 
  -5   3  -3   -0.07    0.07 
   6  -3   3   -0.19    0.08 
   6  -3   3   -0.03    0.08 
   7  -3   3    0.16    0.14 
  -6  -4   4    0.41    0.15 
   6   4  -4    0.21    0.14 
   6   4  -4    0.59    0.12 
   6   4  -4    0.50    0.10 
   6   4  -4    0.36    0.14 
  -5  -4   4    0.57    0.16 
  -5  -4   4    0.63    0.13 
   5   4  -4    0.38    0.09 
   5   4  -4    0.55    0.09 
   5   4  -4    0.48    0.14 
   5   4  -4    0.54    0.16 
  -4  -4   4    3.81    0.29 
  -4  -4   4    4.15    0.26 
  -4  -4   4    4.28    0.24 
   4   4  -4    4.07    0.19 
   4   4  -4    4.12    0.31 
   4   4  -4    4.04    0.29 
  -3  -4   4    4.48    0.28 
  -3  -4   4    4.38    0.23 
   3   4  -4    4.19    0.25 
   3   4  -4    4.26    0.17 
   3   4  -4    4.62    0.30 
   3   4  -4    4.24    0.28 
  -2  -4   4    2.94    0.20 
  -2  -4   4    2.55    0.16 
   2   4  -4    2.54    0.21 
   2   4  -4    2.57    0.16 
  -1  -4   4    0.92    0.10 
  -1  -4   4    0.93    0.13 
  -1  -4   4    0.52    0.12 
   1   4  -4    1.15    0.11 
   1   4  -4    0.62    0.12 
   0  -4   4    6.82    0.34 
   0  -4   4    7.21    0.26 
   0  -4   4    6.92    0.30 
   0   4  -4    6.99    0.25 
   0   4  -4    7.15    0.26 
   1  -4   4   18.05    0.61 
   1  -4   4   18.46    0.52 
   1  -4   4   17.03    0.56 
   1  -4   4   17.57    0.56 
   1  -4   4   18.24    0.55 
  -1   4  -4   17.91    0.51 
  -1   4  -4   18.24    0.53 
   2  -4   4    0.82    0.12 
   2  -4   4    1.14    0.15 
   2  -4   4    0.61    0.10 
   2  -4   4    0.67    0.11 
   2  -4   4    0.83    0.12 
   2  -4   4    0.65    0.11 
  -2   4  -4    0.91    0.11 
   3  -4   4    1.82    0.17 
   3  -4   4    1.94    0.20 
   3  -4   4    2.36    0.22 
   3  -4   4    2.17    0.17 
   3  -4   4    1.74    0.18 
   3  -4   4    2.21    0.21 
  -3   4  -4    2.41    0.17 
   4  -4   4    0.00    0.07 
   4  -4   4    0.01    0.06 
   4  -4   4   -0.04    0.08 
   4  -4   4   -0.02    0.08 
   4  -4   4   -0.07    0.08 
  -4   4  -4    0.02    0.06 
   5  -4   4    0.12    0.11 
   5  -4   4    0.15    0.10 
   5  -4   4    0.07    0.09 
  -5   4  -4    0.08    0.09 
   6  -4   4    0.01    0.09 
   6  -4   4    0.12    0.12 
  -6   4  -4    0.26    0.12 
   7  -4   4    0.04    0.16 
  -6  -5   5    1.31    0.26 
   6   5  -5    1.46    0.27 
   6   5  -5    1.04    0.24 
  -5  -5   5    0.30    0.14 
   5   5  -5    0.36    0.14 
   5   5  -5    0.21    0.15 
  -4  -5   5    2.63    0.30 
  -4  -5   5    2.54    0.21 
   4   5  -5    2.31    0.28 
  -3  -5   5    0.03    0.07 
   3   5  -5    0.08    0.08 
   3   5  -5    0.00    0.05 
   3   5  -5    0.03    0.09 
  -2  -5   5    3.73    0.27 
   2   5  -5    4.06    0.30 
   2   5  -5    3.73    0.20 
  -1  -5   5    0.60    0.12 
  -1  -5   5    0.73    0.16 
   1   5  -5    0.98    0.12 
   1   5  -5    0.76    0.14 
   0  -5   5    2.31    0.24 
   0  -5   5    2.15    0.21 
   0   5  -5    2.19    0.14 
   1  -5   5    1.36    0.18 
   1  -5   5    1.11    0.15 
   1  -5   5    1.16    0.15 
  -1   5  -5    1.38    0.13 
   2  -5   5    4.58    0.29 
   2  -5   5    5.63    0.32 
   2  -5   5    4.41    0.27 
  -2   5  -5    4.78    0.23 
   3  -5   5    0.03    0.08 
   3  -5   5    0.03    0.09 
   3  -5   5    0.00    0.08 
  -3   5  -5   -0.02    0.04 
   4  -5   5    0.00    0.09 
   4  -5   5    0.07    0.08 
  -4   5  -5   -0.02    0.06 
   5  -5   5    0.13    0.12 
   5  -5   5   -0.01    0.10 
  -5   5  -5    0.02    0.10 
   6  -5   5    0.22    0.14 
   6  -5   5    0.53    0.18 
  -4  -6   6   -0.07    0.09 
   4   6  -6    0.04    0.11 
  -3  -6   6    0.59    0.15 
   3   6  -6    0.22    0.13 
  -2  -6   6    0.89    0.17 
  -2  -6   6    0.80    0.22 
   2   6  -6    0.90    0.18 
  -1  -6   6    2.32    0.29 
  -1  -6   6    2.37    0.24 
   0  -6   6    9.50    0.45 
   0  -6   6   10.13    0.52 
   1  -6   6    0.11    0.09 
   1  -6   6   -0.02    0.09 
   2  -6   6    3.18    0.30 
   2  -6   6    3.47    0.29 
   3  -6   6    0.23    0.11 
   3  -6   6    0.03    0.10 
   4  -6   6    0.74    0.18 
   4  -6   6    0.69    0.17 
   5  -6   6    1.59    0.26 
   5  -6   6    1.65    0.26 
  -3  -7   7    0.05    0.17 
  -3  -7   7    0.25    0.13 
  -2  -7   7    0.03    0.16 
  -2  -7   7    0.02    0.10 
  -1  -7   7    0.11    0.10 
  -1  -7   7    0.14    0.16 
   0  -7   7    0.00    0.10 
   0  -7   7    0.08    0.10 
   1  -7   7    0.31    0.12 
   1  -7   7    0.51    0.17 
   2  -7   7    2.51    0.34 
   2  -7   7    1.59    0.23 
   3  -7   7    1.52    0.26 
   3  -7   7    1.17    0.23 
   4  -7   7    2.70    0.33 
   4  -7   7    4.46    0.43 
   2  -8   7    0.08    0.12 
   2  -8   7    0.18    0.15 
   1  -8   7    0.00    0.11 
   1  -8   7    0.17    0.14 
   0  -8   7    0.93    0.24 
   0  -8   7    0.58    0.16 
  -1  -8   7    0.13    0.14 
  -1  -8   7   -0.10    0.10 
   5  -7   6    0.64    0.20 
   4  -7   6    1.93    0.28 
   4  -7   6    1.72    0.26 
   3  -7   6    0.94    0.19 
   3  -7   6    0.85    0.20 
   2  -7   6    1.98    0.25 
   2  -7   6    2.03    0.30 
   1  -7   6    0.20    0.10 
   1  -7   6    0.46    0.16 
   0  -7   6    2.88    0.29 
   0  -7   6    2.86    0.34 
  -1  -7   6    0.10    0.09 
  -1  -7   6    0.19    0.15 
  -2  -7   6    0.02    0.15 
  -2  -7   6    0.02    0.10 
  -3  -7   6   -0.17    0.13 
  -3  -7   6    0.16    0.10 
   6  -6   5    1.20    0.25 
   6  -6   5    1.79    0.27 
   5  -6   5    3.94    0.39 
   5  -6   5    3.31    0.34 
   4  -6   5    3.17    0.31 
   4  -6   5    2.30    0.28 
   3  -6   5    2.93    0.30 
   3  -6   5    2.79    0.28 
  -2   6  -5    0.14    0.06 
   2  -6   5    0.04    0.08 
   2  -6   5    0.09    0.09 
   1  -6   5    0.08    0.08 
   1  -6   5    0.14    0.08 
   0  -6   5    4.23    0.32 
   0  -6   5    3.91    0.26 
  -1  -6   5    1.82    0.20 
  -1  -6   5    1.43    0.22 
  -2  -6   5    0.91    0.19 
  -2  -6   5    1.19    0.18 
   3   6  -5    0.54    0.17 
  -3  -6   5    1.05    0.18 
   4   6  -5   -0.14    0.09 
  -4  -6   5   -0.12    0.07 
   5   6  -5    0.14    0.14 
  -5  -6   5    0.14    0.12 
   7  -5   4    0.13    0.18 
   7  -5   4    0.23    0.13 
   6  -5   4    0.13    0.13 
   6  -5   4    0.06    0.13 
   5  -5   4    0.31    0.12 
   5  -5   4    0.17    0.12 
  -4   5  -4    0.33    0.10 
   4  -5   4    0.36    0.12 
   4  -5   4    0.26    0.10 
   4  -5   4    0.39    0.13 
  -3   5  -4   -0.01    0.05 
   3  -5   4   -0.03    0.06 
   3  -5   4    0.00    0.06 
   3  -5   4    0.03    0.07 
  -2   5  -4    0.62    0.09 
   2  -5   4    0.48    0.12 
   2  -5   4    0.46    0.10 
   2  -5   4    0.40    0.09 
  -1   5  -4    4.05    0.18 
   1  -5   4    3.83    0.23 
   1  -5   4    3.78    0.26 
   1  -5   4    4.09    0.22 
   0  -5   4    6.25    0.29 
   0  -5   4    6.21    0.35 
  -1  -5   4   -0.08    0.04 
  -1  -5   4    0.00    0.06 
   2   5  -4    7.99    0.29 
   2   5  -4    8.03    0.41 
   2   5  -4    7.80    0.30 
  -2  -5   4    8.15    0.37 
   3   5  -4    0.57    0.10 
   3   5  -4    0.70    0.16 
   3   5  -4    0.44    0.10 
  -3  -5   4    0.71    0.14 
   4   5  -4    0.63    0.17 
   4   5  -4    0.73    0.17 
  -4  -5   4    0.78    0.15 
   5   5  -4    0.02    0.09 
   5   5  -4    0.10    0.11 
  -5  -5   4   -0.04    0.08 
   6   5  -4    0.29    0.14 
   6   5  -4    0.20    0.15 
  -6  -5   4    0.41    0.17 
   7  -4   3    3.46    0.37 
   6  -4   3    0.23    0.12 
   6  -4   3    0.15    0.12 
  -5   4  -3    0.04    0.07 
   5  -4   3    0.07    0.10 
   5  -4   3    0.07    0.11 
   5  -4   3   -0.02    0.09 
   5  -4   3    0.04    0.07 
  -4   4  -3    1.03    0.14 
   4  -4   3    1.26    0.17 
   4  -4   3    1.19    0.18 
   4  -4   3    1.48    0.20 
   4  -4   3    1.19    0.17 
   4  -4   3    1.40    0.16 
  -3   4  -3    0.35    0.08 
   3  -4   3    0.42    0.10 
   3  -4   3    0.42    0.11 
   3  -4   3    0.48    0.10 
   3  -4   3    0.35    0.09 
   3  -4   3    0.41    0.09 
   3  -4   3    0.58    0.12 
  -2   4  -3    1.42    0.11 
  -2   4  -3    1.73    0.14 
   2  -4   3    1.46    0.16 
   2  -4   3    1.47    0.13 
   2  -4   3    1.47    0.15 
   2  -4   3    1.69    0.16 
   2  -4   3    1.40    0.15 
   2  -4   3    1.25    0.13 
  -1   4  -3    0.03    0.03 
  -1   4  -3   -0.01    0.04 
   1  -4   3   -0.01    0.03 
   1  -4   3   -0.01    0.04 
   1  -4   3    0.01    0.05 
   1  -4   3    0.01    0.04 
   1  -4   3    0.03    0.05 
   1  -4   3    0.00    0.04 
   0   4  -3    4.96    0.18 
   0   4  -3    4.92    0.18 
   0  -4   3    4.90    0.24 
   0  -4   3    5.33    0.28 
   0  -4   3    5.14    0.19 
   0  -4   3    5.05    0.22 
   1   4  -3    4.16    0.17 
   1   4  -3    3.69    0.23 
   1   4  -3    4.18    0.17 
  -1  -4   3    3.81    0.17 
  -1  -4   3    4.06    0.20 
   2   4  -3    0.02    0.05 
   2   4  -3   -0.01    0.05 
  -2  -4   3    0.07    0.05 
  -2  -4   3    0.04    0.05 
   3   4  -3    2.06    0.22 
   3   4  -3    1.85    0.20 
   3   4  -3    2.11    0.17 
  -3  -4   3    1.71    0.18 
  -3  -4   3    2.10    0.17 
   4   4  -3    0.55    0.07 
   4   4  -3    0.36    0.07 
   4   4  -3    0.49    0.13 
   4   4  -3    0.38    0.11 
   4   4  -3    0.41    0.14 
  -4  -4   3    0.39    0.11 
  -4  -4   3    0.53    0.13 
   5   4  -3    0.08    0.12 
   5   4  -3    0.03    0.07 
   5   4  -3    0.05    0.05 
   5   4  -3    0.08    0.06 
   5   4  -3    0.29    0.12 
  -5  -4   3    0.11    0.11 
   6   4  -3   -0.02    0.05 
   6   4  -3    0.12    0.09 
   6   4  -3    0.23    0.13 
   6   4  -3    0.02    0.07 
  -6  -4   3    0.04    0.11 
   7   4  -3    0.22    0.16 
   7   4  -3    0.08    0.09 
   7   4  -3    0.15    0.07 
   7   4  -3    0.03    0.11 
  -7  -4   3    0.22    0.14 
   8  -3   2   -0.41    0.14 
   7  -3   2    0.58    0.19 
   6  -3   2    0.89    0.18 
   5  -3   2    1.41    0.17 
   5  -3   2    1.45    0.20 
   5  -3   2    1.67    0.20 
   5  -3   2    1.52    0.19 
   5  -3   2    1.64    0.23 
  -4   3  -2    1.70    0.19 
   4  -3   2    1.64    0.18 
   4  -3   2    1.57    0.20 
   4  -3   2    1.72    0.19 
   4  -3   2    1.18    0.14 
   4  -3   2    1.48    0.18 
   4  -3   2    1.33    0.16 
  -3   3  -2    0.27    0.08 
  -3   3  -2    0.24    0.07 
  -3   3  -2    0.32    0.08 
   3  -3   2    0.34    0.08 
   3  -3   2    0.14    0.07 
   3  -3   2    0.27    0.08 
   3  -3   2    0.29    0.07 
   3  -3   2    0.24    0.08 
   3  -3   2    0.12    0.06 
  -2   3  -2    1.52    0.11 
  -2   3  -2    1.67    0.14 
  -2   3  -2    1.90    0.13 
   2  -3   2    1.80    0.13 
   2  -3   2    1.57    0.12 
   2  -3   2    1.97    0.14 
   2  -3   2    1.74    0.14 
   2  -3   2    1.86    0.12 
  -1   3  -2    0.07    0.04 
  -1   3  -2    0.05    0.04 
  -1   3  -2    0.03    0.03 
   1  -3   2    0.10    0.05 
   1  -3   2    0.02    0.03 
   1  -3   2    0.12    0.05 
   1  -3   2    0.09    0.04 
   1  -3   2    0.08    0.05 
   1  -3   2    0.06    0.04 
   0   3  -2    1.29    0.08 
   0   3  -2    1.42    0.08 
   0  -3   2    1.34    0.09 
   0  -3   2    1.18    0.07 
   0  -3   2    1.50    0.11 
   0  -3   2    1.32    0.14 
   0  -3   2    1.46    0.09 
   0  -3   2    1.19    0.09 
   1   3  -2    0.13    0.06 
   1   3  -2    0.21    0.05 
   1   3  -2    0.26    0.05 
   1   3  -2    0.11    0.05 
  -1  -3   2    0.26    0.05 
  -1  -3   2    0.30    0.06 
  -1  -3   2    0.30    0.06 
  -1  -3   2    0.20    0.05 
   2   3  -2   25.28    0.66 
   2   3  -2   24.44    0.60 
   2   3  -2   25.42    0.67 
   2   3  -2   25.25    0.67 
   2   3  -2   24.56    0.71 
   2   3  -2   25.30    0.73 
  -2  -3   2   25.49    0.64 
  -2  -3   2   24.95    0.70 
   3   3  -2    7.26    0.32 
   3   3  -2    7.00    0.33 
   3   3  -2    6.88    0.23 
  -3  -3   2    7.11    0.31 
  -3  -3   2    7.32    0.27 
   4   3  -2    1.59    0.17 
   4   3  -2    1.79    0.19 
   4   3  -2    1.79    0.22 
   4   3  -2    1.80    0.12 
  -4  -3   2    1.50    0.19 
   5   3  -2    2.67    0.19 
   5   3  -2    2.80    0.17 
   5   3  -2    2.56    0.25 
   5   3  -2    2.40    0.28 
   5   3  -2    2.99    0.25 
  -5  -3   2    3.28    0.32 
   6   3  -2    0.03    0.07 
   6   3  -2    0.00    0.07 
   6   3  -2    0.05    0.06 
   6   3  -2    0.02    0.13 
   6   3  -2   -0.03    0.10 
  -6  -3   2    0.02    0.10 
   7   3  -2    0.07    0.09 
   7   3  -2    0.16    0.15 
   7   3  -2    0.13    0.08 
   7   3  -2    0.03    0.10 
  -7  -3   2   -0.01    0.12 
   8  -2   1   -0.21    0.15 
  -7   2  -1    0.30    0.13 
   7  -2   1   -0.07    0.13 
  -6   2  -1    0.08    0.10 
   6  -2   1    0.00    0.10 
   6  -2   1    0.04    0.09 
  -5   2  -1    0.34    0.11 
  -5   2  -1    0.40    0.14 
   5  -2   1    0.21    0.10 
   5  -2   1    0.41    0.12 
   5  -2   1    0.13    0.09 
  -4   2  -1    1.08    0.14 
  -4   2  -1    1.00    0.14 
  -4   2  -1    0.58    0.12 
   4  -2   1    1.14    0.16 
   4  -2   1    1.31    0.17 
   4  -2   1    0.83    0.13 
   4  -2   1    0.89    0.12 
   4  -2   1    0.98    0.14 
   4  -2   1    1.03    0.17 
  -3   2  -1    0.30    0.07 
  -3   2  -1    0.17    0.06 
  -3   2  -1    0.12    0.06 
   3  -2   1    0.22    0.06 
   3  -2   1    0.21    0.08 
   3  -2   1    0.13    0.05 
   3  -2   1    0.10    0.06 
   3  -2   1    0.23    0.07 
  -2   2  -1   24.28    0.68 
  -2   2  -1   24.12    0.64 
  -2   2  -1   24.88    0.65 
  -2   2  -1   24.77    0.65 
   2  -2   1   24.37    0.67 
   2  -2   1   24.30    0.65 
   2  -2   1   25.00    0.66 
   2  -2   1   24.88    0.67 
   2  -2   1   24.58    0.65 
  -1   2  -1  136.95    3.08 
  -1   2  -1  139.52    3.04 
  -1   2  -1  134.12    3.03 
   1  -2   1  135.91    3.04 
   1  -2   1  139.15    3.06 
   1  -2   1  135.93    3.06 
   1  -2   1  137.11    3.07 
   0  -2   1   36.66    0.85 
   0  -2   1   36.93    0.85 
   0  -2   1   37.41    0.85 
   0  -2   1   35.98    0.91 
   0  -2   1   37.55    0.90 
   1   2  -1    1.05    0.08 
   1   2  -1    1.26    0.10 
   1   2  -1    1.11    0.07 
  -1  -2   1    1.29    0.08 
  -1  -2   1    1.23    0.08 
  -1  -2   1    1.26    0.06 
  -1  -2   1    1.28    0.09 
   2   2  -1    6.48    0.25 
   2   2  -1    6.65    0.20 
   2   2  -1    6.81    0.23 
   2   2  -1    6.54    0.24 
   2   2  -1    6.39    0.26 
  -2  -2   1    6.92    0.26 
  -2  -2   1    6.29    0.20 
  -2  -2   1    6.26    0.21 
  -2  -2   1    6.24    0.24 
   3   2  -1   36.21    0.94 
   3   2  -1   35.04    0.92 
   3   2  -1   36.33    0.99 
   3   2  -1   35.10    0.94 
   3   2  -1   35.01    0.92 
   3   2  -1   36.12    0.88 
  -3  -2   1   35.72    0.96 
  -3  -2   1   35.35    0.88 
  -3  -2   1   36.19    0.97 
   4   2  -1   13.42    0.54 
   4   2  -1   14.41    0.51 
   4   2  -1   14.46    0.47 
   4   2  -1   14.47    0.44 
  -4  -2   1   14.00    0.52 
   5   2  -1    2.67    0.19 
   5   2  -1    2.87    0.18 
   5   2  -1    2.49    0.26 
   5   2  -1    2.75    0.28 
   5   2  -1    3.00    0.20 
  -5  -2   1    2.48    0.27 
   6   2  -1    1.37    0.23 
   6   2  -1    1.45    0.18 
   6   2  -1    1.48    0.18 
   6   2  -1    1.40    0.16 
   6   2  -1    1.79    0.25 
  -6  -2   1    1.58    0.23 
   7   2  -1    0.00    0.07 
   7   2  -1    0.08    0.11 
   7   2  -1    0.13    0.10 
   7   2  -1    0.17    0.15 
  -7  -2   1    0.12    0.13 
   8   2  -1   -0.09    0.08 
   8   2  -1    0.03    0.10 
  -8  -2   1   -0.07    0.14 
  -8   1   0    0.58    0.21 
   8  -1   0   -0.13    0.16 
  -7   1   0   -0.03    0.10 
   7  -1   0    0.06    0.12 
  -6   1   0    0.11    0.09 
   6  -1   0   -0.03    0.10 
   6  -1   0    0.12    0.12 
  -5   1   0    1.96    0.21 
  -5   1   0    2.25    0.27 
   5  -1   0    2.35    0.25 
   5  -1   0    2.63    0.28 
   5  -1   0    2.23    0.25 
  -4   1   0    6.23    0.28 
  -4   1   0    6.66    0.34 
  -4   1   0    6.79    0.32 
   4  -1   0    6.87    0.34 
   4  -1   0    6.50    0.34 
   4  -1   0    7.01    0.33 
   4  -1   0    5.90    0.31 
  -3   1   0    6.15    0.27 
  -3   1   0    5.60    0.28 
  -3   1   0    6.15    0.24 
   3  -1   0    5.98    0.28 
   3  -1   0    6.18    0.26 
   3  -1   0    5.76    0.27 
   3  -1   0    6.27    0.29 
   3  -1   0    6.14    0.27 
  -2   1   0    1.27    0.09 
  -2   1   0    1.34    0.11 
   2  -1   0    1.33    0.11 
   2  -1   0    1.41    0.11 
   2  -1   0    1.48    0.09 
   2  -1   0    1.39    0.12 
   2  -1   0    1.34    0.11 
   2  -1   0    1.38    0.11 
  -1   1   0    7.59    0.21 
  -1   1   0    7.63    0.24 
   1  -1   0    7.55    0.23 
   1  -1   0    7.35    0.21 
   1  -1   0    7.61    0.23 
   1  -1   0    7.66    0.23 
   1  -1   0    7.50    0.22 
   1   1   0  221.26    4.92 
   1   1   0  230.92    4.88 
   1   1   0  221.55    4.88 
   1   1   0  222.64    4.90 
   1   1   0  224.07    4.90 
   1   1   0  228.88    4.91 
  -1  -1   0  221.47    4.90 
  -1  -1   0  231.39    4.90 
  -1  -1   0  219.93    4.91 
  -1  -1   0  223.06    4.90 
  -1  -1   0  220.18    4.90 
  -1  -1   0  218.89    4.88 
   2   1   0    1.95    0.12 
   2   1   0    1.94    0.09 
   2   1   0    1.85    0.10 
   2   1   0    1.93    0.13 
   2   1   0    1.78    0.12 
   2   1   0    1.96    0.11 
   2   1   0    2.01    0.10 
  -2  -1   0    1.96    0.12 
  -2  -1   0    1.85    0.12 
  -2  -1   0    2.06    0.12 
  -2  -1   0    2.18    0.13 
   3   1   0    1.89    0.12 
   3   1   0    1.72    0.14 
   3   1   0    1.38    0.14 
   3   1   0    1.70    0.17 
   3   1   0    1.61    0.15 
  -3  -1   0    1.40    0.15 
  -3  -1   0    1.71    0.16 
   4   1   0    0.92    0.12 
   4   1   0    0.73    0.13 
   4   1   0    0.73    0.12 
   4   1   0    0.88    0.14 
  -4  -1   0    0.53    0.10 
  -4  -1   0    0.87    0.13 
   5   1   0    3.64    0.26 
   5   1   0    3.43    0.22 
   5   1   0    3.66    0.29 
   5   1   0    3.79    0.24 
  -5  -1   0    3.46    0.26 
   6   1   0    2.15    0.23 
   6   1   0    1.91    0.19 
   6   1   0    1.53    0.16 
   6   1   0    1.93    0.25 
   6   1   0    1.91    0.27 
   6   1   0    2.04    0.20 
  -6  -1   0    2.30    0.28 
   7   1   0    1.05    0.25 
   7   1   0    0.94    0.15 
   7   1   0    0.79    0.14 
   7   1   0    1.15    0.19 
   7   1   0    0.86    0.20 
  -7  -1   0    0.24    0.14 
   8   1   0   -0.07    0.08 
  -8  -1   0   -0.11    0.13 
  -8   0   1   -0.07    0.18 
  -7   0   1   -0.20    0.09 
   7   0  -1    0.12    0.12 
   7   0  -1    0.18    0.09 
  -6   0   1    0.01    0.09 
   6   0  -1    0.03    0.07 
   6   0  -1   -0.01    0.11 
   6   0  -1   -0.05    0.10 
  -5   0   1   -0.06    0.06 
  -5   0   1   -0.10    0.08 
   5   0  -1   -0.05    0.07 
   5   0  -1    0.18    0.10 
   5   0  -1    0.06    0.08 
  -4   0   1    0.23    0.10 
  -4   0   1    0.14    0.09 
   4   0  -1    0.10    0.08 
   4   0  -1    0.07    0.08 
   4   0  -1    0.11    0.08 
   4   0  -1    0.20    0.08 
  -3   0   1   -0.04    0.04 
  -3   0   1   -0.08    0.03 
  -3   0   1   -0.02    0.04 
   3   0  -1    0.09    0.05 
   3   0  -1    0.01    0.05 
   3   0  -1    0.00    0.05 
   3   0  -1    0.03    0.05 
   3   0  -1   -0.01    0.04 
  -2   0   1    8.56    0.30 
  -2   0   1    8.41    0.29 
  -2   0   1    8.23    0.31 
   2   0  -1    8.71    0.31 
   2   0  -1    8.40    0.29 
   2   0  -1    8.72    0.29 
   2   0  -1    9.17    0.30 
  -1   0   1   17.46    0.46 
  -1   0   1   17.37    0.45 
  -1   0   1   17.81    0.45 
   1   0  -1   17.24    0.45 
   1   0  -1   17.11    0.46 
   1   0  -1   17.95    0.45 
   1   0  -1   18.02    0.43 
   0   0   1   74.01    1.64 
   0   0  -1   74.39    1.64 
   0   0  -1   75.22    1.65 
   1   0   1   54.79    1.23 
   1   0   1   48.97    1.21 
   1   0   1   54.26    1.24 
   1   0   1   53.94    1.25 
   1   0   1   52.59    1.23 
   1   0   1   54.43    1.23 
  -1   0  -1   52.02    1.22 
  -1   0  -1   54.15    1.23 
  -1   0  -1   53.18    1.23 
  -1   0  -1   54.06    1.23 
  -1   0  -1   52.88    1.22 
   2   0   1 1000.00   21.38 
   2   0   1  992.33   21.45 
   2   0   1  980.36   21.44 
   2   0   1  973.27   21.50 
   2   0   1  974.80   21.39 
  -2   0  -1  973.42   21.44 
  -2   0  -1  967.28   21.44 
  -2   0  -1  993.49   21.49 
  -2   0  -1  953.54   21.52 
  -2   0  -1  965.00   21.43 
   3   0   1    0.14    0.07 
   3   0   1    0.44    0.09 
   3   0   1    0.26    0.06 
   3   0   1    0.24    0.07 
   3   0   1    0.15    0.07 
  -3   0  -1    0.27    0.08 
  -3   0  -1    0.16    0.06 
  -3   0  -1    0.20    0.07 
  -3   0  -1    0.26    0.07 
  -3   0  -1    0.34    0.07 
   4   0   1   44.50    1.18 
   4   0   1   42.93    1.17 
   4   0   1   43.62    1.11 
   4   0   1   42.97    1.21 
   4   0   1   44.85    1.17 
  -4   0  -1   43.98    1.13 
  -4   0  -1   43.66    1.17 
  -4   0  -1   41.75    1.17 
  -4   0  -1   42.88    1.20 
  -4   0  -1   42.99    1.16 
   5   0   1    0.59    0.14 
   5   0   1    0.73    0.12 
   5   0   1    0.64    0.14 
   5   0   1    0.47    0.11 
  -5   0  -1    0.64    0.14 
  -5   0  -1    0.65    0.15 
   6   0   1   -0.13    0.10 
   6   0   1   -0.29    0.09 
   6   0   1   -0.25    0.07 
  -6   0  -1   -0.30    0.07 
  -6   0  -1    0.00    0.12 
   7   0   1    0.15    0.14 
  -7   0  -1    0.26    0.12 
   8   0   1   -0.09    0.17 
  -8   0  -1    0.25    0.15 
  -8  -1   2    0.05    0.14 
   8   1  -2   -0.22    0.08 
  -7  -1   2    0.10    0.13 
   7   1  -2   -0.08    0.06 
   7   1  -2   -0.15    0.11 
   7   1  -2   -0.03    0.07 
  -6  -1   2    0.18    0.11 
   6   1  -2    0.11    0.12 
   6   1  -2    0.08    0.10 
   6   1  -2    0.15    0.08 
  -5  -1   2    0.55    0.13 
   5   1  -2    0.40    0.09 
   5   1  -2    0.53    0.12 
   5   1  -2    0.42    0.14 
  -4  -1   2    0.53    0.13 
  -4  -1   2    0.47    0.11 
  -4  -1   2    0.59    0.11 
   4   1  -2    0.44    0.16 
   4   1  -2    0.31    0.10 
   4   1  -2    0.59    0.09 
   4   1  -2    0.54    0.12 
  -3  -1   2    8.32    0.35 
  -3  -1   2    8.32    0.34 
  -3  -1   2    8.39    0.32 
   3   1  -2    8.20    0.33 
   3   1  -2    8.17    0.36 
   3   1  -2    8.50    0.29 
   3   1  -2    8.30    0.35 
  -2  -1   2   25.30    0.69 
  -2  -1   2   24.81    0.69 
  -2  -1   2   25.26    0.64 
  -2  -1   2   24.59    0.65 
   2   1  -2   25.83    0.68 
   2   1  -2   23.91    0.63 
   2   1  -2   25.05    0.70 
  -1  -1   2   77.53    1.82 
  -1  -1   2   78.83    1.81 
  -1  -1   2   80.70    1.78 
   1   1  -2   79.50    1.81 
   1   1  -2   77.53    1.83 
   1   1  -2   78.80    1.77 
   0  -1   2    2.86    0.14 
   0  -1   2    2.82    0.11 
   0  -1   2    2.94    0.11 
   0  -1   2    2.95    0.13 
   0   1  -2    2.68    0.10 
   0   1  -2    2.89    0.12 
   0   1  -2    3.02    0.13 
   0   1  -2    2.74    0.12 
   1  -1   2   63.18    1.45 
   1  -1   2   62.56    1.46 
   1  -1   2   62.66    1.43 
   1  -1   2   64.50    1.43 
   1  -1   2   63.55    1.46 
  -1   1  -2   63.33    1.45 
  -1   1  -2   63.68    1.46 
  -1   1  -2   62.02    1.43 
  -1   1  -2   62.35    1.46 
   2  -1   2    3.39    0.18 
   2  -1   2    3.69    0.17 
   2  -1   2    3.82    0.16 
   2  -1   2    3.83    0.18 
   2  -1   2    3.76    0.17 
  -2   1  -2    3.74    0.18 
  -2   1  -2    3.48    0.17 
   3  -1   2   58.90    1.41 
   3  -1   2   59.36    1.46 
   3  -1   2   59.34    1.44 
   3  -1   2   59.22    1.45 
   3  -1   2   59.43    1.49 
  -3   1  -2   58.32    1.43 
  -3   1  -2   56.98    1.44 
  -3   1  -2   60.63    1.47 
   4  -1   2    0.49    0.09 
   4  -1   2    0.69    0.12 
   4  -1   2    0.63    0.12 
   4  -1   2    0.65    0.15 
   4  -1   2    0.81    0.12 
  -4   1  -2    0.81    0.15 
  -4   1  -2    0.85    0.14 
  -4   1  -2    0.53    0.10 
  -4   1  -2    0.58    0.11 
   5  -1   2    0.12    0.10 
   5  -1   2    0.02    0.05 
   5  -1   2   -0.03    0.07 
   5  -1   2    0.06    0.09 
  -5   1  -2   -0.02    0.07 
  -5   1  -2    0.10    0.09 
  -5   1  -2    0.21    0.10 
   6  -1   2    0.32    0.16 
   6  -1   2    0.63    0.13 
   6  -1   2    0.66    0.16 
  -6   1  -2    0.50    0.13 
  -6   1  -2    0.80    0.24 
   7  -1   2   -0.16    0.10 
  -7   1  -2    0.06    0.10 
   8  -1   2   -0.47    0.11 
  -8   1  -2    0.04    0.15 
  -7  -2   3   -0.01    0.12 
   7   2  -3    0.13    0.09 
   7   2  -3    0.14    0.11 
   7   2  -3    0.05    0.09 
  -6  -2   3    0.03    0.10 
   6   2  -3   -0.13    0.08 
   6   2  -3   -0.07    0.06 
   6   2  -3   -0.03    0.06 
   6   2  -3   -0.03    0.10 
  -5  -2   3    1.14    0.19 
  -5  -2   3    1.17    0.17 
   5   2  -3    0.91    0.14 
   5   2  -3    1.22    0.18 
   5   2  -3    1.12    0.20 
   5   2  -3    1.36    0.15 
  -4  -2   3    0.33    0.10 
  -4  -2   3    0.38    0.11 
   4   2  -3    0.42    0.08 
   4   2  -3    0.24    0.09 
   4   2  -3    0.30    0.09 
   4   2  -3    0.40    0.12 
  -3  -2   3    3.37    0.34 
  -3  -2   3    2.73    0.20 
  -3  -2   3    2.67    0.16 
  -3  -2   3    2.71    0.17 
   3   2  -3    2.90    0.20 
   3   2  -3    2.61    0.15 
   3   2  -3    2.94    0.22 
   3   2  -3    2.74    0.18 
  -2  -2   3   15.77    0.51 
  -2  -2   3   15.56    0.51 
  -2  -2   3   16.20    0.46 
   2   2  -3   16.26    0.49 
   2   2  -3   15.62    0.49 
   2   2  -3   16.22    0.53 
   2   2  -3   16.18    0.44 
  -1  -2   3    5.38    0.23 
  -1  -2   3    5.44    0.20 
  -1  -2   3    5.14    0.23 
   1   2  -3    5.22    0.22 
   1   2  -3    5.35    0.22 
   1   2  -3    5.27    0.18 
   0  -2   3    5.15    0.20 
   0  -2   3    4.95    0.21 
   0  -2   3    5.03    0.23 
   0  -2   3    5.32    0.19 
   0   2  -3    5.43    0.20 
   0   2  -3    5.36    0.20 
   0   2  -3    5.62    0.22 
   0   2  -3    5.28    0.17 
   1  -2   3   32.04    0.82 
   1  -2   3   31.71    0.78 
   1  -2   3   31.88    0.80 
   1  -2   3   31.72    0.83 
   1  -2   3   31.70    0.79 
  -1   2  -3   31.29    0.79 
  -1   2  -3   30.92    0.76 
  -1   2  -3   32.59    0.85 
  -1   2  -3   32.09    0.80 
   2  -2   3    0.67    0.09 
   2  -2   3    0.90    0.12 
   2  -2   3    0.84    0.10 
   2  -2   3    0.76    0.10 
   2  -2   3    1.07    0.09 
   2  -2   3    0.85    0.09 
  -2   2  -3    0.93    0.12 
  -2   2  -3    0.78    0.09 
  -2   2  -3    0.94    0.10 
   3  -2   3    6.32    0.28 
   3  -2   3    6.42    0.30 
   3  -2   3    6.44    0.31 
   3  -2   3    6.04    0.28 
   3  -2   3    6.21    0.29 
   3  -2   3    6.69    0.27 
  -3   2  -3    6.68    0.29 
  -3   2  -3    6.51    0.28 
  -3   2  -3    6.32    0.29 
   4  -2   3    1.79    0.17 
   4  -2   3    1.37    0.16 
   4  -2   3    1.51    0.18 
   4  -2   3    1.40    0.17 
   4  -2   3    1.56    0.17 
  -4   2  -3    1.36    0.16 
   5  -2   3    0.21    0.10 
   5  -2   3    0.13    0.08 
   5  -2   3    0.07    0.07 
   5  -2   3    0.00    0.09 
   5  -2   3   -0.08    0.08 
  -5   2  -3    0.20    0.10 
   6  -2   3    3.34    0.30 
   6  -2   3    3.55    0.33 
  -6   2  -3    3.73    0.30 
   7  -2   3    0.00    0.12 
   8  -2   3    0.02    0.16 
  -7  -3   4    0.54    0.20 
   7   3  -4   -0.03    0.09 
   7   3  -4    0.04    0.08 
   7   3  -4    0.05    0.10 
  -6  -3   4    0.06    0.11 
   6   3  -4    0.02    0.09 
   6   3  -4   -0.07    0.11 
   6   3  -4    0.05    0.07 
  -5  -3   4    0.95    0.19 
  -5  -3   4    0.91    0.15 
   5   3  -4    1.17    0.19 
   5   3  -4    0.95    0.13 
   5   3  -4    1.04    0.20 
   5   3  -4    1.30    0.20 
  -4  -3   4    2.85    0.21 
  -4  -3   4    2.71    0.26 
   4   3  -4    3.03    0.18 
   4   3  -4    2.87    0.23 
   4   3  -4    2.87    0.29 
   4   3  -4    3.12    0.25 
  -3  -3   4    1.45    0.15 
  -3  -3   4    1.34    0.14 
  -3  -3   4    1.79    0.20 
   3   3  -4    1.37    0.16 
   3   3  -4    1.57    0.13 
   3   3  -4    1.97    0.23 
  -2  -3   4    0.15    0.06 
  -2  -3   4    0.16    0.06 
   2   3  -4    0.22    0.05 
   2   3  -4    0.20    0.07 
  -1  -3   4   23.06    0.68 
  -1  -3   4   23.64    0.63 
   1   3  -4   23.21    0.65 
   1   3  -4   23.07    0.59 
   1   3  -4   23.71    0.65 
   1   3  -4   23.24    0.70 
   0  -3   4   17.49    0.58 
   0  -3   4   17.15    0.54 
   0  -3   4   18.00    0.50 
   0  -3   4   17.54    0.53 
   0   3  -4   18.16    0.56 
   0   3  -4   17.74    0.46 
   0   3  -4   17.60    0.52 
   0   3  -4   18.08    0.51 
   1  -3   4    8.62    0.33 
   1  -3   4    7.64    0.29 
   1  -3   4    8.12    0.34 
   1  -3   4    7.67    0.28 
   1  -3   4    8.17    0.30 
  -1   3  -4    8.19    0.35 
  -1   3  -4    7.92    0.29 
  -1   3  -4    8.21    0.30 
  -1   3  -4    8.00    0.26 
   2  -3   4   19.24    0.55 
   2  -3   4   19.81    0.61 
   2  -3   4   19.03    0.55 
   2  -3   4   19.23    0.58 
   2  -3   4   19.21    0.61 
  -2   3  -4   18.90    0.56 
  -2   3  -4   18.83    0.57 
   3  -3   4    3.92    0.25 
   3  -3   4    4.67    0.26 
   3  -3   4    4.45    0.27 
   3  -3   4    4.49    0.23 
   3  -3   4    4.31    0.21 
   3  -3   4    4.58    0.25 
  -3   3  -4    4.59    0.24 
   4  -3   4    3.26    0.25 
   4  -3   4    3.50    0.24 
   4  -3   4    3.40    0.26 
   4  -3   4    3.37    0.25 
   4  -3   4    3.39    0.22 
  -4   3  -4    2.90    0.22 
   5  -3   4    0.21    0.11 
   5  -3   4    0.34    0.14 
   5  -3   4    0.35    0.11 
   5  -3   4    0.29    0.14 
   5  -3   4    0.41    0.13 
  -5   3  -4    0.26    0.10 
   6  -3   4    0.07    0.09 
   6  -3   4   -0.15    0.09 
  -6   3  -4   -0.11    0.08 
   7  -3   4    0.27    0.16 
  -6  -4   5    1.58    0.27 
   6   4  -5    1.52    0.17 
   6   4  -5    1.41    0.18 
   6   4  -5    1.73    0.28 
   6   4  -5    1.62    0.31 
  -5  -4   5    1.63    0.23 
  -5  -4   5    1.23    0.22 
   5   4  -5    0.86    0.18 
   5   4  -5    1.01    0.22 
   5   4  -5    1.22    0.14 
  -4  -4   5    2.15    0.25 
  -4  -4   5    2.18    0.22 
   4   4  -5    1.94    0.22 
   4   4  -5    2.40    0.28 
   4   4  -5    2.00    0.27 
   4   4  -5    1.80    0.15 
  -3  -4   5    3.44    0.27 
  -3  -4   5    4.06    0.24 
   3   4  -5    3.80    0.27 
   3   4  -5    3.92    0.18 
  -2  -4   5    9.27    0.36 
  -2  -4   5    8.89    0.41 
   2   4  -5    9.77    0.36 
   2   4  -5    9.45    0.43 
   2   4  -5    9.25    0.29 
  -1  -4   5    0.51    0.09 
  -1  -4   5    0.80    0.15 
  -1  -4   5    0.68    0.12 
   1   4  -5    0.72    0.13 
   1   4  -5    0.73    0.10 
   0  -4   5    0.74    0.10 
   0  -4   5    0.64    0.11 
   0  -4   5    0.74    0.14 
   0   4  -5    0.44    0.10 
   0   4  -5    0.54    0.09 
   1  -4   5    2.62    0.19 
   1  -4   5    2.51    0.19 
   1  -4   5    2.65    0.17 
   1  -4   5    3.06    0.22 
  -1   4  -5    2.71    0.16 
   2  -4   5    1.21    0.13 
   2  -4   5    0.99    0.16 
   2  -4   5    0.92    0.14 
   2  -4   5    0.84    0.12 
   2  -4   5    0.68    0.11 
  -2   4  -5    1.01    0.12 
   3  -4   5    0.96    0.13 
   3  -4   5    0.82    0.14 
   3  -4   5    0.97    0.16 
   3  -4   5    0.84    0.15 
   3  -4   5    1.26    0.18 
   3  -4   5    1.24    0.14 
  -3   4  -5    1.11    0.14 
   4  -4   5    0.11    0.11 
   4  -4   5   -0.17    0.05 
   4  -4   5   -0.06    0.08 
   4  -4   5   -0.04    0.08 
   4  -4   5    0.11    0.07 
   4  -4   5    0.01    0.08 
  -4   4  -5    0.00    0.06 
   5  -4   5    0.30    0.12 
   5  -4   5    0.13    0.11 
  -5   4  -5    0.48    0.13 
   6  -4   5    0.17    0.12 
   6  -4   5    0.09    0.13 
  -6   4  -5    0.03    0.11 
   7  -4   5   -0.17    0.14 
   7  -4   5    0.04    0.11 
  -5  -5   6    0.79    0.21 
   5   5  -6    0.45    0.18 
  -4  -5   6    1.29    0.22 
  -4  -5   6    1.40    0.20 
   4   5  -6    1.43    0.26 
  -3  -5   6    0.11    0.09 
   3   5  -6    0.10    0.09 
   3   5  -6    0.17    0.12 
  -2  -5   6    2.61    0.33 
  -2  -5   6    2.28    0.26 
   2   5  -6    2.38    0.27 
   2   5  -6    2.81    0.19 
  -1  -5   6    0.14    0.08 
  -1  -5   6    0.12    0.12 
   1   5  -6    0.15    0.07 
   1   5  -6    0.11    0.09 
   0  -5   6    5.83    0.37 
   0  -5   6    5.78    0.33 
   0   5  -6    6.18    0.27 
   1  -5   6    0.01    0.07 
   1  -5   6    0.05    0.07 
  -1   5  -6    0.11    0.06 
   2  -5   6    0.05    0.08 
   2  -5   6    0.05    0.08 
   2  -5   6    0.03    0.08 
  -2   5  -6    0.23    0.08 
   3  -5   6    0.61    0.15 
   3  -5   6    0.77    0.15 
  -3   5  -6    0.89    0.14 
   4  -5   6    0.25    0.14 
   4  -5   6    0.57    0.16 
  -4   5  -6    0.43    0.12 
   5  -5   6    0.12    0.10 
   5  -5   6    0.00    0.12 
  -5   5  -6    0.27    0.17 
   6  -5   6   -0.07    0.14 
   6  -5   6    0.13    0.14 
  -4  -6   7    0.32    0.14 
   4   6  -7    0.44    0.17 
  -3  -6   7    0.27    0.17 
  -3  -6   7    0.37    0.13 
   3   6  -7    0.00    0.10 
  -2  -6   7    0.47    0.15 
  -2  -6   7    0.71    0.21 
   2   6  -7    0.44    0.15 
  -1  -6   7    0.00    0.08 
  -1  -6   7    0.20    0.15 
   0  -6   7   -0.01    0.08 
   0  -6   7    0.02    0.11 
   1  -6   7    2.64    0.27 
   1  -6   7    3.25    0.36 
   2  -6   7    4.41    0.33 
   2  -6   7    4.14    0.34 
   3  -6   7   -0.10    0.09 
   3  -6   7   -0.06    0.10 
   4  -6   7    0.66    0.18 
   4  -6   7    0.66    0.18 
   5  -6   7   -0.05    0.10 
   5  -6   7    0.20    0.16 
  -2  -7   8    0.51    0.21 
  -2  -7   8    0.16    0.12 
  -1  -7   8    0.19    0.13 
  -1  -7   8    0.10    0.17 
   0  -7   8    0.10    0.12 
   0  -7   8    0.11    0.14 
   1  -7   8    0.08    0.15 
   1  -7   8    0.23    0.13 
   2  -7   8   -0.04    0.12 
   2  -7   8    0.10    0.14 
   3  -7   8    0.07    0.12 
   3  -7   8   -0.04    0.11 
   3  -8   6    0.10    0.14 
   3  -8   6    0.12    0.13 
   2  -8   6   -0.14    0.10 
   2  -8   6   -0.01    0.10 
   1  -8   6    0.94    0.21 
   1  -8   6    1.30    0.20 
   0  -8   6    0.08    0.13 
   0  -8   6    0.14    0.09 
  -1  -8   6   -0.02    0.11 
  -1  -8   6    0.01    0.09 
  -2  -8   6    0.46    0.15 
  -2  -8   6    0.96    0.24 
   5  -7   5    4.16    0.40 
   5  -7   5    2.90    0.34 
   4  -7   5    0.62    0.17 
   4  -7   5    0.76    0.18 
   3  -7   5    3.58    0.36 
   3  -7   5    2.42    0.27 
   2  -7   5    0.14    0.10 
   2  -7   5    0.03    0.11 
   1  -7   5    0.01    0.07 
   1  -7   5    0.00    0.07 
   0  -7   5    5.22    0.31 
   0  -7   5    5.04    0.37 
  -1  -7   5    0.40    0.12 
  -1  -7   5    0.53    0.18 
  -2  -7   5    1.71    0.27 
  -2  -7   5    2.01    0.23 
  -3  -7   5    0.06    0.08 
  -4  -7   5    0.07    0.10 
   6  -6   4    0.32    0.20 
   6  -6   4    0.43    0.16 
   5  -6   4    1.33    0.23 
   5  -6   4    1.02    0.21 
   4  -6   4    6.33    0.40 
   4  -6   4    6.72    0.38 
  -3   6  -4   13.04    0.44 
   3  -6   4   13.64    0.55 
   3  -6   4   12.29    0.53 
   2  -6   4   16.52    0.58 
   2  -6   4   15.32    0.61 
   2  -6   4   15.79    0.58 
   1  -6   4    0.66    0.12 
   1  -6   4    0.81    0.13 
   1  -6   4    0.76    0.17 
   0  -6   4   -0.04    0.05 
   0  -6   4   -0.02    0.06 
  -1  -6   4    3.11    0.22 
  -1  -6   4    3.66    0.30 
  -2  -6   4   18.02    0.63 
   3   6  -4    3.34    0.33 
  -3  -6   4    3.06    0.24 
   4   6  -4    3.02    0.35 
   4   6  -4    3.04    0.32 
  -4  -6   4    2.81    0.29 
   5   6  -4    1.46    0.26 
   5   6  -4    0.84    0.20 
  -5  -6   4    1.00    0.21 
   7  -5   3   -0.05    0.14 
   6  -5   3    0.99    0.20 
   6  -5   3    1.41    0.26 
   5  -5   3    2.48    0.28 
   5  -5   3    3.22    0.27 
   4  -5   3    3.26    0.26 
   4  -5   3    3.88    0.28 
   4  -5   3    3.98    0.27 
  -3   5  -3    0.09    0.06 
   3  -5   3    0.01    0.07 
   3  -5   3    0.03    0.07 
   3  -5   3    0.14    0.08 
   3  -5   3    0.16    0.08 
  -2   5  -3    4.46    0.19 
   2  -5   3    4.27    0.24 
   2  -5   3    4.59    0.24 
   2  -5   3    4.61    0.27 
   1  -5   3    0.13    0.06 
   1  -5   3    0.14    0.07 
   1  -5   3    0.14    0.06 
   0  -5   3    7.32    0.36 
   0  -5   3    7.34    0.29 
  -1  -5   3    0.54    0.09 
   2   5  -3   12.73    0.52 
  -2  -5   3   11.73    0.44 
   3   5  -3    5.50    0.34 
   3   5  -3    5.96    0.25 
   3   5  -3    5.43    0.32 
  -3  -5   3    5.88    0.31 
   4   5  -3    5.02    0.28 
   4   5  -3    5.40    0.35 
   4   5  -3    5.15    0.35 
  -4  -5   3    5.82    0.34 
   5   5  -3    0.04    0.09 
   5   5  -3    0.16    0.11 
  -5  -5   3    0.07    0.11 
   6   5  -3    1.88    0.27 
   6   5  -3    2.18    0.31 
  -6  -5   3    2.00    0.28 
   7  -4   2    0.02    0.15 
   6  -4   2    0.08    0.11 
   6  -4   2    0.14    0.10 
   5  -4   2    5.66    0.36 
   5  -4   2    5.63    0.35 
   5  -4   2    5.13    0.31 
   5  -4   2    4.78    0.30 
   4  -4   2    0.66    0.14 
   4  -4   2    0.72    0.14 
   4  -4   2    0.57    0.12 
   4  -4   2    0.54    0.11 
   4  -4   2    0.51    0.11 
   4  -4   2    0.49    0.12 
  -3   4  -2    1.29    0.13 
   3  -4   2    1.04    0.13 
   3  -4   2    1.37    0.16 
   3  -4   2    1.29    0.16 
   3  -4   2    1.12    0.14 
   3  -4   2    1.28    0.15 
   3  -4   2    1.26    0.13 
  -2   4  -2    0.22    0.06 
  -2   4  -2    0.29    0.08 
   2  -4   2    0.21    0.06 
   2  -4   2    0.18    0.06 
   2  -4   2    0.20    0.07 
   2  -4   2    0.37    0.08 
   2  -4   2    0.29    0.09 
   1  -4   2    0.14    0.05 
   1  -4   2    0.13    0.07 
   1  -4   2    0.07    0.04 
   1  -4   2    0.08    0.04 
   1  -4   2    0.13    0.05 
   1  -4   2    0.17    0.07 
   0  -4   2    8.49    0.24 
   0  -4   2    7.97    0.33 
   0  -4   2    8.36    0.35 
   0  -4   2    7.83    0.27 
   0  -4   2    8.27    0.27 
  -1  -4   2   10.19    0.29 
  -1  -4   2   10.09    0.33 
  -1  -4   2   10.64    0.38 
   2   4  -2    0.06    0.04 
   2   4  -2    0.04    0.04 
   2   4  -2   -0.04    0.04 
   2   4  -2    0.04    0.05 
   2   4  -2    0.00    0.04 
  -2  -4   2    0.06    0.04 
  -2  -4   2    0.05    0.04 
   3   4  -2    0.00    0.05 
   3   4  -2    0.05    0.06 
   3   4  -2    0.03    0.05 
  -3  -4   2    0.06    0.05 
  -3  -4   2    0.00    0.05 
   4   4  -2    0.00    0.06 
   4   4  -2    0.01    0.07 
   4   4  -2    0.03    0.07 
  -4  -4   2    0.05    0.07 
   5   4  -2    0.90    0.10 
   5   4  -2    0.92    0.19 
   5   4  -2    0.79    0.15 
   5   4  -2    0.96    0.11 
  -5  -4   2    0.57    0.14 
   6   4  -2    0.00    0.06 
   6   4  -2   -0.04    0.04 
   6   4  -2   -0.05    0.10 
   6   4  -2   -0.02    0.09 
  -6  -4   2    0.13    0.12 
   7   4  -2    0.11    0.12 
   7   4  -2    0.41    0.10 
   7   4  -2    0.26    0.09 
   7   4  -2    0.29    0.16 
  -7  -4   2    0.35    0.18 
   8  -3   1    0.09    0.19 
   7  -3   1    0.50    0.19 
   6  -3   1    0.10    0.11 
  -5   3  -1   -0.02    0.06 
   5  -3   1    0.10    0.09 
   5  -3   1    0.14    0.10 
   5  -3   1    0.08    0.09 
  -4   3  -1    1.65    0.20 
   4  -3   1    2.04    0.21 
   4  -3   1    2.14    0.20 
   4  -3   1    1.73    0.18 
   4  -3   1    1.77    0.19 
   4  -3   1    1.77    0.18 
  -3   3  -1    6.53    0.32 
  -3   3  -1    7.00    0.29 
   3  -3   1    6.57    0.30 
   3  -3   1    6.80    0.31 
   3  -3   1    7.19    0.30 
   3  -3   1    6.63    0.28 
   3  -3   1    6.57    0.30 
  -2   3  -1    0.41    0.06 
  -2   3  -1    0.31    0.08 
  -2   3  -1    0.41    0.08 
   2  -3   1    0.41    0.07 
   2  -3   1    0.44    0.08 
   2  -3   1    0.66    0.10 
   2  -3   1    0.27    0.06 
   2  -3   1    0.38    0.07 
  -1   3  -1    7.93    0.29 
  -1   3  -1    7.68    0.23 
   1  -3   1    7.90    0.29 
   1  -3   1    8.23    0.25 
   1  -3   1    8.13    0.26 
   1  -3   1    7.91    0.25 
   0  -3   1    5.59    0.17 
   0  -3   1    5.47    0.24 
   0  -3   1    5.62    0.18 
   0  -3   1    5.69    0.24 
   1   3  -1    0.85    0.11 
   1   3  -1    0.70    0.08 
  -1  -3   1    0.69    0.06 
  -1  -3   1    0.62    0.07 
  -1  -3   1    0.89    0.10 
   2   3  -1    6.57    0.23 
   2   3  -1    6.48    0.22 
   2   3  -1    6.84    0.27 
   2   3  -1    6.84    0.23 
   2   3  -1    6.37    0.28 
  -2  -3   1    6.64    0.25 
  -2  -3   1    6.43    0.25 
  -2  -3   1    6.56    0.26 
  -2  -3   1    6.68    0.22 
   3   3  -1    0.07    0.05 
   3   3  -1    0.03    0.03 
   3   3  -1    0.01    0.04 
   3   3  -1    0.13    0.04 
   3   3  -1    0.03    0.05 
   3   3  -1   -0.01    0.05 
  -3  -3   1   -0.04    0.04 
  -3  -3   1    0.03    0.04 
   4   3  -1   15.27    0.53 
   4   3  -1   15.95    0.58 
   4   3  -1   14.94    0.53 
   4   3  -1   15.55    0.45 
   4   3  -1   16.48    0.47 
  -4  -3   1   15.22    0.55 
   5   3  -1    8.16    0.31 
   5   3  -1    7.66    0.37 
   5   3  -1    8.37    0.44 
   5   3  -1    8.45    0.32 
   5   3  -1    7.83    0.39 
  -5  -3   1    8.66    0.42 
   6   3  -1    2.77    0.19 
   6   3  -1    3.62    0.32 
   6   3  -1    3.34    0.26 
   6   3  -1    3.09    0.21 
   6   3  -1    2.51    0.31 
  -6  -3   1    3.22    0.34 
   7   3  -1    0.06    0.08 
   7   3  -1    0.24    0.10 
   7   3  -1    0.26    0.11 
   7   3  -1    0.37    0.15 
  -7  -3   1    0.10    0.13 
   8  -2   0   -0.15    0.16 
  -7   2   0    0.29    0.15 
   7  -2   0    0.02    0.14 
  -6   2   0    0.20    0.09 
   6  -2   0   -0.24    0.08 
  -5   2   0    0.03    0.06 
  -5   2   0   -0.03    0.08 
   5  -2   0   -0.07    0.07 
   5  -2   0    0.08    0.08 
   5  -2   0    0.07    0.08 
  -4   2   0    0.97    0.12 
  -4   2   0    0.66    0.14 
  -4   2   0    0.80    0.12 
   4  -2   0    0.77    0.14 
   4  -2   0    0.80    0.14 
   4  -2   0    0.96    0.17 
   4  -2   0    0.84    0.15 
   4  -2   0    0.91    0.13 
  -3   2   0    2.38    0.16 
  -3   2   0    2.31    0.18 
  -3   2   0    2.24    0.14 
   3  -2   0    1.96    0.16 
   3  -2   0    2.27    0.14 
   3  -2   0    2.39    0.17 
   3  -2   0    2.05    0.20 
   3  -2   0    2.57    0.17 
   3  -2   0    2.35    0.17 
  -2   2   0   59.31    1.43 
  -2   2   0   57.96    1.37 
  -2   2   0   58.46    1.38 
   2  -2   0   59.06    1.46 
   2  -2   0   57.74    1.39 
   2  -2   0   58.41    1.41 
   2  -2   0   59.66    1.40 
   2  -2   0   56.93    1.37 
   2  -2   0   59.04    1.41 
  -1   2   0  259.21    5.63 
  -1   2   0  253.06    5.63 
   1  -2   0  252.69    5.62 
   1  -2   0  254.86    5.61 
   1  -2   0  253.59    5.61 
   1  -2   0  257.76    5.62 
   1  -2   0  257.79    5.62 
   1   2   0    6.72    0.23 
   1   2   0    6.49    0.20 
  -1  -2   0    6.77    0.23 
  -1  -2   0    6.76    0.19 
  -1  -2   0    6.71    0.19 
  -1  -2   0    6.63    0.19 
  -1  -2   0    6.73    0.19 
   2   2   0    0.94    0.07 
   2   2   0    1.05    0.08 
   2   2   0    0.99    0.09 
   2   2   0    1.07    0.11 
   2   2   0    1.12    0.10 
   2   2   0    1.01    0.06 
   2   2   0    1.15    0.08 
  -2  -2   0    1.02    0.08 
  -2  -2   0    0.98    0.09 
  -2  -2   0    0.90    0.09 
  -2  -2   0    1.20    0.09 
  -2  -2   0    1.11    0.07 
   3   2   0    3.25    0.17 
   3   2   0    3.13    0.20 
   3   2   0    3.26    0.14 
   3   2   0    3.18    0.17 
   3   2   0    3.09    0.16 
   3   2   0    3.18    0.15 
   3   2   0    3.03    0.18 
  -3  -2   0    2.85    0.18 
  -3  -2   0    3.17    0.19 
   4   2   0    4.75    0.26 
   4   2   0    4.97    0.21 
   4   2   0    4.84    0.22 
   4   2   0    5.29    0.21 
   4   2   0    4.83    0.23 
   4   2   0    5.06    0.29 
  -4  -2   0    5.26    0.29 
   5   2   0    0.95    0.13 
   5   2   0    1.23    0.14 
   5   2   0    1.18    0.19 
   5   2   0    1.26    0.13 
   5   2   0    1.09    0.18 
   5   2   0    1.31    0.14 
  -5  -2   0    1.17    0.17 
   6   2   0    6.27    0.32 
   6   2   0    6.88    0.32 
   6   2   0    6.99    0.40 
   6   2   0    6.35    0.42 
   6   2   0    6.95    0.33 
   6   2   0    6.48    0.30 
  -6  -2   0    7.11    0.41 
   7   2   0    0.30    0.16 
   7   2   0    0.38    0.11 
   7   2   0    0.44    0.12 
   7   2   0    0.41    0.12 
  -7  -2   0    0.37    0.15 
   8   2   0   -0.01    0.08 
   8   2   0    0.02    0.11 
  -8  -2   0    0.13    0.16 
   8  -1  -1    0.07    0.15 
  -7   1   1    0.40    0.18 
   7  -1  -1    0.25    0.15 
  -6   1   1    0.37    0.14 
   6  -1  -1    0.54    0.18 
   6  -1  -1    0.15    0.11 
  -5   1   1    0.35    0.11 
  -5   1   1    0.38    0.13 
   5  -1  -1    0.31    0.12 
   5  -1  -1    0.49    0.14 
   5  -1  -1    0.44    0.12 
  -4   1   1    0.10    0.09 
  -4   1   1    0.16    0.08 
  -4   1   1    0.31    0.08 
   4  -1  -1    0.06    0.07 
   4  -1  -1    0.20    0.08 
   4  -1  -1    0.03    0.07 
   4  -1  -1    0.14    0.09 
  -3   1   1    2.99    0.20 
  -3   1   1    2.99    0.16 
  -3   1   1    3.20    0.19 
   3  -1  -1    3.05    0.19 
   3  -1  -1    2.98    0.20 
   3  -1  -1    3.09    0.20 
   3  -1  -1    2.58    0.17 
   3  -1  -1    2.93    0.19 
  -2   1   1    4.91    0.23 
  -2   1   1    4.88    0.21 
  -2   1   1    5.25    0.18 
   2  -1  -1    4.93    0.23 
   2  -1  -1    4.78    0.20 
   2  -1  -1    4.89    0.21 
   2  -1  -1    5.04    0.22 
  -1   1   1   48.72    1.16 
  -1   1   1   50.16    1.14 
  -1   1   1   44.17    1.12 
  -1   1   1   49.35    1.09 
   1  -1  -1   48.84    1.14 
   1  -1  -1   49.09    1.13 
   1  -1  -1   49.59    1.16 
   0   1   1   34.67    0.88 
   0  -1  -1   39.72    0.85 
   0  -1  -1   40.15    0.88 
   1   1   1   47.47    1.06 
   1   1   1   47.56    1.04 
   1   1   1   42.81    1.05 
   1   1   1   46.35    1.05 
  -1  -1  -1   47.39    1.06 
  -1  -1  -1   47.14    1.06 
  -1  -1  -1   47.36    1.06 
  -1  -1  -1   47.42    1.04 
  -1  -1  -1   45.38    1.05 
   2   1   1    0.02    0.03 
   2   1   1    0.02    0.03 
   2   1   1    0.15    0.05 
   2   1   1    0.05    0.04 
   2   1   1    0.12    0.05 
   2   1   1    0.07    0.03 
  -2  -1  -1    0.04    0.04 
  -2  -1  -1    0.01    0.04 
  -2  -1  -1    0.11    0.05 
  -2  -1  -1    0.09    0.04 
   3   1   1  204.51    4.47 
   3   1   1  201.38    4.49 
   3   1   1  198.79    4.48 
   3   1   1  199.94    4.45 
   3   1   1  202.35    4.41 
   3   1   1  196.11    4.43 
   3   1   1  200.47    4.53 
  -3  -1  -1  196.09    4.49 
  -3  -1  -1  202.39    4.50 
  -3  -1  -1  196.73    4.51 
  -3  -1  -1  193.24    4.48 
   4   1   1    4.50    0.22 
   4   1   1    4.23    0.24 
   4   1   1    4.49    0.23 
   4   1   1    4.41    0.28 
   4   1   1    4.43    0.25 
  -4  -1  -1    4.47    0.26 
  -4  -1  -1    4.20    0.25 
  -4  -1  -1    4.36    0.25 
  -4  -1  -1    4.59    0.27 
   5   1   1    0.90    0.10 
   5   1   1    1.44    0.17 
   5   1   1    0.80    0.15 
   5   1   1    0.61    0.15 
   5   1   1    0.87    0.14 
  -5  -1  -1    0.82    0.16 
  -5  -1  -1    0.93    0.21 
   6   1   1    0.08    0.12 
   6   1   1    0.10    0.11 
   6   1   1    0.10    0.09 
   6   1   1    0.03    0.05 
   6   1   1   -0.05    0.08 
  -6  -1  -1   -0.01    0.09 
   7   1   1    0.07    0.13 
   7   1   1    0.31    0.10 
   7   1   1    0.38    0.12 
   7   1   1    0.28    0.09 
   7   1   1   -0.06    0.10 
  -7  -1  -1    0.37    0.16 
   8   1   1    0.11    0.10 
  -8  -1  -1    0.04    0.13 
  -8   0   2    0.02    0.15 
  -7   0   2    0.19    0.12 
   7   0  -2    0.11    0.13 
  -6   0   2   -0.08    0.08 
   6   0  -2   -0.02    0.08 
   6   0  -2    0.01    0.07 
   6   0  -2    0.04    0.11 
  -5   0   2    0.10    0.09 
  -5   0   2    0.12    0.11 
   5   0  -2    0.05    0.06 
   5   0  -2    0.02    0.07 
   5   0  -2    0.09    0.10 
   5   0  -2    0.07    0.11 
  -4   0   2    3.18    0.23 
  -4   0   2    3.32    0.23 
  -4   0   2    2.97    0.24 
   4   0  -2    3.46    0.23 
   4   0  -2    2.83    0.18 
   4   0  -2    3.38    0.23 
   4   0  -2    3.03    0.24 
   4   0  -2    3.23    0.22 
  -3   0   2   -0.01    0.05 
  -3   0   2    0.02    0.05 
  -3   0   2    0.01    0.05 
   3   0  -2    0.00    0.05 
   3   0  -2   -0.02    0.04 
   3   0  -2   -0.03    0.04 
   3   0  -2    0.05    0.04 
   3   0  -2   -0.04    0.05 
  -2   0   2    7.44    0.28 
  -2   0   2    6.86    0.28 
  -2   0   2    6.66    0.27 
   2   0  -2    7.05    0.26 
   2   0  -2    7.17    0.29 
   2   0  -2    7.14    0.27 
   2   0  -2    6.67    0.23 
  -1   0   2    4.58    0.19 
  -1   0   2    4.63    0.18 
  -1   0   2    4.50    0.18 
   1   0  -2    4.68    0.16 
   1   0  -2    4.45    0.18 
   0   0   2   50.08    1.15 
   0   0   2   52.22    1.17 
   0   0  -2   51.25    1.15 
   0   0  -2   51.22    1.17 
   0   0  -2   49.66    1.16 
   1   0   2   19.73    0.49 
   1   0   2   20.00    0.50 
   1   0   2   19.80    0.49 
   1   0   2   17.72    0.47 
  -1   0  -2   19.70    0.48 
  -1   0  -2   20.12    0.50 
  -1   0  -2   19.65    0.49 
  -1   0  -2   20.02    0.50 
   2   0   2  578.69   12.75 
   2   0   2  579.52   12.71 
   2   0   2  594.49   12.73 
   2   0   2  577.41   12.69 
   2   0   2  574.09   12.76 
   2   0   2  585.03   12.73 
  -2   0  -2  584.67   12.72 
  -2   0  -2  592.01   12.73 
  -2   0  -2  571.88   12.69 
  -2   0  -2  574.81   12.71 
   3   0   2   -0.11    0.04 
   3   0   2   -0.12    0.04 
   3   0   2    0.01    0.05 
   3   0   2   -0.06    0.04 
   3   0   2   -0.07    0.05 
  -3   0  -2   -0.11    0.04 
  -3   0  -2    0.00    0.05 
  -3   0  -2   -0.07    0.05 
  -3   0  -2   -0.03    0.05 
   4   0   2  227.76    5.03 
   4   0   2  222.29    5.09 
   4   0   2  224.68    5.09 
   4   0   2  226.93    5.16 
  -4   0  -2  217.92    5.09 
  -4   0  -2  227.37    5.13 
  -4   0  -2  223.78    5.14 
  -4   0  -2  220.49    5.08 
  -4   0  -2  222.35    5.10 
   5   0   2    0.35    0.12 
   5   0   2    0.40    0.11 
   5   0   2    0.26    0.09 
   5   0   2    0.63    0.14 
  -5   0  -2    0.35    0.11 
  -5   0  -2    0.39    0.12 
  -5   0  -2    0.30    0.10 
  -5   0  -2    0.14    0.08 
   6   0   2    5.31    0.32 
   6   0   2    5.37    0.40 
   6   0   2    4.59    0.35 
  -6   0  -2    5.92    0.46 
  -6   0  -2    5.78    0.37 
  -6   0  -2    4.72    0.35 
   7   0   2   -0.14    0.12 
   7   0   2   -0.09    0.06 
  -7   0  -2    0.14    0.11 
   8   0   2   -0.47    0.12 
  -8   0  -2    0.08    0.14 
  -7  -1   3    0.11    0.13 
   7   1  -3    0.15    0.10 
   7   1  -3    0.04    0.08 
  -6  -1   3    0.55    0.15 
   6   1  -3    0.79    0.14 
   6   1  -3    0.50    0.13 
   6   1  -3    0.77    0.19 
  -5  -1   3    2.98    0.29 
  -5  -1   3    3.27    0.25 
   5   1  -3    3.40    0.21 
   5   1  -3    2.94    0.32 
   5   1  -3    2.63    0.25 
  -4  -1   3    3.85    0.24 
  -4  -1   3    3.11    0.26 
  -4  -1   3    3.43    0.25 
   4   1  -3    3.78    0.26 
   4   1  -3    3.50    0.20 
   4   1  -3    3.50    0.27 
  -3  -1   3   10.19    0.42 
  -3  -1   3   11.01    0.39 
  -3  -1   3   10.73    0.41 
   3   1  -3    9.77    0.39 
   3   1  -3   10.51    0.35 
   3   1  -3   10.16    0.43 
  -2  -1   3   -0.04    0.04 
  -2  -1   3   -0.03    0.03 
  -2  -1   3    0.00    0.03 
  -2  -1   3    0.06    0.04 
   2   1  -3   -0.03    0.04 
   2   1  -3    0.05    0.03 
   2   1  -3    0.04    0.05 
  -1  -1   3    2.46    0.15 
  -1  -1   3    2.59    0.15 
  -1  -1   3    2.61    0.12 
   1   1  -3    2.91    0.15 
   1   1  -3    2.76    0.12 
   0  -1   3   31.63    0.79 
   0  -1   3   30.85    0.75 
   0  -1   3   31.89    0.79 
   0   1  -3   30.80    0.78 
   0   1  -3   30.72    0.75 
   0   1  -3   31.88    0.76 
   0   1  -3   31.15    0.78 
   1  -1   3   28.35    0.67 
   1  -1   3   26.57    0.71 
   1  -1   3   27.92    0.69 
   1  -1   3   28.19    0.72 
   1  -1   3   27.89    0.71 
  -1   1  -3   27.93    0.72 
  -1   1  -3   28.26    0.68 
  -1   1  -3   27.33    0.71 
  -1   1  -3   28.26    0.72 
  -1   1  -3   28.55    0.69 
   2  -1   3   15.42    0.47 
   2  -1   3   16.05    0.40 
   2  -1   3   16.08    0.45 
   2  -1   3   16.73    0.49 
   2  -1   3   15.93    0.47 
  -2   1  -3   16.24    0.48 
  -2   1  -3   15.80    0.47 
  -2   1  -3   15.82    0.44 
  -2   1  -3   16.30    0.47 
   3  -1   3   67.90    1.68 
   3  -1   3   68.84    1.71 
   3  -1   3   68.35    1.65 
   3  -1   3   68.53    1.67 
   3  -1   3   67.30    1.62 
   3  -1   3   67.74    1.65 
  -3   1  -3   67.29    1.64 
  -3   1  -3   68.80    1.66 
  -3   1  -3   69.65    1.68 
   4  -1   3   -0.02    0.05 
   4  -1   3   -0.01    0.06 
   4  -1   3    0.06    0.05 
   4  -1   3    0.12    0.07 
   4  -1   3    0.07    0.08 
  -4   1  -3   -0.05    0.05 
  -4   1  -3    0.09    0.06 
   5  -1   3   16.11    0.60 
   5  -1   3   14.97    0.59 
   5  -1   3   15.73    0.64 
  -5   1  -3   16.20    0.59 
   6  -1   3    1.24    0.18 
   6  -1   3    1.34    0.24 
   6  -1   3    1.31    0.21 
  -6   1  -3    1.67    0.24 
   7  -1   3    0.39    0.17 
   8  -1   3   -0.08    0.15 
  -7  -2   4    0.16    0.14 
   7   2  -4    0.05    0.10 
   7   2  -4    0.03    0.08 
  -6  -2   4    0.40    0.14 
  -6  -2   4    0.34    0.15 
   6   2  -4    0.07    0.12 
   6   2  -4    0.27    0.11 
   6   2  -4    0.41    0.17 
   6   2  -4    0.23    0.09 
  -5  -2   4    1.36    0.21 
  -5  -2   4    1.35    0.19 
   5   2  -4    1.03    0.14 
   5   2  -4    0.83    0.15 
   5   2  -4    1.07    0.19 
   5   2  -4    0.78    0.15 
  -4  -2   4    7.04    0.34 
  -4  -2   4    7.16    0.38 
   4   2  -4    7.16    0.30 
   4   2  -4    6.47    0.33 
   4   2  -4    7.01    0.40 
  -3  -2   4   11.66    0.40 
  -3  -2   4   11.03    0.45 
  -3  -2   4   11.45    0.42 
   3   2  -4   11.07    0.38 
   3   2  -4   11.78    0.43 
   3   2  -4   11.56    0.48 
  -2  -2   4    2.70    0.19 
  -2  -2   4    2.58    0.19 
  -2  -2   4    2.61    0.16 
   2   2  -4    2.97    0.18 
   2   2  -4    2.92    0.15 
   2   2  -4    2.48    0.17 
   2   2  -4    2.89    0.20 
  -1  -2   4   30.98    0.85 
  -1  -2   4   31.33    0.79 
  -1  -2   4   30.22    0.84 
   1   2  -4   30.58    0.82 
   1   2  -4   31.68    0.78 
   1   2  -4   31.21    0.83 
   0  -2   4   81.00    1.96 
   0  -2   4   80.63    1.93 
   0  -2   4   81.91    1.88 
   0   2  -4   81.64    1.92 
   0   2  -4   81.21    1.91 
   0   2  -4   81.98    1.87 
   0   2  -4   83.64    1.92 
   1  -2   4    6.26    0.24 
   1  -2   4    6.04    0.26 
   1  -2   4    6.02    0.22 
   1  -2   4    5.62    0.21 
  -1   2  -4    6.16    0.25 
  -1   2  -4    5.83    0.21 
  -1   2  -4    5.79    0.24 
  -1   2  -4    5.86    0.24 
  -1   2  -4    6.22    0.27 
   2  -2   4   18.10    0.51 
   2  -2   4   17.79    0.48 
   2  -2   4   18.18    0.54 
   2  -2   4   17.45    0.55 
   2  -2   4   16.93    0.55 
  -2   2  -4   17.11    0.52 
  -2   2  -4   18.02    0.54 
  -2   2  -4   17.80    0.50 
  -2   2  -4   17.95    0.56 
   3  -2   4    9.81    0.40 
   3  -2   4    9.14    0.34 
   3  -2   4    9.42    0.36 
   3  -2   4    9.33    0.30 
   3  -2   4    9.31    0.37 
   3  -2   4    9.18    0.40 
  -3   2  -4    9.44    0.36 
  -3   2  -4    8.86    0.36 
   4  -2   4    0.62    0.13 
   4  -2   4    0.50    0.10 
   4  -2   4    0.45    0.11 
   4  -2   4    0.45    0.12 
   4  -2   4    0.42    0.10 
  -4   2  -4    0.62    0.12 
   5  -2   4    0.19    0.08 
   5  -2   4    0.15    0.09 
   5  -2   4    0.08    0.09 
   5  -2   4    0.10    0.09 
   5  -2   4    0.10    0.10 
  -5   2  -4    0.03    0.07 
   6  -2   4    0.26    0.13 
  -6   2  -4    0.25    0.12 
   7  -2   4    0.55    0.18 
  -7   2  -4    1.37    0.24 
   8  -2   4    0.31    0.21 
  -6  -3   5    0.10    0.15 
   6   3  -5    0.04    0.07 
   6   3  -5    0.05    0.10 
   6   3  -5    0.15    0.13 
  -5  -3   5    0.32    0.13 
  -5  -3   5    0.33    0.14 
   5   3  -5    0.47    0.10 
   5   3  -5    0.39    0.12 
   5   3  -5    0.43    0.18 
   5   3  -5    0.84    0.20 
  -4  -3   5    1.17    0.17 
  -4  -3   5    1.66    0.22 
  -4  -3   5    1.25    0.17 
   4   3  -5    1.43    0.21 
   4   3  -5    1.44    0.15 
   4   3  -5    0.91    0.19 
  -3  -3   5    0.84    0.13 
  -3  -3   5    1.17    0.17 
  -3  -3   5    1.15    0.15 
   3   3  -5    1.58    0.14 
   3   3  -5    1.17    0.16 
   3   3  -5    1.01    0.18 
  -2  -3   5    0.02    0.06 
  -2  -3   5   -0.03    0.05 
   2   3  -5    0.07    0.04 
   2   3  -5    0.16    0.07 
  -1  -3   5    0.84    0.13 
  -1  -3   5    0.87    0.14 
  -1  -3   5    0.99    0.11 
   1   3  -5    0.87    0.11 
   1   3  -5    1.00    0.10 
   1   3  -5    1.03    0.15 
   0  -3   5    8.00    0.29 
   0  -3   5    7.10    0.34 
   0  -3   5    7.83    0.33 
   0   3  -5    7.93    0.33 
   0   3  -5    7.63    0.30 
   0   3  -5    7.43    0.30 
   0   3  -5    7.60    0.26 
   1  -3   5   37.78    0.94 
   1  -3   5   37.12    0.98 
   1  -3   5   35.97    1.02 
   1  -3   5   35.84    0.94 
   1  -3   5   36.49    1.00 
  -1   3  -5   36.63    0.91 
  -1   3  -5   37.01    0.97 
  -1   3  -5   37.07    0.96 
   2  -3   5   19.74    0.63 
   2  -3   5   20.05    0.65 
   2  -3   5   22.12    0.61 
   2  -3   5   20.72    0.58 
   2  -3   5   20.84    0.66 
  -2   3  -5   20.41    0.57 
  -2   3  -5   19.60    0.61 
   3  -3   5    1.48    0.19 
   3  -3   5    1.14    0.18 
   3  -3   5    1.09    0.11 
   3  -3   5    1.19    0.17 
   3  -3   5    1.10    0.15 
   3  -3   5    1.41    0.14 
  -3   3  -5    0.97    0.13 
   4  -3   5    7.46    0.29 
   4  -3   5    7.57    0.40 
   4  -3   5    7.66    0.40 
   4  -3   5    7.65    0.38 
   4  -3   5    7.61    0.35 
   4  -3   5    8.05    0.38 
  -4   3  -5    7.39    0.36 
   5  -3   5    0.10    0.09 
   5  -3   5    0.30    0.07 
   5  -3   5    0.18    0.10 
   5  -3   5    0.18    0.13 
   5  -3   5    0.22    0.11 
  -5   3  -5    0.13    0.08 
   6  -3   5   -0.06    0.10 
   6  -3   5    0.00    0.09 
  -6   3  -5    0.04    0.10 
   7  -3   5   -0.26    0.12 
  -7   3  -5   -0.15    0.11 
  -6  -4   6    0.23    0.17 
   6   4  -6    0.07    0.15 
   6   4  -6    0.02    0.06 
   6   4  -6    0.10    0.13 
   6   4  -6    0.00    0.08 
  -5  -4   6    1.99    0.28 
   5   4  -6    1.86    0.29 
   5   4  -6    1.63    0.17 
   5   4  -6    1.27    0.22 
  -4  -4   6    2.53    0.26 
  -4  -4   6    3.02    0.33 
   4   4  -6    2.46    0.17 
   4   4  -6    2.33    0.28 
  -3  -4   6    9.16    0.46 
  -3  -4   6    8.85    0.39 
   3   4  -6    8.71    0.32 
   3   4  -6    9.44    0.46 
  -2  -4   6    0.54    0.13 
  -2  -4   6    0.39    0.11 
   2   4  -6    0.50    0.12 
   2   4  -6    0.64    0.09 
   2   4  -6    0.45    0.11 
  -1  -4   6   -0.02    0.07 
  -1  -4   6   -0.03    0.06 
  -1  -4   6    0.02    0.06 
   1   4  -6   -0.02    0.04 
   1   4  -6    0.01    0.06 
   1   4  -6    0.05    0.04 
   0  -4   6    1.68    0.22 
   0  -4   6    1.47    0.14 
   0  -4   6    1.79    0.19 
   0   4  -6    1.94    0.21 
   0   4  -6    1.59    0.11 
   0   4  -6    1.85    0.17 
   1  -4   6    0.13    0.07 
   1  -4   6    0.08    0.07 
   1  -4   6    0.17    0.10 
  -1   4  -6    0.29    0.06 
  -1   4  -6    0.18    0.06 
   2  -4   6    0.22    0.08 
   2  -4   6    0.09    0.08 
   2  -4   6    0.04    0.07 
   2  -4   6    0.02    0.07 
  -2   4  -6    0.00    0.04 
   3  -4   6    0.02    0.06 
   3  -4   6   -0.08    0.06 
   3  -4   6    0.15    0.09 
   3  -4   6    0.03    0.08 
   3  -4   6    0.02    0.09 
  -3   4  -6    0.02    0.05 
   4  -4   6    0.01    0.07 
   4  -4   6   -0.06    0.08 
   4  -4   6    0.00    0.08 
   4  -4   6    0.00    0.06 
   4  -4   6   -0.05    0.09 
  -4   4  -6   -0.03    0.07 
   5  -4   6    0.79    0.17 
   5  -4   6    0.27    0.14 
  -5   4  -6    0.66    0.16 
   6  -4   6   -0.08    0.08 
   6  -4   6    0.07    0.15 
  -6   4  -6   -0.05    0.11 
   7  -4   6   -0.09    0.10 
   7  -4   6   -0.16    0.14 
   5   5  -7    0.42    0.17 
  -4  -5   7   -0.08    0.10 
   4   5  -7   -0.08    0.09 
  -3  -5   7    1.95    0.25 
  -3  -5   7    1.99    0.30 
   3   5  -7    2.21    0.28 
  -2  -5   7    2.04    0.30 
  -2  -5   7    2.14    0.26 
   2   5  -7    2.01    0.26 
   2   5  -7    2.14    0.22 
  -1  -5   7    0.01    0.07 
  -1  -5   7    0.02    0.09 
   1   5  -7    0.05    0.06 
   1   5  -7    0.11    0.10 
   0  -5   7    3.15    0.26 
   0  -5   7    3.14    0.34 
   0   5  -7    3.24    0.20 
   1  -5   7    0.04    0.07 
   1  -5   7    0.01    0.07 
  -1   5  -7    0.04    0.05 
   2  -5   7    7.60    0.41 
   2  -5   7    7.61    0.42 
  -2   5  -7    7.53    0.34 
   3  -5   7    5.24    0.36 
   3  -5   7    5.58    0.36 
  -3   5  -7    5.37    0.30 
   4  -5   7    1.19    0.22 
   4  -5   7    1.08    0.21 
  -4   5  -7    0.90    0.17 
   5  -5   7    0.04    0.10 
   5  -5   7    0.06    0.12 
   6  -5   7    0.05    0.16 
   6  -5   7    0.35    0.16 
  -3  -6   8    1.23    0.27 
  -3  -6   8    1.24    0.24 
   3   6  -8    1.48    0.27 
  -2  -6   8    1.39    0.27 
  -2  -6   8    1.29    0.23 
   2   6  -8    1.12    0.23 
  -1  -6   8    0.26    0.12 
  -1  -6   8    0.28    0.15 
   0  -6   8    0.14    0.10 
   0  -6   8    0.08    0.12 
   1  -6   8    0.38    0.13 
   1  -6   8    0.39    0.14 
   2  -6   8    0.68    0.19 
   2  -6   8    0.58    0.16 
   3  -6   8    1.15    0.22 
   3  -6   8    1.25    0.23 
   4  -6   8    2.44    0.33 
   4  -6   8    2.79    0.34 
   5  -6   8    0.30    0.17 
   0  -7   9    0.03    0.11 
   0  -7   9    0.12    0.17 
   1  -7   9   -0.02    0.12 
   1  -7   9   -0.04    0.12 
   2  -7   9   -0.03    0.13 
   2  -7   9    0.10    0.15 
   4  -8   5   -0.09    0.11 
   4  -8   5   -0.01    0.11 
   3  -8   5    0.02    0.12 
   3  -8   5    0.06    0.10 
   2  -8   5    0.10    0.10 
   2  -8   5    0.01    0.10 
   1  -8   5    0.02    0.10 
   1  -8   5    0.06    0.09 
   0  -8   5    0.17    0.14 
   0  -8   5    0.12    0.09 
  -1  -8   5    0.07    0.08 
  -1  -8   5   -0.18    0.10 
  -2  -8   5    0.03    0.08 
  -2  -8   5    0.05    0.13 
  -3  -8   5    0.07    0.15 
  -3  -8   5   -0.03    0.09 
   5  -7   4    4.42    0.42 
   5  -7   4    3.94    0.39 
   4  -7   4    1.63    0.25 
   4  -7   4    1.47    0.22 
   3  -7   4    7.64    0.43 
   3  -7   4    8.44    0.43 
   2  -7   4    8.57    0.46 
   2  -7   4    8.97    0.42 
   1  -7   4    6.07    0.32 
   1  -7   4    5.78    0.37 
   0  -7   4    0.26    0.09 
   0  -7   4    0.17    0.10 
  -1  -7   4    0.16    0.09 
  -1  -7   4    0.27    0.12 
  -2  -7   4    2.47    0.25 
  -2  -7   4    3.26    0.39 
  -3  -7   4    0.03    0.07 
  -4  -7   4    0.59    0.15 
  -5  -7   4   -0.08    0.11 
   6  -6   3    0.03    0.12 
   6  -6   3   -0.18    0.12 
   5  -6   3    0.09    0.10 
   5  -6   3   -0.09    0.09 
   4  -6   3    2.52    0.27 
   4  -6   3    2.53    0.26 
   3  -6   3    1.68    0.19 
   3  -6   3    1.77    0.21 
   3  -6   3    1.97    0.23 
   2  -6   3    5.69    0.29 
   2  -6   3    6.11    0.34 
   2  -6   3    5.81    0.31 
   1  -6   3   36.07    1.08 
   1  -6   3   35.43    0.96 
   1  -6   3   37.51    0.99 
   0  -6   3   12.33    0.53 
   0  -6   3   12.74    0.44 
  -1  -6   3    4.37    0.24 
  -1  -6   3    5.32    0.34 
  -2  -6   3    2.58    0.20 
  -3  -6   3    2.80    0.22 
   4   6  -3    2.39    0.28 
   4   6  -3    2.06    0.26 
  -4  -6   3    2.82    0.27 
   5   6  -3    0.47    0.15 
   5   6  -3    0.35    0.16 
  -5  -6   3    0.25    0.14 
   6   6  -3    0.12    0.14 
   6   6  -3    0.20    0.15 
  -6  -6   3    0.41    0.15 
   7  -5   2   -0.22    0.14 
   6  -5   2    0.41    0.17 
   6  -5   2    0.72    0.16 
   5  -5   2    0.34    0.12 
   5  -5   2    0.33    0.14 
   4  -5   2    6.89    0.35 
   4  -5   2    6.76    0.39 
   4  -5   2    7.13    0.36 
   4  -5   2    6.68    0.36 
   4  -5   2    6.68    0.37 
   3  -5   2    6.39    0.32 
   3  -5   2    5.54    0.28 
   3  -5   2    5.48    0.29 
   3  -5   2    5.67    0.29 
   2  -5   2    2.58    0.17 
   2  -5   2    2.71    0.18 
   2  -5   2    2.55    0.19 
   1  -5   2    0.08    0.07 
   1  -5   2    0.03    0.04 
   1  -5   2   -0.03    0.04 
   0  -5   2    8.02    0.28 
   0  -5   2    8.14    0.37 
   0  -5   2    8.35    0.29 
  -1  -5   2    1.10    0.12 
   2   5  -2    2.05    0.16 
  -2  -5   2    1.89    0.15 
   3   5  -2    5.76    0.34 
   3   5  -2    5.92    0.31 
  -3  -5   2    5.67    0.29 
   4   5  -2    3.02    0.19 
   4   5  -2    3.01    0.25 
   4   5  -2    3.06    0.30 
  -4  -5   2    3.05    0.23 
   5   5  -2    0.27    0.12 
   5   5  -2    0.25    0.11 
  -5  -5   2    0.35    0.13 
   6   5  -2    0.35    0.16 
   6   5  -2    0.22    0.12 
  -6  -5   2    0.46    0.16 
   7   5  -2    0.19    0.15 
   7   5  -2   -0.04    0.13 
  -7  -5   2    0.08    0.13 
   7  -4   1    0.45    0.19 
   6  -4   1    0.31    0.15 
  -5   4  -1    6.57    0.41 
   5  -4   1    6.26    0.37 
   5  -4   1    6.16    0.33 
   5  -4   1    6.15    0.37 
  -4   4  -1    0.13    0.10 
   4  -4   1    0.44    0.11 
   4  -4   1    0.29    0.09 
   4  -4   1    0.20    0.09 
   4  -4   1    0.10    0.09 
   4  -4   1    0.23    0.10 
  -3   4  -1   11.91    0.47 
  -3   4  -1   11.68    0.43 
   3  -4   1   11.51    0.43 
   3  -4   1   11.92    0.42 
   3  -4   1   11.78    0.44 
   3  -4   1   11.96    0.44 
   3  -4   1   11.58    0.42 
  -2   4  -1    9.30    0.36 
   2  -4   1    9.74    0.35 
   2  -4   1    9.59    0.35 
   2  -4   1    9.52    0.34 
   2  -4   1    9.87    0.33 
   2  -4   1    9.86    0.34 
   1  -4   1    5.95    0.21 
   1  -4   1    5.57    0.22 
   1  -4   1    5.87    0.26 
   0  -4   1    3.44    0.20 
   0  -4   1    3.45    0.13 
   0  -4   1    3.30    0.14 
   0  -4   1    3.24    0.20 
   1   4  -1    0.54    0.07 
  -1  -4   1    0.47    0.06 
  -1  -4   1    0.49    0.08 
   2   4  -1    2.61    0.19 
   2   4  -1    2.73    0.16 
  -2  -4   1    2.72    0.15 
  -2  -4   1    2.85    0.18 
  -2  -4   1    2.82    0.13 
   3   4  -1    6.34    0.25 
   3   4  -1    6.41    0.30 
   3   4  -1    6.11    0.31 
  -3  -4   1    6.33    0.24 
  -3  -4   1    6.41    0.29 
   4   4  -1    0.02    0.06 
   4   4  -1   -0.05    0.05 
   4   4  -1    0.03    0.06 
  -4  -4   1   -0.07    0.05 
   5   4  -1    0.26    0.10 
   5   4  -1    0.48    0.12 
   5   4  -1    0.41    0.07 
   5   4  -1    0.54    0.08 
   5   4  -1    0.31    0.12 
  -5  -4   1    0.17    0.10 
   6   4  -1    0.10    0.05 
   6   4  -1    0.12    0.10 
   6   4  -1    0.06    0.09 
   6   4  -1   -0.02    0.05 
  -6  -4   1    0.10    0.10 
   7   4  -1    0.13    0.14 
   7   4  -1    0.06    0.09 
   7   4  -1    0.06    0.07 
   7   4  -1   -0.03    0.06 
  -7  -4   1   -0.03    0.09 
   7  -3   0   -0.09    0.12 
  -6   3   0    0.11    0.11 
   6  -3   0    0.02    0.10 
  -5   3   0   -0.09    0.06 
  -5   3   0   -0.01    0.06 
   5  -3   0    0.06    0.10 
   5  -3   0   -0.09    0.06 
   5  -3   0    0.02    0.08 
  -4   3   0    2.13    0.24 
  -4   3   0    1.75    0.19 
  -4   3   0    1.86    0.17 
   4  -3   0    1.83    0.20 
   4  -3   0    1.74    0.15 
   4  -3   0    1.80    0.21 
   4  -3   0    1.59    0.20 
   4  -3   0    1.47    0.18 
  -3   3   0    1.76    0.19 
  -3   3   0    1.55    0.13 
   3  -3   0    1.46    0.14 
   3  -3   0    1.58    0.13 
   3  -3   0    1.62    0.19 
   3  -3   0    1.58    0.16 
   3  -3   0    1.61    0.16 
   3  -3   0    1.77    0.17 
  -2   3   0   16.50    0.47 
  -2   3   0   16.20    0.50 
   2  -3   0   15.65    0.46 
   2  -3   0   16.02    0.55 
   2  -3   0   16.11    0.48 
   2  -3   0   15.84    0.46 
   2  -3   0   16.19    0.48 
   2  -3   0   15.87    0.47 
  -1   3   0   15.13    0.45 
  -1   3   0   15.23    0.43 
   1  -3   0   15.84    0.42 
   1  -3   0   15.86    0.41 
   1  -3   0   15.45    0.44 
   1  -3   0   15.82    0.41 
   1   3   0    0.14    0.04 
  -1  -3   0    0.13    0.05 
   2   3   0   38.80    0.90 
   2   3   0   39.25    0.90 
   2   3   0   38.43    0.99 
   2   3   0   38.15    0.96 
   2   3   0   38.08    0.90 
  -2  -3   0   38.77    0.94 
  -2  -3   0   38.12    0.89 
  -2  -3   0   38.02    0.93 
  -2  -3   0   37.07    0.96 
   3   3   0    1.65    0.09 
   3   3   0    1.73    0.13 
   3   3   0    1.55    0.12 
   3   3   0    1.62    0.08 
   3   3   0    1.37    0.14 
   3   3   0    1.49    0.15 
   3   3   0    1.78    0.13 
  -3  -3   0    1.88    0.14 
   4   3   0    0.66    0.08 
   4   3   0    0.65    0.13 
   4   3   0    0.84    0.09 
   4   3   0    0.73    0.11 
   4   3   0    0.34    0.08 
  -4  -3   0    0.94    0.14 
   5   3   0    0.04    0.05 
   5   3   0    0.01    0.09 
   5   3   0    0.16    0.07 
   5   3   0    0.07    0.08 
   5   3   0    0.09    0.06 
  -5  -3   0    0.05    0.07 
   6   3   0    0.78    0.17 
   6   3   0    0.79    0.18 
   6   3   0    0.89    0.15 
   6   3   0    0.81    0.12 
   6   3   0    0.88    0.12 
  -6  -3   0    0.80    0.18 
   7   3   0    1.39    0.26 
   7   3   0    1.61    0.19 
   7   3   0    1.86    0.23 
   7   3   0    1.57    0.18 
  -7  -3   0    1.81    0.30 
   8   3   0    0.37    0.12 
   8   3   0    0.31    0.11 
   8   3   0    0.26    0.13 
  -8  -3   0    0.15    0.15 
   8  -2  -1   -0.08    0.14 
  -7   2   1    0.33    0.16 
   7  -2  -1    0.57    0.19 
  -6   2   1   -0.09    0.08 
   6  -2  -1   -0.07    0.08 
  -5   2   1    2.43    0.28 
  -5   2   1    1.63    0.20 
   5  -2  -1    1.78    0.23 
   5  -2  -1    1.36    0.18 
   5  -2  -1    1.78    0.23 
  -4   2   1    2.76    0.17 
  -4   2   1    3.07    0.21 
  -4   2   1    2.24    0.23 
   4  -2  -1    2.72    0.22 
   4  -2  -1    2.82    0.22 
   4  -2  -1    3.13    0.32 
   4  -2  -1    2.84    0.22 
  -3   2   1    0.81    0.11 
  -3   2   1    0.49    0.11 
  -3   2   1    0.84    0.09 
   3  -2  -1    0.73    0.11 
   3  -2  -1    0.69    0.12 
   3  -2  -1    0.62    0.12 
   3  -2  -1    0.79    0.11 
   3  -2  -1    0.81    0.12 
  -2   2   1   50.68    1.22 
  -2   2   1   50.98    1.26 
  -2   2   1   50.59    1.18 
   2  -2  -1   51.00    1.22 
   2  -2  -1   51.66    1.24 
   2  -2  -1   50.00    1.19 
   2  -2  -1   51.26    1.25 
   2  -2  -1   50.06    1.29 
  -1   2   1  140.06    3.13 
  -1   2   1  143.29    3.16 
  -1   2   1  137.83    3.22 
  -1   2   1  142.24    3.13 
   1  -2  -1  143.27    3.13 
   1  -2  -1  142.51    3.22 
   1  -2  -1  142.23    3.15 
   1  -2  -1  141.52    3.15 
   0   2   1  268.83    5.95 
   0  -2  -1  271.79    5.95 
  -1  -2  -1    0.26    0.03 
  -1  -2  -1    0.26    0.03 
   2   2   1   68.93    1.59 
   2   2   1   68.10    1.58 
   2   2   1   69.96    1.59 
   2   2   1   69.00    1.55 
   2   2   1   70.49    1.63 
   2   2   1   68.49    1.55 
   2   2   1   68.88    1.61 
  -2  -2  -1   70.85    1.60 
  -2  -2  -1   69.54    1.61 
  -2  -2  -1   69.79    1.61 
  -2  -2  -1   68.99    1.58 
  -2  -2  -1   70.42    1.60 
   3   2   1    0.63    0.08 
   3   2   1    0.50    0.08 
   3   2   1    0.47    0.06 
   3   2   1    0.68    0.09 
   3   2   1    0.60    0.08 
   3   2   1    0.51    0.10 
   3   2   1    0.47    0.06 
  -3  -2  -1    0.55    0.09 
  -3  -2  -1    0.76    0.10 
  -3  -2  -1    0.50    0.08 
  -3  -2  -1    0.42    0.08 
   4   2   1   -0.07    0.04 
   4   2   1    0.05    0.06 
   4   2   1    0.01    0.03 
   4   2   1   -0.02    0.05 
   4   2   1    0.00    0.04 
   4   2   1   -0.09    0.05 
  -4  -2  -1    0.01    0.05 
  -4  -2  -1    0.00    0.05 
  -4  -2  -1   -0.04    0.05 
   5   2   1    2.29    0.16 
   5   2   1    2.06    0.15 
   5   2   1    2.05    0.16 
   5   2   1    2.36    0.20 
   5   2   1    2.35    0.26 
   5   2   1    1.71    0.19 
  -5  -2  -1    2.17    0.24 
   6   2   1    0.72    0.12 
   6   2   1    0.37    0.12 
   6   2   1    0.31    0.09 
   6   2   1    0.52    0.10 
   6   2   1    0.08    0.10 
   6   2   1    0.43    0.12 
  -6  -2  -1    0.60    0.15 
   7   2   1    0.35    0.12 
   7   2   1    0.29    0.11 
   7   2   1    0.16    0.13 
   7   2   1    0.20    0.08 
   7   2   1    0.04    0.12 
  -7  -2  -1    0.25    0.13 
   8   2   1    2.05    0.32 
   8   2   1    1.63    0.20 
  -8  -2  -1    1.67    0.31 
   8  -1  -2    1.14    0.26 
  -7   1   2    0.02    0.11 
   7  -1  -2    0.01    0.11 
  -6   1   2    0.93    0.19 
   6  -1  -2    1.12    0.20 
   6  -1  -2    0.67    0.13 
   6  -1  -2    0.93    0.24 
  -5   1   2   -0.06    0.06 
  -5   1   2   -0.04    0.09 
   5  -1  -2    0.04    0.09 
   5  -1  -2    0.08    0.08 
  -4   1   2    5.33    0.25 
  -4   1   2    5.70    0.32 
  -4   1   2    5.54    0.30 
  -4   1   2    6.01    0.34 
   4  -1  -2    5.49    0.30 
   4  -1  -2    5.80    0.32 
   4  -1  -2    5.15    0.31 
   4  -1  -2    5.32    0.29 
  -3   1   2   -0.03    0.03 
  -3   1   2    0.00    0.05 
  -3   1   2   -0.05    0.04 
  -3   1   2    0.03    0.05 
   3  -1  -2   -0.02    0.04 
   3  -1  -2   -0.07    0.03 
   3  -1  -2    0.01    0.06 
  -2   1   2   29.39    0.79 
  -2   1   2   28.54    0.76 
   2  -1  -2   27.79    0.76 
   2  -1  -2   29.61    0.79 
   2  -1  -2   28.34    0.78 
  -1   1   2   18.76    0.50 
  -1   1   2   18.21    0.48 
  -1   1   2   18.25    0.51 
   1  -1  -2   17.84    0.50 
   1  -1  -2   17.84    0.49 
   1  -1  -2   18.63    0.49 
   0   1   2    6.71    0.18 
   0  -1  -2    6.49    0.20 
   0  -1  -2    6.69    0.18 
   1   1   2   22.03    0.54 
   1   1   2   22.52    0.55 
   1   1   2   22.73    0.53 
  -1  -1  -2   22.76    0.55 
  -1  -1  -2   22.10    0.55 
  -1  -1  -2   22.19    0.54 
  -1  -1  -2   22.22    0.53 
   2   1   2    8.90    0.26 
   2   1   2    9.06    0.29 
   2   1   2    8.92    0.31 
   2   1   2    9.48    0.30 
   2   1   2    9.18    0.28 
  -2  -1  -2    8.93    0.30 
  -2  -1  -2    9.47    0.27 
  -2  -1  -2    8.83    0.29 
  -2  -1  -2    9.41    0.30 
  -2  -1  -2    9.28    0.29 
   3   1   2    3.63    0.13 
   3   1   2    3.51    0.16 
   3   1   2    3.24    0.20 
   3   1   2    3.04    0.18 
   3   1   2    3.72    0.18 
   3   1   2    3.46    0.19 
  -3  -1  -2    3.31    0.18 
  -3  -1  -2    3.55    0.19 
  -3  -1  -2    3.42    0.19 
  -3  -1  -2    3.40    0.20 
   4   1   2    1.58    0.18 
   4   1   2    1.66    0.14 
   4   1   2    1.83    0.11 
   4   1   2    1.64    0.17 
   4   1   2    1.73    0.17 
  -4  -1  -2    1.39    0.15 
  -4  -1  -2    1.81    0.19 
  -4  -1  -2    1.59    0.18 
  -4  -1  -2    1.88    0.18 
   5   1   2   14.21    0.48 
   5   1   2   14.53    0.59 
   5   1   2   14.34    0.55 
   5   1   2   13.44    0.50 
   5   1   2   14.23    0.42 
  -5  -1  -2   13.82    0.55 
  -5  -1  -2   13.16    0.53 
  -5  -1  -2   13.73    0.54 
  -5  -1  -2   16.31    0.68 
   6   1   2    0.07    0.10 
   6   1   2   -0.01    0.05 
   6   1   2   -0.04    0.08 
   6   1   2    0.03    0.11 
   6   1   2   -0.09    0.06 
  -6  -1  -2    0.15    0.12 
  -6  -1  -2    0.07    0.10 
   7   1   2    0.45    0.16 
   7   1   2    0.08    0.07 
   7   1   2   -0.19    0.10 
   7   1   2    0.02    0.08 
  -7  -1  -2   -0.12    0.11 
   8   1   2    0.24    0.10 
  -8  -1  -2    0.08    0.12 
  -7   0   3    0.15    0.14 
   7   0  -3    0.08    0.13 
  -6   0   3   -0.06    0.08 
   6   0  -3    0.04    0.12 
   6   0  -3   -0.07    0.06 
   6   0  -3   -0.10    0.07 
  -5   0   3    0.19    0.13 
  -5   0   3    0.18    0.11 
  -5   0   3    0.32    0.11 
   5   0  -3    0.35    0.11 
   5   0  -3    0.15    0.08 
   5   0  -3    0.21    0.11 
  -4   0   3    0.33    0.10 
  -4   0   3    0.22    0.09 
  -4   0   3    0.41    0.12 
   4   0  -3    0.13    0.08 
   4   0  -3    0.18    0.09 
   4   0  -3    0.29    0.07 
   4   0  -3    0.13    0.07 
  -3   0   3    0.09    0.06 
  -3   0   3    0.16    0.08 
  -3   0   3   -0.01    0.05 
   3   0  -3    0.13    0.08 
   3   0  -3    0.00    0.05 
   3   0  -3    0.07    0.05 
  -2   0   3    5.98    0.26 
  -2   0   3    6.40    0.28 
  -2   0   3    6.28    0.27 
   2   0  -3    6.80    0.27 
   2   0  -3    6.56    0.29 
   2   0  -3    6.54    0.23 
  -1   0   3    4.22    0.20 
  -1   0   3    4.03    0.18 
   1   0  -3    3.95    0.18 
   1   0  -3    4.14    0.19 
   1   0  -3    4.15    0.16 
   0   0   3   34.58    0.86 
   0   0   3   36.90    0.89 
   0   0  -3   36.83    0.85 
   0   0  -3   36.32    0.88 
   0   0  -3   36.41    0.86 
   1   0   3   13.72    0.37 
   1   0   3   14.16    0.39 
   1   0   3   12.89    0.37 
   1   0   3   12.54    0.36 
  -1   0  -3   13.55    0.38 
  -1   0  -3   13.56    0.37 
  -1   0  -3   13.53    0.36 
  -1   0  -3   13.72    0.39 
   2   0   3    4.83    0.20 
   2   0   3    4.99    0.22 
   2   0   3    5.01    0.21 
   2   0   3    4.66    0.18 
  -2   0  -3    5.13    0.19 
  -2   0  -3    4.64    0.20 
  -2   0  -3    4.46    0.19 
  -2   0  -3    4.77    0.21 
   3   0   3    0.00    0.04 
   3   0   3    0.13    0.07 
   3   0   3    0.12    0.05 
   3   0   3    0.11    0.05 
   3   0   3    0.00    0.04 
   3   0   3    0.14    0.06 
  -3   0  -3    0.06    0.04 
  -3   0  -3    0.11    0.05 
  -3   0  -3    0.07    0.05 
  -3   0  -3    0.12    0.06 
   4   0   3  113.34    2.71 
   4   0   3  115.20    2.72 
   4   0   3  109.32    2.75 
   4   0   3  115.05    2.64 
  -4   0  -3  114.64    2.70 
  -4   0  -3  116.20    2.72 
  -4   0  -3  112.56    2.71 
   5   0   3    0.65    0.14 
   5   0   3    0.92    0.15 
   5   0   3    0.81    0.12 
  -5   0  -3    1.13    0.18 
  -5   0  -3    0.73    0.13 
  -5   0  -3    0.88    0.15 
   6   0   3   29.27    0.95 
   6   0   3   27.96    1.00 
   6   0   3   26.86    0.72 
   6   0   3   28.11    0.85 
  -6   0  -3   28.90    0.95 
  -6   0  -3   29.54    0.94 
   7   0   3    0.05    0.12 
   7   0   3   -0.07    0.06 
  -7   0  -3    0.07    0.12 
  -7   0  -3   -0.05    0.10 
   8   0   3    0.80    0.24 
  -7  -1   4    1.57    0.30 
   7   1  -4    1.04    0.18 
  -6  -1   4    0.03    0.11 
  -6  -1   4    0.06    0.11 
   6   1  -4    0.10    0.11 
   6   1  -4   -0.01    0.07 
   6   1  -4    0.07    0.10 
  -5  -1   4    2.19    0.25 
  -5  -1   4    2.51    0.26 
   5   1  -4    2.58    0.25 
   5   1  -4    2.50    0.22 
   5   1  -4    2.80    0.32 
  -4  -1   4   10.01    0.55 
  -4  -1   4    8.70    0.42 
  -4  -1   4    8.94    0.41 
   4   1  -4    9.36    0.46 
   4   1  -4    8.68    0.34 
  -3  -1   4    3.98    0.26 
  -3  -1   4    3.71    0.24 
  -3  -1   4    3.96    0.23 
   3   1  -4    3.98    0.20 
   3   1  -4    3.71    0.25 
   3   1  -4    3.45    0.23 
  -2  -1   4    0.06    0.04 
  -2  -1   4    0.04    0.05 
  -2  -1   4    0.11    0.06 
   2   1  -4    0.03    0.04 
   2   1  -4    0.12    0.07 
   2   1  -4    0.08    0.05 
  -1  -1   4    6.03    0.22 
  -1  -1   4    5.85    0.26 
  -1  -1   4    6.28    0.27 
   1   1  -4    5.55    0.21 
   1   1  -4    5.53    0.25 
   0  -1   4   15.09    0.42 
   0  -1   4   14.96    0.45 
   0   1  -4   14.35    0.41 
   0   1  -4   14.49    0.44 
   0   1  -4   14.69    0.41 
   0   1  -4   15.32    0.45 
   1  -1   4   12.58    0.39 
   1  -1   4   12.87    0.37 
   1  -1   4   12.32    0.39 
   1  -1   4   12.90    0.41 
  -1   1  -4   12.20    0.40 
  -1   1  -4   12.64    0.40 
  -1   1  -4   12.62    0.39 
  -1   1  -4   12.42    0.35 
  -1   1  -4   12.10    0.36 
   2  -1   4    0.29    0.06 
   2  -1   4    0.23    0.06 
   2  -1   4    0.23    0.07 
   2  -1   4    0.20    0.07 
  -2   1  -4    0.21    0.06 
  -2   1  -4    0.26    0.06 
  -2   1  -4    0.26    0.06 
  -2   1  -4    0.09    0.04 
   3  -1   4   22.49    0.71 
   3  -1   4   22.13    0.53 
   3  -1   4   21.72    0.63 
   3  -1   4   21.97    0.65 
   3  -1   4   22.27    0.66 
   3  -1   4   23.32    0.68 
  -3   1  -4   22.42    0.62 
  -3   1  -4   22.95    0.66 
  -3   1  -4   22.90    0.68 
  -3   1  -4   21.72    0.66 
   4  -1   4    1.22    0.16 
   4  -1   4    1.31    0.16 
   4  -1   4    0.65    0.11 
   4  -1   4    0.81    0.14 
   4  -1   4    0.74    0.14 
  -4   1  -4    1.24    0.17 
  -4   1  -4    1.32    0.17 
   5  -1   4   11.11    0.49 
   5  -1   4   11.67    0.47 
   5  -1   4   10.21    0.51 
  -5   1  -4   12.06    0.49 
   6  -1   4    2.52    0.29 
   6  -1   4    2.61    0.32 
  -6   1  -4    2.76    0.29 
   7  -1   4    6.72    0.45 
  -7   1  -4    7.05    0.45 
   8  -1   4   -0.20    0.14 
  -7  -2   5    0.31    0.17 
   7   2  -5    0.04    0.11 
   7   2  -5    0.12    0.10 
  -6  -2   5    0.28    0.15 
  -6  -2   5    0.04    0.12 
   6   2  -5   -0.03    0.09 
   6   2  -5    0.00    0.07 
   6   2  -5    0.03    0.14 
  -5  -2   5   -0.09    0.08 
  -5  -2   5   -0.15    0.08 
   5   2  -5   -0.01    0.07 
   5   2  -5   -0.03    0.07 
   5   2  -5    0.04    0.06 
   5   2  -5    0.03    0.11 
  -4  -2   5    5.05    0.31 
  -4  -2   5    4.64    0.32 
   4   2  -5    5.11    0.35 
   4   2  -5    4.91    0.25 
   4   2  -5    4.90    0.29 
  -3  -2   5    4.81    0.25 
  -3  -2   5    4.97    0.28 
  -3  -2   5    5.68    0.32 
   3   2  -5    5.11    0.24 
   3   2  -5    5.33    0.33 
   3   2  -5    5.15    0.27 
  -2  -2   5    0.14    0.06 
  -2  -2   5    0.02    0.05 
   2   2  -5    0.32    0.07 
   2   2  -5    0.29    0.07 
  -1  -2   5    1.08    0.14 
  -1  -2   5    1.55    0.13 
  -1  -2   5    1.28    0.15 
  -1  -2   5    1.19    0.16 
   1   2  -5    1.23    0.11 
   1   2  -5    1.28    0.14 
   1   2  -5    1.30    0.14 
   0  -2   5   13.27    0.47 
   0  -2   5   13.58    0.42 
   0  -2   5   14.53    0.49 
   0   2  -5   14.38    0.46 
   0   2  -5   14.17    0.41 
   0   2  -5   14.01    0.45 
   0   2  -5   14.57    0.45 
   1  -2   5   18.91    0.59 
   1  -2   5   19.35    0.60 
   1  -2   5   18.24    0.57 
   1  -2   5   19.51    0.54 
  -1   2  -5   18.73    0.56 
  -1   2  -5   19.72    0.61 
  -1   2  -5   19.92    0.59 
  -1   2  -5   19.27    0.56 
  -1   2  -5   19.17    0.53 
   2  -2   5   14.91    0.50 
   2  -2   5   14.43    0.51 
   2  -2   5   14.73    0.49 
   2  -2   5   14.87    0.42 
   2  -2   5   14.95    0.46 
  -2   2  -5   15.32    0.48 
  -2   2  -5   14.96    0.51 
  -2   2  -5   14.34    0.44 
  -2   2  -5   14.78    0.49 
   3  -2   5    7.03    0.23 
   3  -2   5    7.11    0.32 
   3  -2   5    7.46    0.35 
   3  -2   5    6.92    0.35 
   3  -2   5    6.95    0.29 
   3  -2   5    7.16    0.32 
  -3   2  -5    6.30    0.30 
  -3   2  -5    7.34    0.29 
  -3   2  -5    7.45    0.34 
   4  -2   5    4.99    0.28 
   4  -2   5    4.64    0.30 
   4  -2   5    4.47    0.30 
   4  -2   5    4.68    0.17 
   4  -2   5    4.63    0.29 
   4  -2   5    4.54    0.25 
  -4   2  -5    4.27    0.27 
   5  -2   5    0.18    0.05 
   5  -2   5    0.22    0.12 
   5  -2   5    0.32    0.11 
   5  -2   5    0.32    0.12 
   5  -2   5    0.26    0.12 
   5  -2   5    0.22    0.12 
  -5   2  -5    0.20    0.11 
   6  -2   5    0.67    0.17 
   6  -2   5    1.07    0.19 
  -6   2  -5    1.31    0.20 
   7  -2   5    1.06    0.24 
  -7   2  -5    1.70    0.27 
   8  -2   5   -0.10    0.16 
  -6  -3   6    0.13    0.14 
   6   3  -6   -0.03    0.11 
   6   3  -6   -0.03    0.07 
  -5  -3   6    0.91    0.19 
  -5  -3   6    1.49    0.22 
   5   3  -6    1.30    0.21 
   5   3  -6    0.87    0.21 
   5   3  -6    1.13    0.15 
  -4  -3   6   -0.02    0.09 
  -4  -3   6   -0.04    0.08 
   4   3  -6    0.07    0.05 
   4   3  -6    0.07    0.08 
   4   3  -6   -0.02    0.09 
  -3  -3   6    0.05    0.07 
  -3  -3   6   -0.01    0.07 
   3   3  -6    0.01    0.05 
   3   3  -6    0.04    0.08 
  -2  -3   6   -0.07    0.06 
  -2  -3   6    0.06    0.07 
   2   3  -6    0.03    0.05 
   2   3  -6   -0.02    0.04 
  -1  -3   6    0.06    0.05 
  -1  -3   6   -0.07    0.06 
  -1  -3   6    0.12    0.07 
   1   3  -6   -0.02    0.05 
   1   3  -6    0.05    0.03 
   1   3  -6    0.01    0.05 
   0  -3   6    2.97    0.18 
   0  -3   6    2.95    0.22 
   0  -3   6    3.13    0.22 
   0   3  -6    3.03    0.19 
   0   3  -6    3.10    0.16 
   0   3  -6    3.25    0.21 
   1  -3   6    0.29    0.07 
   1  -3   6    0.28    0.09 
   1  -3   6    0.32    0.09 
  -1   3  -6    0.27    0.07 
  -1   3  -6    0.34    0.07 
  -1   3  -6    0.33    0.08 
   2  -3   6    0.07    0.06 
   2  -3   6    0.02    0.07 
   2  -3   6    0.09    0.07 
   2  -3   6    0.04    0.06 
  -2   3  -6    0.10    0.06 
  -2   3  -6    0.11    0.05 
   3  -3   6    7.95    0.34 
   3  -3   6    8.29    0.38 
   3  -3   6    7.37    0.28 
   3  -3   6    7.29    0.38 
  -3   3  -6    7.44    0.35 
   4  -3   6    2.70    0.27 
   4  -3   6    3.21    0.31 
   4  -3   6    2.55    0.22 
   4  -3   6    2.82    0.24 
   4  -3   6    2.86    0.16 
  -4   3  -6    2.77    0.26 
   5  -3   6    0.57    0.15 
   5  -3   6    0.60    0.17 
  -5   3  -6    0.55    0.14 
   6  -3   6    0.62    0.17 
   6  -3   6    0.64    0.17 
  -6   3  -6    0.75    0.17 
   7  -3   6   -0.05    0.08 
   7  -3   6   -0.01    0.14 
  -7   3  -6    0.02    0.13 
  -5  -4   7   -0.18    0.11 
   5   4  -7    0.12    0.12 
   5   4  -7    0.09    0.07 
  -4  -4   7    0.32    0.13 
  -4  -4   7    0.26    0.12 
   4   4  -7    0.33    0.15 
   4   4  -7    0.21    0.08 
  -3  -4   7    2.16    0.25 
   3   4  -7    2.87    0.17 
   3   4  -7    3.14    0.33 
  -2  -4   7    5.63    0.30 
  -2  -4   7    5.41    0.35 
  -2  -4   7    5.34    0.38 
   2   4  -7    5.57    0.30 
   2   4  -7    4.04    0.30 
   2   4  -7    5.12    0.23 
  -1  -4   7    1.18    0.18 
  -1  -4   7    1.69    0.18 
  -1  -4   7    1.52    0.23 
   1   4  -7    1.68    0.18 
   1   4  -7    1.80    0.15 
   1   4  -7    1.47    0.20 
   0  -4   7    0.65    0.12 
   0  -4   7    0.32    0.13 
   0  -4   7    0.36    0.11 
   0   4  -7    0.68    0.09 
   0   4  -7    0.49    0.12 
   0   4  -7    0.61    0.11 
   1  -4   7    0.19    0.08 
   1  -4   7    0.18    0.09 
   1  -4   7    0.22    0.09 
  -1   4  -7    0.25    0.06 
  -1   4  -7    0.26    0.08 
   2  -4   7    1.36    0.19 
   2  -4   7    1.20    0.20 
   2  -4   7    1.07    0.15 
  -2   4  -7    1.06    0.15 
   3  -4   7    0.13    0.10 
   3  -4   7    0.15    0.10 
   3  -4   7    0.08    0.09 
  -3   4  -7    0.08    0.07 
   4  -4   7    0.15    0.09 
   4  -4   7    0.05    0.10 
  -4   4  -7    0.02    0.09 
   5  -4   7    0.06    0.12 
   5  -4   7    0.06    0.10 
  -5   4  -7   -0.05    0.08 
   6  -4   7    0.04    0.10 
   6  -4   7    0.13    0.14 
  -6   4  -7    0.30    0.15 
  -4  -5   8    0.06    0.12 
   4   5  -8   -0.17    0.10 
  -3  -5   8    1.66    0.26 
  -3  -5   8    1.99    0.31 
   3   5  -8    2.18    0.31 
  -2  -5   8    0.30    0.13 
  -2  -5   8    0.43    0.18 
   2   5  -8    0.46    0.14 
  -1  -5   8    5.12    0.39 
  -1  -5   8    5.56    0.37 
   1   5  -8    5.17    0.34 
   1   5  -8    5.02    0.36 
   0  -5   8    0.65    0.18 
   0  -5   8    0.53    0.14 
   0   5  -8    0.73    0.13 
   0   5  -8    0.79    0.16 
   1  -5   8   -0.09    0.08 
   1  -5   8    0.01    0.11 
  -1   5  -8   -0.02    0.06 
   2  -5   8    0.91    0.21 
   2  -5   8    0.61    0.16 
  -2   5  -8    0.55    0.12 
   3  -5   8    2.75    0.31 
   3  -5   8    2.44    0.29 
  -3   5  -8    2.92    0.28 
   4  -5   8    6.55    0.44 
   4  -5   8    6.88    0.43 
   5  -5   8    0.69    0.21 
   5  -5   8    0.54    0.18 
  -2  -6   9   -0.12    0.14 
  -2  -6   9   -0.02    0.11 
   2   6  -9    0.04    0.12 
  -1  -6   9    0.30    0.19 
  -1  -6   9    0.54    0.17 
   0  -6   9    0.90    0.20 
   0  -6   9    0.63    0.21 
   1  -6   9    0.18    0.17 
   1  -6   9    0.10    0.13 
   2  -6   9    0.40    0.18 
   2  -6   9    0.11    0.13 
   3  -6   9    0.18    0.14 
   3  -6   9    0.33    0.16 
   4  -6   9    0.17    0.15 
   4  -6   9    0.14    0.16 
   2  -9   5   -0.01    0.09 
   2  -9   5   -0.12    0.14 
   1  -9   5    0.21    0.16 
   1  -9   5    0.63    0.16 
   0  -9   5    0.33    0.17 
   0  -9   5    0.26    0.11 
  -1  -9   5    5.08    0.54 
  -1  -9   5    4.02    0.31 
   4  -8   4    0.20    0.13 
   4  -8   4   -0.04    0.11 
   3  -8   4    0.12    0.12 
   3  -8   4    0.01    0.09 
   2  -8   4    0.31    0.12 
   2  -8   4    0.10    0.12 
   1  -8   4    0.15    0.11 
   1  -8   4    0.25    0.10 
   0  -8   4    0.45    0.17 
   0  -8   4    0.31    0.11 
  -1  -8   4    2.07    0.31 
  -1  -8   4    2.38    0.23 
  -2  -8   4    1.68    0.29 
  -2  -8   4    1.65    0.21 
  -3  -8   4    0.40    0.12 
  -4  -8   4   -0.03    0.09 
   5  -7   3   -0.06    0.12 
   5  -7   3    0.14    0.13 
   4  -7   3    1.25    0.21 
   4  -7   3    1.33    0.20 
   3  -7   3    8.28    0.43 
   3  -7   3    7.73    0.41 
   2  -7   3    1.88    0.24 
   2  -7   3    2.15    0.22 
   1  -7   3   14.03    0.59 
   1  -7   3   14.36    0.51 
   0  -7   3    9.66    0.39 
   0  -7   3   10.16    0.50 
  -1  -7   3    9.77    0.40 
  -1  -7   3   10.17    0.52 
  -2  -7   3    2.27    0.22 
  -3  -7   3    1.18    0.17 
   4   7  -3    2.33    0.28 
  -4  -7   3    2.66    0.27 
   5   7  -3    0.70    0.20 
  -5  -7   3    0.68    0.15 
   6  -6   2   -0.18    0.12 
   6  -6   2    0.02    0.10 
   5  -6   2   -0.08    0.08 
   5  -6   2   -0.16    0.09 
   4  -6   2    0.09    0.08 
   4  -6   2    0.05    0.09 
   3  -6   2   -0.06    0.08 
   3  -6   2   -0.03    0.07 
   3  -6   2    0.02    0.08 
   3  -6   2    0.10    0.08 
   2  -6   2   14.62    0.51 
   2  -6   2   15.29    0.50 
   2  -6   2   15.12    0.56 
   1  -6   2    1.24    0.14 
   1  -6   2    1.52    0.20 
   1  -6   2    1.47    0.14 
   0  -6   2   21.79    0.60 
   0  -6   2   21.34    0.61 
   0  -6   2   20.84    0.73 
  -1  -6   2   22.77    0.65 
  -1  -6   2   22.95    0.79 
  -2  -6   2    2.53    0.18 
   3   6  -2    1.46    0.19 
  -3  -6   2    1.52    0.18 
   4   6  -2    0.55    0.14 
  -4  -6   2    0.89    0.15 
   5   6  -2    0.07    0.11 
   5   6  -2    0.10    0.11 
  -5  -6   2    0.05    0.10 
   6   6  -2    2.39    0.33 
   6   6  -2    2.03    0.30 
  -6  -6   2    1.73    0.26 
   7  -5   1   -0.21    0.14 
   6  -5   1    0.31    0.16 
  -5   5  -1    0.10    0.12 
   5  -5   1    0.18    0.10 
   5  -5   1   -0.01    0.08 
  -4   5  -1    2.16    0.26 
   4  -5   1    3.32    0.34 
   4  -5   1    2.56    0.20 
   4  -5   1    2.43    0.22 
   4  -5   1    2.06    0.22 
   4  -5   1    2.38    0.24 
   3  -5   1    4.74    0.26 
   3  -5   1    5.21    0.28 
   3  -5   1    4.50    0.27 
   3  -5   1    4.71    0.25 
  -2   5  -1    4.12    0.27 
   2  -5   1    4.38    0.21 
   2  -5   1    4.19    0.21 
   2  -5   1    4.06    0.23 
   2  -5   1    4.20    0.22 
   1  -5   1    5.33    0.21 
   1  -5   1    5.65    0.27 
   1  -5   1    5.76    0.23 
   0  -5   1    8.66    0.37 
   0  -5   1    9.22    0.28 
  -1  -5   1    2.12    0.12 
   2   5  -1    2.19    0.15 
  -2  -5   1    2.46    0.15 
   3   5  -1    0.75    0.13 
  -3  -5   1    0.62    0.10 
   4   5  -1    3.35    0.19 
   4   5  -1    3.78    0.27 
   4   5  -1    4.00    0.29 
  -4  -5   1    3.49    0.24 
   5   5  -1    0.21    0.12 
   5   5  -1    0.06    0.08 
  -5  -5   1    0.18    0.10 
   6   5  -1    0.03    0.10 
   6   5  -1   -0.09    0.10 
  -6  -5   1    0.12    0.11 
   7   5  -1    0.25    0.15 
   7   5  -1    0.33    0.15 
  -7  -5   1    0.12    0.14 
   7  -4   0   -0.03    0.13 
   6  -4   0    0.21    0.12 
  -5   4   0    2.43    0.29 
   5  -4   0    1.82    0.23 
   5  -4   0    2.19    0.24 
  -4   4   0    2.51    0.27 
   4  -4   0    2.06    0.23 
   4  -4   0    2.24    0.20 
   4  -4   0    2.21    0.23 
   4  -4   0    1.89    0.20 
   4  -4   0    2.38    0.18 
  -3   4   0   44.07    1.19 
  -3   4   0   42.99    1.12 
   3  -4   0   43.92    1.16 
   3  -4   0   43.22    1.11 
   3  -4   0   43.29    1.15 
   3  -4   0   43.51    1.15 
   3  -4   0   43.48    1.13 
  -2   4   0   38.62    1.02 
  -2   4   0   39.59    1.03 
   2  -4   0   39.52    1.01 
   2  -4   0   38.95    1.00 
   2  -4   0   39.75    1.12 
   2  -4   0   39.70    1.01 
   2  -4   0   40.63    1.00 
   2  -4   0   39.53    0.99 
  -1   4   0    2.43    0.14 
   1  -4   0    2.62    0.15 
   1  -4   0    2.61    0.12 
   1  -4   0    2.54    0.19 
   1  -4   0    2.69    0.13 
   0  -4   0    1.56    0.13 
  -1  -4   0   20.18    0.61 
   2   4   0    2.62    0.15 
  -2  -4   0    2.43    0.17 
  -2  -4   0    2.40    0.13 
   3   4   0    0.54    0.10 
   3   4   0    0.61    0.12 
   3   4   0    0.54    0.07 
   3   4   0    0.70    0.08 
   3   4   0    0.73    0.08 
  -3  -4   0    0.62    0.16 
  -3  -4   0    0.53    0.09 
  -3  -4   0    0.79    0.09 
   4   4   0    0.22    0.07 
   4   4   0    0.22    0.09 
   4   4   0    0.09    0.07 
  -4  -4   0    0.15    0.07 
   5   4   0    2.37    0.27 
   5   4   0    1.97    0.22 
   5   4   0    2.29    0.21 
   5   4   0    2.49    0.13 
  -5  -4   0    2.76    0.27 
   6   4   0   -0.09    0.07 
   6   4   0    0.04    0.05 
   6   4   0    0.12    0.06 
   6   4   0   -0.11    0.08 
  -6  -4   0   -0.11    0.09 
   7   4   0    0.03    0.06 
   7   4   0    0.14    0.07 
   7   4   0    0.03    0.13 
   7   4   0    0.03    0.10 
  -7  -4   0    0.08    0.13 
   7  -3  -1   -0.12    0.12 
  -6   3   1    1.48    0.22 
   6  -3  -1    1.01    0.21 
  -5   3   1    4.75    0.30 
   5  -3  -1    4.02    0.30 
   5  -3  -1    4.46    0.31 
   5  -3  -1    4.69    0.32 
  -4   3   1    1.98    0.16 
  -4   3   1    2.28    0.18 
  -4   3   1    2.33    0.23 
   4  -3  -1    2.14    0.22 
   4  -3  -1    2.55    0.21 
   4  -3  -1    1.63    0.18 
   4  -3  -1    2.18    0.22 
  -3   3   1    9.44    0.35 
  -3   3   1    8.99    0.39 
  -3   3   1    8.95    0.31 
   3  -3  -1    9.44    0.32 
   3  -3  -1    9.01    0.37 
   3  -3  -1    9.53    0.37 
   3  -3  -1    9.47    0.37 
   3  -3  -1    8.76    0.34 
  -2   3   1    7.90    0.27 
  -2   3   1    7.58    0.30 
  -2   3   1    8.29    0.27 
   2  -3  -1    8.01    0.26 
   2  -3  -1    7.96    0.29 
   2  -3  -1    8.12    0.29 
   2  -3  -1    7.85    0.35 
   2  -3  -1    7.56    0.28 
  -1   3   1    0.32    0.06 
  -1   3   1    0.27    0.05 
   1  -3  -1    0.26    0.05 
   1  -3  -1    0.20    0.07 
   1  -3  -1    0.28    0.06 
   1  -3  -1    0.30    0.05 
   0  -3  -1   10.83    0.34 
  -1  -3  -1   30.55    0.73 
   2   3   1   11.04    0.35 
  -2  -3  -1   11.00    0.29 
  -2  -3  -1   10.51    0.32 
  -2  -3  -1   10.64    0.32 
  -2  -3  -1   11.23    0.36 
  -2  -3  -1   10.77    0.29 
  -2  -3  -1   10.89    0.32 
   3   3   1   10.47    0.34 
   3   3   1   10.50    0.33 
   3   3   1    9.89    0.36 
   3   3   1    9.79    0.38 
   3   3   1   10.37    0.33 
  -3  -3  -1   10.51    0.37 
  -3  -3  -1   10.44    0.36 
  -3  -3  -1   10.71    0.34 
  -3  -3  -1   10.37    0.36 
   4   3   1    2.67    0.14 
   4   3   1    2.54    0.13 
   4   3   1    2.16    0.17 
   4   3   1    2.29    0.20 
  -4  -3  -1    2.53    0.19 
  -4  -3  -1    2.19    0.17 
  -4  -3  -1    2.05    0.20 
   5   3   1    0.10    0.07 
   5   3   1    0.09    0.05 
   5   3   1    0.18    0.08 
   5   3   1    0.02    0.07 
   5   3   1    0.06    0.06 
  -5  -3  -1    0.12    0.08 
   6   3   1    1.64    0.23 
   6   3   1    1.83    0.18 
   6   3   1    1.89    0.26 
   6   3   1    1.60    0.19 
   6   3   1    2.04    0.17 
  -6  -3  -1    1.40    0.21 
   7   3   1    0.18    0.10 
   7   3   1    0.09    0.09 
   7   3   1   -0.13    0.10 
   7   3   1    0.05    0.07 
  -7  -3  -1   -0.03    0.11 
   8   3   1    0.37    0.12 
   8   3   1    0.23    0.10 
  -8  -3  -1    0.25    0.17 
  -7   2   2    3.28    0.39 
   7  -2  -2    3.68    0.39 
  -6   2   2    0.08    0.12 
   6  -2  -2    0.36    0.12 
  -5   2   2    8.29    0.41 
  -5   2   2    8.06    0.46 
   5  -2  -2    8.31    0.42 
   5  -2  -2    8.50    0.43 
   5  -2  -2    9.00    0.46 
  -4   2   2    0.23    0.10 
  -4   2   2    0.17    0.08 
  -4   2   2    0.26    0.07 
   4  -2  -2    0.26    0.09 
   4  -2  -2    0.37    0.11 
   4  -2  -2    0.21    0.08 
  -3   2   2    5.77    0.22 
  -3   2   2    4.62    0.27 
  -3   2   2    5.95    0.27 
   3  -2  -2    6.02    0.29 
   3  -2  -2    5.83    0.28 
   3  -2  -2    5.91    0.31 
   3  -2  -2    5.81    0.27 
  -2   2   2    0.00    0.04 
  -2   2   2   -0.02    0.04 
  -2   2   2    0.05    0.03 
  -2   2   2   -0.02    0.04 
   2  -2  -2    0.05    0.06 
   2  -2  -2   -0.01    0.04 
   2  -2  -2    0.01    0.04 
  -1   2   2  125.30    2.89 
  -1   2   2  126.74    2.82 
  -1   2   2  126.76    2.85 
   1  -2  -2  124.82    2.83 
   1  -2  -2  125.37    2.83 
   1  -2  -2  127.25    2.89 
   0   2   2  134.52    3.07 
   0  -2  -2  137.62    3.06 
   0  -2  -2  137.61    3.01 
   1   2   2   21.03    0.51 
  -1  -2  -2   20.85    0.50 
  -1  -2  -2   21.29    0.51 
  -1  -2  -2   20.46    0.50 
   2   2   2   32.38    0.76 
   2   2   2   33.19    0.81 
   2   2   2   32.58    0.80 
   2   2   2   32.78    0.84 
   2   2   2   34.21    0.81 
  -2  -2  -2   32.92    0.81 
  -2  -2  -2   33.68    0.80 
  -2  -2  -2   32.69    0.82 
  -2  -2  -2   33.28    0.82 
  -2  -2  -2   33.49    0.79 
   3   2   2    0.98    0.09 
   3   2   2    1.17    0.12 
   3   2   2    0.87    0.11 
   3   2   2    1.00    0.09 
   3   2   2    1.01    0.13 
   3   2   2    0.99    0.11 
  -3  -2  -2    0.83    0.10 
  -3  -2  -2    1.19    0.12 
  -3  -2  -2    1.07    0.10 
  -3  -2  -2    0.77    0.10 
   4   2   2   16.00    0.53 
   4   2   2   15.77    0.52 
   4   2   2   15.43    0.47 
   4   2   2   15.88    0.47 
   4   2   2   16.78    0.59 
   4   2   2   16.60    0.48 
  -4  -2  -2   16.27    0.55 
  -4  -2  -2   16.11    0.53 
  -4  -2  -2   15.76    0.54 
   5   2   2    1.58    0.18 
   5   2   2    1.63    0.13 
   5   2   2    1.72    0.16 
   5   2   2    1.49    0.15 
   5   2   2    1.57    0.22 
  -5  -2  -2    1.67    0.19 
  -5  -2  -2    1.57    0.18 
  -5  -2  -2    1.42    0.18 
   6   2   2    0.71    0.16 
   6   2   2    0.73    0.11 
   6   2   2    0.58    0.13 
   6   2   2    0.60    0.17 
   6   2   2    0.44    0.12 
  -6  -2  -2    0.46    0.14 
  -6  -2  -2    0.91    0.18 
   7   2   2    0.17    0.09 
   7   2   2    0.16    0.07 
   7   2   2    0.22    0.10 
   7   2   2    0.10    0.13 
   7   2   2    0.46    0.16 
  -7  -2  -2    0.12    0.11 
   8   2   2    0.15    0.12 
   8   2   2    0.21    0.09 
  -8  -2  -2    0.37    0.19 
  -7   1   3    0.69    0.23 
   7  -1  -3    0.32    0.18 
  -6   1   3    1.81    0.24 
   6  -1  -3    2.22    0.30 
   6  -1  -3    2.02    0.22 
  -5   1   3    1.68    0.23 
  -5   1   3    2.07    0.26 
   5  -1  -3    1.56    0.17 
   5  -1  -3    1.50    0.20 
   5  -1  -3    2.11    0.27 
  -4   1   3    1.40    0.20 
  -4   1   3    1.45    0.21 
  -4   1   3    1.26    0.17 
  -4   1   3    1.24    0.13 
   4  -1  -3    1.50    0.20 
   4  -1  -3    1.24    0.18 
   4  -1  -3    1.13    0.13 
   4  -1  -3    1.19    0.17 
  -3   1   3    0.03    0.05 
  -3   1   3    0.09    0.07 
  -3   1   3   -0.01    0.05 
   3  -1  -3    0.04    0.04 
   3  -1  -3    0.08    0.05 
   3  -1  -3    0.02    0.06 
   3  -1  -3    0.08    0.06 
  -2   1   3    1.98    0.16 
  -2   1   3    1.91    0.14 
  -2   1   3    1.58    0.14 
   2  -1  -3    1.87    0.11 
   2  -1  -3    1.90    0.15 
   2  -1  -3    1.79    0.14 
   2  -1  -3    1.94    0.15 
  -1   1   3    0.06    0.04 
  -1   1   3    0.17    0.05 
  -1   1   3    0.07    0.04 
   1  -1  -3    0.18    0.05 
   1  -1  -3    0.20    0.04 
   0   1   3    8.43    0.26 
   0   1   3    7.95    0.23 
   0  -1  -3    8.14    0.26 
   0  -1  -3    7.95    0.23 
   1   1   3    5.10    0.19 
   1   1   3    4.82    0.16 
   1   1   3    5.10    0.17 
  -1  -1  -3    5.03    0.19 
  -1  -1  -3    5.17    0.18 
  -1  -1  -3    5.16    0.17 
  -1  -1  -3    5.03    0.17 
   2   1   3    9.12    0.30 
   2   1   3    8.85    0.29 
   2   1   3    8.75    0.30 
   2   1   3    8.92    0.27 
  -2  -1  -3    8.72    0.29 
  -2  -1  -3    8.76    0.27 
  -2  -1  -3    8.92    0.29 
  -2  -1  -3    9.07    0.22 
  -2  -1  -3    9.32    0.31 
   3   1   3    2.39    0.13 
   3   1   3    2.48    0.16 
   3   1   3    2.53    0.15 
   3   1   3    2.61    0.17 
  -3  -1  -3    2.49    0.17 
  -3  -1  -3    2.42    0.15 
  -3  -1  -3    2.50    0.14 
  -3  -1  -3    2.60    0.16 
  -3  -1  -3    2.40    0.16 
   4   1   3    0.08    0.06 
   4   1   3    0.11    0.07 
   4   1   3    0.22    0.07 
   4   1   3    0.09    0.04 
   4   1   3    0.34    0.07 
  -4  -1  -3    0.17    0.08 
  -4  -1  -3    0.19    0.07 
  -4  -1  -3    0.11    0.07 
   5   1   3   18.33    0.65 
   5   1   3   19.24    0.59 
   5   1   3   18.63    0.51 
   5   1   3   19.09    0.71 
  -5  -1  -3   19.48    0.67 
  -5  -1  -3   18.21    0.66 
  -5  -1  -3   18.94    0.65 
   6   1   3    2.04    0.15 
   6   1   3    2.83    0.32 
   6   1   3    2.62    0.28 
   6   1   3    2.44    0.23 
   6   1   3    2.58    0.26 
  -6  -1  -3    2.31    0.25 
  -6  -1  -3    2.41    0.25 
   7   1   3    4.03    0.28 
   7   1   3    3.35    0.36 
   7   1   3    3.83    0.21 
   7   1   3    3.85    0.40 
  -7  -1  -3    4.93    0.37 
  -7  -1  -3    4.50    0.36 
  -8  -1  -3    0.24    0.16 
  -7   0   4    0.62    0.19 
   7   0  -4    0.38    0.16 
  -6   0   4    0.46    0.15 
   6   0  -4    0.41    0.11 
   6   0  -4    0.50    0.14 
  -5   0   4    1.50    0.24 
  -5   0   4    1.54    0.23 
  -5   0   4    2.14    0.27 
   5   0  -4    1.85    0.19 
   5   0  -4    1.91    0.26 
   5   0  -4    1.49    0.20 
  -4   0   4    0.48    0.13 
  -4   0   4    0.67    0.14 
  -4   0   4    0.48    0.12 
   4   0  -4    0.81    0.16 
   4   0  -4    0.49    0.09 
  -3   0   4    7.96    0.38 
  -3   0   4    7.78    0.36 
  -3   0   4    7.91    0.36 
   3   0  -4    8.67    0.32 
   3   0  -4    8.27    0.39 
   3   0  -4    8.92    0.37 
  -2   0   4   -0.03    0.02 
  -2   0   4   -0.05    0.04 
  -2   0   4   -0.04    0.04 
  -2   0   4   -0.01    0.05 
   2   0  -4    0.02    0.05 
   2   0  -4    0.10    0.05 
   2   0  -4    0.01    0.03 
  -1   0   4   22.42    0.64 
  -1   0   4   21.60    0.62 
   1   0  -4   21.07    0.57 
   1   0  -4   21.64    0.61 
   0   0   4   17.86    0.52 
   0   0   4   17.69    0.48 
   0   0  -4   17.83    0.51 
   0   0  -4   18.22    0.48 
   0   0  -4   18.08    0.49 
   1   0   4    1.02    0.08 
   1   0   4    1.05    0.10 
   1   0   4    1.28    0.11 
  -1   0  -4    1.07    0.09 
  -1   0  -4    1.23    0.10 
  -1   0  -4    0.98    0.10 
  -1   0  -4    1.09    0.08 
   2   0   4    3.90    0.17 
   2   0   4    4.11    0.20 
   2   0   4    3.96    0.19 
   2   0   4    3.91    0.19 
  -2   0  -4    4.34    0.19 
  -2   0  -4    3.92    0.17 
  -2   0  -4    4.11    0.12 
  -2   0  -4    4.04    0.19 
  -2   0  -4    3.92    0.20 
   3   0   4    0.61    0.09 
   3   0   4    0.36    0.08 
   3   0   4    0.37    0.08 
   3   0   4    0.37    0.08 
   3   0   4    0.37    0.08 
   3   0   4    0.20    0.09 
  -3   0  -4    0.46    0.08 
  -3   0  -4    0.43    0.08 
  -3   0  -4    0.24    0.07 
  -3   0  -4    0.42    0.08 
   4   0   4    4.42    0.27 
   4   0   4    4.51    0.29 
   4   0   4    4.70    0.27 
   4   0   4    4.72    0.23 
   4   0   4    4.52    0.25 
  -4   0  -4    4.67    0.27 
  -4   0  -4    4.90    0.27 
   5   0   4    1.57    0.16 
   5   0   4    1.44    0.18 
   5   0   4    2.01    0.24 
  -5   0  -4    1.73    0.20 
  -5   0  -4    2.14    0.22 
   6   0   4   50.21    1.34 
   6   0   4   48.67    1.43 
   6   0   4   50.11    1.52 
   6   0   4   49.29    1.15 
  -6   0  -4   51.33    1.43 
   7   0   4    0.06    0.12 
  -7   0  -4    0.41    0.16 
   8   0   4    5.94    0.60 
  -7  -1   5    3.17    0.41 
   7   1  -5    2.99    0.31 
  -6  -1   5    0.90    0.20 
  -6  -1   5    1.47    0.25 
   6   1  -5    1.52    0.20 
   6   1  -5    1.42    0.23 
  -5  -1   5    0.74    0.17 
  -5  -1   5    0.54    0.16 
   5   1  -5    0.24    0.12 
   5   1  -5    0.62    0.20 
   5   1  -5    0.50    0.12 
  -4  -1   5    0.06    0.09 
  -4  -1   5    0.02    0.07 
   4   1  -5    0.08    0.06 
   4   1  -5    0.08    0.10 
  -3  -1   5    0.02    0.06 
  -3  -1   5   -0.02    0.08 
  -3  -1   5    0.00    0.06 
  -3  -1   5    0.03    0.06 
   3   1  -5    0.09    0.08 
   3   1  -5    0.06    0.06 
  -2  -1   5    2.29    0.20 
  -2  -1   5    2.09    0.17 
  -2  -1   5    2.42    0.15 
   2   1  -5    2.14    0.14 
   2   1  -5    2.33    0.18 
  -1  -1   5   31.02    0.79 
  -1  -1   5   30.67    0.86 
  -1  -1   5   30.06    0.83 
  -1  -1   5   29.12    0.84 
   1   1  -5   29.23    0.83 
   1   1  -5   30.14    0.78 
   0  -1   5   13.54    0.40 
   0  -1   5   12.91    0.43 
   0   1  -5   13.05    0.39 
   0   1  -5   12.75    0.43 
   0   1  -5   13.31    0.43 
   1  -1   5    8.50    0.33 
   1  -1   5    8.29    0.32 
   1  -1   5    8.73    0.30 
  -1   1  -5    8.73    0.29 
  -1   1  -5    8.93    0.28 
  -1   1  -5    8.78    0.33 
  -1   1  -5    8.85    0.33 
  -1   1  -5    8.82    0.32 
   2  -1   5   18.39    0.56 
   2  -1   5   18.35    0.58 
   2  -1   5   18.28    0.56 
   2  -1   5   18.45    0.53 
  -2   1  -5   18.36    0.56 
  -2   1  -5   18.81    0.57 
  -2   1  -5   18.94    0.57 
  -2   1  -5   18.06    0.52 
  -2   1  -5   17.93    0.48 
   3  -1   5   -0.01    0.04 
   3  -1   5    0.04    0.06 
   3  -1   5    0.07    0.06 
   3  -1   5   -0.02    0.05 
  -3   1  -5    0.01    0.04 
  -3   1  -5   -0.02    0.03 
  -3   1  -5   -0.04    0.04 
   4  -1   5    0.28    0.10 
   4  -1   5    0.06    0.05 
   4  -1   5    0.29    0.09 
   4  -1   5    0.38    0.09 
   4  -1   5    0.21    0.10 
  -4   1  -5    0.16    0.09 
  -4   1  -5    0.27    0.10 
   5  -1   5    0.09    0.09 
   5  -1   5    0.03    0.09 
   5  -1   5    0.07    0.07 
   5  -1   5    0.06    0.07 
  -5   1  -5    0.02    0.07 
   6  -1   5   -0.03    0.11 
   6  -1   5   -0.04    0.08 
   6  -1   5   -0.02    0.09 
  -6   1  -5    0.07    0.10 
   7  -1   5    1.15    0.23 
  -7   1  -5    1.57    0.25 
   8  -1   5    0.25    0.22 
  -8   1  -5    0.35    0.18 
  -6  -2   6    0.49    0.17 
  -6  -2   6    0.25    0.15 
   6   2  -6    0.17    0.09 
   6   2  -6    0.08    0.11 
  -5  -2   6    0.75    0.19 
  -5  -2   6    0.69    0.17 
   5   2  -6    0.96    0.22 
   5   2  -6    0.86    0.14 
   5   2  -6    0.75    0.16 
  -4  -2   6    6.42    0.37 
  -4  -2   6    6.30    0.39 
   4   2  -6    5.81    0.33 
   4   2  -6    5.66    0.39 
   4   2  -6    5.83    0.29 
  -3  -2   6    0.08    0.07 
  -3  -2   6    0.18    0.09 
  -3  -2   6    0.20    0.09 
   3   2  -6    0.11    0.07 
   3   2  -6   -0.02    0.05 
  -2  -2   6    0.01    0.06 
  -2  -2   6    0.02    0.05 
   2   2  -6    0.15    0.06 
   2   2  -6    0.03    0.05 
  -1  -2   6    1.01    0.16 
  -1  -2   6    1.04    0.13 
  -1  -2   6    0.93    0.14 
  -1  -2   6    1.19    0.20 
   1   2  -6    0.95    0.10 
   1   2  -6    1.18    0.15 
   0  -2   6   -0.01    0.05 
   0  -2   6    0.09    0.07 
   0  -2   6    0.00    0.04 
   0   2  -6    0.03    0.04 
   0   2  -6   -0.02    0.04 
   0   2  -6    0.03    0.04 
   0   2  -6    0.01    0.03 
   1  -2   6    4.12    0.24 
   1  -2   6    4.37    0.21 
   1  -2   6    3.91    0.23 
  -1   2  -6    3.98    0.22 
  -1   2  -6    3.99    0.22 
  -1   2  -6    4.12    0.19 
  -1   2  -6    3.97    0.20 
   2  -2   6    0.15    0.08 
   2  -2   6    0.11    0.06 
   2  -2   6    0.05    0.05 
   2  -2   6    0.17    0.08 
  -2   2  -6    0.14    0.06 
  -2   2  -6    0.07    0.04 
  -2   2  -6    0.10    0.05 
   3  -2   6    2.32    0.19 
   3  -2   6    1.98    0.22 
   3  -2   6    1.95    0.20 
  -3   2  -6    1.83    0.16 
  -3   2  -6    2.22    0.21 
   4  -2   6    7.24    0.36 
   4  -2   6    7.24    0.37 
   4  -2   6    7.75    0.34 
   4  -2   6    7.97    0.41 
   4  -2   6    6.48    0.37 
  -4   2  -6    6.75    0.35 
   5  -2   6    2.67    0.25 
   5  -2   6    2.36    0.26 
   5  -2   6    2.63    0.31 
   5  -2   6    2.66    0.28 
  -5   2  -6    2.88    0.29 
   6  -2   6    1.05    0.22 
   6  -2   6    0.50    0.14 
  -6   2  -6    0.78    0.19 
   7  -2   6    0.72    0.21 
  -7   2  -6    0.40    0.17 
  -5  -3   7    1.39    0.24 
  -5  -3   7    1.42    0.26 
   5   3  -7    1.31    0.17 
   5   3  -7    1.43    0.23 
  -4  -3   7   -0.04    0.08 
  -4  -3   7    0.06    0.11 
   4   3  -7    0.04    0.06 
   4   3  -7   -0.01    0.08 
  -3  -3   7    5.69    0.36 
   3   3  -7    4.83    0.32 
   3   3  -7    4.29    0.24 
  -2  -3   7    0.12    0.10 
  -2  -3   7    0.10    0.08 
  -2  -3   7    0.07    0.08 
   2   3  -7    0.04    0.05 
   2   3  -7    0.24    0.09 
  -1  -3   7    0.01    0.06 
  -1  -3   7    0.00    0.06 
  -1  -3   7    0.06    0.07 
   1   3  -7    0.04    0.04 
   1   3  -7   -0.03    0.05 
   1   3  -7    0.01    0.06 
   0  -3   7    0.23    0.08 
   0  -3   7    0.19    0.09 
   0  -3   7    0.16    0.08 
   0   3  -7    0.28    0.07 
   0   3  -7    0.36    0.09 
   0   3  -7    0.27    0.09 
   1  -3   7    0.09    0.07 
   1  -3   7    0.00    0.06 
   1  -3   7    0.04    0.07 
  -1   3  -7    0.06    0.04 
  -1   3  -7    0.00    0.05 
  -1   3  -7    0.05    0.05 
   2  -3   7    2.44    0.25 
   2  -3   7    2.30    0.23 
   2  -3   7    2.97    0.20 
  -2   3  -7    2.44    0.20 
  -2   3  -7    2.09    0.15 
   3  -3   7    6.20    0.30 
   3  -3   7    5.84    0.34 
   3  -3   7    5.41    0.34 
  -3   3  -7    5.90    0.27 
  -3   3  -7    5.38    0.30 
   4  -3   7    1.27    0.20 
   4  -3   7    1.18    0.18 
   4  -3   7    1.38    0.21 
  -4   3  -7    1.21    0.19 
   5  -3   7    2.32    0.27 
   5  -3   7    2.28    0.27 
  -5   3  -7    1.97    0.24 
   6  -3   7    0.81    0.19 
   6  -3   7    0.41    0.18 
  -6   3  -7    0.20    0.14 
   7  -3   7    0.09    0.11 
   7  -3   7   -0.39    0.12 
  -7   3  -7   -0.02    0.13 
  -4  -4   8    0.18    0.13 
  -4  -4   8   -0.05    0.10 
   4   4  -8   -0.01    0.06 
   4   4  -8    0.04    0.11 
  -3  -4   8    0.44    0.15 
  -3  -4   8    0.40    0.17 
   3   4  -8    0.62    0.17 
   3   4  -8    0.23    0.07 
  -2  -4   8    0.68    0.19 
  -2  -4   8    0.94    0.18 
   2   4  -8    1.12    0.13 
   2   4  -8    0.90    0.18 
   2   4  -8    1.04    0.17 
  -1  -4   8   11.60    0.60 
  -1  -4   8   10.17    0.52 
  -1  -4   8   10.52    0.51 
   1   4  -8    9.61    0.36 
   1   4  -8   10.18    0.44 
   1   4  -8    9.22    0.46 
   0  -4   8    6.82    0.38 
   0  -4   8    5.64    0.31 
   0  -4   8    6.41    0.39 
   0   4  -8    6.27    0.32 
   0   4  -8    6.29    0.27 
   0   4  -8    6.38    0.36 
   1  -4   8    2.66    0.28 
   1  -4   8    2.84    0.29 
   1  -4   8    2.29    0.21 
  -1   4  -8    2.28    0.25 
  -1   4  -8    2.83    0.17 
  -1   4  -8    2.93    0.22 
   2  -4   8    0.37    0.12 
   2  -4   8    0.33    0.12 
   2  -4   8    0.31    0.13 
  -2   4  -8    0.30    0.11 
  -2   4  -8    0.39    0.08 
   3  -4   8    0.26    0.12 
   3  -4   8    0.32    0.13 
  -3   4  -8    0.26    0.11 
   4  -4   8    0.18    0.10 
   4  -4   8    0.15    0.12 
  -4   4  -8   -0.07    0.09 
   5  -4   8    0.09    0.11 
   5  -4   8    0.17    0.14 
  -5   4  -8    0.12    0.11 
   6  -4   8    0.34    0.15 
   6  -4   8    0.26    0.18 
  -6   4  -8    0.19    0.15 
  -3  -5   9   -0.02    0.16 
  -3  -5   9    0.09    0.12 
   3   5  -9    0.17    0.14 
  -2  -5   9    0.06    0.11 
  -2  -5   9    0.12    0.14 
   2   5  -9    0.04    0.10 
  -1  -5   9    1.03    0.23 
  -1  -5   9    1.29    0.23 
   1   5  -9    0.90    0.18 
   0  -5   9    1.30    0.22 
   0  -5   9    1.64    0.25 
   0   5  -9    1.57    0.14 
   0   5  -9    1.74    0.25 
   1  -5   9    2.49    0.31 
   1  -5   9    2.68    0.29 
  -1   5  -9    2.84    0.17 
   2  -5   9    2.15    0.29 
   2  -5   9    2.45    0.32 
   3  -5   9    1.29    0.23 
   3  -5   9    0.87    0.20 
   4  -5   9    0.08    0.14 
   4  -5   9    0.13    0.12 
   5  -5   9   -0.02    0.16 
   5  -5   9   -0.06    0.10 
  -1  -6  10    1.29    0.28 
  -1  -6  10    1.21    0.25 
   0  -6  10    0.09    0.11 
   0  -6  10    0.09    0.14 
   1  -6  10    0.24    0.16 
   1  -6  10    0.61    0.18 
   2  -6  10    0.16    0.17 
   2  -6  10    0.14    0.14 
   3  -6  10    0.06    0.15 
   3  -6  10    0.13    0.17 
   2  -9   4    0.04    0.10 
   2  -9   4    0.09    0.15 
   1  -9   4    0.18    0.10 
   1  -9   4    0.01    0.12 
   0  -9   4    0.05    0.08 
   0  -9   4   -0.13    0.12 
  -1  -9   4    1.28    0.27 
  -1  -9   4    1.54    0.20 
  -2  -9   4    0.74    0.15 
  -2  -9   4    0.52    0.19 
   4  -8   3   -0.05    0.10 
   4  -8   3    0.11    0.12 
   3  -8   3    0.04    0.11 
   3  -8   3    0.08    0.10 
   2  -8   3    0.73    0.14 
   2  -8   3    1.01    0.20 
   1  -8   3    0.00    0.09 
   1  -8   3    0.02    0.07 
   0  -8   3   -0.02    0.07 
   0  -8   3    0.03    0.09 
  -1  -8   3    1.51    0.18 
  -1  -8   3    1.20    0.23 
  -2  -8   3    0.99    0.25 
  -2  -8   3    0.72    0.13 
  -3  -8   3    0.15    0.08 
  -4  -8   3    0.09    0.10 
   6  -7   2    0.73    0.22 
   5  -7   2    0.25    0.14 
   5  -7   2    0.31    0.13 
   4  -7   2    0.51    0.15 
   4  -7   2    0.64    0.14 
   3  -7   2    3.01    0.25 
   3  -7   2    3.22    0.26 
   2  -7   2    2.77    0.29 
   2  -7   2    2.47    0.22 
   1  -7   2   13.20    0.46 
   1  -7   2   13.47    0.45 
   1  -7   2   14.30    0.56 
   0  -7   2    7.68    0.31 
   0  -7   2    7.44    0.41 
  -1  -7   2    9.68    0.36 
  -1  -7   2   10.19    0.50 
  -2  -7   2   22.79    0.69 
  -3  -7   2    6.48    0.32 
   4   7  -2    0.18    0.11 
  -4  -7   2    0.29    0.11 
   5   7  -2    0.23    0.11 
  -5  -7   2    0.10    0.10 
   6  -6   1   -0.01    0.09 
   6  -6   1   -0.07    0.12 
   5  -6   1    1.11    0.20 
   5  -6   1    1.07    0.17 
   4  -6   1    0.17    0.10 
   4  -6   1    0.34    0.11 
   3  -6   1    0.07    0.08 
   3  -6   1    0.05    0.07 
   3  -6   1    0.17    0.08 
   3  -6   1    0.08    0.08 
   2  -6   1    0.08    0.07 
   2  -6   1    0.07    0.06 
   2  -6   1   -0.03    0.06 
   2  -6   1    0.01    0.06 
   1  -6   1    0.06    0.05 
   1  -6   1   -0.05    0.04 
   1  -6   1    0.05    0.06 
   0  -6   1   15.22    0.43 
   0  -6   1   15.24    0.56 
   0  -6   1   14.69    0.43 
  -1  -6   1   10.42    0.34 
   2   6  -1   23.32    0.67 
  -2  -6   1   23.43    0.66 
   3   6  -1   16.20    0.56 
  -3  -6   1   16.07    0.54 
   4   6  -1    4.59    0.30 
  -4  -6   1    4.22    0.27 
   5   6  -1    0.04    0.09 
  -5  -6   1    0.02    0.08 
   6   6  -1   -0.15    0.09 
  -6  -6   1    0.06    0.10 
   7  -5   0   -0.28    0.13 
   6  -5   0   -0.11    0.10 
  -5   5   0    0.77    0.19 
   5  -5   0    0.77    0.16 
   5  -5   0    0.59    0.12 
  -4   5   0    0.98    0.19 
   4  -5   0    0.78    0.19 
   4  -5   0    0.63    0.12 
   4  -5   0    0.70    0.14 
   4  -5   0    0.92    0.16 
   4  -5   0    0.64    0.13 
  -3   5   0    0.03    0.07 
  -3   5   0   -0.02    0.06 
   3  -5   0    0.05    0.06 
   3  -5   0    0.04    0.05 
   3  -5   0    0.11    0.08 
   3  -5   0   -0.07    0.06 
  -2   5   0   15.52    0.54 
  -2   5   0   16.77    0.54 
   2  -5   0   17.11    0.52 
   2  -5   0   16.88    0.52 
   2  -5   0   16.41    0.50 
   2  -5   0   16.58    0.51 
   1  -5   0   16.91    0.54 
   1  -5   0   17.69    0.47 
   1  -5   0   17.49    0.48 
   1  -5   0   17.74    0.60 
   0  -5   0    8.64    0.35 
   0  -5   0    8.77    0.36 
  -1  -5   0    0.41    0.08 
   2   5   0    6.04    0.24 
  -2  -5   0    6.18    0.23 
   3   5   0   -0.02    0.05 
  -3  -5   0    0.08    0.05 
   4   5   0    3.06    0.23 
  -4  -5   0    3.04    0.21 
   5   5   0    0.84    0.13 
   5   5   0    0.84    0.16 
   5   5   0    0.82    0.16 
  -5  -5   0    0.77    0.15 
   6   5   0    0.86    0.20 
   6   5   0    1.59    0.23 
  -6  -5   0    1.32    0.22 
   7   5   0    0.14    0.13 
   7   5   0   -0.02    0.11 
  -7  -5   0   -0.14    0.11 
   7  -4  -1   -0.09    0.12 
   6  -4  -1    0.02    0.11 
  -5   4   1    0.35    0.14 
   5  -4  -1    0.41    0.13 
   5  -4  -1    0.44    0.14 
  -4   4   1    0.02    0.06 
  -4   4   1    0.09    0.09 
   4  -4  -1   -0.04    0.08 
   4  -4  -1    0.08    0.06 
   4  -4  -1    0.01    0.07 
   4  -4  -1   -0.02    0.07 
   4  -4  -1    0.04    0.06 
  -3   4   1    1.22    0.17 
  -3   4   1    1.18    0.14 
   3  -4  -1    1.04    0.12 
   3  -4  -1    1.23    0.14 
   3  -4  -1    1.21    0.15 
   3  -4  -1    1.05    0.14 
   3  -4  -1    1.03    0.14 
  -2   4   1   13.26    0.44 
  -2   4   1   12.96    0.41 
   2  -4  -1   12.97    0.40 
   2  -4  -1   12.71    0.42 
   2  -4  -1   12.54    0.41 
   2  -4  -1   12.90    0.40 
   2  -4  -1   12.84    0.39 
   2  -4  -1   12.62    0.50 
  -1   4   1  219.89    4.83 
   1  -4  -1  218.39    4.80 
   1  -4  -1  219.05    4.95 
   1  -4  -1  212.89    4.84 
   0  -4  -1    2.06    0.15 
  -1  -4  -1   27.16    0.69 
   2   4   1    0.18    0.05 
  -2  -4  -1    0.22    0.05 
  -2  -4  -1    0.29    0.07 
  -2  -4  -1    0.25    0.05 
  -2  -4  -1    0.19    0.05 
   3   4   1    9.83    0.30 
   3   4   1   10.12    0.30 
   3   4   1   10.80    0.39 
  -3  -4  -1   10.34    0.36 
  -3  -4  -1   10.62    0.36 
  -3  -4  -1   10.82    0.37 
  -3  -4  -1   10.22    0.37 
   4   4   1    0.96    0.14 
   4   4   1    0.91    0.14 
   4   4   1    0.97    0.11 
  -4  -4  -1    0.91    0.13 
  -4  -4  -1    0.57    0.11 
   5   4   1   -0.08    0.06 
   5   4   1    0.05    0.07 
   5   4   1    0.08    0.07 
  -5  -4  -1   -0.11    0.06 
   6   4   1    0.33    0.07 
   6   4   1    0.33    0.12 
   6   4   1    0.18    0.13 
   6   4   1    0.16    0.06 
  -6  -4  -1    0.27    0.13 
   7   4   1    0.87    0.12 
   7   4   1    0.99    0.14 
   7   4   1    1.04    0.24 
   7   4   1    0.80    0.17 
  -7  -4  -1    0.95    0.22 
   8   4   1    0.05    0.08 
   7  -3  -2   -0.03    0.12 
  -6   3   2    0.40    0.14 
   6  -3  -2    0.20    0.13 
  -5   3   2    0.24    0.12 
  -5   3   2    0.44    0.13 
   5  -3  -2    0.38    0.14 
   5  -3  -2    0.17    0.09 
   5  -3  -2    0.19    0.10 
  -4   3   2    0.57    0.12 
  -4   3   2    0.58    0.13 
  -4   3   2    0.85    0.12 
   4  -3  -2    0.67    0.13 
   4  -3  -2    0.49    0.11 
   4  -3  -2    0.51    0.12 
  -3   3   2    2.20    0.13 
  -3   3   2    2.06    0.16 
  -3   3   2    2.21    0.19 
   3  -3  -2    1.91    0.19 
   3  -3  -2    2.04    0.22 
   3  -3  -2    2.39    0.17 
   3  -3  -2    2.01    0.17 
  -2   3   2   15.85    0.42 
  -2   3   2   15.72    0.50 
  -2   3   2   15.39    0.45 
  -2   3   2   15.18    0.55 
   2  -3  -2   15.22    0.47 
   2  -3  -2   15.23    0.41 
   2  -3  -2   15.28    0.47 
   2  -3  -2   15.55    0.54 
  -1   3   2    0.96    0.10 
  -1   3   2    0.73    0.10 
   1  -3  -2    1.12    0.13 
   1  -3  -2    0.99    0.09 
   0   3   2   32.87    0.87 
   0  -3  -2   35.24    0.87 
   1   3   2    6.64    0.22 
   2   3   2   40.23    0.99 
  -2  -3  -2   40.70    0.96 
  -2  -3  -2   40.38    0.93 
  -2  -3  -2   38.95    1.00 
  -2  -3  -2   39.98    0.97 
  -2  -3  -2   40.76    0.97 
   3   3   2    0.30    0.07 
   3   3   2    0.24    0.06 
   3   3   2    0.23    0.07 
   3   3   2    0.34    0.07 
  -3  -3  -2    0.29    0.06 
  -3  -3  -2    0.25    0.06 
  -3  -3  -2    0.29    0.06 
  -3  -3  -2    0.30    0.06 
  -3  -3  -2    0.24    0.06 
   4   3   2    0.34    0.05 
   4   3   2    0.44    0.06 
   4   3   2    0.42    0.08 
   4   3   2    0.37    0.10 
  -4  -3  -2    0.32    0.09 
  -4  -3  -2    0.21    0.07 
  -4  -3  -2    0.47    0.10 
   5   3   2    0.05    0.07 
   5   3   2   -0.03    0.05 
   5   3   2    0.03    0.04 
   5   3   2   -0.03    0.07 
   5   3   2   -0.05    0.05 
  -5  -3  -2    0.00    0.06 
  -5  -3  -2   -0.02    0.07 
  -5  -3  -2   -0.04    0.06 
   6   3   2    1.08    0.18 
   6   3   2    0.71    0.18 
   6   3   2    0.78    0.11 
   6   3   2    0.53    0.12 
   6   3   2    0.76    0.12 
  -6  -3  -2    0.68    0.16 
   7   3   2    0.01    0.07 
   7   3   2    0.09    0.12 
   7   3   2   -0.05    0.06 
   7   3   2   -0.01    0.08 
  -7  -3  -2   -0.17    0.09 
   8   3   2    0.16    0.09 
   8   3   2   -0.02    0.08 
   8   3   2   -0.04    0.14 
  -8  -3  -2   -0.01    0.13 
   7  -2  -3    0.73    0.22 
  -6   2   3    0.23    0.12 
   6  -2  -3    0.05    0.09 
  -5   2   3   11.23    0.50 
  -5   2   3   11.41    0.56 
   5  -2  -3   11.02    0.53 
   5  -2  -3   11.11    0.51 
  -4   2   3    3.72    0.25 
  -4   2   3    3.65    0.28 
  -4   2   3    3.19    0.26 
  -4   2   3    3.15    0.18 
   4  -2  -3    2.74    0.22 
   4  -2  -3    3.06    0.25 
  -3   2   3   10.11    0.32 
  -3   2   3   10.54    0.40 
  -3   2   3   10.35    0.45 
   3  -2  -3   10.74    0.44 
   3  -2  -3   10.32    0.42 
   3  -2  -3   10.37    0.40 
  -2   2   3    0.10    0.06 
  -2   2   3    0.09    0.05 
  -2   2   3    0.12    0.03 
  -2   2   3    0.06    0.06 
   2  -2  -3    0.02    0.04 
   2  -2  -3    0.00    0.04 
   2  -2  -3    0.12    0.07 
  -1   2   3    0.29    0.06 
  -1   2   3    0.25    0.06 
   1  -2  -3    0.25    0.06 
   1  -2  -3    0.16    0.06 
   0   2   3    0.35    0.07 
   0   2   3    0.41    0.05 
   0  -2  -3    0.56    0.05 
   0  -2  -3    0.45    0.06 
   1   2   3    0.75    0.06 
   1   2   3    0.72    0.06 
  -1  -2  -3    0.71    0.05 
  -1  -2  -3    0.80    0.07 
  -1  -2  -3    0.77    0.07 
   2   2   3    4.03    0.16 
   2   2   3    3.14    0.16 
   2   2   3    4.30    0.17 
   2   2   3    4.18    0.14 
  -2  -2  -3    4.36    0.16 
  -2  -2  -3    3.96    0.18 
  -2  -2  -3    4.27    0.17 
  -2  -2  -3    4.03    0.18 
   3   2   3    0.65    0.09 
   3   2   3    1.01    0.12 
   3   2   3    0.60    0.10 
   3   2   3    0.61    0.07 
   3   2   3    0.63    0.08 
  -3  -2  -3    0.73    0.10 
  -3  -2  -3    0.56    0.09 
  -3  -2  -3    0.51    0.08 
  -3  -2  -3    0.70    0.06 
  -3  -2  -3    0.71    0.10 
  -3  -2  -3    0.70    0.08 
   4   2   3    4.87    0.25 
   4   2   3    4.72    0.28 
   4   2   3    4.85    0.21 
   4   2   3    5.20    0.26 
  -4  -2  -3    4.87    0.26 
  -4  -2  -3    4.92    0.26 
  -4  -2  -3    4.57    0.26 
   5   2   3   -0.03    0.06 
   5   2   3   -0.02    0.06 
   5   2   3   -0.06    0.04 
   5   2   3    0.09    0.08 
   5   2   3    0.03    0.05 
  -5  -2  -3   -0.03    0.06 
  -5  -2  -3   -0.05    0.06 
  -5  -2  -3    0.11    0.07 
   6   2   3    0.63    0.12 
   6   2   3    0.65    0.15 
   6   2   3    0.50    0.13 
   6   2   3    0.63    0.16 
   6   2   3    0.65    0.11 
  -6  -2  -3    0.60    0.14 
  -6  -2  -3    0.81    0.15 
  -6  -2  -3    0.59    0.14 
   7   2   3   -0.15    0.10 
   7   2   3    0.16    0.12 
   7   2   3   -0.03    0.08 
   7   2   3   -0.09    0.06 
  -7  -2  -3    0.09    0.13 
  -7  -2  -3    0.13    0.11 
   8   2   3    0.09    0.08 
   8   2   3    0.11    0.10 
  -8  -2  -3    0.39    0.16 
  -7   1   4    0.46    0.20 
   7  -1  -4    0.23    0.15 
  -6   1   4    0.92    0.18 
   6  -1  -4    1.36    0.23 
  -5   1   4    0.15    0.13 
  -5   1   4    0.17    0.11 
  -5   1   4    0.06    0.12 
   5  -1  -4    0.23    0.12 
   5  -1  -4   -0.01    0.07 
   5  -1  -4    0.16    0.10 
  -4   1   4   12.06    0.50 
  -4   1   4   12.32    0.53 
  -4   1   4   13.39    0.54 
   4  -1  -4   11.65    0.43 
   4  -1  -4   12.25    0.53 
   4  -1  -4   11.22    0.49 
  -3   1   4    0.14    0.08 
  -3   1   4    0.09    0.08 
  -3   1   4    0.06    0.06 
   3  -1  -4    0.04    0.06 
   3  -1  -4    0.00    0.04 
   3  -1  -4    0.15    0.06 
  -2   1   4   10.71    0.41 
  -2   1   4   10.63    0.39 
  -2   1   4   10.33    0.41 
   2  -1  -4   10.28    0.40 
   2  -1  -4   11.03    0.35 
   2  -1  -4   10.93    0.39 
  -1   1   4    5.62    0.25 
  -1   1   4    5.31    0.23 
  -1   1   4    5.58    0.20 
   1  -1  -4    5.60    0.24 
   1  -1  -4    5.36    0.20 
   0   1   4   16.37    0.41 
   0   1   4   16.38    0.43 
   0   1   4   16.22    0.47 
   0  -1  -4   16.36    0.47 
   0  -1  -4   16.52    0.43 
   0  -1  -4   15.99    0.42 
   1   1   4   38.17    0.90 
   1   1   4   38.86    0.90 
   1   1   4   37.99    0.94 
  -1  -1  -4   38.54    0.91 
  -1  -1  -4   37.09    0.90 
  -1  -1  -4   37.86    0.94 
  -1  -1  -4   36.96    0.93 
   2   1   4   44.98    1.10 
   2   1   4   43.64    1.08 
   2   1   4   43.60    1.05 
   2   1   4   43.91    1.08 
  -2  -1  -4   44.27    1.10 
  -2  -1  -4   44.05    1.09 
  -2  -1  -4   42.79    1.07 
  -2  -1  -4   44.72    1.06 
   3   1   4    0.64    0.10 
   3   1   4    0.65    0.08 
   3   1   4    0.67    0.09 
   3   1   4    0.55    0.08 
  -3  -1  -4    0.78    0.11 
  -3  -1  -4    0.64    0.10 
  -3  -1  -4    0.69    0.08 
  -3  -1  -4    0.82    0.10 
   4   1   4    0.69    0.13 
   4   1   4    0.76    0.11 
   4   1   4    0.70    0.09 
   4   1   4    0.54    0.10 
  -4  -1  -4    0.59    0.12 
  -4  -1  -4    0.54    0.10 
  -4  -1  -4    0.43    0.10 
   5   1   4    4.65    0.32 
   5   1   4    4.34    0.24 
   5   1   4    5.14    0.31 
  -5  -1  -4    4.63    0.30 
  -5  -1  -4    4.82    0.30 
  -5  -1  -4    4.94    0.30 
   6   1   4    2.30    0.23 
   6   1   4    1.90    0.25 
   6   1   4    1.70    0.13 
   6   1   4    1.83    0.26 
  -6  -1  -4    2.27    0.24 
  -6  -1  -4    1.70    0.22 
   7   1   4    2.90    0.33 
   7   1   4    3.10    0.37 
   7   1   4    2.99    0.26 
  -7  -1  -4    3.26    0.35 
  -7  -1  -4    3.10    0.32 
  -7   0   5    1.63    0.27 
  -6   0   5    0.46    0.17 
  -6   0   5    0.51    0.17 
   6   0  -5    0.41    0.15 
  -5   0   5    2.59    0.29 
  -5   0   5    2.62    0.30 
   5   0  -5    2.39    0.31 
   5   0  -5    2.28    0.22 
  -4   0   5    4.03    0.29 
  -4   0   5    4.22    0.31 
  -4   0   5    4.28    0.31 
   4   0  -5    4.10    0.24 
   4   0  -5    4.39    0.32 
  -3   0   5    0.16    0.09 
  -3   0   5    0.09    0.07 
  -3   0   5    0.27    0.11 
   3   0  -5    0.16    0.08 
   3   0  -5    0.09    0.05 
   3   0  -5    0.02    0.06 
  -2   0   5    3.77    0.20 
  -2   0   5    4.69    0.25 
  -2   0   5    4.45    0.26 
  -2   0   5    4.16    0.24 
   2   0  -5    4.05    0.24 
   2   0  -5    4.46    0.20 
  -1   0   5   48.38    1.35 
  -1   0   5   59.60    1.44 
  -1   0   5   57.92    1.38 
  -1   0   5   59.79    1.46 
   1   0  -5   59.98    1.37 
   1   0  -5   58.41    1.43 
   0   0   5    0.13    0.04 
   0   0   5    0.09    0.05 
   0   0   5    0.19    0.05 
   0   0  -5    0.13    0.05 
   0   0  -5    0.13    0.04 
   1   0   5    0.45    0.08 
   1   0   5    0.31    0.06 
   1   0   5    0.31    0.06 
  -1   0  -5    0.25    0.06 
  -1   0  -5    0.34    0.06 
  -1   0  -5    0.26    0.05 
  -1   0  -5    0.25    0.06 
   2   0   5    2.81    0.17 
   2   0   5    2.98    0.17 
   2   0   5    2.89    0.15 
   2   0   5    3.12    0.19 
  -2   0  -5    2.86    0.15 
  -2   0  -5    2.90    0.11 
  -2   0  -5    3.27    0.18 
  -2   0  -5    2.81    0.17 
  -2   0  -5    2.92    0.17 
   3   0   5    0.00    0.05 
   3   0   5    0.00    0.05 
   3   0   5    0.03    0.05 
   3   0   5    0.07    0.04 
  -3   0  -5    0.03    0.04 
  -3   0  -5    0.01    0.04 
  -3   0  -5    0.05    0.04 
  -3   0  -5    0.12    0.06 
   4   0   5    5.16    0.30 
   4   0   5    5.51    0.29 
   4   0   5    5.33    0.30 
   4   0   5    5.12    0.31 
   4   0   5    5.07    0.25 
  -4   0  -5    5.67    0.30 
  -4   0  -5    5.50    0.26 
   5   0   5    0.27    0.12 
   5   0   5    0.42    0.11 
   5   0   5    0.35    0.11 
  -5   0  -5    0.53    0.13 
   6   0   5    0.10    0.08 
   6   0   5    0.09    0.12 
   6   0   5    0.25    0.12 
  -6   0  -5    0.02    0.09 
   7   0   5    0.81    0.20 
  -7   0  -5    0.64    0.18 
  -8   0  -5    8.14    0.53 
  -6  -1   6    1.44    0.30 
  -6  -1   6    1.06    0.22 
   6   1  -6    1.00    0.30 
   6   1  -6    1.42    0.19 
  -5  -1   6   15.72    0.69 
  -5  -1   6   15.94    0.67 
   5   1  -6   15.59    0.56 
   5   1  -6   15.22    0.72 
  -4  -1   6    1.20    0.20 
  -4  -1   6    1.05    0.19 
   4   1  -6    1.00    0.22 
   4   1  -6    1.11    0.15 
  -3  -1   6    4.61    0.26 
  -3  -1   6    5.42    0.32 
  -3  -1   6    4.99    0.30 
  -3  -1   6    4.20    0.32 
   3   1  -6    4.95    0.25 
  -2  -1   6    4.32    0.23 
  -2  -1   6    4.87    0.28 
  -2  -1   6    4.48    0.29 
   2   1  -6    5.02    0.23 
   2   1  -6    5.47    0.33 
  -1  -1   6    2.24    0.17 
  -1  -1   6    2.16    0.15 
  -1  -1   6    2.75    0.21 
  -1  -1   6    1.75    0.17 
   1   1  -6    2.23    0.17 
   1   1  -6    2.36    0.15 
   0  -1   6   11.95    0.42 
   0  -1   6   12.38    0.40 
   0  -1   6   12.11    0.45 
   0   1  -6   12.66    0.44 
   0   1  -6   12.87    0.44 
   0   1  -6   11.98    0.39 
   1  -1   6    8.46    0.33 
   1  -1   6    8.59    0.31 
   1  -1   6    8.83    0.36 
  -1   1  -6    8.66    0.34 
  -1   1  -6    8.38    0.31 
  -1   1  -6    8.70    0.35 
  -1   1  -6    9.02    0.35 
  -1   1  -6    8.69    0.29 
   2  -1   6    1.72    0.17 
   2  -1   6    1.85    0.15 
   2  -1   6    1.98    0.14 
  -2   1  -6    1.74    0.18 
  -2   1  -6    1.63    0.17 
  -2   1  -6    1.71    0.13 
  -2   1  -6    1.66    0.17 
  -2   1  -6    1.85    0.11 
   3  -1   6    0.89    0.14 
   3  -1   6    0.78    0.12 
   3  -1   6    0.63    0.10 
  -3   1  -6    0.73    0.13 
  -3   1  -6    0.89    0.13 
  -3   1  -6    0.99    0.13 
   4  -1   6    2.15    0.21 
   4  -1   6    1.82    0.20 
   4  -1   6    1.81    0.20 
   4  -1   6    1.99    0.24 
  -4   1  -6    2.15    0.19 
  -4   1  -6    2.24    0.23 
   5  -1   6    1.64    0.25 
   5  -1   6    1.25    0.20 
   5  -1   6    1.37    0.20 
   5  -1   6    1.41    0.17 
  -5   1  -6    1.35    0.20 
   6  -1   6   -0.02    0.09 
   6  -1   6    0.12    0.12 
   6  -1   6    0.08    0.08 
  -6   1  -6    0.06    0.12 
   7  -1   6    0.35    0.17 
  -7   1  -6    0.18    0.13 
   8  -1   6    0.15    0.19 
  -8   1  -6    0.00    0.13 
  -6  -2   7    0.81    0.24 
  -6  -2   7    1.00    0.24 
   6   2  -7    1.28    0.23 
   6   2  -7    0.66    0.15 
  -5  -2   7    0.00    0.12 
  -5  -2   7    0.23    0.14 
   5   2  -7    0.06    0.14 
   5   2  -7    0.03    0.09 
   5   2  -7    0.29    0.10 
  -4  -2   7    2.51    0.29 
  -4  -2   7    1.67    0.23 
   4   2  -7    2.60    0.23 
   4   2  -7    1.70    0.22 
  -3  -2   7    3.33    0.27 
  -3  -2   7    3.39    0.25 
  -3  -2   7    2.94    0.31 
   3   2  -7    3.53    0.25 
   3   2  -7    3.97    0.23 
  -2  -2   7    0.15    0.10 
  -2  -2   7    0.18    0.09 
  -2  -2   7    0.26    0.10 
   2   2  -7    0.18    0.07 
   2   2  -7    0.24    0.09 
  -1  -2   7    8.34    0.34 
  -1  -2   7    8.51    0.40 
  -1  -2   7    7.92    0.38 
   1   2  -7    8.38    0.32 
   1   2  -7    8.23    0.35 
   0  -2   7    0.03    0.05 
   0  -2   7    0.01    0.05 
   0  -2   7   -0.03    0.05 
   0   2  -7    0.02    0.04 
   0   2  -7   -0.02    0.05 
   0   2  -7    0.02    0.04 
   1  -2   7    0.11    0.07 
   1  -2   7    0.24    0.08 
   1  -2   7    0.20    0.06 
  -1   2  -7    0.17    0.05 
  -1   2  -7    0.19    0.07 
  -1   2  -7    0.20    0.07 
   2  -2   7    1.24    0.14 
   2  -2   7    1.19    0.17 
   2  -2   7    1.27    0.17 
  -2   2  -7    1.12    0.15 
  -2   2  -7    1.30    0.14 
  -2   2  -7    1.16    0.14 
   3  -2   7    2.85    0.24 
   3  -2   7    2.48    0.20 
   3  -2   7    3.01    0.23 
  -3   2  -7    3.04    0.23 
  -3   2  -7    3.01    0.19 
   4  -2   7    0.32    0.14 
   4  -2   7    0.46    0.12 
   4  -2   7    0.10    0.09 
   4  -2   7    0.19    0.11 
  -4   2  -7    0.11    0.06 
  -4   2  -7    0.11    0.09 
   5  -2   7    0.12    0.11 
   5  -2   7    0.41    0.13 
   5  -2   7    0.21    0.10 
  -5   2  -7    0.50    0.16 
   6  -2   7    1.25    0.23 
   6  -2   7    1.22    0.21 
  -6   2  -7    1.92    0.26 
   7  -2   7   -0.35    0.12 
  -7   2  -7    0.20    0.15 
  -5  -3   8    0.31    0.17 
  -5  -3   8    0.30    0.18 
   5   3  -8    0.22    0.13 
   5   3  -8    0.24    0.10 
  -4  -3   8    0.01    0.11 
  -4  -3   8    0.00    0.10 
   4   3  -8    0.00    0.07 
   4   3  -8    0.17    0.11 
  -3  -3   8    4.10    0.34 
   3   3  -8    4.22    0.31 
   3   3  -8    4.49    0.25 
  -2  -3   8    0.47    0.17 
  -2  -3   8    0.54    0.14 
  -2  -3   8    0.90    0.19 
   2   3  -8    0.70    0.11 
   2   3  -8    0.91    0.18 
  -1  -3   8    3.01    0.29 
  -1  -3   8    2.57    0.28 
  -1  -3   8    2.84    0.23 
   1   3  -8    2.90    0.23 
   1   3  -8    2.74    0.18 
   1   3  -8    2.93    0.27 
   0  -3   8    0.00    0.06 
   0  -3   8    0.05    0.07 
   0  -3   8    0.05    0.09 
   0   3  -8    0.09    0.05 
   0   3  -8    0.12    0.08 
   0   3  -8   -0.06    0.05 
   1  -3   8    0.73    0.12 
   1  -3   8    0.57    0.15 
   1  -3   8    0.70    0.16 
  -1   3  -8    0.76    0.12 
  -1   3  -8    0.96    0.15 
  -1   3  -8    0.80    0.14 
   2  -3   8    6.02    0.35 
   2  -3   8    5.67    0.34 
   2  -3   8    5.05    0.29 
  -2   3  -8    5.54    0.26 
  -2   3  -8    5.44    0.31 
   3  -3   8    4.48    0.31 
   3  -3   8    4.35    0.32 
   3  -3   8    4.02    0.27 
  -3   3  -8    3.67    0.23 
  -3   3  -8    4.30    0.28 
   4  -3   8    0.11    0.09 
   4  -3   8    0.10    0.11 
  -4   3  -8    0.14    0.11 
   5  -3   8    0.57    0.15 
   5  -3   8    0.58    0.17 
  -5   3  -8    0.37    0.14 
   6  -3   8    0.63    0.19 
   6  -3   8    0.92    0.19 
  -6   3  -8    0.74    0.19 
   7  -3   8    0.75    0.21 
   7  -3   8    0.62    0.21 
  -7   3  -8    0.70    0.21 
  -4  -4   9    0.20    0.18 
  -4  -4   9    0.44    0.18 
  -4  -4   9    0.50    0.18 
   4   4  -9    0.70    0.12 
   4   4  -9    0.76    0.20 
  -3  -4   9    0.26    0.14 
  -3  -4   9    0.10    0.16 
   3   4  -9    0.33    0.08 
   3   4  -9    0.17    0.12 
  -2  -4   9    0.08    0.14 
  -2  -4   9    0.02    0.09 
   2   4  -9    0.02    0.05 
   2   4  -9    0.03    0.09 
   2   4  -9   -0.03    0.07 
  -1  -4   9    0.52    0.17 
  -1  -4   9    0.65    0.17 
   1   4  -9    0.41    0.13 
   1   4  -9    0.54    0.14 
   1   4  -9    0.44    0.09 
   0  -4   9    1.64    0.25 
   0  -4   9    1.55    0.23 
   0   4  -9    2.10    0.26 
   0   4  -9    1.83    0.18 
   0   4  -9    1.36    0.19 
   1  -4   9    4.03    0.34 
   1  -4   9    4.57    0.34 
  -1   4  -9    3.92    0.28 
  -1   4  -9    3.81    0.22 
  -1   4  -9    3.74    0.27 
   2  -4   9    3.39    0.35 
   2  -4   9    4.28    0.33 
  -2   4  -9    3.46    0.27 
  -2   4  -9    4.00    0.22 
   3  -4   9    0.13    0.11 
   3  -4   9   -0.03    0.10 
  -3   4  -9    0.11    0.10 
   4  -4   9    0.37    0.14 
   4  -4   9    0.23    0.14 
  -4   4  -9    0.26    0.12 
   5  -4   9    0.03    0.11 
   5  -4   9    0.01    0.15 
  -5   4  -9    0.26    0.14 
   6  -4   9    0.23    0.15 
   6  -4   9   -0.02    0.14 
  -2  -5  10    0.18    0.13 
  -2  -5  10    0.16    0.16 
   2   5 -10    0.04    0.06 
   2   5 -10   -0.03    0.10 
  -1  -5  10   -0.04    0.12 
  -1  -5  10    0.09    0.14 
   1   5 -10    0.06    0.05 
   1   5 -10   -0.01    0.09 
   0  -5  10    0.24    0.14 
   0  -5  10    0.12    0.15 
   0   5 -10    0.15    0.07 
   0   5 -10    0.17    0.12 
   1  -5  10    0.89    0.21 
   1  -5  10    1.06    0.22 
  -1   5 -10    1.14    0.13 
   2  -5  10    0.49    0.19 
   2  -5  10    0.41    0.15 
   3  -5  10    0.11    0.14 
   3  -5  10    0.26    0.16 
   4  -5  10    2.11    0.32 
   4  -5  10    2.13    0.28 
   3  -9   3   -0.07    0.09 
   3  -9   3    0.08    0.12 
   2  -9   3    0.62    0.20 
   2  -9   3    0.31    0.11 
   1  -9   3    0.12    0.11 
   1  -9   3    0.14    0.10 
   0  -9   3    0.00    0.12 
   0  -9   3    0.01    0.07 
  -1  -9   3    0.18    0.08 
  -1  -9   3    0.18    0.14 
  -2  -9   3   -0.14    0.11 
  -2  -9   3    0.10    0.08 
  -3  -9   3    1.11    0.31 
  -3  -9   3    0.99    0.16 
   5  -8   2   -0.06    0.12 
   5  -8   2    0.29    0.12 
   4  -8   2    0.77    0.17 
   4  -8   2    0.89    0.18 
   3  -8   2    4.30    0.30 
   3  -8   2    4.17    0.32 
   2  -8   2    0.11    0.09 
   2  -8   2    0.07    0.07 
   1  -8   2   -0.01    0.05 
   1  -8   2    0.08    0.09 
   0  -8   2    0.08    0.10 
   0  -8   2    0.03    0.05 
  -1  -8   2    2.85    0.19 
  -1  -8   2    2.59    0.30 
  -2  -8   2    0.20    0.08 
  -3  -8   2    0.04    0.06 
  -4  -8   2    0.18    0.08 
   5   8  -2    0.47    0.17 
  -5  -8   2    0.39    0.14 
   6  -7   1   -0.17    0.14 
   6  -7   1    0.05    0.11 
   5  -7   1    1.29    0.20 
   5  -7   1    0.89    0.19 
   4  -7   1    1.58    0.22 
   4  -7   1    1.57    0.21 
   3  -7   1   -0.02    0.07 
   3  -7   1    0.03    0.08 
   2  -7   1    4.35    0.25 
   2  -7   1    4.04    0.23 
   2  -7   1    4.56    0.28 
   1  -7   1    8.06    0.31 
   1  -7   1    7.68    0.29 
   1  -7   1    7.31    0.37 
   0  -7   1    1.18    0.18 
   0  -7   1    1.15    0.21 
  -1  -7   1   23.89    0.65 
  -1  -7   1   24.22    0.83 
  -1  -7   1   23.10    0.73 
  -2  -7   1    1.33    0.14 
   3   7  -1    9.78    0.41 
  -3  -7   1    9.34    0.38 
   4   7  -1    3.63    0.27 
  -4  -7   1    3.49    0.25 
   5   7  -1    0.67    0.17 
  -5  -7   1    0.39    0.14 
   6   7  -1   -0.07    0.10 
  -6  -7   1    0.20    0.12 
   6  -6   0   -0.02    0.12 
   5  -6   0    0.05    0.08 
   5  -6   0    0.22    0.13 
  -4   6   0    0.08    0.09 
   4  -6   0   -0.01    0.06 
   4  -6   0    0.03    0.08 
  -3   6   0    0.01    0.07 
   3  -6   0    0.00    0.08 
   3  -6   0   -0.02    0.06 
   3  -6   0    0.07    0.06 
   3  -6   0    0.00    0.07 
   2  -6   0    0.06    0.05 
   2  -6   0    0.00    0.06 
   2  -6   0    0.01    0.05 
   2  -6   0   -0.09    0.05 
   1  -6   0    1.20    0.18 
   1  -6   0    1.08    0.11 
   1  -6   0    1.03    0.10 
   1  -6   0    1.06    0.15 
   0  -6   0    0.21    0.09 
   0  -6   0    0.10    0.07 
  -1  -6   0    0.20    0.07 
   2   6   0   17.97    0.53 
  -2  -6   0   18.46    0.51 
   3   6   0   14.49    0.50 
  -3  -6   0   14.76    0.48 
   4   6   0   10.40    0.45 
  -4  -6   0   10.68    0.43 
   5   6   0    8.44    0.43 
  -5  -6   0    6.94    0.39 
   6   6   0    0.11    0.12 
  -6  -6   0    0.01    0.11 
   7   6   0   -0.20    0.11 
  -7  -6   0   -0.15    0.13 
   7  -5  -1    0.12    0.16 
   6  -5  -1    0.60    0.18 
  -5   5   1   -0.03    0.10 
   5  -5  -1    0.01    0.08 
  -4   5   1    0.76    0.16 
   4  -5  -1    0.41    0.12 
   4  -5  -1    0.69    0.12 
   4  -5  -1    0.67    0.13 
   4  -5  -1    0.68    0.14 
   4  -5  -1    0.72    0.22 
  -3   5   1    3.91    0.25 
  -3   5   1    3.69    0.22 
   3  -5  -1    3.99    0.23 
   3  -5  -1    4.49    0.25 
   3  -5  -1    4.06    0.21 
   3  -5  -1    4.21    0.24 
  -2   5   1    2.89    0.18 
  -2   5   1    3.39    0.20 
   2  -5  -1    2.80    0.17 
   2  -5  -1    2.78    0.17 
   2  -5  -1    3.06    0.17 
   2  -5  -1    3.07    0.17 
  -1   5   1    0.91    0.10 
   1  -5  -1    0.55    0.12 
   1  -5  -1    1.09    0.13 
   1  -5  -1    0.86    0.08 
   1  -5  -1    0.90    0.09 
   0  -5  -1   23.48    0.69 
   0  -5  -1   23.06    0.68 
  -1  -5  -1   41.89    1.05 
   2   5   1    0.22    0.05 
   3   5   1    0.40    0.09 
  -3  -5  -1    0.35    0.07 
   4   5   1    3.77    0.25 
  -4  -5  -1    3.53    0.23 
   5   5   1    0.92    0.13 
   5   5   1    0.70    0.15 
  -5  -5  -1    0.92    0.16 
   6   5   1    0.93    0.20 
  -6  -5  -1    0.47    0.15 
   7   5   1   -0.06    0.11 
  -7  -5  -1    0.03    0.11 
   7  -4  -2   -0.09    0.12 
   6  -4  -2    0.69    0.17 
  -5   4   2    1.10    0.20 
  -5   4   2    0.83    0.16 
   5  -4  -2    0.42    0.13 
   5  -4  -2    0.76    0.16 
  -4   4   2    0.18    0.07 
  -4   4   2    0.18    0.08 
  -4   4   2    0.08    0.08 
   4  -4  -2    0.01    0.08 
   4  -4  -2    0.03    0.07 
   4  -4  -2   -0.03    0.05 
   4  -4  -2    0.11    0.09 
  -3   4   2   14.16    0.43 
  -3   4   2   14.19    0.45 
  -3   4   2   14.34    0.53 
   3  -4  -2   13.69    0.49 
   3  -4  -2   14.12    0.49 
   3  -4  -2   13.62    0.48 
   3  -4  -2   13.86    0.42 
  -2   4   2   36.73    0.90 
  -2   4   2   36.44    0.97 
   2  -4  -2   36.14    0.88 
   2  -4  -2   36.26    1.05 
   2  -4  -2   34.87    0.92 
   2  -4  -2   35.91    0.94 
  -1   4   2    0.28    0.07 
   1  -4  -2    0.31    0.09 
   1  -4  -2    0.20    0.05 
   1  -4  -2    0.34    0.06 
   0  -4  -2   12.32    0.41 
  -1  -4  -2   84.98    1.95 
   2   4   2    0.22    0.05 
  -2  -4  -2    0.28    0.07 
  -2  -4  -2    0.30    0.05 
  -2  -4  -2    0.20    0.04 
  -2  -4  -2    0.29    0.05 
   3   4   2    7.95    0.32 
  -3  -4  -2    7.69    0.30 
  -3  -4  -2    7.85    0.26 
  -3  -4  -2    8.08    0.31 
  -3  -4  -2    8.25    0.30 
  -3  -4  -2    8.09    0.30 
   4   4   2    2.54    0.16 
   4   4   2    2.79    0.21 
  -4  -4  -2    2.76    0.19 
  -4  -4  -2    2.46    0.19 
  -4  -4  -2    2.61    0.19 
   5   4   2    0.02    0.08 
   5   4   2   -0.07    0.06 
  -5  -4  -2   -0.01    0.07 
  -5  -4  -2    0.01    0.08 
  -5  -4  -2    0.02    0.07 
   6   4   2    0.19    0.10 
   6   4   2    0.00    0.05 
   6   4   2   -0.04    0.04 
   6   4   2    0.03    0.08 
  -6  -4  -2    0.00    0.08 
   7   4   2    0.00    0.06 
   7   4   2    0.00    0.10 
   7   4   2   -0.08    0.05 
  -7  -4  -2    0.08    0.11 
   8   4   2   -0.07    0.06 
   8   4   2    0.02    0.14 
   8   4   2    0.02    0.07 
  -8  -4  -2    0.05    0.13 
   7  -3  -3    0.16    0.15 
  -6   3   3   -0.12    0.09 
   6  -3  -3    0.04    0.11 
  -5   3   3    0.28    0.12 
  -5   3   3    0.30    0.11 
   5  -3  -3    0.44    0.15 
   5  -3  -3    0.19    0.10 
  -4   3   3    2.19    0.15 
  -4   3   3    1.84    0.24 
  -4   3   3    1.92    0.20 
   4  -3  -3    2.13    0.24 
   4  -3  -3    1.90    0.22 
  -3   3   3    0.80    0.14 
  -3   3   3    0.58    0.10 
  -3   3   3    0.88    0.10 
  -3   3   3    0.78    0.15 
   3  -3  -3    1.00    0.14 
   3  -3  -3    0.60    0.11 
  -2   3   3    0.11    0.06 
  -2   3   3    0.02    0.02 
  -2   3   3    0.01    0.06 
   2  -3  -3    0.04    0.06 
   2  -3  -3    0.03    0.04 
   2  -3  -3   -0.02    0.03 
  -1   3   3   43.15    1.07 
  -1   3   3   42.49    1.13 
  -1   3   3   42.61    1.02 
   1  -3  -3   43.42    1.13 
   1  -3  -3   42.97    1.05 
   0   3   3   13.94    0.45 
   0  -3  -3   14.43    0.38 
   0  -3  -3   13.83    0.44 
   1   3   3   17.20    0.48 
  -1  -3  -3   17.62    0.44 
   2   3   3    6.87    0.21 
   2   3   3    6.49    0.20 
  -2  -3  -3    6.34    0.23 
  -2  -3  -3    6.90    0.24 
  -2  -3  -3    6.84    0.20 
  -2  -3  -3    6.52    0.23 
   3   3   3   17.43    0.48 
   3   3   3   16.87    0.54 
   3   3   3   16.72    0.47 
   3   3   3   16.85    0.48 
  -3  -3  -3   17.20    0.47 
  -3  -3  -3   16.58    0.51 
  -3  -3  -3   16.52    0.52 
  -3  -3  -3   17.20    0.48 
  -3  -3  -3   16.70    0.50 
   4   3   3    0.16    0.09 
   4   3   3    0.00    0.03 
   4   3   3    0.01    0.04 
   4   3   3    0.05    0.03 
  -4  -3  -3    0.01    0.04 
  -4  -3  -3   -0.08    0.05 
  -4  -3  -3    0.01    0.05 
  -4  -3  -3   -0.04    0.04 
   5   3   3    3.36    0.27 
   5   3   3    3.52    0.18 
   5   3   3    3.41    0.18 
   5   3   3    3.31    0.23 
  -5  -3  -3    3.85    0.25 
  -5  -3  -3    3.33    0.24 
  -5  -3  -3    3.42    0.26 
   6   3   3    0.01    0.06 
   6   3   3    0.06    0.05 
   6   3   3    0.04    0.10 
   6   3   3    0.02    0.08 
  -6  -3  -3    0.03    0.09 
  -6  -3  -3   -0.12    0.06 
  -6  -3  -3    0.00    0.08 
   7   3   3    0.01    0.11 
   7   3   3   -0.07    0.06 
   7   3   3    0.08    0.07 
  -7  -3  -3    0.01    0.10 
  -7  -3  -3   -0.05    0.09 
   8   3   3    0.06    0.07 
   8   3   3    0.02    0.14 
   8   3   3    0.05    0.08 
  -8  -3  -3    0.13    0.13 
   7  -2  -4   -0.16    0.11 
  -6   2   4    0.16    0.12 
   6  -2  -4    0.10    0.12 
  -5   2   4    2.22    0.24 
  -5   2   4    2.53    0.33 
   5  -2  -4    2.73    0.30 
   5  -2  -4    3.16    0.23 
   5  -2  -4    3.27    0.32 
  -4   2   4    0.07    0.09 
  -4   2   4    0.08    0.07 
  -4   2   4    0.10    0.06 
  -4   2   4    0.03    0.08 
   4  -2  -4   -0.03    0.06 
   4  -2  -4   -0.05    0.06 
   4  -2  -4    0.01    0.05 
  -3   2   4   39.94    0.98 
  -3   2   4   40.27    1.10 
  -3   2   4   41.19    1.17 
   3  -2  -4   40.59    1.04 
   3  -2  -4   40.66    1.12 
   3  -2  -4   40.96    1.16 
   3  -2  -4   38.88    1.12 
  -2   2   4   18.67    0.64 
  -2   2   4   19.39    0.58 
  -2   2   4   19.14    0.61 
   2  -2  -4   20.50    0.60 
   2  -2  -4   18.87    0.60 
   2  -2  -4   19.19    0.54 
   2  -2  -4   19.01    0.62 
  -1   2   4    8.63    0.35 
  -1   2   4    8.77    0.31 
  -1   2   4    9.01    0.33 
   1  -2  -4    8.58    0.31 
   1  -2  -4    8.75    0.27 
   0   2   4    3.59    0.19 
   0  -2  -4    3.74    0.14 
   0  -2  -4    3.80    0.17 
   1   2   4   31.02    0.71 
  -1  -2  -4   30.37    0.76 
  -1  -2  -4   30.61    0.73 
  -1  -2  -4   29.18    0.73 
  -1  -2  -4   30.55    0.77 
   2   2   4   12.15    0.37 
   2   2   4   11.86    0.36 
   2   2   4   12.36    0.33 
  -2  -2  -4   12.21    0.37 
  -2  -2  -4   12.15    0.38 
  -2  -2  -4   12.18    0.35 
  -2  -2  -4   11.73    0.37 
   3   2   4    3.09    0.18 
   3   2   4    2.87    0.18 
   3   2   4    2.88    0.16 
   3   2   4    3.03    0.14 
  -3  -2  -4    3.07    0.18 
  -3  -2  -4    2.94    0.17 
  -3  -2  -4    2.98    0.12 
  -3  -2  -4    2.93    0.15 
  -3  -2  -4    2.93    0.18 
   4   2   4    0.18    0.07 
   4   2   4    0.27    0.09 
   4   2   4    0.37    0.07 
  -4  -2  -4    0.32    0.08 
  -4  -2  -4    0.24    0.07 
  -4  -2  -4    0.27    0.07 
  -4  -2  -4    0.26    0.08 
   5   2   4    6.47    0.33 
   5   2   4    6.29    0.27 
   5   2   4    6.25    0.37 
  -5  -2  -4    6.11    0.33 
  -5  -2  -4    5.99    0.34 
  -5  -2  -4    5.84    0.33 
   6   2   4    0.87    0.16 
   6   2   4    0.56    0.14 
   6   2   4    0.43    0.16 
   6   2   4    0.62    0.12 
  -6  -2  -4    0.69    0.17 
  -6  -2  -4    0.54    0.14 
  -6  -2  -4    0.54    0.14 
   7   2   4   -0.01    0.08 
   7   2   4   -0.06    0.10 
   7   2   4    0.07    0.12 
  -7  -2  -4    0.01    0.11 
  -7  -2  -4    0.04    0.10 
   8   2   4   -0.02    0.09 
  -8  -2  -4   -0.04    0.12 
   7  -1  -5    0.02    0.13 
  -6   1   5    5.46    0.42 
  -6   1   5    4.31    0.36 
   6  -1  -5    5.53    0.40 
  -5   1   5    3.74    0.37 
  -5   1   5    3.29    0.33 
   5  -1  -5    2.76    0.24 
   5  -1  -5    3.19    0.35 
  -4   1   5    4.00    0.30 
  -4   1   5    4.44    0.30 
  -4   1   5    3.96    0.31 
   4  -1  -5    4.27    0.24 
   4  -1  -5    3.44    0.28 
  -3   1   5    3.03    0.24 
  -3   1   5    3.14    0.25 
  -3   1   5    2.94    0.22 
   3  -1  -5    2.81    0.18 
   3  -1  -5    2.79    0.22 
   3  -1  -5    3.03    0.24 
  -2   1   5   16.83    0.59 
  -2   1   5   17.15    0.59 
  -2   1   5   18.16    0.57 
   2  -1  -5   17.82    0.52 
   2  -1  -5   16.94    0.57 
  -1   1   5    5.66    0.28 
  -1   1   5    6.79    0.22 
  -1   1   5    7.35    0.29 
  -1   1   5    6.24    0.24 
  -1   1   5    6.63    0.30 
   1  -1  -5    6.32    0.24 
   1  -1  -5    6.61    0.28 
   0   1   5    7.45    0.25 
   0   1   5    7.41    0.23 
   0   1   5    7.73    0.29 
   0  -1  -5    7.23    0.24 
   0  -1  -5    7.28    0.29 
   0  -1  -5    7.20    0.25 
   1   1   5   24.13    0.66 
   1   1   5   23.82    0.61 
   1   1   5   22.63    0.60 
  -1  -1  -5   23.58    0.65 
  -1  -1  -5   23.63    0.62 
  -1  -1  -5   23.90    0.62 
  -1  -1  -5   23.86    0.66 
   2   1   5    1.77    0.13 
   2   1   5    1.76    0.16 
   2   1   5    1.81    0.12 
   2   1   5    1.41    0.10 
  -2  -1  -5    1.63    0.13 
  -2  -1  -5    1.68    0.11 
  -2  -1  -5    1.62    0.13 
  -2  -1  -5    1.35    0.11 
   3   1   5    5.02    0.25 
   3   1   5    4.79    0.25 
   3   1   5    4.72    0.23 
   3   1   5    4.77    0.21 
  -3  -1  -5    5.00    0.25 
  -3  -1  -5    4.67    0.24 
  -3  -1  -5    4.94    0.23 
  -3  -1  -5    4.72    0.21 
   4   1   5    1.74    0.17 
   4   1   5    1.15    0.17 
   4   1   5    1.35    0.16 
   4   1   5    1.19    0.16 
  -4  -1  -5    1.06    0.14 
  -4  -1  -5    1.43    0.14 
  -4  -1  -5    1.48    0.19 
   5   1   5    0.16    0.07 
   5   1   5    0.14    0.11 
   5   1   5    0.16    0.09 
  -5  -1  -5    0.10    0.07 
  -5  -1  -5    0.14    0.09 
   6   1   5    0.97    0.17 
   6   1   5    1.03    0.22 
   6   1   5    0.58    0.11 
  -6  -1  -5    0.93    0.17 
   7   1   5    0.01    0.11 
   7   1   5    0.00    0.08 
   7   1   5   -0.01    0.12 
  -7  -1  -5   -0.01    0.11 
  -8  -1  -5    0.02    0.15 
  -6   0   6    2.00    0.30 
  -6   0   6    1.36    0.23 
   6   0  -6    1.85    0.29 
  -5   0   6   16.05    0.70 
  -5   0   6   16.61    0.70 
   5   0  -6   16.45    0.59 
   5   0  -6   17.47    0.77 
  -4   0   6   -0.13    0.07 
  -4   0   6    0.08    0.11 
  -4   0   6    0.00    0.09 
   4   0  -6    0.03    0.06 
   4   0  -6    0.00    0.09 
  -3   0   6    0.47    0.11 
  -3   0   6    0.52    0.12 
  -3   0   6    0.67    0.15 
   3   0  -6    0.51    0.10 
   3   0  -6    0.48    0.14 
  -2   0   6    1.52    0.19 
  -2   0   6    1.05    0.14 
  -2   0   6    1.18    0.16 
  -2   0   6    1.43    0.14 
   2   0  -6    1.45    0.17 
   2   0  -6    1.36    0.13 
  -1   0   6    0.50    0.09 
  -1   0   6    0.44    0.11 
  -1   0   6    0.62    0.09 
  -1   0   6    0.46    0.09 
   1   0  -6    0.53    0.08 
   1   0  -6    0.31    0.08 
   0   0   6    5.40    0.22 
   0   0   6    4.99    0.22 
   0   0   6    5.25    0.26 
   0   0  -6    4.70    0.21 
   0   0  -6    5.48    0.26 
   1   0   6    9.47    0.34 
   1   0   6   10.16    0.38 
   1   0   6    9.48    0.33 
  -1   0  -6   10.30    0.38 
  -1   0  -6    9.97    0.35 
  -1   0  -6   10.14    0.37 
  -1   0  -6    9.95    0.33 
   2   0   6    3.19    0.21 
   2   0   6    2.90    0.17 
   2   0   6    3.25    0.19 
  -2   0  -6    3.37    0.20 
  -2   0  -6    3.19    0.19 
  -2   0  -6    3.15    0.13 
  -2   0  -6    3.05    0.17 
  -2   0  -6    3.10    0.18 
   3   0   6    0.30    0.09 
   3   0   6    0.37    0.08 
   3   0   6    0.45    0.11 
  -3   0  -6    0.36    0.09 
  -3   0  -6    0.44    0.08 
  -3   0  -6    0.33    0.08 
   4   0   6   -0.06    0.06 
   4   0   6    0.00    0.07 
   4   0   6    0.01    0.08 
   4   0   6   -0.03    0.05 
   4   0   6    0.16    0.07 
  -4   0  -6   -0.01    0.05 
  -4   0  -6    0.07    0.07 
  -4   0  -6   -0.05    0.04 
   5   0   6    0.29    0.11 
   5   0   6    0.20    0.10 
   5   0   6    0.43    0.11 
   5   0   6    0.04    0.08 
  -5   0  -6    0.17    0.11 
   6   0   6    1.07    0.20 
   6   0   6    0.90    0.16 
   6   0   6    0.86    0.19 
  -6   0  -6    1.03    0.20 
   7   0   6    0.11    0.15 
  -7   0  -6    0.22    0.14 
  -8   0  -6    1.62    0.29 
  -6  -1   7    1.54    0.27 
  -6  -1   7    1.67    0.28 
  -5  -1   7    9.87    0.55 
  -5  -1   7    9.78    0.54 
   5   1  -7   10.20    0.44 
  -4  -1   7    4.42    0.35 
  -4  -1   7    4.34    0.35 
   4   1  -7    3.98    0.26 
  -3  -1   7   24.22    0.84 
  -3  -1   7   24.29    0.83 
  -3  -1   7   24.16    0.75 
   3   1  -7   24.54    0.73 
  -2  -1   7    0.22    0.11 
  -2  -1   7    0.23    0.08 
  -2  -1   7    0.19    0.10 
   2   1  -7    0.15    0.07 
  -1  -1   7    1.17    0.15 
  -1  -1   7    1.46    0.19 
  -1  -1   7    1.36    0.14 
  -1  -1   7    1.24    0.17 
   1   1  -7    1.29    0.13 
   1   1  -7    1.47    0.20 
   0  -1   7    2.64    0.17 
   0  -1   7    2.96    0.22 
   0  -1   7    2.66    0.18 
   0   1  -7    2.61    0.16 
   0   1  -7    2.43    0.19 
   0   1  -7    2.90    0.20 
   1  -1   7    3.24    0.19 
   1  -1   7    3.21    0.20 
   1  -1   7    3.45    0.23 
  -1   1  -7    3.62    0.22 
  -1   1  -7    3.65    0.23 
  -1   1  -7    3.31    0.19 
  -1   1  -7    3.29    0.21 
  -1   1  -7    3.33    0.17 
   2  -1   7    0.25    0.08 
   2  -1   7    0.13    0.06 
   2  -1   7    0.19    0.09 
  -2   1  -7    0.23    0.05 
  -2   1  -7    0.16    0.06 
  -2   1  -7    0.05    0.05 
  -2   1  -7    0.28    0.09 
   3  -1   7    6.78    0.35 
   3  -1   7    6.38    0.32 
  -3   1  -7    6.60    0.29 
  -3   1  -7    6.59    0.33 
   4  -1   7    0.18    0.09 
   4  -1   7    0.34    0.11 
   4  -1   7    0.12    0.07 
  -4   1  -7    0.39    0.12 
  -4   1  -7    0.29    0.09 
   5  -1   7    0.05    0.12 
   5  -1   7    0.03    0.10 
   5  -1   7    0.11    0.10 
   5  -1   7   -0.05    0.07 
  -5   1  -7    0.02    0.09 
   6  -1   7    0.52    0.16 
   6  -1   7    0.27    0.13 
  -6   1  -7    0.72    0.17 
   7  -1   7    0.20    0.16 
  -7   1  -7    0.22    0.15 
   8  -1   7   -0.24    0.22 
  -8   1  -7   -0.09    0.14 
  -5  -2   8    0.30    0.17 
  -5  -2   8    0.00    0.14 
   5   2  -8   -0.23    0.08 
   5   2  -8    0.00    0.07 
  -4  -2   8    2.24    0.29 
  -4  -2   8    2.01    0.27 
   4   2  -8    1.93    0.26 
   4   2  -8    2.07    0.21 
  -3  -2   8    0.68    0.16 
  -3  -2   8    0.96    0.19 
   3   2  -8    0.51    0.13 
   3   2  -8    0.64    0.12 
  -2  -2   8   -0.06    0.08 
  -2  -2   8    0.01    0.08 
  -2  -2   8    0.13    0.10 
   2   2  -8    0.03    0.06 
   2   2  -8    0.23    0.09 
  -1  -2   8    1.71    0.21 
  -1  -2   8    1.43    0.20 
  -1  -2   8    1.94    0.18 
   1   2  -8    1.65    0.18 
   1   2  -8    2.03    0.21 
   1   2  -8    2.25    0.19 
   0  -2   8    0.87    0.14 
   0  -2   8    1.45    0.19 
   0  -2   8    1.35    0.15 
   0   2  -8    1.65    0.16 
   0   2  -8    1.03    0.15 
   0   2  -8    1.52    0.17 
   1  -2   8    3.43    0.22 
   1  -2   8    3.91    0.27 
   1  -2   8    4.00    0.27 
  -1   2  -8    4.03    0.23 
  -1   2  -8    4.16    0.22 
  -1   2  -8    4.21    0.26 
   2  -2   8    0.21    0.08 
   2  -2   8    0.32    0.11 
   2  -2   8    0.25    0.10 
  -2   2  -8    0.27    0.08 
  -2   2  -8    0.24    0.09 
  -2   2  -8    0.29    0.08 
   3  -2   8    0.04    0.08 
   3  -2   8    0.07    0.09 
   3  -2   8    0.10    0.08 
  -3   2  -8    0.01    0.07 
  -3   2  -8    0.15    0.07 
   4  -2   8    0.13    0.09 
   4  -2   8    0.04    0.08 
   4  -2   8    0.11    0.10 
  -4   2  -8    0.07    0.06 
  -4   2  -8   -0.04    0.08 
   5  -2   8    1.01    0.19 
   5  -2   8    0.99    0.20 
  -5   2  -8    1.52    0.22 
   6  -2   8    2.04    0.27 
   6  -2   8    1.64    0.27 
  -6   2  -8    1.65    0.26 
   7  -2   8    0.14    0.16 
   7  -2   8    0.25    0.14 
  -7   2  -8    0.22    0.17 
  -4  -3   9    0.10    0.13 
  -4  -3   9    0.13    0.15 
  -4  -3   9    0.18    0.13 
   4   3  -9    0.10    0.08 
   4   3  -9    0.06    0.11 
  -3  -3   9    0.30    0.15 
  -3  -3   9    0.32    0.13 
   3   3  -9    0.55    0.17 
   3   3  -9    0.07    0.06 
  -2  -3   9   -0.06    0.09 
  -2  -3   9    0.07    0.12 
   2   3  -9    0.09    0.08 
   2   3  -9   -0.07    0.05 
   2   3  -9   -0.02    0.08 
  -1  -3   9   11.27    0.54 
  -1  -3   9   11.62    0.54 
   1   3  -9   11.22    0.49 
   1   3  -9   11.48    0.49 
   1   3  -9   10.56    0.41 
   0  -3   9    0.84    0.18 
   0  -3   9    0.45    0.13 
   0  -3   9    0.84    0.17 
   0   3  -9    0.80    0.15 
   0   3  -9    0.47    0.14 
   0   3  -9    0.90    0.13 
   1  -3   9    4.69    0.29 
   1  -3   9    5.25    0.35 
   1  -3   9    5.29    0.35 
  -1   3  -9    5.34    0.32 
  -1   3  -9    4.83    0.29 
  -1   3  -9    5.67    0.27 
   2  -3   9    5.73    0.38 
   2  -3   9    5.59    0.32 
   2  -3   9    5.99    0.37 
  -2   3  -9    5.56    0.28 
  -2   3  -9    6.15    0.35 
   3  -3   9    3.95    0.31 
   3  -3   9    3.88    0.33 
  -3   3  -9    4.20    0.25 
  -3   3  -9    4.58    0.31 
   4  -3   9    0.56    0.16 
   4  -3   9    0.06    0.12 
  -4   3  -9    0.43    0.15 
   5  -3   9    0.06    0.10 
   5  -3   9    0.11    0.14 
  -5   3  -9   -0.04    0.10 
   6  -3   9    0.11    0.16 
   6  -3   9    0.20    0.15 
  -6   3  -9   -0.05    0.12 
  -3  -4  10    0.92    0.22 
  -3  -4  10    1.10    0.26 
   3   4 -10    0.68    0.19 
   3   4 -10    0.90    0.14 
  -2  -4  10    0.16    0.14 
  -2  -4  10    0.03    0.11 
   2   4 -10    0.25    0.08 
   2   4 -10    0.14    0.11 
  -1  -4  10    0.25    0.13 
  -1  -4  10    0.20    0.14 
   1   4 -10    0.20    0.12 
   1   4 -10    0.22    0.12 
   1   4 -10    0.29    0.09 
   0  -4  10    0.17    0.13 
   0  -4  10    0.12    0.10 
   0   4 -10    0.00    0.10 
   0   4 -10    0.05    0.08 
   0   4 -10    0.16    0.07 
   1  -4  10    1.51    0.24 
   1  -4  10    2.07    0.28 
  -1   4 -10    1.99    0.26 
  -1   4 -10    1.99    0.19 
  -1   4 -10    2.07    0.25 
   2  -4  10    0.97    0.19 
   2  -4  10    1.48    0.25 
  -2   4 -10    1.50    0.22 
  -2   4 -10    1.50    0.18 
   3  -4  10    4.90    0.38 
   3  -4  10    4.87    0.39 
  -3   4 -10    4.90    0.34 
  -3   4 -10    4.35    0.26 
   4  -4  10    1.33    0.26 
   4  -4  10    1.18    0.22 
  -4   4 -10    1.29    0.21 
   5  -4  10    0.11    0.13 
   5  -4  10    0.44    0.18 
  -1  -5  11    0.03    0.13 
  -1  -5  11    0.22    0.16 
   1   5 -11    0.29    0.14 
   1   5 -11    0.04    0.07 
   0  -5  11    0.02    0.12 
   0  -5  11   -0.13    0.13 
   0   5 -11    0.00    0.09 
   0   5 -11    0.00    0.05 
   1  -5  11    0.08    0.12 
   1  -5  11    0.24    0.16 
  -1   5 -11    0.08    0.06 
   2  -5  11    0.08    0.14 
   2  -5  11   -0.03    0.15 
   3  -5  11    0.70    0.21 
   3  -5  11    0.98    0.26 
   3  -9   2    0.05    0.10 
   3  -9   2    0.07    0.11 
   2  -9   2    0.12    0.11 
   2  -9   2    0.06    0.08 
   1  -9   2    0.07    0.08 
   1  -9   2    0.07    0.11 
   0  -9   2    1.94    0.19 
   0  -9   2    2.22    0.32 
  -1  -9   2    3.15    0.21 
  -1  -9   2    2.12    0.30 
  -2  -9   2    0.15    0.08 
  -2  -9   2   -0.01    0.11 
  -3  -9   2    0.01    0.07 
   5  -8   1    0.04    0.11 
   5  -8   1   -0.01    0.12 
   4  -8   1    0.21    0.11 
   4  -8   1    0.48    0.14 
   3  -8   1    0.09    0.09 
   3  -8   1    0.09    0.09 
   2  -8   1    2.75    0.21 
   2  -8   1    3.58    0.28 
   1  -8   1    5.02    0.32 
   1  -8   1    4.82    0.25 
   0  -8   1    0.79    0.17 
  -1  -8   1    0.62    0.18 
  -2  -8   1    0.03    0.06 
  -3  -8   1    0.04    0.06 
   4   8  -1    0.26    0.10 
  -4  -8   1    0.40    0.11 
   5   8  -1    0.30    0.12 
  -5  -8   1    0.02    0.09 
   6  -7   0   -0.05    0.14 
   6  -7   0    0.05    0.10 
   5  -7   0   -0.02    0.09 
   5  -7   0    0.04    0.12 
   4  -7   0    0.08    0.09 
   4  -7   0    0.19    0.09 
   3  -7   0    1.04    0.16 
   3  -7   0    0.66    0.14 
   2  -7   0    1.44    0.16 
   2  -7   0    1.84    0.17 
   2  -7   0    1.62    0.16 
   2  -7   0    2.01    0.22 
   1  -7   0    0.84    0.10 
   1  -7   0    0.73    0.13 
   0  -7   0    8.70    0.41 
   0  -7   0    9.14    0.42 
  -1  -7   0    9.19    0.38 
   3   7   0   13.48    0.48 
  -3  -7   0   13.99    0.47 
   4   7   0    7.11    0.36 
  -4  -7   0    6.79    0.34 
   5   7   0    7.93    0.44 
  -5  -7   0    8.14    0.42 
   6   7   0    1.17    0.23 
  -6  -7   0    1.06    0.20 
   6  -6  -1   -0.20    0.11 
   5  -6  -1   -0.06    0.09 
   5  -6  -1    0.13    0.08 
  -4   6   1    0.95    0.18 
   4  -6  -1    1.54    0.20 
   4  -6  -1    1.73    0.18 
  -3   6   1   13.40    0.52 
   3  -6  -1   12.72    0.45 
   3  -6  -1   13.62    0.49 
   3  -6  -1   14.41    0.51 
   3  -6  -1   12.13    0.46 
  -2   6   1    6.96    0.31 
   2  -6  -1    7.03    0.29 
   2  -6  -1    6.90    0.28 
   2  -6  -1    6.86    0.29 
   2  -6  -1    6.84    0.30 
  -1   6   1    4.55    0.20 
   1  -6  -1    4.20    0.29 
   1  -6  -1    4.28    0.18 
   1  -6  -1    4.62    0.24 
   0  -6  -1    2.94    0.21 
   0  -6  -1    3.19    0.21 
  -1  -6  -1    2.10    0.16 
   2   6   1    0.12    0.05 
   3   6   1    0.26    0.08 
  -3  -6  -1    0.35    0.07 
   4   6   1    7.62    0.36 
  -4  -6  -1    6.68    0.32 
   5   6   1   11.03    0.51 
  -5  -6  -1   11.67    0.49 
   6   6   1    4.54    0.36 
  -6  -6  -1    5.35    0.36 
   7   6   1    2.72    0.34 
  -7  -6  -1    2.61    0.33 
   7  -5  -2    0.16    0.16 
   6  -5  -2   -0.07    0.10 
   5  -5  -2    0.24    0.12 
  -4   5   2    0.08    0.06 
  -4   5   2    0.19    0.10 
   4  -5  -2    0.23    0.10 
   4  -5  -2    0.05    0.07 
   4  -5  -2    0.21    0.09 
   4  -5  -2   -0.08    0.14 
   4  -5  -2    0.09    0.09 
  -3   5   2    0.47    0.09 
  -3   5   2    0.59    0.13 
   3  -5  -2    0.45    0.08 
   3  -5  -2    0.38    0.10 
   3  -5  -2    0.51    0.11 
   3  -5  -2    0.61    0.12 
  -2   5   2    0.17    0.07 
   2  -5  -2    0.12    0.06 
   2  -5  -2    0.16    0.07 
   2  -5  -2    0.28    0.06 
  -1   5   2   21.63    0.59 
   1  -5  -2   21.78    0.59 
   1  -5  -2   21.47    0.70 
   1  -5  -2   21.13    0.56 
   0  -5  -2    3.52    0.19 
   0  -5  -2    4.31    0.23 
  -1  -5  -2    0.32    0.07 
   2   5   2   54.93    1.34 
  -2  -5  -2   59.75    1.59 
   3   5   2   11.82    0.41 
  -3  -5  -2   12.08    0.40 
  -3  -5  -2   12.17    0.39 
  -3  -5  -2   11.97    0.39 
   4   5   2    0.11    0.07 
  -4  -5  -2    0.07    0.06 
  -4  -5  -2    0.11    0.07 
  -4  -5  -2    0.09    0.06 
   5   5   2   -0.01    0.06 
   5   5   2    0.13    0.08 
  -5  -5  -2    0.00    0.07 
  -5  -5  -2    0.05    0.07 
   6   5   2    2.72    0.30 
  -6  -5  -2    2.37    0.28 
   7   5   2   -0.05    0.12 
  -7  -5  -2   -0.16    0.09 
   7  -4  -3    0.06    0.13 
   6  -4  -3    0.14    0.11 
  -5   4   3    2.38    0.24 
   5  -4  -3    2.39    0.28 
   5  -4  -3    1.74    0.25 
  -4   4   3    0.29    0.11 
  -4   4   3    0.31    0.10 
  -4   4   3    0.36    0.09 
   4  -4  -3    0.17    0.08 
   4  -4  -3    0.52    0.13 
   4  -4  -3    0.07    0.06 
  -3   4   3    0.26    0.09 
  -3   4   3    0.44    0.08 
  -3   4   3    0.67    0.09 
  -3   4   3    0.26    0.12 
   3  -4  -3    0.32    0.08 
   3  -4  -3    0.43    0.10 
  -2   4   3    8.34    0.35 
  -2   4   3    9.06    0.30 
   2  -4  -3    8.87    0.32 
   2  -4  -3    8.82    0.33 
   2  -4  -3    8.95    0.41 
  -1   4   3   51.69    1.37 
  -1   4   3   50.99    1.26 
   1  -4  -3   52.22    1.25 
   1  -4  -3   53.72    1.37 
   0   4   3    0.74    0.11 
   0  -4  -3    0.79    0.11 
   1   4   3   42.69    1.06 
  -2  -4  -3    5.99    0.21 
  -2  -4  -3    6.20    0.22 
  -2  -4  -3    6.68    0.22 
   3   4   3   37.25    1.01 
  -3  -4  -3   37.53    0.97 
  -3  -4  -3   38.86    0.99 
  -3  -4  -3   37.85    0.98 
  -3  -4  -3   39.13    1.00 
  -3  -4  -3   38.97    0.93 
   4   4   3    0.05    0.05 
   4   4   3    0.20    0.08 
  -4  -4  -3    0.15    0.06 
  -4  -4  -3    0.09    0.06 
  -4  -4  -3    0.09    0.05 
  -4  -4  -3    0.03    0.06 
  -4  -4  -3    0.11    0.07 
   5   4   3    0.18    0.08 
   5   4   3    0.13    0.10 
  -5  -4  -3    0.14    0.08 
  -5  -4  -3    0.07    0.09 
  -5  -4  -3    0.28    0.10 
   6   4   3   -0.04    0.07 
   6   4   3    0.17    0.06 
   6   4   3    0.13    0.11 
   6   4   3    0.19    0.06 
  -6  -4  -3    0.05    0.09 
  -6  -4  -3    0.23    0.11 
   7   4   3   -0.01    0.06 
   7   4   3    0.24    0.12 
   7   4   3    0.02    0.06 
  -7  -4  -3   -0.15    0.08 
   8   4   3    0.10    0.14 
   8   4   3   -0.01    0.06 
   8   4   3    0.14    0.09 
  -8  -4  -3   -0.02    0.14 
   7  -3  -4    0.09    0.14 
   6  -3  -4    0.03    0.11 
  -5   3   4    0.05    0.09 
   5  -3  -4    0.16    0.09 
   5  -3  -4    0.16    0.11 
  -4   3   4    0.14    0.10 
  -4   3   4    0.20    0.12 
  -4   3   4    0.25    0.09 
  -4   3   4    0.22    0.07 
   4  -3  -4   -0.07    0.07 
   4  -3  -4    0.10    0.07 
  -3   3   4    0.09    0.04 
  -3   3   4    0.00    0.06 
  -3   3   4    0.03    0.07 
  -3   3   4    0.16    0.07 
   3  -3  -4    0.01    0.05 
   3  -3  -4    0.15    0.08 
  -2   3   4   10.24    0.40 
  -2   3   4    9.55    0.43 
   2  -3  -4    9.91    0.37 
   2  -3  -4    9.78    0.37 
   2  -3  -4   10.40    0.42 
  -1   3   4    0.48    0.11 
  -1   3   4    0.45    0.08 
  -1   3   4    0.62    0.08 
   1  -3  -4    0.63    0.10 
   1  -3  -4    0.64    0.09 
   0   3   4   15.26    0.40 
   0   3   4   14.92    0.49 
   0  -3  -4   15.45    0.39 
   0  -3  -4   14.94    0.43 
   1   3   4    3.80    0.19 
  -1  -3  -4    3.70    0.13 
  -1  -3  -4    3.65    0.16 
   2   3   4    1.19    0.09 
   2   3   4    1.18    0.09 
  -2  -3  -4    1.11    0.09 
  -2  -3  -4    1.28    0.11 
  -2  -3  -4    1.15    0.08 
   3   3   4    3.52    0.17 
   3   3   4    3.50    0.13 
   3   3   4    3.52    0.18 
   3   3   4    4.02    0.19 
  -3  -3  -4    3.63    0.20 
  -3  -3  -4    4.16    0.18 
  -3  -3  -4    3.87    0.20 
  -3  -3  -4    3.72    0.17 
  -3  -3  -4    3.87    0.19 
   4   3   4   15.02    0.55 
   4   3   4   15.66    0.43 
  -4  -3  -4   14.63    0.52 
  -4  -3  -4   14.26    0.52 
  -4  -3  -4   15.53    0.47 
  -4  -3  -4   14.92    0.51 
   5   3   4    0.32    0.10 
   5   3   4    0.19    0.10 
   5   3   4    0.21    0.07 
  -5  -3  -4    0.24    0.09 
  -5  -3  -4    0.19    0.09 
  -5  -3  -4    0.25    0.10 
   6   3   4    0.03    0.08 
   6   3   4    0.01    0.09 
   6   3   4    0.05    0.10 
   6   3   4    0.11    0.07 
  -6  -3  -4    0.07    0.09 
  -6  -3  -4    0.18    0.12 
  -6  -3  -4    0.02    0.08 
   7   3   4    0.09    0.07 
   7   3   4    0.10    0.11 
   7   3   4    0.09    0.08 
  -7  -3  -4   -0.02    0.11 
  -7  -3  -4    0.19    0.12 
   8   3   4    0.02    0.14 
   8   3   4    0.06    0.08 
   8   3   4    0.09    0.08 
  -8  -3  -4    0.01    0.11 
   7  -2  -5   -0.04    0.12 
  -6   2   5    0.23    0.14 
   6  -2  -5    0.75    0.20 
  -5   2   5   -0.09    0.11 
  -5   2   5   -0.17    0.08 
  -4   2   5    0.00    0.09 
  -4   2   5   -0.02    0.08 
  -4   2   5   -0.02    0.05 
  -4   2   5    0.00    0.07 
   4  -2  -5    0.05    0.08 
   4  -2  -5   -0.03    0.05 
   4  -2  -5   -0.07    0.06 
  -3   2   5   27.07    0.70 
  -3   2   5   27.80    0.90 
  -3   2   5   23.50    0.85 
  -3   2   5   28.39    0.84 
   3  -2  -5   27.84    0.77 
   3  -2  -5   28.34    0.87 
   3  -2  -5   27.93    0.85 
  -2   2   5    4.21    0.23 
  -2   2   5    3.55    0.24 
   2  -2  -5    4.18    0.24 
   2  -2  -5    4.19    0.20 
  -1   2   5   70.53    1.81 
  -1   2   5   72.66    1.75 
  -1   2   5   73.50    1.79 
   1  -2  -5   74.14    1.77 
   1  -2  -5   74.18    1.71 
   0   2   5    7.81    0.25 
   0   2   5    7.84    0.29 
   0  -2  -5    7.77    0.26 
   0  -2  -5    7.93    0.29 
   1   2   5    2.54    0.12 
   1   2   5    2.40    0.15 
   1   2   5    3.00    0.13 
  -1  -2  -5    2.67    0.15 
  -1  -2  -5    2.80    0.15 
  -1  -2  -5    2.55    0.12 
  -1  -2  -5    2.61    0.13 
   2   2   5   -0.07    0.03 
   2   2   5    0.05    0.04 
   2   2   5   -0.04    0.03 
  -2  -2  -5    0.04    0.04 
  -2  -2  -5   -0.03    0.03 
  -2  -2  -5    0.01    0.03 
  -2  -2  -5   -0.01    0.03 
   3   2   5    0.64    0.08 
   3   2   5    0.74    0.11 
   3   2   5    0.49    0.09 
  -3  -2  -5    0.67    0.06 
  -3  -2  -5    0.74    0.11 
  -3  -2  -5    0.73    0.11 
  -3  -2  -5    0.40    0.08 
  -3  -2  -5    0.49    0.07 
   4   2   5    7.40    0.33 
   4   2   5    7.37    0.37 
   4   2   5    7.74    0.28 
  -4  -2  -5    7.78    0.31 
  -4  -2  -5    7.64    0.34 
  -4  -2  -5    6.98    0.33 
   5   2   5    4.38    0.31 
   5   2   5    4.70    0.23 
   5   2   5    4.50    0.28 
  -5  -2  -5    4.03    0.24 
  -5  -2  -5    4.21    0.28 
  -5  -2  -5    4.67    0.29 
   6   2   5    0.90    0.13 
   6   2   5    1.05    0.17 
   6   2   5    0.85    0.17 
  -6  -2  -5    1.08    0.20 
  -6  -2  -5    0.80    0.17 
   7   2   5    0.20    0.09 
   7   2   5    0.22    0.14 
   7   2   5    0.48    0.16 
  -7  -2  -5    0.32    0.16 
   8   2   5    0.12    0.10 
  -8  -2  -5    0.12    0.16 
  -6   1   6    0.08    0.15 
  -6   1   6    0.34    0.15 
   6  -1  -6    0.23    0.13 
  -5   1   6    0.03    0.11 
  -5   1   6   -0.03    0.10 
   5  -1  -6   -0.07    0.11 
  -4   1   6    6.99    0.42 
  -4   1   6    6.48    0.41 
  -4   1   6    6.43    0.38 
   4  -1  -6    7.15    0.33 
   4  -1  -6    6.12    0.40 
  -3   1   6    0.67    0.15 
  -3   1   6    0.56    0.13 
  -3   1   6    0.73    0.15 
   3  -1  -6    0.50    0.09 
   3  -1  -6    0.74    0.14 
   3  -1  -6    0.48    0.13 
  -2   1   6   28.51    0.85 
  -2   1   6   28.49    0.88 
  -2   1   6   28.93    0.89 
   2  -1  -6   28.32    0.85 
   2  -1  -6   28.19    0.78 
  -1   1   6    0.39    0.11 
  -1   1   6    0.23    0.06 
  -1   1   6    0.35    0.06 
  -1   1   6    0.41    0.10 
   1  -1  -6    0.51    0.10 
   1  -1  -6    0.36    0.08 
   0   1   6   33.36    0.91 
   0   1   6   34.40    0.83 
   0   1   6   33.35    0.85 
   0  -1  -6   32.96    0.86 
   0  -1  -6   33.19    0.91 
   1   1   6    3.23    0.16 
   1   1   6    3.31    0.16 
   1   1   6    3.21    0.20 
  -1  -1  -6    3.11    0.16 
  -1  -1  -6    2.93    0.18 
  -1  -1  -6    3.05    0.16 
  -1  -1  -6    3.39    0.19 
   2   1   6   23.47    0.65 
   2   1   6   24.12    0.69 
   2   1   6   23.19    0.63 
  -2  -1  -6   23.19    0.68 
  -2  -1  -6   24.35    0.65 
  -2  -1  -6   23.43    0.69 
  -2  -1  -6   23.10    0.65 
   3   1   6    2.72    0.20 
   3   1   6    2.69    0.16 
   3   1   6    2.77    0.19 
   3   1   6    2.64    0.19 
  -3  -1  -6    2.53    0.17 
  -3  -1  -6    2.71    0.17 
  -3  -1  -6    2.81    0.19 
  -3  -1  -6    2.90    0.20 
   4   1   6    1.85    0.18 
   4   1   6    1.81    0.16 
   4   1   6    1.83    0.19 
  -4  -1  -6    1.66    0.18 
  -4  -1  -6    1.33    0.14 
  -4  -1  -6    1.60    0.17 
   5   1   6    0.13    0.07 
   5   1   6    0.02    0.07 
   5   1   6    0.22    0.11 
  -5  -1  -6    0.13    0.10 
  -5  -1  -6    0.12    0.06 
  -5  -1  -6    0.08    0.08 
   6   1   6   -0.12    0.09 
   6   1   6    0.15    0.08 
   6   1   6    0.05    0.11 
  -6  -1  -6   -0.10    0.07 
   7   1   6    0.16    0.14 
   7   1   6    0.17    0.09 
   7   1   6    0.30    0.15 
  -7  -1  -6    0.14    0.13 
  -8  -1  -6   -0.02    0.15 
  -6   0   7    0.07    0.17 
  -6   0   7   -0.05    0.13 
   6   0  -7    0.17    0.13 
  -5   0   7    1.60    0.27 
  -5   0   7    1.48    0.26 
   5   0  -7    1.42    0.22 
  -4   0   7    8.12    0.45 
  -4   0   7    7.89    0.46 
   4   0  -7    7.35    0.35 
  -3   0   7    5.36    0.35 
  -3   0   7    4.99    0.32 
  -3   0   7    5.13    0.35 
   3   0  -7    5.05    0.27 
  -2   0   7    7.38    0.40 
  -2   0   7    7.74    0.32 
  -2   0   7    7.64    0.39 
  -2   0   7    7.46    0.38 
   2   0  -7    8.12    0.39 
   2   0  -7    7.78    0.32 
  -1   0   7    1.28    0.14 
  -1   0   7    0.98    0.16 
  -1   0   7    0.92    0.13 
  -1   0   7    1.06    0.13 
   1   0  -7    1.09    0.16 
   1   0  -7    1.06    0.13 
   0   0   7    0.58    0.09 
   0   0   7    0.75    0.12 
   0   0   7    0.68    0.10 
   0   0  -7    0.45    0.10 
   0   0  -7    0.62    0.09 
   1   0   7    3.44    0.19 
   1   0   7    3.51    0.19 
   1   0   7    3.63    0.23 
  -1   0  -7    3.37    0.20 
  -1   0  -7    3.26    0.18 
  -1   0  -7    3.32    0.21 
  -1   0  -7    3.49    0.21 
   2   0   7   -0.02    0.04 
   2   0   7    0.04    0.06 
   2   0   7    0.08    0.06 
  -2   0  -7    0.01    0.03 
  -2   0  -7    0.07    0.06 
  -2   0  -7   -0.07    0.04 
  -2   0  -7    0.01    0.04 
  -2   0  -7    0.02    0.04 
   3   0   7    2.42    0.17 
   3   0   7    2.00    0.21 
   3   0   7    1.68    0.18 
  -3   0  -7    1.67    0.18 
  -3   0  -7    2.17    0.16 
  -3   0  -7    2.26    0.23 
   4   0   7    0.32    0.10 
   4   0   7    0.68    0.11 
   4   0   7    0.44    0.11 
  -4   0  -7    0.50    0.11 
  -4   0  -7    0.48    0.12 
  -4   0  -7    0.43    0.11 
   5   0   7   -0.08    0.06 
   5   0   7   -0.01    0.06 
   5   0   7    0.05    0.08 
   5   0   7    0.00    0.09 
  -5   0  -7   -0.06    0.08 
  -5   0  -7   -0.02    0.06 
   6   0   7    1.54    0.24 
   6   0   7    1.13    0.16 
   6   0   7    1.42    0.24 
  -6   0  -7    1.40    0.23 
   7   0   7    0.12    0.14 
  -7   0  -7   -0.01    0.12 
  -8   0  -7   -0.06    0.16 
  -5  -1   8    0.61    0.19 
  -5  -1   8    0.99    0.24 
   5   1  -8    0.56    0.14 
  -4  -1   8    3.80    0.37 
  -4  -1   8    3.61    0.35 
   4   1  -8    3.37    0.28 
  -3  -1   8   22.70    0.83 
  -3  -1   8   23.71    0.84 
  -3  -1   8   21.33    0.72 
   3   1  -8   23.29    0.72 
  -2  -1   8    3.50    0.28 
  -2  -1   8    2.59    0.26 
  -2  -1   8    3.03    0.23 
   2   1  -8    3.19    0.21 
  -1  -1   8   34.64    1.07 
  -1  -1   8   34.12    0.95 
  -1  -1   8   34.20    1.05 
  -1  -1   8   35.45    0.99 
   1   1  -8   34.26    0.94 
   0  -1   8    0.04    0.06 
   0  -1   8    0.12    0.07 
   0  -1   8    0.12    0.07 
   0   1  -8    0.09    0.05 
   0   1  -8    0.10    0.07 
   1  -1   8   15.87    0.58 
   1  -1   8   14.29    0.50 
   1  -1   8   15.74    0.54 
  -1   1  -8   14.95    0.48 
  -1   1  -8   15.58    0.50 
  -1   1  -8   15.95    0.56 
   2  -1   8   16.59    0.57 
   2  -1   8   16.90    0.62 
  -2   1  -8   16.95    0.59 
  -2   1  -8   16.91    0.51 
  -2   1  -8   17.09    0.55 
   3  -1   8    0.41    0.11 
   3  -1   8    0.70    0.15 
  -3   1  -8    0.52    0.11 
  -3   1  -8    0.45    0.11 
   4  -1   8    0.14    0.09 
   4  -1   8    0.29    0.10 
   4  -1   8    0.17    0.10 
  -4   1  -8   -0.03    0.07 
  -4   1  -8    0.16    0.08 
   5  -1   8    0.33    0.13 
   5  -1   8    0.33    0.16 
   5  -1   8    0.33    0.11 
   5  -1   8    0.53    0.16 
  -5   1  -8    0.45    0.14 
  -5   1  -8    0.36    0.11 
   6  -1   8    0.34    0.14 
   6  -1   8    0.16    0.13 
  -6   1  -8    0.18    0.13 
   7  -1   8    0.15    0.15 
  -7   1  -8   -0.04    0.14 
  -5  -2   9    0.17    0.16 
  -5  -2   9   -0.17    0.14 
   5   2  -9   -0.02    0.08 
   5   2  -9   -0.07    0.11 
  -4  -2   9    0.23    0.15 
  -4  -2   9    0.17    0.12 
   4   2  -9    0.05    0.08 
   4   2  -9   -0.05    0.08 
  -3  -2   9    0.11    0.12 
  -3  -2   9   -0.08    0.09 
  -3  -2   9    0.05    0.11 
   3   2  -9    0.21    0.10 
   3   2  -9    0.17    0.08 
  -2  -2   9    5.55    0.39 
  -2  -2   9    6.64    0.39 
   2   2  -9    6.07    0.31 
   2   2  -9    6.33    0.36 
  -1  -2   9    2.02    0.25 
  -1  -2   9    2.34    0.22 
  -1  -2   9    2.23    0.27 
   1   2  -9    2.39    0.25 
   1   2  -9    2.42    0.21 
   1   2  -9    1.97    0.22 
   0  -2   9    0.22    0.09 
   0  -2   9    0.19    0.08 
   0  -2   9   -0.01    0.08 
   0   2  -9    0.14    0.08 
   0   2  -9    0.07    0.08 
   0   2  -9    0.09    0.06 
   1  -2   9    2.02    0.20 
   1  -2   9    1.93    0.22 
   1  -2   9    2.06    0.24 
  -1   2  -9    2.38    0.23 
  -1   2  -9    1.65    0.20 
  -1   2  -9    2.09    0.20 
   2  -2   9    0.07    0.09 
   2  -2   9    0.21    0.11 
   2  -2   9    0.24    0.09 
  -2   2  -9    0.20    0.08 
  -2   2  -9    0.18    0.08 
  -2   2  -9    0.11    0.09 
   3  -2   9    2.20    0.26 
   3  -2   9    2.63    0.27 
   3  -2   9    2.30    0.22 
  -3   2  -9    2.48    0.26 
  -3   2  -9    2.99    0.21 
   4  -2   9    0.12    0.11 
   4  -2   9    0.04    0.09 
  -4   2  -9    0.19    0.11 
  -4   2  -9    0.14    0.08 
   5  -2   9   -0.02    0.10 
   5  -2   9    0.22    0.14 
  -5   2  -9    0.06    0.10 
   6  -2   9    0.57    0.20 
   6  -2   9    0.62    0.19 
  -6   2  -9    0.88    0.20 
   7  -2   9    0.29    0.22 
   7  -2   9    0.24    0.15 
  -7   2  -9    0.11    0.16 
  -4  -3  10    0.07    0.17 
  -4  -3  10    0.08    0.14 
  -4  -3  10   -0.09    0.13 
   4   3 -10    0.05    0.08 
   4   3 -10    0.26    0.15 
  -3  -3  10    0.18    0.16 
  -3  -3  10    0.05    0.10 
  -3  -3  10    0.14    0.14 
   3   3 -10    0.07    0.07 
   3   3 -10    0.22    0.12 
  -2  -3  10   -0.08    0.10 
  -2  -3  10    0.01    0.11 
   2   3 -10    0.05    0.06 
   2   3 -10   -0.01    0.08 
   2   3 -10    0.05    0.11 
  -1  -3  10    0.02    0.11 
  -1  -3  10    0.20    0.13 
   1   3 -10   -0.10    0.08 
   1   3 -10   -0.01    0.07 
   1   3 -10    0.04    0.06 
   0  -3  10   -0.02    0.10 
   0  -3  10    0.07    0.10 
   0   3 -10   -0.03    0.08 
   0   3 -10   -0.02    0.05 
   0   3 -10   -0.04    0.06 
   1  -3  10    4.88    0.36 
   1  -3  10    4.59    0.34 
  -1   3 -10    4.21    0.29 
  -1   3 -10    5.00    0.27 
  -1   3 -10    5.54    0.34 
   2  -3  10    0.30    0.14 
   2  -3  10    0.45    0.15 
  -2   3 -10    0.36    0.13 
  -2   3 -10    0.23    0.09 
  -2   3 -10    0.14    0.09 
   3  -3  10    4.87    0.38 
   3  -3  10    4.96    0.37 
  -3   3 -10    4.90    0.34 
  -3   3 -10    4.81    0.28 
   4  -3  10    0.39    0.16 
   4  -3  10    0.51    0.17 
  -4   3 -10    0.49    0.16 
  -4   3 -10    0.49    0.12 
   5  -3  10    0.03    0.12 
   5  -3  10   -0.02    0.13 
  -5   3 -10    0.04    0.12 
   6  -3  10    0.03    0.13 
   6  -3  10   -0.15    0.15 
  -6   3 -10    0.00    0.13 
  -2  -4  11    0.08    0.15 
  -2  -4  11   -0.14    0.12 
   2   4 -11    0.01    0.09 
   2   4 -11   -0.07    0.06 
  -1  -4  11    0.75    0.21 
  -1  -4  11    0.45    0.17 
   1   4 -11    0.66    0.17 
   1   4 -11    0.53    0.12 
   0  -4  11    0.44    0.15 
   0  -4  11    0.40    0.16 
   0   4 -11    0.25    0.11 
   0   4 -11    0.52    0.18 
   0   4 -11    0.26    0.09 
   1  -4  11    0.09    0.13 
   1  -4  11    0.01    0.10 
  -1   4 -11    0.02    0.06 
  -1   4 -11   -0.04    0.10 
  -1   4 -11    0.05    0.08 
   2  -4  11   -0.05    0.13 
   2  -4  11    0.20    0.14 
  -2   4 -11    0.02    0.11 
  -2   4 -11   -0.02    0.05 
   3  -4  11    0.65    0.21 
   3  -4  11    0.73    0.21 
  -3   4 -11    1.07    0.23 
  -3   4 -11    0.42    0.11 
   4  -4  11    0.99    0.21 
   4  -4  11    0.98    0.24 
   1 -10   2    0.57    0.18 
   1 -10   2    0.62    0.13 
   0 -10   2    3.81    0.44 
  -1 -10   2    0.44    0.17 
   4  -9   1   -0.01    0.11 
   4  -9   1    0.17    0.12 
   3  -9   1    0.06    0.10 
   3  -9   1    0.19    0.11 
   2  -9   1   -0.10    0.07 
   2  -9   1    0.13    0.11 
   1  -9   1    0.11    0.10 
   1  -9   1    0.08    0.07 
   0  -9   1    0.04    0.10 
  -1  -9   1    0.75    0.18 
  -2  -9   1    2.32    0.35 
  -3  -9   1    0.22    0.08 
  -4  -9   1    0.42    0.11 
   5  -8   0    0.82    0.20 
   5  -8   0    1.23    0.20 
   4  -8   0    0.33    0.12 
   4  -8   0    0.29    0.12 
   3  -8   0    0.41    0.11 
   3  -8   0    0.33    0.11 
   2  -8   0    0.18    0.08 
   2  -8   0    0.54    0.13 
   1  -8   0    1.21    0.19 
   1  -8   0    1.24    0.13 
   0  -8   0    1.63    0.22 
  -1  -8   0    4.49    0.32 
  -1  -8   0    4.73    0.28 
   3   8   0    0.10    0.07 
  -3  -8   0    0.14    0.07 
   4   8   0    0.09    0.09 
  -4  -8   0    0.03    0.07 
   5   8   0    0.58    0.16 
  -5  -8   0    0.19    0.10 
   6  -7  -1   -0.13    0.15 
   5  -7  -1    0.68    0.17 
   5  -7  -1    0.46    0.13 
  -4   7   1    0.31    0.14 
   4  -7  -1    0.42    0.13 
   4  -7  -1    0.93    0.15 
  -3   7   1    2.73    0.23 
   3  -7  -1    2.71    0.23 
   3  -7  -1    2.33    0.18 
  -2   7   1   -0.02    0.06 
   2  -7  -1    0.00    0.05 
   2  -7  -1    0.03    0.07 
   2  -7  -1   -0.07    0.05 
   2  -7  -1   -0.02    0.06 
   1  -7  -1    1.90    0.13 
   1  -7  -1    2.03    0.17 
   0  -7  -1    1.71    0.21 
   0  -7  -1    1.74    0.20 
  -1  -7  -1    0.11    0.08 
   3   7   1    7.92    0.33 
  -3  -7  -1    8.70    0.32 
   4   7   1    0.01    0.06 
  -4  -7  -1   -0.09    0.05 
   5   7   1    6.32    0.38 
  -5  -7  -1    6.33    0.35 
   6   7   1    1.83    0.26 
  -6  -7  -1    1.28    0.20 
   6  -6  -2   -0.11    0.12 
   5  -6  -2   -0.10    0.09 
  -4   6   2    0.57    0.14 
   4  -6  -2    0.63    0.15 
   4  -6  -2    0.91    0.14 
  -3   6   2    5.05    0.26 
  -3   6   2    4.56    0.29 
   3  -6  -2    4.64    0.27 
   3  -6  -2    4.54    0.23 
   3  -6  -2    4.71    0.28 
   3  -6  -2    4.82    0.27 
  -2   6   2   16.78    0.55 
   2  -6  -2   16.01    0.50 
   2  -6  -2   15.92    0.52 
   2  -6  -2   17.24    0.53 
   2  -6  -2   16.57    0.51 
  -1   6   2    8.15    0.29 
   1  -6  -2    8.03    0.31 
   1  -6  -2    7.62    0.45 
   0  -6  -2    0.01    0.05 
   0  -6  -2    0.16    0.08 
  -1  -6  -2    7.21    0.30 
   3   6   2   -0.05    0.04 
  -3  -6  -2    0.01    0.04 
  -3  -6  -2    0.00    0.04 
  -3  -6  -2    0.01    0.04 
   4   6   2    3.25    0.23 
  -4  -6  -2    3.48    0.22 
  -4  -6  -2    3.53    0.22 
   5   6   2    0.09    0.09 
  -5  -6  -2    0.18    0.08 
   6   6   2    2.77    0.32 
  -6  -6  -2    2.77    0.29 
   7   6   2    3.79    0.41 
  -7  -6  -2    3.62    0.37 
   6  -5  -3    0.79    0.20 
   5  -5  -3    0.39    0.13 
  -4   5   3   -0.01    0.07 
  -4   5   3    0.08    0.10 
  -4   5   3    0.06    0.06 
   4  -5  -3    0.11    0.08 
   4  -5  -3    0.18    0.09 
  -3   5   3    1.35    0.14 
  -3   5   3    1.05    0.16 
   3  -5  -3    1.14    0.11 
   3  -5  -3    1.51    0.18 
   3  -5  -3    1.36    0.16 
  -2   5   3    8.23    0.34 
   2  -5  -3    7.76    0.32 
   2  -5  -3    8.26    0.27 
  -1   5   3    1.03    0.16 
  -1   5   3    1.32    0.13 
   1  -5  -3    1.12    0.11 
   1  -5  -3    1.55    0.19 
   1  -5  -3    1.11    0.09 
   0   5   3    1.27    0.15 
   0  -5  -3    1.26    0.15 
   1   5   3    5.02    0.24 
  -1  -5  -3    4.59    0.22 
  -2  -5  -3    0.01    0.03 
   3   5   3    3.39    0.19 
  -3  -5  -3    3.17    0.18 
  -3  -5  -3    3.14    0.17 
  -3  -5  -3    3.26    0.36 
  -3  -5  -3    3.27    0.18 
   4   5   3    5.72    0.30 
  -4  -5  -3    5.46    0.28 
  -4  -5  -3    5.38    0.27 
  -4  -5  -3    5.12    0.27 
   5   5   3    3.00    0.25 
   5   5   3    2.73    0.18 
  -5  -5  -3    2.94    0.23 
  -5  -5  -3    3.07    0.23 
  -5  -5  -3    2.90    0.23 
   6   5   3   -0.16    0.07 
  -6  -5  -3    0.16    0.11 
  -6  -5  -3    0.04    0.08 
   7   5   3   -0.04    0.10 
  -7  -5  -3   -0.18    0.10 
   7  -4  -4   -0.03    0.14 
   6  -4  -4    0.16    0.11 
  -5   4   4   -0.01    0.09 
   5  -4  -4   -0.02    0.08 
  -4   4   4    0.20    0.13 
  -4   4   4    0.36    0.08 
  -4   4   4    0.22    0.12 
  -4   4   4    0.34    0.10 
   4  -4  -4    0.20    0.10 
   4  -4  -4    0.20    0.10 
  -3   4   4    4.02    0.31 
  -3   4   4    4.75    0.29 
   3  -4  -4    4.83    0.27 
   3  -4  -4    4.69    0.27 
  -2   4   4    1.15    0.20 
  -2   4   4    1.11    0.14 
  -2   4   4    1.17    0.12 
   2  -4  -4    0.74    0.11 
  -1   4   4    0.83    0.14 
  -1   4   4    1.08    0.12 
   1  -4  -4    1.41    0.18 
   1  -4  -4    1.13    0.11 
   0   4   4    0.11    0.07 
   0  -4  -4    0.22    0.07 
   0  -4  -4    0.39    0.06 
   1   4   4    7.94    0.31 
  -1  -4  -4    8.28    0.26 
   2   4   4    5.06    0.21 
  -2  -4  -4    5.13    0.20 
  -2  -4  -4    4.81    0.19 
  -2  -4  -4    5.06    0.17 
   3   4   4   24.10    0.60 
   3   4   4   22.83    0.69 
  -3  -4  -4   23.70    0.67 
  -3  -4  -4   22.82    0.66 
  -3  -4  -4   23.60    0.65 
  -3  -4  -4   24.41    0.62 
  -3  -4  -4   23.32    0.67 
   4   4   4    8.25    0.38 
   4   4   4    8.36    0.31 
  -4  -4  -4    8.24    0.35 
  -4  -4  -4    8.69    0.36 
  -4  -4  -4    8.27    0.35 
  -4  -4  -4    8.16    0.31 
  -4  -4  -4    8.26    0.30 
   5   4   4   10.58    0.49 
   5   4   4   10.69    0.41 
  -5  -4  -4   10.36    0.45 
  -5  -4  -4   10.48    0.46 
  -5  -4  -4   10.76    0.45 
   6   4   4    0.00    0.04 
   6   4   4   -0.04    0.09 
   6   4   4    0.10    0.09 
   6   4   4   -0.05    0.04 
  -6  -4  -4   -0.04    0.07 
  -6  -4  -4    0.03    0.08 
   7   4   4    0.04    0.06 
   7   4   4    0.04    0.06 
   7   4   4   -0.01    0.11 
  -7  -4  -4    0.32    0.13 
  -7  -4  -4    0.02    0.09 
   8   4   4    0.10    0.07 
   8   4   4    0.12    0.07 
  -8  -4  -4    0.34    0.17 
   7  -3  -5    0.01    0.14 
   6  -3  -5    0.19    0.14 
  -5   3   5    0.74    0.20 
  -5   3   5    0.37    0.12 
  -4   3   5    0.40    0.12 
  -4   3   5    1.09    0.20 
  -4   3   5    1.40    0.11 
  -4   3   5    0.88    0.14 
   4  -3  -5    1.27    0.20 
   4  -3  -5    0.59    0.11 
   4  -3  -5    1.00    0.16 
  -3   3   5    0.10    0.09 
  -3   3   5    0.11    0.09 
  -3   3   5    0.04    0.07 
   3  -3  -5   -0.05    0.06 
   3  -3  -5    0.08    0.06 
   3  -3  -5    0.01    0.04 
  -2   3   5    0.00    0.07 
  -2   3   5   -0.05    0.05 
  -2   3   5    0.04    0.05 
   2  -3  -5   -0.01    0.04 
   2  -3  -5   -0.04    0.03 
  -1   3   5    0.07    0.06 
  -1   3   5    0.05    0.05 
  -1   3   5    0.06    0.04 
   1  -3  -5   -0.03    0.03 
   1  -3  -5    0.05    0.03 
   0   3   5   38.06    0.93 
   0   3   5   38.35    1.03 
   0  -3  -5   37.97    0.91 
   0  -3  -5   36.93    0.96 
   1   3   5   16.34    0.45 
  -1  -3  -5   16.06    0.48 
  -1  -3  -5   16.52    0.43 
  -1  -3  -5   16.08    0.43 
   2   3   5   11.43    0.36 
   2   3   5   11.75    0.36 
  -2  -3  -5   11.78    0.35 
  -2  -3  -5   11.63    0.39 
  -2  -3  -5   11.41    0.37 
  -2  -3  -5   11.71    0.37 
   3   3   5    6.99    0.28 
   3   3   5    7.24    0.28 
   3   3   5    7.09    0.23 
  -3  -3  -5    7.13    0.30 
  -3  -3  -5    7.37    0.30 
  -3  -3  -5    7.34    0.29 
  -3  -3  -5    6.47    0.26 
   4   3   5    1.09    0.13 
   4   3   5    2.05    0.12 
   4   3   5    1.83    0.20 
  -4  -3  -5    1.89    0.18 
  -4  -3  -5    1.94    0.11 
  -4  -3  -5    1.98    0.14 
  -4  -3  -5    1.52    0.16 
   5   3   5    2.00    0.24 
   5   3   5    2.56    0.21 
   5   3   5    2.44    0.16 
  -5  -3  -5    2.19    0.21 
  -5  -3  -5    2.69    0.22 
  -5  -3  -5    2.45    0.24 
  -5  -3  -5    2.20    0.19 
   6   3   5    1.33    0.22 
   6   3   5    1.75    0.22 
   6   3   5    2.07    0.19 
  -6  -3  -5    1.54    0.23 
  -6  -3  -5    1.35    0.22 
  -6  -3  -5    1.50    0.22 
   7   3   5    0.30    0.10 
   7   3   5    0.24    0.13 
  -7  -3  -5    0.22    0.15 
  -7  -3  -5    0.39    0.16 
   8   3   5    0.40    0.18 
   8   3   5   -0.01    0.07 
   8   3   5    0.09    0.08 
  -8  -3  -5   -0.16    0.12 
  -6   2   6    3.65    0.42 
   6  -2  -6    3.62    0.41 
  -5   2   6    3.20    0.34 
  -5   2   6    2.90    0.35 
  -4   2   6   -0.05    0.10 
  -4   2   6   -0.07    0.05 
  -4   2   6   -0.09    0.09 
  -4   2   6    0.09    0.08 
   4  -2  -6   -0.03    0.08 
   4  -2  -6   -0.02    0.06 
  -3   2   6    5.25    0.33 
  -3   2   6    5.53    0.31 
  -3   2   6    4.87    0.34 
   3  -2  -6    4.34    0.29 
   3  -2  -6    5.11    0.25 
  -2   2   6    1.52    0.18 
  -2   2   6    1.81    0.19 
   2  -2  -6    1.73    0.19 
   2  -2  -6    1.76    0.15 
  -1   2   6   87.52    2.07 
  -1   2   6   86.49    2.11 
  -1   2   6   83.50    2.12 
   1  -2  -6   86.55    2.08 
   1  -2  -6   84.83    2.00 
   0   2   6    1.10    0.10 
   0   2   6    1.02    0.13 
   0  -2  -6    0.88    0.09 
   0  -2  -6    1.24    0.14 
   1   2   6   93.06    2.10 
   1   2   6   91.83    2.10 
   1   2   6   93.48    2.17 
  -1  -2  -6   92.58    2.10 
  -1  -2  -6   91.46    2.18 
  -1  -2  -6   91.40    2.12 
  -1  -2  -6   91.48    2.17 
   2   2   6    3.49    0.18 
   2   2   6    3.68    0.20 
   2   2   6    3.60    0.16 
  -2  -2  -6    3.63    0.17 
  -2  -2  -6    3.35    0.20 
  -2  -2  -6    3.64    0.18 
  -2  -2  -6    3.37    0.19 
   3   2   6    0.63    0.09 
   3   2   6    0.43    0.09 
   3   2   6    0.74    0.11 
  -3  -2  -6    0.56    0.09 
  -3  -2  -6    0.44    0.10 
  -3  -2  -6    0.45    0.09 
  -3  -2  -6    0.60    0.11 
   4   2   6    0.05    0.07 
   4   2   6    0.14    0.06 
  -4  -2  -6    0.05    0.07 
  -4  -2  -6    0.15    0.07 
  -4  -2  -6    0.03    0.05 
   5   2   6    8.86    0.46 
   5   2   6    9.20    0.35 
   5   2   6    9.13    0.42 
  -5  -2  -6    8.54    0.41 
  -5  -2  -6    8.47    0.42 
  -5  -2  -6    8.99    0.38 
   6   2   6    3.66    0.23 
   6   2   6    3.59    0.29 
   6   2   6    3.48    0.36 
  -6  -2  -6    3.21    0.32 
  -6  -2  -6    3.55    0.30 
   7   2   6    0.10    0.08 
   7   2   6   -0.15    0.10 
  -7  -2  -6   -0.03    0.11 
   8   2   6   -0.01    0.13 
  -8  -2  -6    0.10    0.16 
  -6   1   7    0.24    0.14 
  -6   1   7    0.16    0.17 
   6  -1  -7    0.07    0.13 
  -5   1   7    0.08    0.12 
  -5   1   7    0.13    0.14 
  -4   1   7    4.75    0.37 
  -4   1   7    4.97    0.35 
   4  -1  -7    4.41    0.27 
  -3   1   7    1.54    0.20 
  -3   1   7    2.15    0.27 
  -3   1   7    1.58    0.23 
   3  -1  -7    1.74    0.18 
  -2   1   7   17.36    0.65 
  -2   1   7   16.93    0.52 
  -2   1   7   18.05    0.66 
  -2   1   7   17.10    0.61 
   2  -1  -7   16.98    0.61 
   2  -1  -7   16.77    0.54 
  -1   1   7    8.95    0.32 
  -1   1   7    8.61    0.38 
  -1   1   7    8.34    0.40 
  -1   1   7    8.72    0.30 
   1  -1  -7    8.18    0.37 
   1  -1  -7    8.59    0.32 
   0   1   7   23.62    0.72 
   0   1   7   24.25    0.65 
   0   1   7   22.43    0.62 
   0  -1  -7   23.50    0.65 
   0  -1  -7   22.70    0.71 
   1   1   7    3.78    0.23 
   1   1   7    4.13    0.20 
   1   1   7    3.95    0.19 
  -1  -1  -7    3.81    0.22 
  -1  -1  -7    4.22    0.23 
  -1  -1  -7    4.01    0.20 
  -1  -1  -7    3.92    0.20 
   2   1   7    6.08    0.26 
   2   1   7    5.40    0.24 
   2   1   7    6.10    0.30 
  -2  -1  -7    5.59    0.28 
  -2  -1  -7    5.90    0.28 
  -2  -1  -7    5.83    0.26 
  -2  -1  -7    5.78    0.25 
   3   1   7    0.93    0.14 
   3   1   7    0.75    0.11 
   3   1   7    0.82    0.14 
  -3  -1  -7    0.95    0.15 
  -3  -1  -7    0.76    0.11 
  -3  -1  -7    0.67    0.13 
   4   1   7    1.01    0.14 
   4   1   7    0.95    0.14 
   4   1   7    0.58    0.12 
  -4  -1  -7    0.67    0.11 
  -4  -1  -7    0.55    0.13 
  -4  -1  -7    0.63    0.14 
   5   1   7    0.13    0.09 
   5   1   7    0.28    0.08 
   5   1   7    0.09    0.11 
  -5  -1  -7    0.12    0.07 
  -5  -1  -7    0.13    0.09 
  -5  -1  -7    0.15    0.10 
   6   1   7    0.16    0.09 
   6   1   7    0.29    0.14 
   6   1   7    0.34    0.13 
  -6  -1  -7    0.17    0.12 
   7   1   7    0.00    0.09 
   7   1   7   -0.01    0.12 
  -7  -1  -7    0.11    0.14 
  -8  -1  -7   -0.06    0.14 
  -6   0   8   -0.33    0.14 
  -6   0   8   -0.23    0.13 
  -5   0   8    0.42    0.18 
  -5   0   8    0.64    0.19 
  -4   0   8    0.03    0.13 
  -4   0   8   -0.05    0.09 
   4   0  -8    0.13    0.09 
  -3   0   8   14.82    0.63 
  -3   0   8   14.10    0.60 
  -3   0   8   13.52    0.64 
   3   0  -8   13.75    0.51 
  -2   0   8    3.40    0.23 
  -2   0   8    3.52    0.30 
  -2   0   8    4.00    0.24 
  -2   0   8    3.76    0.29 
  -2   0   8    3.87    0.28 
   2   0  -8    3.22    0.21 
  -1   0   8    4.69    0.29 
  -1   0   8    4.39    0.30 
  -1   0   8    4.36    0.24 
  -1   0   8    4.60    0.24 
   1   0  -8    4.38    0.23 
   1   0  -8    3.96    0.27 
   0   0   8    3.88    0.25 
   0   0   8    3.91    0.21 
   0   0   8    3.40    0.20 
   0   0  -8    3.50    0.20 
   0   0  -8    3.69    0.24 
   1   0   8    1.71    0.20 
   1   0   8    1.13    0.13 
   1   0   8    1.11    0.14 
  -1   0  -8    1.42    0.17 
  -1   0  -8    1.79    0.19 
  -1   0  -8    1.68    0.20 
  -1   0  -8    1.57    0.16 
   2   0   8    0.09    0.06 
   2   0   8    0.02    0.06 
   2   0   8   -0.06    0.06 
  -2   0  -8    0.01    0.03 
  -2   0  -8    0.01    0.05 
  -2   0  -8    0.04    0.06 
  -2   0  -8    0.01    0.06 
   3   0   8    0.74    0.14 
   3   0   8    0.95    0.15 
   3   0   8    0.87    0.13 
  -3   0  -8    0.97    0.09 
  -3   0  -8    0.82    0.13 
  -3   0  -8    0.86    0.12 
  -3   0  -8    0.96    0.16 
   4   0   8    0.09    0.08 
   4   0   8    0.06    0.08 
   4   0   8    0.05    0.07 
  -4   0  -8   -0.05    0.06 
  -4   0  -8   -0.05    0.04 
   5   0   8   -0.01    0.08 
   5   0   8   -0.01    0.08 
   5   0   8    0.10    0.10 
   5   0   8   -0.06    0.10 
  -5   0  -8   -0.01    0.08 
  -5   0  -8    0.14    0.08 
   6   0   8    0.12    0.12 
   6   0   8    0.01    0.09 
   6   0   8   -0.14    0.19 
  -6   0  -8   -0.09    0.10 
   7   0   8    0.09    0.14 
  -7   0  -8    0.01    0.12 
  -5  -1   9    0.06    0.16 
  -5  -1   9   -0.44    0.11 
  -4  -1   9    0.09    0.14 
  -4  -1   9    0.35    0.16 
   4   1  -9    0.10    0.09 
  -3  -1   9    4.61    0.32 
  -3  -1   9    4.05    0.37 
  -3  -1   9    4.48    0.36 
   3   1  -9    4.22    0.27 
  -2  -1   9   11.65    0.57 
  -2  -1   9   12.87    0.53 
   2   1  -9   13.26    0.48 
  -1  -1   9   35.49    1.06 
  -1  -1   9   34.30    0.98 
  -1  -1   9   26.84    0.90 
   1   1  -9   34.75    0.94 
   0  -1   9    5.90    0.35 
   0  -1   9    3.72    0.25 
   0  -1   9    5.50    0.30 
   0   1  -9    5.80    0.28 
   0   1  -9    5.25    0.31 
   0   1  -9    5.27    0.27 
   1  -1   9    4.85    0.32 
   1  -1   9    5.04    0.29 
  -1   1  -9    5.01    0.26 
  -1   1  -9    5.38    0.31 
  -1   1  -9    5.13    0.25 
   2  -1   9    4.31    0.30 
   2  -1   9    4.04    0.27 
  -2   1  -9    4.28    0.25 
  -2   1  -9    4.44    0.29 
  -2   1  -9    4.28    0.22 
   3  -1   9    4.08    0.28 
   3  -1   9    3.91    0.30 
  -3   1  -9    3.86    0.24 
  -3   1  -9    3.66    0.28 
   4  -1   9    0.58    0.13 
   4  -1   9    0.67    0.15 
   4  -1   9    0.53    0.15 
  -4   1  -9    0.67    0.13 
  -4   1  -9    0.68    0.16 
   5  -1   9    0.10    0.10 
   5  -1   9    0.08    0.12 
  -5   1  -9    0.02    0.07 
  -5   1  -9    0.15    0.11 
   6  -1   9    0.19    0.13 
   6  -1   9    0.14    0.14 
  -6   1  -9    0.22    0.16 
   7  -1   9    0.02    0.16 
  -7   1  -9    0.08    0.13 
  -4  -2  10    0.24    0.16 
  -4  -2  10    0.09    0.15 
  -4  -2  10    0.19    0.14 
   4   2 -10    0.06    0.12 
   4   2 -10    0.13    0.09 
  -3  -2  10    0.24    0.15 
  -3  -2  10   -0.02    0.10 
  -3  -2  10    0.17    0.15 
   3   2 -10    0.09    0.08 
   3   2 -10    0.06    0.09 
  -2  -2  10    0.05    0.11 
  -2  -2  10   -0.07    0.10 
   2   2 -10   -0.11    0.06 
   2   2 -10   -0.01    0.06 
  -1  -2  10    0.25    0.13 
  -1  -2  10    0.25    0.12 
   1   2 -10    0.15    0.11 
   1   2 -10    0.11    0.09 
   1   2 -10    0.28    0.09 
   0  -2  10    2.53    0.27 
   0  -2  10    2.54    0.29 
   0   2 -10    2.52    0.22 
   0   2 -10    2.17    0.25 
   0   2 -10    2.36    0.24 
   1  -2  10    2.00    0.21 
   1  -2  10    1.83    0.24 
   1  -2  10    1.75    0.24 
  -1   2 -10    2.19    0.24 
  -1   2 -10    2.45    0.22 
  -1   2 -10    2.16    0.23 
   2  -2  10    1.75    0.24 
   2  -2  10    1.35    0.23 
   2  -2  10    1.24    0.21 
  -2   2 -10    1.83    0.24 
  -2   2 -10    1.62    0.20 
  -2   2 -10    1.58    0.19 
   3  -2  10    0.02    0.11 
   3  -2  10   -0.01    0.10 
  -3   2 -10    0.16    0.11 
  -3   2 -10   -0.02    0.07 
   4  -2  10    0.04    0.12 
   4  -2  10   -0.08    0.09 
  -4   2 -10    0.04    0.07 
  -4   2 -10    0.04    0.10 
   5  -2  10    0.08    0.13 
   5  -2  10   -0.03    0.11 
  -5   2 -10   -0.02    0.07 
  -5   2 -10   -0.09    0.10 
   6  -2  10    0.03    0.16 
   6  -2  10    0.14    0.15 
  -6   2 -10    0.01    0.14 
  -3  -3  11    1.03    0.24 
  -3  -3  11    0.71    0.23 
  -3  -3  11    1.04    0.23 
   3   3 -11    0.99    0.17 
   3   3 -11    0.82    0.20 
  -2  -3  11    0.01    0.13 
  -2  -3  11   -0.01    0.13 
   2   3 -11    0.10    0.07 
   2   3 -11   -0.07    0.11 
   2   3 -11    0.03    0.10 
  -1  -3  11    0.62    0.18 
  -1  -3  11    0.27    0.15 
   1   3 -11    0.23    0.12 
   1   3 -11    0.24    0.13 
   1   3 -11    0.13    0.08 
   0  -3  11    0.02    0.12 
   0  -3  11   -0.02    0.10 
   0   3 -11   -0.06    0.06 
   0   3 -11   -0.05    0.09 
   0   3 -11    0.04    0.07 
   1  -3  11    0.34    0.16 
   1  -3  11    0.53    0.15 
  -1   3 -11    0.58    0.12 
  -1   3 -11    0.43    0.12 
  -1   3 -11    0.62    0.17 
   2  -3  11    0.38    0.15 
   2  -3  11    0.24    0.14 
  -2   3 -11    0.17    0.09 
  -2   3 -11    0.43    0.14 
  -2   3 -11    0.17    0.09 
   3  -3  11    0.47    0.18 
   3  -3  11    1.12    0.23 
  -3   3 -11    1.23    0.22 
  -3   3 -11    1.08    0.17 
   4  -3  11   -0.01    0.12 
   4  -3  11    0.00    0.13 
  -4   3 -11    0.15    0.12 
  -4   3 -11    0.00    0.08 
   5  -3  11    0.18    0.14 
   5  -3  11   -0.07    0.14 
  -5   3 -11    0.03    0.13 
   1   4 -12    0.44    0.11 
   1   4 -12    0.72    0.18 
   0  -4  12   -0.04    0.14 
   0  -4  12    0.03    0.12 
   0   4 -12    0.02    0.09 
   0   4 -12   -0.04    0.07 
   1  -4  12    0.30    0.16 
   1  -4  12    0.45    0.19 
  -1   4 -12    0.24    0.11 
  -1   4 -12    0.25    0.10 
   2  -4  12   -0.01    0.14 
   2  -4  12   -0.15    0.12 
  -2   4 -12   -0.01    0.06 
   3  -4  12   -0.06    0.15 
   3  -4  12    0.09    0.16 
  -3   4 -12   -0.04    0.07 
   2 -10   1    0.22    0.14 
   2 -10   1    0.06    0.09 
   1 -10   1    1.60    0.26 
   1 -10   1    1.50    0.17 
   0 -10   1    1.47    0.25 
  -1 -10   1    0.62    0.22 
  -2 -10   1    0.47    0.19 
   4  -9   0   -0.12    0.10 
   4  -9   0    0.11    0.12 
   3  -9   0    0.21    0.10 
   3  -9   0    0.14    0.09 
   2  -9   0    0.22    0.10 
   2  -9   0    0.18    0.11 
   1  -9   0    0.86    0.18 
   0  -9   0    0.67    0.16 
  -1  -9   0    1.13    0.22 
  -3  -9   0    0.27    0.08 
   4   9   0   -0.02    0.08 
  -4  -9   0    0.11    0.09 
   5  -8  -1    0.94    0.21 
   4  -8  -1    0.84    0.17 
   4  -8  -1    0.97    0.16 
   3  -8  -1    0.78    0.14 
   3  -8  -1    0.87    0.15 
   2  -8  -1   -0.04    0.06 
   2  -8  -1   -0.11    0.06 
   1  -8  -1   -0.01    0.06 
   0  -8  -1    1.37    0.20 
  -1  -8  -1    1.80    0.24 
  -1  -8  -1    1.76    0.20 
   3   8   1    2.30    0.16 
  -3  -8  -1    2.08    0.15 
   4   8   1    0.46    0.11 
  -4  -8  -1    0.34    0.10 
   5   8   1    0.03    0.09 
  -5  -8  -1    0.09    0.08 
   5  -7  -2    0.24    0.13 
  -4   7   2    0.38    0.14 
   4  -7  -2    0.49    0.14 
   4  -7  -2    0.24    0.10 
  -3   7   2    0.09    0.09 
   3  -7  -2    0.09    0.07 
   3  -7  -2    0.00    0.07 
  -2   7   2    0.99    0.15 
   2  -7  -2    0.74    0.12 
   2  -7  -2    0.85    0.12 
   2  -7  -2    0.83    0.12 
   2  -7  -2    0.63    0.12 
  -1   7   2    8.04    0.29 
   1  -7  -2    7.79    0.28 
   1  -7  -2    7.78    0.33 
   0  -7  -2    0.97    0.16 
   0  -7  -2    1.01    0.16 
  -1  -7  -2    0.25    0.09 
   3   7   2    0.79    0.11 
  -3  -7  -2    0.93    0.11 
   4   7   2    4.34    0.27 
  -4  -7  -2    4.47    0.25 
   5   7   2    4.20    0.30 
  -5  -7  -2    4.25    0.28 
   6   7   2    0.28    0.13 
  -6  -7  -2    0.07    0.10 
   6  -6  -3    6.30    0.45 
   5  -6  -3   -0.04    0.09 
  -4   6   3    0.44    0.15 
   4  -6  -3    0.40    0.12 
  -3   6   3    4.56    0.30 
   3  -6  -3    4.05    0.26 
   3  -6  -3    4.02    0.26 
   3  -6  -3    4.39    0.21 
   3  -6  -3    4.39    0.26 
  -2   6   3    6.49    0.31 
   2  -6  -3    6.49    0.25 
   2  -6  -3    6.87    0.30 
  -1   6   3    0.24    0.07 
   1  -6  -3    0.33    0.06 
   1  -6  -3    0.30    0.07 
   0  -6  -3    0.79    0.13 
   0  -6  -3    0.83    0.12 
  -1  -6  -3    8.17    0.32 
   3   6   3    1.58    0.16 
  -3  -6  -3    1.60    0.12 
  -3  -6  -3    1.87    0.13 
  -3  -6  -3    1.51    0.12 
   4   6   3    0.09    0.07 
  -4  -6  -3    0.06    0.06 
  -4  -6  -3    0.15    0.06 
  -4  -6  -3    0.11    0.07 
   5   6   3    0.08    0.08 
  -5  -6  -3    0.05    0.06 
  -5  -6  -3   -0.02    0.07 
   6   6   3    1.76    0.25 
  -6  -6  -3    1.80    0.23 
   7   6   3    0.50    0.18 
  -7  -6  -3    0.45    0.17 
   6  -5  -4    0.06    0.11 
   5  -5  -4    2.51    0.30 
  -4   5   4    0.05    0.07 
  -4   5   4    0.42    0.13 
   4  -5  -4    0.15    0.08 
  -3   5   4    0.09    0.09 
  -3   5   4    0.14    0.06 
  -3   5   4    0.27    0.12 
   3  -5  -4    0.15    0.07 
  -2   5   4    2.24    0.18 
  -2   5   4    1.91    0.24 
   2  -5  -4    2.17    0.17 
  -1   5   4    0.68    0.14 
  -1   5   4    0.94    0.12 
   1  -5  -4    0.76    0.09 
   1  -5  -4    0.79    0.14 
   0   5   4    0.33    0.10 
   0   5   4    0.54    0.08 
   0  -5  -4    0.42    0.06 
   0  -5  -4    0.61    0.11 
   1   5   4   12.63    0.44 
   2   5   4    3.29    0.17 
  -2  -5  -4    2.84    0.14 
  -2  -5  -4    3.01    0.14 
   3   5   4    7.11    0.30 
  -3  -5  -4    6.71    0.27 
  -3  -5  -4    6.84    0.27 
  -3  -5  -4    6.36    0.27 
  -3  -5  -4    6.88    0.32 
   4   5   4    8.51    0.38 
  -4  -5  -4    8.53    0.35 
  -4  -5  -4    8.24    0.35 
  -4  -5  -4    8.72    0.36 
   5   5   4    1.86    0.17 
   5   5   4    1.70    0.22 
  -5  -5  -4    1.82    0.20 
  -5  -5  -4    1.87    0.20 
  -5  -5  -4    1.68    0.20 
   6   5   4    1.54    0.24 
  -6  -5  -4    1.95    0.24 
  -6  -5  -4    2.13    0.23 
   7   5   4    0.25    0.15 
  -7  -5  -4    0.10    0.10 
  -7  -5  -4    0.16    0.13 
   6  -4  -5    0.29    0.14 
  -4   4   5    3.94    0.42 
  -4   4   5    3.19    0.25 
  -4   4   5    2.97    0.32 
   4  -4  -5    3.10    0.26 
  -3   4   5    0.10    0.06 
  -3   4   5    0.11    0.09 
  -3   4   5    0.14    0.11 
   3  -4  -5    0.07    0.07 
  -2   4   5    0.28    0.09 
  -2   4   5    0.19    0.09 
  -2   4   5    0.22    0.07 
   2  -4  -5    0.08    0.06 
  -1   4   5    3.86    0.17 
  -1   4   5    4.02    0.22 
  -1   4   5    3.40    0.25 
   1  -4  -5    3.65    0.17 
   1  -4  -5    3.87    0.20 
   1  -4  -5    3.53    0.24 
   0   4   5    0.17    0.08 
   0  -4  -5    0.05    0.03 
   0  -4  -5    0.06    0.04 
   1   4   5   11.75    0.43 
  -1  -4  -5   12.54    0.33 
  -1  -4  -5   11.94    0.37 
   2   4   5    0.85    0.12 
  -2  -4  -5    0.93    0.11 
  -2  -4  -5    0.97    0.09 
  -2  -4  -5    0.76    0.09 
   3   4   5    2.03    0.13 
   3   4   5    1.85    0.12 
  -3  -4  -5    2.01    0.16 
  -3  -4  -5    1.81    0.14 
  -3  -4  -5    2.00    0.14 
  -3  -4  -5    1.89    0.12 
   4   4   5    1.40    0.15 
   4   4   5    0.93    0.15 
  -4  -4  -5    1.20    0.15 
  -4  -4  -5    1.17    0.15 
  -4  -4  -5    1.17    0.13 
  -4  -4  -5    1.00    0.14 
  -4  -4  -5    1.13    0.12 
   5   4   5   13.46    0.56 
   5   4   5   12.43    0.46 
  -5  -4  -5   13.12    0.52 
  -5  -4  -5   13.45    0.53 
  -5  -4  -5   13.09    0.51 
  -5  -4  -5   12.97    0.47 
   6   4   5    1.63    0.24 
   6   4   5    1.52    0.13 
   6   4   5    1.35    0.13 
  -6  -4  -5    1.33    0.21 
  -6  -4  -5    1.11    0.19 
   7   4   5    2.67    0.34 
   7   4   5    3.15    0.18 
   7   4   5    3.23    0.19 
  -7  -4  -5    2.16    0.31 
  -7  -4  -5    2.89    0.31 
   8   4   5    0.29    0.09 
   8   4   5    0.14    0.08 
   8   4   5   -0.04    0.12 
  -8  -4  -5    0.39    0.19 
  -8  -4  -5   -0.11    0.14 
   6  -3  -6    0.46    0.16 
  -5   3   6   -0.05    0.13 
  -5   3   6    0.27    0.13 
  -4   3   6    0.34    0.11 
  -4   3   6    0.23    0.12 
  -4   3   6    0.01    0.08 
   4  -3  -6    0.13    0.10 
   4  -3  -6    0.17    0.09 
  -3   3   6    4.16    0.30 
  -3   3   6    4.19    0.27 
  -3   3   6    4.16    0.32 
   3  -3  -6    4.04    0.28 
   3  -3  -6    3.93    0.23 
  -2   3   6   -0.03    0.06 
  -2   3   6    0.05    0.06 
  -2   3   6    0.02    0.06 
   2  -3  -6    0.02    0.06 
   2  -3  -6    0.04    0.05 
  -1   3   6    0.01    0.04 
  -1   3   6    0.01    0.06 
  -1   3   6   -0.03    0.05 
   1  -3  -6    0.03    0.05 
   1  -3  -6    0.08    0.04 
   0   3   6   -0.03    0.05 
   0   3   6    0.08    0.04 
   0  -3  -6   -0.01    0.03 
   0  -3  -6    0.01    0.04 
   1   3   6   11.42    0.31 
   1   3   6   11.30    0.37 
  -1  -3  -6   11.41    0.35 
  -1  -3  -6   10.94    0.32 
  -1  -3  -6   11.26    0.39 
   2   3   6   16.98    0.44 
   2   3   6   17.32    0.51 
   2   3   6   16.74    0.50 
  -2  -3  -6   16.96    0.49 
  -2  -3  -6   16.39    0.52 
  -2  -3  -6   16.95    0.48 
  -2  -3  -6   16.98    0.53 
   3   3   6    0.40    0.06 
  -3  -3  -6    0.35    0.08 
  -3  -3  -6    0.36    0.09 
  -3  -3  -6    0.32    0.07 
  -3  -3  -6    0.30    0.08 
   4   3   6    0.27    0.08 
   4   3   6    0.21    0.06 
  -4  -3  -6    0.31    0.05 
  -4  -3  -6    0.35    0.08 
  -4  -3  -6    0.23    0.08 
  -4  -3  -6    0.25    0.08 
   5   3   6    4.79    0.28 
   5   3   6    4.70    0.32 
   5   3   6    5.09    0.22 
  -5  -3  -6    4.37    0.28 
  -5  -3  -6    3.99    0.28 
  -5  -3  -6    4.25    0.25 
   6   3   6    0.14    0.07 
   6   3   6   -0.06    0.08 
   6   3   6   -0.05    0.08 
  -6  -3  -6    0.05    0.12 
  -6  -3  -6    0.07    0.10 
   7   3   6    0.05    0.11 
   7   3   6    0.02    0.07 
  -7  -3  -6    0.05    0.12 
   8   3   6    0.76    0.15 
  -8  -3  -6    0.44    0.18 
  -6   2   7    0.20    0.18 
   6  -2  -7    0.38    0.16 
  -5   2   7    3.59    0.36 
  -5   2   7    4.69    0.45 
  -4   2   7    1.53    0.25 
  -4   2   7    1.45    0.21 
   4  -2  -7    1.18    0.20 
  -3   2   7    0.24    0.12 
  -3   2   7    0.39    0.13 
  -3   2   7    0.27    0.10 
   3  -2  -7    0.24    0.11 
   3  -2  -7    0.19    0.08 
  -2   2   7    0.97    0.16 
  -2   2   7    1.28    0.19 
  -2   2   7    1.26    0.17 
   2  -2  -7    1.22    0.17 
   2  -2  -7    1.20    0.13 
  -1   2   7    5.26    0.23 
  -1   2   7    5.68    0.32 
  -1   2   7    5.44    0.28 
   1  -2  -7    5.42    0.29 
   1  -2  -7    5.38    0.24 
   0   2   7    0.98    0.10 
   0   2   7    0.79    0.11 
   0   2   7    1.18    0.08 
   0  -2  -7    0.91    0.12 
   0  -2  -7    0.96    0.11 
   1   2   7   54.65    1.33 
   1   2   7   56.42    1.41 
   1   2   7   56.05    1.33 
  -1  -2  -7   56.23    1.36 
  -1  -2  -7   56.27    1.41 
  -1  -2  -7   54.34    1.42 
  -1  -2  -7   56.83    1.34 
   2   2   7    2.03    0.14 
   2   2   7    1.90    0.14 
   2   2   7    1.76    0.17 
  -2  -2  -7    1.60    0.16 
  -2  -2  -7    2.09    0.14 
  -2  -2  -7    1.91    0.14 
  -2  -2  -7    1.77    0.16 
   3   2   7   34.71    0.89 
   3   2   7   34.86    0.96 
   3   2   7   33.45    0.93 
  -3  -2  -7   34.21    0.96 
  -3  -2  -7   34.81    0.92 
  -3  -2  -7   34.07    0.98 
  -3  -2  -7   34.65    0.99 
   4   2   7    0.67    0.14 
   4   2   7    0.73    0.11 
  -4  -2  -7    0.68    0.12 
  -4  -2  -7    0.75    0.13 
  -4  -2  -7    0.91    0.15 
   5   2   7    3.43    0.29 
   5   2   7    3.00    0.20 
   5   2   7    3.44    0.26 
  -5  -2  -7    2.30    0.26 
  -5  -2  -7    2.76    0.27 
  -5  -2  -7    3.14    0.22 
   6   2   7    0.55    0.16 
   6   2   7    0.34    0.09 
   6   2   7    0.22    0.11 
  -6  -2  -7    0.43    0.13 
   7   2   7   -0.10    0.12 
   7   2   7    0.00    0.07 
  -7  -2  -7   -0.09    0.10 
  -8  -2  -7    0.04    0.16 
  -6   1   8    0.76    0.23 
  -5   1   8   -0.06    0.14 
  -5   1   8    0.11    0.13 
  -4   1   8    0.20    0.12 
  -4   1   8    0.63    0.18 
  -3   1   8    0.09    0.10 
  -3   1   8    0.06    0.11 
  -3   1   8    0.04    0.11 
   3  -1  -8    0.08    0.07 
  -2   1   8    9.67    0.38 
  -2   1   8    9.33    0.47 
  -2   1   8    9.36    0.35 
  -2   1   8    8.82    0.43 
  -2   1   8    9.45    0.47 
   2  -1  -8    9.31    0.44 
   2  -1  -8    9.95    0.39 
  -1   1   8    1.04    0.18 
  -1   1   8    0.58    0.13 
  -1   1   8    0.86    0.11 
  -1   1   8    1.15    0.13 
   1  -1  -8    0.93    0.13 
   1  -1  -8    1.03    0.17 
   0   1   8    0.99    0.15 
   0   1   8    1.38    0.13 
   0   1   8    1.25    0.13 
   0  -1  -8    1.05    0.12 
   0  -1  -8    0.85    0.13 
   1   1   8    0.41    0.11 
   1   1   8    0.30    0.08 
   1   1   8    0.44    0.08 
  -1  -1  -8    0.34    0.07 
  -1  -1  -8    0.28    0.09 
  -1  -1  -8    0.44    0.08 
  -1  -1  -8    0.38    0.10 
   2   1   8   21.22    0.70 
   2   1   8   22.59    0.65 
   2   1   8   21.74    0.63 
  -2  -1  -8   21.62    0.69 
  -2  -1  -8   21.48    0.64 
  -2  -1  -8   21.13    0.65 
   3   1   8    0.40    0.12 
   3   1   8    0.69    0.11 
   3   1   8    0.75    0.13 
  -3  -1  -8    0.41    0.10 
  -3  -1  -8    0.45    0.11 
  -3  -1  -8    0.41    0.10 
   4   1   8    5.02    0.29 
   4   1   8    4.88    0.26 
   4   1   8    5.64    0.33 
  -4  -1  -8    4.76    0.30 
  -4  -1  -8    5.00    0.31 
  -4  -1  -8    5.10    0.27 
   5   1   8    0.67    0.16 
   5   1   8    0.80    0.13 
   5   1   8    0.49    0.15 
  -5  -1  -8    0.52    0.16 
  -5  -1  -8    0.68    0.13 
   6   1   8    0.23    0.13 
   6   1   8    0.26    0.10 
   6   1   8    0.44    0.16 
  -6  -1  -8    0.33    0.14 
   7   1   8    0.15    0.21 
  -7  -1  -8   -0.02    0.12 
  -8  -1  -8    0.07    0.16 
  -5   0   9   -0.13    0.14 
  -5   0   9   -0.12    0.15 
  -4   0   9    0.01    0.12 
  -4   0   9   -0.11    0.10 
  -3   0   9   -0.04    0.09 
  -3   0   9    0.13    0.09 
  -3   0   9    0.15    0.13 
   3   0  -9   -0.10    0.07 
  -2   0   9    1.72    0.19 
  -2   0   9    1.90    0.21 
  -2   0   9    1.77    0.23 
  -2   0   9    1.96    0.28 
  -2   0   9    2.28    0.29 
   2   0  -9    1.65    0.20 
  -1   0   9   14.26    0.58 
  -1   0   9   13.47    0.60 
  -1   0   9   14.07    0.50 
  -1   0   9   13.96    0.49 
   1   0  -9   13.21    0.48 
   0   0   9    6.59    0.31 
   0   0   9    6.18    0.36 
   0   0   9    6.68    0.31 
   0   0  -9    6.42    0.30 
   0   0  -9    6.47    0.34 
   1   0   9    0.07    0.07 
   1   0   9    0.07    0.06 
   1   0   9    0.24    0.08 
  -1   0  -9    0.08    0.10 
  -1   0  -9    0.04    0.08 
  -1   0  -9    0.05    0.05 
   2   0   9    3.63    0.23 
   2   0   9    3.59    0.27 
   2   0   9    4.01    0.24 
  -2   0  -9    3.59    0.22 
  -2   0  -9    3.72    0.26 
  -2   0  -9    3.49    0.18 
   3   0   9    0.03    0.06 
   3   0   9    0.21    0.09 
   3   0   9    0.23    0.11 
  -3   0  -9    0.12    0.07 
  -3   0  -9    0.23    0.05 
  -3   0  -9    0.10    0.08 
   4   0   9    0.03    0.09 
   4   0   9    0.12    0.10 
   4   0   9    0.04    0.07 
  -4   0  -9    0.18    0.09 
  -4   0  -9    0.15    0.11 
   5   0   9    1.33    0.22 
   5   0   9    1.26    0.20 
   5   0   9    1.63    0.20 
  -5   0  -9    1.80    0.25 
  -5   0  -9    1.69    0.20 
   6   0   9    0.34    0.15 
   6   0   9    0.08    0.14 
  -6   0  -9    0.03    0.12 
   7   0   9   -0.01    0.15 
  -7   0  -9   -0.01    0.14 
  -4  -1  10    0.33    0.15 
  -4  -1  10    0.38    0.15 
  -4  -1  10    0.50    0.20 
  -3  -1  10    0.61    0.19 
  -3  -1  10    0.72    0.18 
  -3  -1  10    0.80    0.18 
   3   1 -10    1.14    0.18 
  -2  -1  10    0.02    0.08 
  -2  -1  10   -0.04    0.08 
   2   1 -10    0.05    0.07 
  -1  -1  10    7.89    0.46 
  -1  -1  10    8.51    0.40 
   1   1 -10    7.60    0.36 
   1   1 -10    8.01    0.43 
   0  -1  10    7.49    0.43 
   0  -1  10    7.12    0.38 
   0   1 -10    7.52    0.35 
   0   1 -10    7.23    0.34 
   0   1 -10    7.66    0.40 
   1  -1  10   56.03    1.58 
   1  -1  10   56.31    1.50 
  -1   1 -10   56.04    1.46 
  -1   1 -10   56.77    1.45 
  -1   1 -10   57.75    1.55 
   2  -1  10   13.29    0.59 
   2  -1  10   13.71    0.53 
  -2   1 -10   13.03    0.46 
  -2   1 -10   13.02    0.56 
  -2   1 -10   13.07    0.50 
   3  -1  10    4.55    0.31 
   3  -1  10    5.03    0.30 
   3  -1  10    4.95    0.36 
  -3   1 -10    4.55    0.33 
  -3   1 -10    4.71    0.29 
  -3   1 -10    4.63    0.23 
   4  -1  10    0.17    0.13 
   4  -1  10    0.28    0.11 
  -4   1 -10    0.25    0.13 
  -4   1 -10    0.38    0.12 
   5  -1  10    0.50    0.18 
   5  -1  10    0.91    0.19 
  -5   1 -10    1.05    0.21 
  -5   1 -10    0.89    0.17 
   6  -1  10    0.28    0.16 
   6  -1  10   -0.04    0.13 
  -6   1 -10    0.20    0.17 
   7  -1  10    0.15    0.20 
   7  -1  10   -0.04    0.13 
  -7   1 -10   -0.10    0.15 
  -3  -2  11    2.32    0.33 
  -3  -2  11    2.48    0.32 
  -3  -2  11    2.06    0.31 
   3   2 -11    2.74    0.27 
   3   2 -11    2.37    0.30 
  -2  -2  11    0.91    0.19 
  -2  -2  11    0.75    0.21 
   2   2 -11    0.86    0.20 
   2   2 -11    0.45    0.11 
   2   2 -11    0.83    0.18 
  -1  -2  11    0.09    0.11 
  -1  -2  11    0.16    0.11 
   1   2 -11    0.09    0.08 
   1   2 -11    0.10    0.07 
   1   2 -11    0.18    0.12 
   0  -2  11    0.58    0.16 
   0  -2  11    0.72    0.18 
   0   2 -11    0.77    0.15 
   0   2 -11    0.77    0.16 
   0   2 -11    0.86    0.15 
   1  -2  11    0.17    0.12 
   1  -2  11    0.48    0.15 
  -1   2 -11    0.73    0.16 
  -1   2 -11    0.47    0.12 
  -1   2 -11    0.59    0.13 
   2  -2  11    4.82    0.34 
   2  -2  11    4.68    0.36 
  -2   2 -11    4.64    0.28 
  -2   2 -11    4.12    0.26 
  -2   2 -11    4.42    0.34 
   3  -2  11    1.64    0.27 
   3  -2  11    1.45    0.22 
  -3   2 -11    1.35    0.21 
  -3   2 -11    1.66    0.21 
   4  -2  11    0.05    0.12 
   4  -2  11    0.07    0.13 
  -4   2 -11    0.06    0.08 
  -4   2 -11    0.05    0.11 
   5  -2  11    0.46    0.19 
   5  -2  11    0.32    0.15 
  -5   2 -11    0.28    0.15 
  -5   2 -11    0.56    0.18 
   6  -2  11    0.10    0.14 
   6  -2  11    0.15    0.20 
  -6   2 -11    0.26    0.20 
  -2  -3  12    0.14    0.16 
  -2  -3  12   -0.16    0.13 
   2   3 -12   -0.06    0.10 
   2   3 -12    0.15    0.09 
  -1  -3  12    0.61    0.19 
  -1  -3  12    0.58    0.20 
   1   3 -12    1.20    0.22 
   1   3 -12    0.85    0.16 
   1   3 -12    0.86    0.20 
   0  -3  12    0.34    0.16 
   0  -3  12    0.51    0.18 
   0   3 -12    0.33    0.15 
   0   3 -12    0.16    0.10 
   0   3 -12    0.56    0.13 
   1  -3  12    0.32    0.16 
   1  -3  12    0.36    0.16 
  -1   3 -12    0.25    0.11 
  -1   3 -12    0.21    0.15 
  -1   3 -12    0.48    0.12 
   2  -3  12   -0.02    0.12 
   2  -3  12    0.08    0.12 
  -2   3 -12    0.14    0.13 
  -2   3 -12   -0.04    0.07 
  -2   3 -12   -0.03    0.07 
   3  -3  12    0.42    0.20 
   3  -3  12    0.38    0.18 
  -3   3 -12    0.62    0.14 
  -3   3 -12    0.70    0.19 
   4  -3  12   -0.03    0.11 
   4  -3  12    0.12    0.16 
  -4   3 -12    0.02    0.08 
  -4   3 -12    0.08    0.13 
   2 -10   0   -0.03    0.08 
   2 -10   0   -0.04    0.10 
   1 -10   0    0.37    0.15 
   0 -10   0    0.53    0.17 
  -1 -10   0    2.04    0.30 
  -2 -10   0    4.52    0.48 
   4  -9  -1    0.38    0.14 
   3  -9  -1    0.54    0.13 
   3  -9  -1    0.45    0.12 
   2  -9  -1    0.02    0.08 
   2  -9  -1   -0.01    0.07 
   1  -9  -1    0.22    0.10 
   0  -9  -1    0.50    0.13 
  -1  -9  -1    0.15    0.11 
   4   9   1    0.12    0.08 
  -4  -9  -1    0.28    0.09 
   5  -8  -2    0.06    0.14 
  -4   8   2    8.73    0.48 
   4  -8  -2    8.83    0.40 
   4  -8  -2    8.01    0.44 
  -3   8   2    7.27    0.40 
   3  -8  -2    7.28    0.34 
   3  -8  -2    8.17    0.39 
  -2   8   2    3.55    0.24 
   2  -8  -2    4.39    0.36 
   2  -8  -2    3.89    0.24 
   2  -8  -2    4.36    0.25 
   1  -8  -2    4.90    0.28 
   0  -8  -2    0.72    0.15 
  -1  -8  -2    0.02    0.07 
  -1  -8  -2    0.05    0.08 
   4   8   2    0.19    0.09 
  -4  -8  -2    0.24    0.07 
   5   8   2    0.10    0.10 
  -5  -8  -2    0.15    0.09 
   6   8   2    0.07    0.10 
  -6  -8  -2   -0.10    0.08 
   5  -7  -3    0.38    0.16 
  -4   7   3    1.18    0.22 
   4  -7  -3    1.19    0.15 
   4  -7  -3    1.10    0.19 
  -3   7   3    6.32    0.36 
   3  -7  -3    6.66    0.28 
   3  -7  -3    6.40    0.34 
  -2   7   3    2.50    0.20 
   2  -7  -3    2.44    0.16 
   2  -7  -3    2.72    0.20 
   2  -7  -3    2.18    0.18 
  -1   7   3    0.03    0.06 
   1  -7  -3    0.02    0.04 
   1  -7  -3   -0.02    0.05 
   0  -7  -3    5.32    0.27 
   0  -7  -3    5.70    0.32 
  -1  -7  -3   24.22    0.73 
   3   7   3    0.56    0.09 
  -3  -7  -3    0.40    0.08 
   4   7   3    1.35    0.17 
  -4  -7  -3    1.38    0.16 
  -4  -7  -3    1.67    0.17 
  -4  -7  -3    1.21    0.14 
   5   7   3    0.38    0.12 
  -5  -7  -3    0.66    0.13 
   6   7   3    0.14    0.11 
  -6  -7  -3    0.45    0.12 
   6  -6  -4    5.12    0.42 
   5  -6  -4   -0.02    0.10 
  -4   6   4    8.91    0.48 
   4  -6  -4    9.07    0.45 
  -3   6   4    1.31    0.20 
   3  -6  -4    1.20    0.17 
  -2   6   4    1.02    0.16 
   2  -6  -4    0.99    0.13 
  -1   6   4    0.57    0.10 
  -1   6   4    0.38    0.13 
   1  -6  -4    0.50    0.09 
   0   6   4    0.95    0.10 
   0   6   4    0.80    0.15 
   0  -6  -4    0.61    0.12 
   0  -6  -4    0.93    0.12 
   1   6   4    0.51    0.11 
   3   6   4    2.01    0.15 
  -3  -6  -4    1.97    0.13 
  -3  -6  -4    1.80    0.13 
  -3  -6  -4    1.80    0.14 
   4   6   4    0.78    0.14 
  -4  -6  -4    0.80    0.13 
  -4  -6  -4    0.93    0.13 
  -4  -6  -4    0.72    0.12 
   5   6   4    0.27    0.11 
  -5  -6  -4    0.07    0.08 
  -5  -6  -4    0.31    0.09 
   6   6   4    0.00    0.09 
  -6  -6  -4   -0.04    0.07 
  -6  -6  -4   -0.03    0.08 
   7   6   4    0.41    0.15 
  -7  -6  -4    0.15    0.14 
   6  -5  -5    0.00    0.12 
   5  -5  -5    6.34    0.41 
  -4   5   5    0.77    0.20 
  -4   5   5    1.31    0.23 
  -4   5   5    0.56    0.15 
  -3   5   5    7.33    0.38 
  -3   5   5    6.78    0.30 
   3  -5  -5    5.88    0.33 
  -2   5   5    0.83    0.16 
  -2   5   5    0.96    0.15 
  -2   5   5    0.90    0.10 
   2  -5  -5    1.09    0.14 
  -1   5   5    0.63    0.11 
  -1   5   5    0.48    0.12 
   1  -5  -5    0.82    0.11 
   0   5   5    2.26    0.20 
   0  -5  -5    2.53    0.15 
   1   5   5    0.18    0.08 
  -1  -5  -5    0.11    0.04 
   2   5   5    1.67    0.14 
  -2  -5  -5    1.73    0.12 
  -2  -5  -5    1.69    0.12 
  -3  -5  -5    0.68    0.10 
  -3  -5  -5    0.58    0.09 
   4   5   5    1.43    0.18 
  -4  -5  -5    1.17    0.15 
  -4  -5  -5    1.52    0.16 
  -4  -5  -5    0.93    0.13 
  -4  -5  -5    1.33    0.16 
   5   5   5    0.52    0.10 
   5   5   5    0.42    0.12 
  -5  -5  -5    0.57    0.13 
  -5  -5  -5    0.35    0.10 
  -5  -5  -5    0.37    0.11 
  -5  -5  -5    0.66    0.13 
   6   5   5    0.82    0.18 
  -6  -5  -5    0.83    0.18 
  -6  -5  -5    0.64    0.14 
   7   5   5    0.74    0.21 
  -7  -5  -5    1.25    0.23 
  -7  -5  -5    0.82    0.19 
   6  -4  -6    0.00    0.10 
  -5   4   6   -0.06    0.13 
  -4   4   6    0.02    0.12 
  -4   4   6    0.05    0.11 
  -4   4   6   -0.01    0.07 
   4  -4  -6    0.04    0.09 
  -3   4   6    0.68    0.17 
  -3   4   6    0.74    0.16 
  -3   4   6    0.86    0.13 
   3  -4  -6    0.48    0.11 
   3  -4  -6    0.74    0.12 
  -2   4   6   12.82    0.51 
  -2   4   6   13.48    0.58 
  -2   4   6   12.30    0.44 
   2  -4  -6   12.89    0.43 
   2  -4  -6   12.91    0.49 
  -1   4   6    6.08    0.26 
  -1   4   6    6.30    0.31 
  -1   4   6    6.62    0.36 
   1  -4  -6    6.53    0.29 
   1  -4  -6    6.08    0.24 
   0   4   6    1.53    0.20 
   0   4   6    1.52    0.11 
   0  -4  -6    1.61    0.11 
   0  -4  -6    1.51    0.14 
   1   4   6    2.25    0.12 
   1   4   6    2.77    0.20 
  -1  -4  -6    2.48    0.13 
  -1  -4  -6    2.60    0.16 
  -1  -4  -6    2.56    0.12 
   2   4   6    1.33    0.10 
   2   4   6    1.22    0.10 
  -2  -4  -6    1.11    0.12 
  -2  -4  -6    1.61    0.15 
  -2  -4  -6    1.33    0.12 
  -2  -4  -6    1.38    0.10 
   3   4   6    7.19    0.27 
  -3  -4  -6    7.37    0.30 
  -3  -4  -6    7.22    0.27 
  -3  -4  -6    7.13    0.31 
  -3  -4  -6    7.54    0.32 
   4   4   6    6.83    0.29 
  -4  -4  -6    7.27    0.33 
  -4  -4  -6    7.17    0.33 
  -4  -4  -6    6.53    0.26 
  -4  -4  -6    7.03    0.29 
   5   4   6    0.24    0.11 
   5   4   6    0.18    0.09 
  -5  -4  -6    0.08    0.08 
  -5  -4  -6    0.10    0.08 
  -5  -4  -6    0.12    0.07 
   6   4   6    0.10    0.05 
   6   4   6    0.09    0.05 
   6   4   6    0.08    0.11 
  -6  -4  -6    0.13    0.09 
   7   4   6    2.16    0.16 
   7   4   6    1.99    0.17 
   7   4   6    1.94    0.32 
  -7  -4  -6    2.53    0.30 
   8   4   6   -0.11    0.14 
   8   4   6    0.06    0.06 
   8   4   6   -0.06    0.07 
  -8  -4  -6   -0.04    0.15 
  -6   3   7    1.35    0.30 
   6  -3  -7    1.09    0.22 
  -5   3   7    0.38    0.18 
  -4   3   7    0.25    0.11 
  -4   3   7    0.17    0.13 
  -3   3   7    0.73    0.18 
  -3   3   7    0.63    0.14 
  -3   3   7    0.69    0.15 
   3  -3  -7    0.68    0.14 
   3  -3  -7    0.60    0.12 
  -2   3   7    0.89    0.14 
  -2   3   7    0.82    0.18 
  -2   3   7    0.84    0.16 
   2  -3  -7    0.77    0.14 
   2  -3  -7    0.70    0.11 
  -1   3   7    5.30    0.32 
  -1   3   7    4.73    0.25 
  -1   3   7    5.35    0.30 
   1  -3  -7    5.39    0.28 
   1  -3  -7    5.01    0.23 
   0   3   7    0.87    0.15 
   0   3   7    1.09    0.13 
   0  -3  -7    1.24    0.12 
   0  -3  -7    1.11    0.14 
   1   3   7    4.12    0.17 
  -1  -3  -7    4.51    0.20 
  -1  -3  -7    4.37    0.18 
  -1  -3  -7    4.17    0.23 
   2   3   7    0.35    0.06 
  -2  -3  -7    0.31    0.07 
  -2  -3  -7    0.32    0.07 
  -2  -3  -7    0.35    0.08 
  -2  -3  -7    0.22    0.07 
   3   3   7    0.04    0.04 
   3   3   7    0.00    0.05 
  -3  -3  -7   -0.04    0.04 
  -3  -3  -7    0.00    0.06 
  -3  -3  -7    0.03    0.05 
  -3  -3  -7    0.10    0.05 
   4   3   7    2.70    0.21 
   4   3   7    2.69    0.16 
  -4  -3  -7    2.67    0.12 
  -4  -3  -7    2.63    0.21 
  -4  -3  -7    3.19    0.22 
  -4  -3  -7    2.60    0.18 
   5   3   7    0.03    0.05 
   5   3   7    0.07    0.09 
   5   3   7    0.14    0.09 
  -5  -3  -7    0.16    0.08 
  -5  -3  -7    0.13    0.07 
  -5  -3  -7   -0.04    0.06 
   6   3   7    0.03    0.06 
   6   3   7   -0.01    0.10 
   6   3   7   -0.10    0.09 
  -6  -3  -7   -0.10    0.08 
   7   3   7    0.00    0.07 
   7   3   7   -0.13    0.11 
  -7  -3  -7   -0.04    0.11 
   8   3   7    0.06    0.09 
  -8  -3  -7   -0.03    0.14 
  -6   2   8    0.02    0.18 
  -5   2   8    0.03    0.16 
  -5   2   8    0.49    0.19 
  -4   2   8    0.61    0.20 
  -4   2   8    0.63    0.17 
  -3   2   8    0.45    0.16 
  -3   2   8    0.30    0.11 
  -3   2   8    0.50    0.15 
   3  -2  -8    0.43    0.10 
  -2   2   8    1.79    0.26 
  -2   2   8    1.32    0.20 
  -2   2   8    1.13    0.17 
   2  -2  -8    0.75    0.15 
   2  -2  -8    1.51    0.17 
  -1   2   8    3.78    0.28 
  -1   2   8    3.56    0.25 
  -1   2   8    3.90    0.21 
   1  -2  -8    3.16    0.20 
   1  -2  -8    3.86    0.26 
   0   2   8    0.21    0.08 
   0   2   8    0.24    0.05 
   0   2   8    0.15    0.06 
   0  -2  -8    0.08    0.05 
   0  -2  -8    0.06    0.06 
   1   2   8    0.02    0.06 
   1   2   8    0.01    0.04 
   1   2   8    0.03    0.04 
  -1  -2  -8    0.02    0.04 
  -1  -2  -8    0.02    0.05 
  -1  -2  -8    0.00    0.06 
  -1  -2  -8   -0.04    0.03 
   2   2   8    0.56    0.12 
   2   2   8    0.74    0.09 
   2   2   8    0.39    0.09 
  -2  -2  -8    0.55    0.09 
  -2  -2  -8    0.43    0.10 
  -2  -2  -8    0.60    0.10 
  -2  -2  -8    0.51    0.10 
   3   2   8   27.44    0.83 
   3   2   8   27.75    0.75 
   3   2   8   26.89    0.79 
  -3  -2  -8   25.90    0.84 
  -3  -2  -8   28.64    0.84 
  -3  -2  -8   27.00    0.78 
   4   2   8    1.57    0.15 
   4   2   8    0.99    0.15 
  -4  -2  -8    1.33    0.17 
  -4  -2  -8    1.84    0.19 
  -4  -2  -8    1.72    0.22 
   5   2   8    3.19    0.21 
   5   2   8    3.34    0.35 
   5   2   8    3.31    0.27 
  -5  -2  -8    4.23    0.30 
  -5  -2  -8    3.16    0.27 
  -5  -2  -8    3.52    0.24 
   6   2   8    0.25    0.12 
   6   2   8    0.16    0.13 
   6   2   8    0.44    0.11 
  -6  -2  -8    0.53    0.17 
   7   2   8   -0.02    0.08 
   7   2   8    0.14    0.12 
  -7  -2  -8   -0.01    0.12 
  -8  -2  -8    0.08    0.16 
  -5   1   9   -0.21    0.13 
  -5   1   9    0.28    0.17 
  -4   1   9    2.65    0.34 
  -4   1   9    2.17    0.29 
  -3   1   9    1.61    0.19 
  -3   1   9    1.32    0.24 
  -3   1   9    1.80    0.25 
   3  -1  -9    1.94    0.21 
  -2   1   9    0.05    0.10 
  -2   1   9    0.29    0.14 
  -2   1   9    0.10    0.07 
  -2   1   9    0.24    0.08 
  -2   1   9    0.20    0.09 
   2  -1  -9    0.24    0.09 
  -1   1   9    0.24    0.10 
  -1   1   9    0.20    0.08 
  -1   1   9    0.40    0.09 
  -1   1   9    0.43    0.14 
   1  -1  -9    0.32    0.10 
   1  -1  -9    0.31    0.10 
   0   1   9   42.06    1.10 
   0   1   9   41.69    1.07 
   0   1   9   41.64    1.20 
   0  -1  -9   41.22    1.19 
   0  -1  -9   41.70    1.11 
   1   1   9   16.69    0.52 
   1   1   9   17.26    0.61 
   1   1   9   17.10    0.54 
  -1  -1  -9   15.81    0.60 
  -1  -1  -9   16.46    0.54 
  -1  -1  -9   16.60    0.55 
  -1  -1  -9   17.05    0.60 
   2   1   9   -0.03    0.06 
   2   1   9   -0.01    0.08 
   2   1   9   -0.02    0.05 
  -2  -1  -9   -0.08    0.06 
  -2  -1  -9    0.02    0.05 
  -2  -1  -9    0.04    0.06 
   3   1   9    1.18    0.17 
   3   1   9    1.22    0.19 
   3   1   9    1.08    0.14 
  -3  -1  -9    1.10    0.18 
  -3  -1  -9    1.35    0.16 
  -3  -1  -9    1.13    0.18 
   4   1   9    6.35    0.35 
   4   1   9    6.70    0.38 
   4   1   9    6.81    0.31 
  -4  -1  -9    6.42    0.37 
  -4  -1  -9    6.78    0.33 
   5   1   9    0.09    0.07 
   5   1   9    0.11    0.10 
   5   1   9    0.09    0.10 
  -5  -1  -9    0.19    0.11 
   6   1   9    1.15    0.23 
   6   1   9    1.20    0.17 
   6   1   9    1.42    0.23 
  -6  -1  -9    1.43    0.25 
  -7  -1  -9    0.02    0.13 
  -5   0  10    0.05    0.17 
  -4   0  10    0.07    0.12 
  -4   0  10    0.07    0.12 
  -4   0  10    0.23    0.17 
  -3   0  10   -0.06    0.10 
  -3   0  10   -0.06    0.09 
  -3   0  10   -0.01    0.11 
  -2   0  10   -0.07    0.07 
  -2   0  10   -0.11    0.08 
  -2   0  10    0.09    0.09 
  -2   0  10   -0.10    0.09 
   2   0 -10   -0.02    0.07 
  -1   0  10    2.22    0.21 
  -1   0  10    2.05    0.22 
  -1   0  10    2.38    0.27 
   1   0 -10    2.40    0.22 
   0   0  10    2.15    0.21 
   0   0  10    1.59    0.22 
   0   0  10    1.77    0.18 
   0   0 -10    1.70    0.22 
   0   0 -10    1.93    0.19 
   1   0  10   25.74    0.77 
   1   0  10   25.70    0.87 
   1   0  10   25.72    0.78 
  -1   0 -10   24.67    0.76 
  -1   0 -10   25.82    0.84 
   2   0  10    1.09    0.16 
   2   0  10    1.19    0.19 
   2   0  10    1.31    0.18 
  -2   0 -10    1.49    0.22 
  -2   0 -10    1.29    0.14 
  -2   0 -10    1.21    0.16 
   3   0  10    0.32    0.11 
   3   0  10    0.11    0.08 
   3   0  10    0.04    0.10 
  -3   0 -10    0.23    0.09 
  -3   0 -10    0.33    0.07 
  -3   0 -10    0.23    0.11 
   4   0  10    0.43    0.15 
   4   0  10    0.13    0.09 
   4   0  10    0.34    0.13 
  -4   0 -10    0.34    0.13 
  -4   0 -10    0.44    0.11 
   5   0  10    1.12    0.22 
   5   0  10    1.01    0.20 
  -5   0 -10    1.09    0.20 
   6   0  10    0.04    0.15 
   6   0  10    0.29    0.14 
  -6   0 -10    0.04    0.12 
  -7   0 -10   -0.11    0.13 
  -4  -1  11    0.15    0.19 
  -4  -1  11   -0.06    0.14 
  -4  -1  11   -0.05    0.14 
  -3  -1  11    0.39    0.14 
  -3  -1  11    0.01    0.15 
  -3  -1  11    0.05    0.13 
  -2  -1  11    0.03    0.10 
  -2  -1  11    0.10    0.10 
   2   1 -11    0.08    0.08 
  -1  -1  11    0.84    0.17 
  -1  -1  11    0.91    0.17 
   1   1 -11    0.61    0.16 
   1   1 -11    0.80    0.15 
   1   1 -11    1.09    0.17 
   0  -1  11    1.69    0.24 
   0  -1  11    1.82    0.23 
   0   1 -11    1.62    0.23 
   0   1 -11    1.80    0.20 
   0   1 -11    1.83    0.20 
   1  -1  11    3.92    0.29 
   1  -1  11    3.28    0.33 
  -1   1 -11    3.95    0.26 
  -1   1 -11    3.95    0.25 
  -1   1 -11    3.98    0.32 
   2  -1  11    1.35    0.23 
   2  -1  11    1.70    0.24 
  -2   1 -11    1.52    0.17 
  -2   1 -11    1.83    0.22 
  -2   1 -11    1.42    0.22 
   3  -1  11   21.41    0.82 
   3  -1  11   20.66    0.75 
  -3   1 -11   20.07    0.63 
  -3   1 -11   21.44    0.78 
  -3   1 -11   20.56    0.71 
   4  -1  11    0.79    0.20 
   4  -1  11    0.95    0.18 
  -4   1 -11    0.89    0.20 
  -4   1 -11    1.02    0.18 
   5  -1  11    1.77    0.26 
   5  -1  11    1.61    0.26 
  -5   1 -11    1.75    0.27 
   6  -1  11    0.22    0.14 
   6  -1  11    0.29    0.17 
  -6   1 -11    0.24    0.16 
  -2  -2  12    0.13    0.13 
  -2  -2  12    0.31    0.16 
   2   2 -12    0.16    0.10 
   2   2 -12    0.58    0.18 
   2   2 -12    0.30    0.17 
  -1  -2  12    3.66    0.41 
  -1  -2  12    3.41    0.35 
   1   2 -12    2.95    0.31 
   1   2 -12    2.94    0.27 
   1   2 -12    2.70    0.32 
   0  -2  12    0.90    0.19 
   0  -2  12    0.79    0.20 
   0   2 -12    0.82    0.19 
   0   2 -12    1.14    0.18 
   0   2 -12    1.13    0.19 
   1  -2  12    0.30    0.14 
   1  -2  12    0.36    0.15 
  -1   2 -12    0.18    0.09 
  -1   2 -12    0.34    0.15 
  -1   2 -12    0.16    0.09 
   2  -2  12    0.53    0.16 
   2  -2  12    0.50    0.17 
  -2   2 -12    0.63    0.17 
  -2   2 -12    0.52    0.13 
  -2   2 -12    0.38    0.12 
   3  -2  12    0.16    0.14 
   3  -2  12    0.30    0.13 
  -3   2 -12    0.31    0.11 
  -3   2 -12    0.21    0.13 
   4  -2  12    0.09    0.14 
   4  -2  12    0.24    0.16 
  -4   2 -12    0.28    0.15 
  -4   2 -12    0.09    0.10 
   5  -2  12    0.02    0.15 
   5  -2  12   -0.12    0.11 
  -5   2 -12    0.12    0.15 
   0  -3  13   -0.03    0.14 
   0  -3  13    0.04    0.17 
   0   3 -13   -0.03    0.13 
   0   3 -13   -0.10    0.08 
   0   3 -13    0.14    0.10 
   1  -3  13    0.25    0.16 
   1  -3  13    0.23    0.16 
  -1   3 -13    0.03    0.08 
  -1   3 -13    0.03    0.13 
  -1   3 -13    0.04    0.09 
   2  -3  13    0.24    0.17 
   2  -3  13    0.36    0.17 
  -2   3 -13    0.45    0.13 
  -2   3 -13    0.31    0.16 
  -2   3 -13    0.25    0.12 
   3  -3  13    0.22    0.20 
   3  -3  13    0.02    0.13 
  -3   3 -13    0.06    0.09 
  -3   3 -13    0.18    0.16 
   2 -10  -1    0.39    0.11 
   2 -10  -1    0.12    0.12 
   1 -10  -1    0.08    0.11 
   0 -10  -1    0.01    0.11 
  -1 -10  -1    0.89    0.22 
  -2 -10  -1    0.25    0.15 
   4  -9  -2    0.16    0.12 
   3  -9  -2    0.53    0.14 
   3  -9  -2    0.40    0.13 
   2  -9  -2    0.54    0.11 
   2  -9  -2    0.15    0.09 
   1  -9  -2    0.33    0.11 
   0  -9  -2    0.48    0.13 
  -1  -9  -2   -0.06    0.08 
   4   9   2    0.01    0.07 
  -4  -9  -2    0.02    0.06 
   5   9   2   -0.08    0.07 
  -5  -9  -2   -0.01    0.08 
   5  -8  -3   -0.15    0.11 
  -4   8   3    0.58    0.19 
   4  -8  -3    0.91    0.18 
  -3   8   3    1.51    0.22 
   3  -8  -3    1.57    0.20 
   3  -8  -3    1.70    0.17 
  -2   8   3   10.84    0.43 
   2  -8  -3   10.75    0.39 
   2  -8  -3   10.18    0.41 
   1  -8  -3    3.90    0.24 
   0  -8  -3    6.09    0.32 
  -1  -8  -3    4.19    0.25 
   4   8   3    1.94    0.20 
  -4  -8  -3    2.20    0.18 
   5   8   3    2.19    0.25 
  -5  -8  -3    2.10    0.22 
   6   8   3    0.06    0.10 
  -6  -8  -3    0.01    0.08 
   5  -7  -4    0.91    0.21 
  -4   7   4    0.65    0.19 
   4  -7  -4    0.70    0.16 
  -3   7   4    3.30    0.27 
  -2   7   4    1.89    0.20 
   2  -7  -4    1.89    0.19 
  -1   7   4    6.03    0.27 
   1  -7  -4    5.69    0.24 
   1  -7  -4    5.75    0.25 
   0  -7  -4    0.20    0.07 
  -1  -7  -4    0.19    0.08 
   3   7   4    2.87    0.18 
  -3  -7  -4    2.93    0.17 
  -3  -7  -4    3.00    0.17 
   4   7   4    0.26    0.09 
  -4  -7  -4   -0.01    0.06 
  -4  -7  -4    0.13    0.07 
  -4  -7  -4    0.16    0.07 
   5   7   4    0.06    0.08 
  -5  -7  -4    0.03    0.06 
  -5  -7  -4   -0.09    0.06 
   6   7   4    1.39    0.22 
  -6  -7  -4    1.17    0.19 
  -6  -7  -4    0.85    0.16 
   5  -6  -5    0.38    0.13 
  -4   6   5   15.00    0.68 
  -3   6   5    0.07    0.09 
   3  -6  -5    0.10    0.11 
  -2   6   5    9.06    0.49 
  -2   6   5    8.18    0.38 
   2  -6  -5    7.79    0.35 
  -1   6   5    0.18    0.08 
  -1   6   5    0.04    0.09 
   1  -6  -5    0.22    0.06 
   0   6   5    3.10    0.25 
   0   6   5    2.78    0.17 
   0  -6  -5    2.71    0.15 
   0  -6  -5    2.81    0.22 
   1   6   5    1.54    0.18 
  -1  -6  -5    1.28    0.10 
   2   6   5    0.89    0.13 
  -2  -6  -5    0.74    0.09 
  -2  -6  -5    0.65    0.08 
  -3  -6  -5    4.47    0.22 
  -3  -6  -5    4.67    0.22 
   4   6   5    0.07    0.07 
  -4  -6  -5    0.01    0.05 
  -4  -6  -5   -0.07    0.04 
  -4  -6  -5   -0.02    0.05 
   5   6   5    0.42    0.12 
  -5  -6  -5    0.68    0.13 
  -5  -6  -5    0.61    0.12 
   6   6   5    0.17    0.11 
  -6  -6  -5    0.06    0.09 
  -6  -6  -5   -0.01    0.08 
   7   6   5   -0.01    0.11 
  -7  -6  -5   -0.04    0.10 
  -7  -6  -5    0.14    0.12 
   6  -5  -6   -0.02    0.13 
  -4   5   6    0.61    0.20 
  -3   5   6   11.03    0.43 
  -3   5   6   10.72    0.58 
  -3   5   6   11.04    0.51 
   3  -5  -6   11.10    0.48 
   3  -5  -6   10.94    0.42 
  -2   5   6    1.59    0.20 
  -2   5   6    1.69    0.14 
  -2   5   6    1.84    0.26 
   2  -5  -6    1.84    0.21 
   2  -5  -6    1.54    0.15 
  -1   5   6   12.22    0.54 
  -1   5   6   12.15    0.46 
   1  -5  -6   12.07    0.44 
   1  -5  -6   12.73    0.39 
   0   5   6    3.55    0.26 
   0  -5  -6    4.62    0.19 
   0  -5  -6    3.85    0.21 
   1   5   6    1.97    0.20 
  -1  -5  -6    2.40    0.13 
  -1  -5  -6    2.30    0.15 
   2   5   6   -0.01    0.05 
  -2  -5  -6    0.02    0.03 
  -2  -5  -6    0.02    0.04 
  -2  -5  -6   -0.04    0.04 
   3   5   6    1.49    0.15 
  -3  -5  -6    1.45    0.16 
  -3  -5  -6    1.50    0.15 
   4   5   6    4.81    0.29 
  -4  -5  -6    4.65    0.26 
  -4  -5  -6    4.87    0.26 
  -4  -5  -6    4.30    0.24 
   5   5   6    0.16    0.08 
   5   5   6    0.25    0.11 
  -5  -5  -6    0.01    0.08 
  -5  -5  -6    0.16    0.08 
  -5  -5  -6    0.24    0.11 
   6   5   6    0.40    0.15 
  -6  -5  -6    0.43    0.13 
   7   5   6   -0.01    0.11 
  -7  -5  -6   -0.08    0.09 
   6  -4  -7    3.52    0.40 
  -5   4   7    0.47    0.23 
  -4   4   7    2.65    0.38 
  -4   4   7    2.16    0.32 
  -3   4   7    0.35    0.15 
  -3   4   7    0.50    0.12 
  -3   4   7    0.65    0.16 
   3  -4  -7    0.33    0.12 
   3  -4  -7    0.36    0.10 
  -2   4   7    0.09    0.10 
  -2   4   7    0.00    0.05 
  -2   4   7    0.10    0.08 
   2  -4  -7    0.15    0.07 
   2  -4  -7    0.07    0.07 
  -1   4   7   -0.01    0.04 
  -1   4   7   -0.06    0.06 
  -1   4   7   -0.03    0.06 
   1  -4  -7    0.02    0.05 
   1  -4  -7   -0.01    0.05 
   0   4   7    6.28    0.34 
   0   4   7    6.34    0.26 
   0  -4  -7    6.22    0.25 
   0  -4  -7    6.67    0.30 
   1   4   7   10.76    0.36 
   1   4   7   11.31    0.45 
  -1  -4  -7   10.65    0.35 
  -1  -4  -7   11.12    0.40 
   2   4   7    1.86    0.14 
  -2  -4  -7    1.98    0.13 
  -2  -4  -7    2.04    0.16 
  -2  -4  -7    1.95    0.14 
  -2  -4  -7    2.05    0.16 
   3   4   7    0.78    0.11 
  -3  -4  -7    1.08    0.15 
  -3  -4  -7    0.80    0.12 
  -3  -4  -7    0.89    0.12 
  -3  -4  -7    0.84    0.11 
   4   4   7    4.38    0.25 
  -4  -4  -7    4.20    0.23 
  -4  -4  -7    4.46    0.26 
  -4  -4  -7    4.38    0.21 
  -4  -4  -7    4.60    0.27 
   5   4   7    6.52    0.39 
   5   4   7    6.53    0.33 
   5   4   7    6.41    0.24 
  -5  -4  -7    6.02    0.35 
  -5  -4  -7    6.09    0.32 
  -5  -4  -7    7.00    0.36 
   6   4   7    0.11    0.06 
   6   4   7    0.00    0.10 
  -6  -4  -7    0.11    0.10 
   7   4   7    0.57    0.10 
   7   4   7    0.42    0.16 
  -7  -4  -7    0.50    0.16 
  -5   3   8    1.86    0.32 
  -4   3   8    1.08    0.25 
  -4   3   8    1.03    0.19 
  -3   3   8    0.44    0.12 
  -3   3   8    0.50    0.16 
  -3   3   8    0.12    0.10 
   3  -3  -8    0.60    0.15 
  -2   3   8    5.66    0.35 
  -2   3   8    5.52    0.31 
  -2   3   8    5.09    0.37 
   2  -3  -8    4.63    0.31 
   2  -3  -8    5.49    0.27 
  -1   3   8    0.38    0.10 
  -1   3   8    0.38    0.12 
  -1   3   8    0.28    0.10 
   1  -3  -8    0.16    0.07 
   1  -3  -8    0.36    0.09 
   0   3   8    1.25    0.16 
   0   3   8    1.31    0.18 
   0  -3  -8    1.34    0.14 
   0  -3  -8    1.46    0.18 
   1   3   8    6.44    0.24 
   1   3   8    6.93    0.31 
  -1  -3  -8    6.24    0.27 
  -1  -3  -8    6.51    0.24 
  -1  -3  -8    6.34    0.31 
   2   3   8    0.27    0.06 
   2   3   8    0.16    0.07 
  -2  -3  -8    0.38    0.08 
  -2  -3  -8    0.11    0.05 
  -2  -3  -8    0.14    0.07 
  -2  -3  -8    0.15    0.07 
   3   3   8    0.03    0.06 
   3   3   8    0.09    0.04 
  -3  -3  -8    0.00    0.05 
  -3  -3  -8    0.02    0.04 
  -3  -3  -8    0.05    0.06 
   4   3   8    0.60    0.09 
   4   3   8    0.38    0.10 
  -4  -3  -8    0.49    0.11 
  -4  -3  -8    0.35    0.10 
  -4  -3  -8    0.49    0.07 
  -4  -3  -8    0.66    0.15 
   5   3   8   -0.03    0.04 
   5   3   8    0.11    0.10 
   5   3   8   -0.02    0.10 
  -5  -3  -8    0.07    0.09 
  -5  -3  -8    0.04    0.08 
   6   3   8    0.25    0.08 
   6   3   8    0.49    0.16 
  -6  -3  -8    0.24    0.13 
   7   3   8    0.27    0.13 
   7   3   8    0.04    0.08 
  -7  -3  -8    0.12    0.14 
  -5   2   9   -0.12    0.13 
  -4   2   9    0.33    0.15 
  -4   2   9    0.33    0.18 
  -3   2   9    0.74    0.20 
  -3   2   9    1.20    0.20 
  -2   2   9    1.22    0.18 
  -2   2   9    1.70    0.24 
  -2   2   9    1.58    0.25 
   2  -2  -9    1.33    0.21 
   2  -2  -9    1.83    0.19 
  -1   2   9    1.04    0.13 
  -1   2   9    0.88    0.17 
  -1   2   9    1.47    0.22 
  -1   2   9    1.95    0.22 
   1  -2  -9    1.49    0.21 
   1  -2  -9    1.79    0.18 
   0   2   9    0.28    0.09 
   0   2   9    0.38    0.08 
   0   2   9    0.41    0.07 
   0  -2  -9    0.26    0.09 
   0  -2  -9    0.32    0.08 
   1   2   9    4.42    0.21 
   1   2   9    4.38    0.22 
   1   2   9    4.62    0.28 
  -1  -2  -9    3.80    0.26 
  -1  -2  -9    4.13    0.23 
  -1  -2  -9    3.88    0.26 
  -1  -2  -9    4.52    0.22 
   2   2   9    0.18    0.07 
   2   2   9    0.19    0.07 
   2   2   9    0.20    0.09 
  -2  -2  -9    0.26    0.09 
  -2  -2  -9    0.10    0.08 
  -2  -2  -9    0.05    0.05 
  -2  -2  -9    0.10    0.07 
   3   2   9    0.43    0.09 
   3   2   9    0.40    0.10 
   3   2   9    0.38    0.11 
  -3  -2  -9    0.25    0.08 
  -3  -2  -9    0.36    0.11 
  -3  -2  -9    0.47    0.10 
   4   2   9    0.68    0.15 
   4   2   9    0.82    0.11 
  -4  -2  -9    0.67    0.11 
  -4  -2  -9    0.84    0.16 
  -4  -2  -9    0.45    0.11 
   5   2   9    7.41    0.33 
   5   2   9    7.14    0.40 
  -5  -2  -9    7.21    0.41 
   6   2   9   -0.01    0.12 
   6   2   9   -0.08    0.08 
   6   2   9    0.24    0.10 
  -6  -2  -9   -0.08    0.09 
   7   2   9    1.74    0.21 
  -7  -2  -9    2.75    0.32 
  -5   1  10   -0.01    0.18 
  -4   1  10   -0.06    0.10 
  -4   1  10   -0.18    0.12 
  -4   1  10   -0.11    0.12 
  -3   1  10    0.03    0.10 
  -3   1  10    0.07    0.12 
  -3   1  10    0.09    0.09 
  -2   1  10    5.96    0.32 
  -2   1  10    6.21    0.39 
  -2   1  10    5.54    0.41 
  -2   1  10    6.21    0.29 
   2  -1 -10    6.02    0.32 
  -1   1  10    0.39    0.10 
  -1   1  10    0.22    0.09 
  -1   1  10    0.29    0.15 
  -1   1  10    0.35    0.12 
   1  -1 -10    0.45    0.11 
   0   1  10    4.86    0.32 
   0   1  10    4.99    0.25 
   0   1  10    4.82    0.27 
   0  -1 -10    5.10    0.27 
   1   1  10    3.64    0.28 
   1   1  10    3.79    0.22 
   1   1  10    3.80    0.23 
  -1  -1 -10    3.81    0.24 
  -1  -1 -10    4.03    0.28 
  -1  -1 -10    3.77    0.30 
   2   1  10   22.05    0.69 
   2   1  10   21.69    0.76 
   2   1  10   23.06    0.68 
  -2  -1 -10   21.16    0.69 
  -2  -1 -10   21.75    0.75 
  -2  -1 -10   22.05    0.81 
   3   1  10    0.78    0.13 
   3   1  10    0.94    0.16 
   3   1  10    0.67    0.16 
  -3  -1 -10    0.72    0.09 
  -3  -1 -10    0.39    0.13 
  -3  -1 -10    0.70    0.12 
   4   1  10   -0.08    0.07 
   4   1  10    0.13    0.10 
   4   1  10   -0.04    0.08 
  -4  -1 -10   -0.03    0.08 
  -4  -1 -10   -0.01    0.07 
   5   1  10    0.40    0.10 
   5   1  10    0.28    0.14 
   5   1  10    0.13    0.11 
  -5  -1 -10    0.30    0.12 
   6   1  10    1.52    0.25 
  -6  -1 -10    2.28    0.30 
  -7  -1 -10    0.98    0.25 
  -4   0  11    0.20    0.17 
  -4   0  11    0.46    0.22 
  -3   0  11    0.06    0.14 
  -3   0  11    0.06    0.11 
  -3   0  11   -0.03    0.11 
  -2   0  11    0.38    0.17 
  -2   0  11    0.32    0.12 
  -2   0  11    0.21    0.12 
  -1   0  11    0.51    0.14 
  -1   0  11    0.51    0.14 
   1   0 -11    0.54    0.13 
   0   0  11    0.11    0.09 
   0   0  11    0.18    0.09 
   0   0  11   -0.11    0.09 
   0   0 -11    0.05    0.07 
   0   0 -11    0.08    0.10 
   1   0  11    0.28    0.11 
   1   0  11    0.14    0.10 
   1   0  11    0.10    0.09 
  -1   0 -11    0.06    0.10 
  -1   0 -11    0.02    0.06 
   2   0  11    6.75    0.41 
   2   0  11    5.60    0.32 
   2   0  11    6.24    0.33 
  -2   0 -11    6.09    0.28 
  -2   0 -11    6.07    0.37 
  -2   0 -11    5.57    0.31 
   3   0  11    8.48    0.47 
   3   0  11    9.27    0.41 
   3   0  11    8.79    0.43 
  -3   0 -11    8.33    0.40 
  -3   0 -11    9.48    0.48 
  -3   0 -11    8.65    0.33 
   4   0  11    2.98    0.31 
   4   0  11    2.89    0.30 
  -4   0 -11    2.74    0.30 
   5   0  11    1.85    0.26 
   5   0  11    1.49    0.25 
  -5   0 -11    1.68    0.27 
   6   0  11   -0.02    0.12 
   6   0  11    0.01    0.14 
  -6   0 -11   -0.02    0.12 
  -3  -1  12   -0.03    0.15 
  -3  -1  12    0.19    0.15 
  -3  -1  12    0.15    0.14 
   3   1 -12   -0.01    0.11 
  -2  -1  12    0.39    0.16 
  -2  -1  12    0.50    0.16 
   2   1 -12    0.28    0.12 
  -1  -1  12    0.17    0.14 
  -1  -1  12    0.12    0.12 
   1   1 -12    0.23    0.13 
   1   1 -12   -0.03    0.08 
   1   1 -12    0.29    0.12 
   0  -1  12    0.00    0.10 
   0  -1  12    0.03    0.12 
   0   1 -12    0.04    0.07 
   0   1 -12   -0.03    0.06 
   0   1 -12   -0.10    0.09 
   1  -1  12   -0.01    0.09 
   1  -1  12    0.08    0.11 
  -1   1 -12    0.01    0.06 
  -1   1 -12    0.10    0.08 
  -1   1 -12    0.06    0.12 
   2  -1  12    2.93    0.30 
   2  -1  12    2.54    0.29 
  -2   1 -12    2.78    0.31 
  -2   1 -12    2.92    0.21 
  -2   1 -12    2.56    0.26 
   3  -1  12    5.24    0.41 
   3  -1  12    4.67    0.34 
  -3   1 -12    5.08    0.45 
  -3   1 -12    4.69    0.26 
  -3   1 -12    4.98    0.37 
   4  -1  12    2.44    0.32 
   4  -1  12    2.69    0.31 
  -4   1 -12    2.98    0.33 
   5  -1  12    5.79    0.42 
   5  -1  12    7.25    0.51 
  -5   1 -12    6.73    0.47 
  -1  -2  13    0.65    0.20 
  -1  -2  13    0.44    0.18 
   1   2 -13    0.37    0.17 
   1   2 -13    0.76    0.18 
   0  -2  13    0.45    0.19 
   0  -2  13    0.32    0.15 
   0   2 -13    0.29    0.10 
   0   2 -13    0.18    0.12 
   0   2 -13    0.63    0.19 
   1  -2  13    0.71    0.20 
   1  -2  13    0.70    0.19 
  -1   2 -13    0.99    0.18 
  -1   2 -13    0.96    0.22 
  -1   2 -13    0.72    0.16 
   2  -2  13    0.69    0.20 
   2  -2  13    0.52    0.18 
  -2   2 -13    0.65    0.15 
  -2   2 -13    0.58    0.18 
  -2   2 -13    0.68    0.15 
   3  -2  13    0.38    0.19 
   3  -2  13    0.05    0.12 
  -3   2 -13    0.09    0.14 
   4  -2  13    1.30    0.27 
   4  -2  13    0.87    0.21 
  -4   2 -13    1.12    0.24 
   2 -10  -2    0.14    0.09 
   1 -10  -2    0.21    0.12 
   0 -10  -2    0.83    0.19 
  -1 -10  -2    0.08    0.12 
  -2 -10  -2    0.06    0.11 
   4  -9  -3    0.15    0.13 
  -3   9   3   -0.03    0.11 
   3  -9  -3    0.14    0.10 
  -2   9   3    0.12    0.09 
   2  -9  -3    0.18    0.08 
   2  -9  -3    0.11    0.08 
   1  -9  -3    2.46    0.21 
   0  -9  -3    2.52    0.27 
  -1  -9  -3    0.75    0.17 
  -4  -9  -3    0.35    0.09 
   5   9   3    0.10    0.09 
  -5  -9  -3    0.09    0.07 
   4  -8  -4    0.07    0.12 
  -3   8   4    0.22    0.13 
   3  -8  -4    0.33    0.12 
  -2   8   4    0.00    0.08 
  -1   8   4    0.83    0.13 
   1  -8  -4    0.79    0.12 
   0  -8  -4   13.73    0.49 
  -1  -8  -4    5.83    0.31 
   4   8   4    0.05    0.07 
  -4  -8  -4    0.05    0.07 
  -4  -8  -4    0.26    0.08 
   5   8   4   -0.03    0.07 
  -5  -8  -4   -0.18    0.07 
  -5  -8  -4    0.06    0.07 
   6   8   4    0.64    0.16 
  -6  -8  -4    0.59    0.15 
   5  -7  -5   -0.02    0.11 
   4  -7  -5    0.37    0.13 
  -3   7   5    1.08    0.20 
  -2   7   5    2.05    0.22 
   2  -7  -5    1.64    0.18 
  -1   7   5    0.07    0.07 
   1  -7  -5    0.05    0.05 
   0   7   5   -0.05    0.07 
   0   7   5    0.01    0.05 
   0  -7  -5    0.14    0.06 
   1   7   5    5.35    0.31 
   3   7   5    3.34    0.20 
  -3  -7  -5    2.88    0.17 
  -3  -7  -5    3.39    0.18 
   4   7   5    0.00    0.07 
  -4  -7  -5    0.00    0.06 
  -4  -7  -5    0.06    0.07 
  -4  -7  -5    0.00    0.05 
   5   7   5    2.01    0.24 
  -5  -7  -5    1.95    0.21 
  -5  -7  -5    1.90    0.22 
   6   7   5    0.07    0.10 
  -6  -7  -5    0.00    0.08 
  -6  -7  -5    0.10    0.09 
   5  -6  -6    0.58    0.17 
  -3   6   6    0.93    0.17 
  -3   6   6    1.46    0.28 
  -2   6   6   37.91    1.10 
  -2   6   6   37.43    1.23 
   2  -6  -6   37.80    1.07 
  -1   6   6    0.38    0.11 
  -1   6   6    0.31    0.13 
   1  -6  -6    0.25    0.08 
   0   6   6    9.44    0.46 
   0   6   6    9.59    0.37 
   0  -6  -6    9.83    0.35 
   1   6   6    0.70    0.14 
  -1  -6  -6    0.73    0.10 
   2   6   6    1.91    0.20 
  -2  -6  -6    2.15    0.14 
  -2  -6  -6    2.23    0.14 
   3   6   6    2.32    0.17 
  -3  -6  -6    2.43    0.17 
  -3  -6  -6    2.57    0.17 
   4   6   6    3.77    0.26 
  -4  -6  -6    3.87    0.24 
  -4  -6  -6    3.93    0.24 
   5   6   6    0.50    0.12 
  -5  -6  -6    0.46    0.12 
   6   6   6    0.01    0.10 
  -6  -6  -6    0.07    0.09 
   7   6   6    0.68    0.20 
  -7  -6  -6    0.25    0.14 
  -5   5   7   -0.01    0.16 
  -4   5   7    0.03    0.16 
  -3   5   7   10.08    0.44 
  -3   5   7    9.89    0.51 
  -3   5   7   11.20    0.60 
  -2   5   7    1.57    0.25 
  -2   5   7    1.42    0.16 
  -2   5   7    1.26    0.20 
   2  -5  -7    1.29    0.14 
   2  -5  -7    1.13    0.17 
  -1   5   7   20.33    0.69 
  -1   5   7   20.57    0.77 
  -1   5   7   21.97    0.60 
   1  -5  -7   20.79    0.67 
   1  -5  -7   19.81    0.59 
   0   5   7   10.75    0.49 
   0  -5  -7   10.16    0.39 
   0  -5  -7   10.22    0.34 
   1   5   7   10.24    0.45 
  -1  -5  -7   10.94    0.38 
  -1  -5  -7    9.66    0.37 
   2   5   7   -0.01    0.05 
  -2  -5  -7   -0.03    0.04 
  -2  -5  -7   -0.02    0.04 
  -2  -5  -7    0.06    0.05 
   3   5   7   -0.03    0.05 
  -3  -5  -7    0.04    0.05 
  -3  -5  -7    0.02    0.05 
   4   5   7    0.09    0.07 
  -4  -5  -7   -0.01    0.05 
  -4  -5  -7    0.17    0.08 
  -4  -5  -7    0.06    0.07 
   5   5   7    0.13    0.10 
  -5  -5  -7    0.34    0.13 
  -5  -5  -7    0.25    0.10 
   6   5   7    0.18    0.10 
  -6  -5  -7   -0.04    0.08 
   7   5   7    0.07    0.13 
  -7  -5  -7   -0.16    0.09 
  -5   4   8    0.19    0.17 
  -4   4   8    2.03    0.32 
  -3   4   8    2.68    0.33 
  -3   4   8    2.34    0.32 
  -3   4   8    1.85    0.21 
   3  -4  -8    2.95    0.45 
  -2   4   8    1.41    0.22 
  -2   4   8    2.49    0.22 
  -2   4   8    2.21    0.27 
   2  -4  -8    2.31    0.20 
   2  -4  -8    2.41    0.26 
  -1   4   8    0.10    0.09 
  -1   4   8    0.09    0.08 
  -1   4   8    0.08    0.05 
   1  -4  -8    0.20    0.07 
   1  -4  -8    0.04    0.07 
   0   4   8    2.07    0.23 
   0   4   8    2.41    0.17 
   0  -4  -8    2.41    0.16 
   0  -4  -8    2.14    0.21 
   1   4   8    0.11    0.06 
   1   4   8    0.13    0.09 
  -1  -4  -8    0.24    0.07 
  -1  -4  -8    0.22    0.08 
   2   4   8    3.38    0.20 
  -2  -4  -8    3.06    0.17 
  -2  -4  -8    2.92    0.20 
  -2  -4  -8    3.04    0.18 
  -2  -4  -8    3.03    0.20 
   3   4   8    4.79    0.25 
  -3  -4  -8    4.82    0.24 
  -3  -4  -8    4.90    0.27 
  -3  -4  -8    4.79    0.27 
   4   4   8    0.44    0.10 
  -4  -4  -8    0.36    0.09 
  -4  -4  -8    0.51    0.11 
  -4  -4  -8    0.35    0.10 
   5   4   8    1.36    0.22 
   5   4   8    0.93    0.15 
   5   4   8    1.34    0.12 
  -5  -4  -8    1.35    0.19 
   6   4   8    0.02    0.05 
   6   4   8    0.12    0.12 
  -6  -4  -8   -0.10    0.09 
   7   4   8    0.01    0.07 
   7   4   8    0.07    0.12 
  -7  -4  -8    0.18    0.15 
  -5   3   9    0.14    0.18 
  -4   3   9    1.67    0.29 
  -3   3   9    1.81    0.23 
  -3   3   9    2.29    0.32 
  -2   3   9    2.08    0.23 
  -2   3   9    1.78    0.25 
  -2   3   9    1.33    0.22 
   2  -3  -9    2.46    0.27 
   2  -3  -9    2.39    0.22 
  -1   3   9    1.49    0.24 
  -1   3   9    1.71    0.20 
  -1   3   9    1.62    0.24 
   1  -3  -9    1.49    0.16 
   1  -3  -9    1.66    0.20 
   0   3   9    0.04    0.05 
   0   3   9    0.02    0.06 
   0   3   9   -0.01    0.08 
   0  -3  -9    0.03    0.07 
   0  -3  -9    0.04    0.05 
   1   3   9    0.67    0.09 
   1   3   9    0.84    0.13 
   1   3   9    0.92    0.11 
  -1  -3  -9    0.74    0.13 
  -1  -3  -9    0.76    0.11 
  -1  -3  -9    0.71    0.10 
  -1  -3  -9    0.69    0.12 
   2   3   9    0.13    0.06 
   2   3   9    0.25    0.09 
  -2  -3  -9    0.18    0.07 
  -2  -3  -9    0.11    0.07 
  -2  -3  -9    0.10    0.07 
  -2  -3  -9    0.31    0.08 
   3   3   9    0.90    0.15 
   3   3   9    0.74    0.10 
  -3  -3  -9    0.82    0.15 
  -3  -3  -9    1.09    0.14 
  -3  -3  -9    0.89    0.14 
   4   3   9   -0.09    0.07 
   4   3   9    0.06    0.06 
  -4  -3  -9    0.00    0.06 
  -4  -3  -9    0.04    0.06 
  -4  -3  -9    0.04    0.08 
   5   3   9    0.06    0.06 
   5   3   9    0.01    0.10 
  -5  -3  -9    0.06    0.09 
  -5  -3  -9   -0.06    0.09 
   6   3   9    1.00    0.14 
   6   3   9    1.37    0.25 
  -6  -3  -9    1.03    0.20 
   7   3   9   -0.26    0.11 
   7   3   9    0.02    0.08 
  -7  -3  -9    0.24    0.15 
  -5   2  10   -0.12    0.16 
  -4   2  10    0.13    0.15 
  -3   2  10    0.26    0.13 
  -3   2  10    0.54    0.19 
  -2   2  10    0.01    0.08 
  -2   2  10   -0.05    0.10 
  -1   2  10    0.70    0.15 
  -1   2  10    1.08    0.15 
  -1   2  10    1.08    0.19 
  -1   2  10    0.98    0.21 
   1  -2 -10    0.83    0.14 
   1  -2 -10    1.00    0.18 
   0   2  10    7.75    0.29 
   0   2  10    6.94    0.38 
   0   2  10    7.70    0.32 
   0  -2 -10    7.75    0.34 
   0  -2 -10    6.78    0.38 
   1   2  10    0.11    0.07 
   1   2  10    0.08    0.06 
   1   2  10    0.15    0.10 
  -1  -2 -10    0.10    0.07 
  -1  -2 -10    0.02    0.07 
  -1  -2 -10    0.19    0.10 
  -1  -2 -10    0.03    0.06 
   2   2  10    0.06    0.09 
   2   2  10   -0.02    0.06 
   2   2  10    0.00    0.05 
  -2  -2 -10    0.08    0.08 
  -2  -2 -10   -0.04    0.06 
  -2  -2 -10    0.12    0.08 
   3   2  10    2.91    0.26 
   3   2  10    3.32    0.21 
   3   2  10    3.41    0.23 
  -3  -2 -10    2.87    0.21 
  -3  -2 -10    2.97    0.30 
  -3  -2 -10    2.39    0.24 
   4   2  10    0.64    0.15 
   4   2  10    0.60    0.15 
   4   2  10    0.86    0.13 
  -4  -2 -10    0.74    0.16 
  -4  -2 -10    0.65    0.15 
   5   2  10    1.66    0.18 
   5   2  10    1.56    0.21 
  -5  -2 -10    2.02    0.25 
   6   2  10    0.03    0.08 
   6   2  10    0.19    0.14 
  -6  -2 -10   -0.28    0.08 
  -7  -2 -10    0.77    0.23 
  -4   1  11   -0.06    0.15 
  -3   1  11    0.23    0.14 
  -3   1  11    0.12    0.16 
  -3   1  11    0.28    0.11 
  -2   1  11   -0.08    0.11 
  -2   1  11    0.12    0.09 
  -2   1  11    0.01    0.10 
  -1   1  11    0.91    0.18 
  -1   1  11    1.06    0.16 
  -1   1  11    1.21    0.16 
   0   1  11    0.93    0.15 
   0   1  11    0.84    0.18 
   0   1  11    0.81    0.14 
   0  -1 -11    1.18    0.16 
   0  -1 -11    0.94    0.17 
   1   1  11    1.56    0.22 
   1   1  11    1.16    0.16 
   1   1  11    1.21    0.16 
  -1  -1 -11    1.50    0.18 
  -1  -1 -11    1.66    0.22 
   2   1  11    0.24    0.10 
   2   1  11    0.42    0.10 
   2   1  11    0.23    0.11 
  -2  -1 -11    0.31    0.12 
  -2  -1 -11    0.14    0.08 
   3   1  11    0.12    0.12 
   3   1  11    0.15    0.10 
   3   1  11    0.03    0.09 
  -3  -1 -11    0.21    0.10 
  -3  -1 -11    0.16    0.06 
  -3  -1 -11    0.11    0.10 
   4   1  11    5.06    0.37 
   4   1  11    6.07    0.32 
   4   1  11    4.88    0.34 
  -4  -1 -11    6.08    0.38 
   5   1  11    0.44    0.15 
   5   1  11    0.33    0.15 
   5   1  11    0.33    0.11 
  -5  -1 -11    0.41    0.15 
  -6  -1 -11    0.07    0.13 
  -7  -1 -11   -0.11    0.15 
  -3   0  12    0.81    0.23 
  -3   0  12    0.29    0.16 
  -3   0  12    0.56    0.21 
  -2   0  12    0.62    0.18 
  -2   0  12    0.51    0.18 
  -2   0  12    0.63    0.16 
  -1   0  12    0.18    0.12 
  -1   0  12    0.05    0.09 
   1   0 -12    0.33    0.14 
   0   0  12    0.03    0.09 
   0   0  12    0.06    0.11 
   0   0 -12   -0.01    0.10 
   1   0  12    0.14    0.10 
   1   0  12    0.04    0.10 
  -1   0 -12    0.13    0.10 
  -1   0 -12    0.33    0.13 
   2   0  12   -0.01    0.08 
   2   0  12   -0.02    0.09 
  -2   0 -12    0.10    0.07 
  -2   0 -12    0.10    0.11 
   3   0  12    3.40    0.37 
   3   0  12    2.99    0.30 
  -3   0 -12    2.97    0.19 
  -3   0 -12    2.79    0.31 
   4   0  12    0.89    0.21 
   4   0  12    0.73    0.18 
  -4   0 -12    0.63    0.18 
   5   0  12    1.86    0.27 
   5   0  12    2.38    0.31 
  -5   0 -12    1.75    0.27 
   6   0  12    0.90    0.22 
  -6   0 -12    0.99    0.23 
  -2  -1  13   -0.10    0.12 
  -2  -1  13   -0.07    0.12 
  -2  -1  13    0.12    0.18 
   2   1 -13    0.06    0.10 
   2   1 -13    0.12    0.15 
  -1  -1  13    0.77    0.20 
  -1  -1  13    0.69    0.18 
   1   1 -13    0.36    0.17 
   1   1 -13    0.51    0.15 
   0  -1  13    0.69    0.19 
   0  -1  13    1.50    0.23 
   0   1 -13    0.80    0.16 
   0   1 -13    0.58    0.18 
   1  -1  13    0.16    0.12 
   1  -1  13    0.03    0.12 
  -1   1 -13    0.21    0.15 
  -1   1 -13    0.29    0.10 
   2  -1  13    0.17    0.13 
   2  -1  13    0.19    0.14 
  -2   1 -13    0.12    0.13 
  -2   1 -13    0.14    0.08 
   3  -1  13   -0.06    0.12 
   3  -1  13    0.07    0.12 
  -3   1 -13    0.01    0.12 
   4  -1  13    1.02    0.24 
   4  -1  13    0.78    0.20 
  -4   1 -13    1.06    0.23 
   5  -1  13    1.97    0.35 
   5  -1  13    2.67    0.34 
  -5   1 -13    2.96    0.37 
   2 -10  -3    0.03    0.09 
   1 -10  -3    0.06    0.11 
   0 -10  -3    0.37    0.13 
  -1 -10  -3    0.35    0.14 
  -2 -10  -3    0.04    0.10 
  -3   9   4    0.60    0.17 
   3  -9  -4    0.60    0.15 
  -2   9   4    0.01    0.08 
   2  -9  -4   -0.01    0.07 
   1  -9  -4    0.52    0.12 
   0  -9  -4    0.15    0.09 
  -1  -9  -4    3.07    0.30 
   4   9   4    0.04    0.06 
  -4  -9  -4    0.04    0.05 
   5   9   4    0.02    0.08 
  -5  -9  -4    0.12    0.07 
   4  -8  -5   -0.04    0.10 
  -3   8   5    0.27    0.14 
  -2   8   5    0.23    0.11 
  -1   8   5    1.05    0.14 
   1  -8  -5    1.00    0.13 
   0  -8  -5    0.19    0.07 
   3   8   5    2.66    0.17 
   4   8   5    1.27    0.17 
  -4  -8  -5    1.25    0.16 
  -4  -8  -5    1.16    0.15 
   5   8   5    0.27    0.11 
  -5  -8  -5    0.19    0.10 
  -5  -8  -5    0.23    0.09 
   6   8   5    0.14    0.10 
  -6  -8  -5   -0.13    0.08 
  -6  -8  -5   -0.04    0.07 
   5  -7  -6    0.20    0.14 
  -3   7   6    0.18    0.12 
  -2   7   6    0.88    0.16 
  -2   7   6    0.65    0.19 
  -1   7   6   11.67    0.45 
  -1   7   6   11.65    0.57 
   1  -7  -6   11.57    0.43 
   0   7   6    5.84    0.38 
   0   7   6    5.96    0.27 
   0  -7  -6    6.15    0.26 
   1   7   6   -0.04    0.08 
  -1  -7  -6   -0.02    0.04 
   2   7   6    0.37    0.10 
  -2  -7  -6    0.44    0.08 
  -2  -7  -6    0.45    0.08 
  -3  -7  -6   11.36    0.41 
  -3  -7  -6   11.54    0.40 
   4   7   6    1.30    0.18 
  -4  -7  -6    1.64    0.18 
   5   7   6    0.01    0.09 
  -5  -7  -6   -0.06    0.07 
   6   7   6    0.05    0.10 
  -6  -7  -6    0.04    0.09 
  -4   6   7   -0.02    0.15 
  -3   6   7    1.20    0.21 
  -3   6   7    1.07    0.23 
  -2   6   7   19.12    0.70 
  -2   6   7   19.89    0.82 
   2  -6  -7   19.65    0.81 
  -1   6   7    0.11    0.10 
  -1   6   7    0.06    0.10 
   1  -6  -7    0.08    0.08 
   0   6   7   55.54    1.41 
   0   6   7   53.07    1.52 
   0  -6  -7   52.99    1.37 
   1   6   7    0.14    0.11 
  -1  -6  -7   -0.03    0.05 
   2   6   7    5.53    0.31 
  -2  -6  -7    5.44    0.26 
  -2  -6  -7    5.66    0.26 
  -2  -6  -7    5.71    0.25 
   3   6   7    3.07    0.22 
  -3  -6  -7    3.05    0.20 
  -3  -6  -7    3.12    0.21 
  -4  -6  -7    4.93    0.30 
  -4  -6  -7    5.66    0.30 
   5   6   7    0.07    0.08 
  -5  -6  -7    0.12    0.09 
   6   6   7    0.01    0.11 
  -6  -6  -7   -0.08    0.08 
   7   6   7    0.03    0.12 
  -7  -6  -7    0.07    0.11 
  -5   5   8   -0.15    0.14 
  -4   5   8    0.32    0.18 
  -3   5   8    1.29    0.26 
  -2   5   8    0.17    0.14 
  -2   5   8    0.00    0.07 
  -2   5   8    0.05    0.10 
   2  -5  -8    0.12    0.11 
   2  -5  -8   -0.04    0.09 
  -1   5   8   11.00    0.56 
  -1   5   8   12.16    0.51 
  -1   5   8   11.85    0.42 
   1  -5  -8   11.85    0.48 
   1  -5  -8   11.93    0.42 
   0   5   8    2.86    0.17 
   0   5   8    2.62    0.28 
   0  -5  -8    2.45    0.17 
   0  -5  -8    2.59    0.23 
   1   5   8   17.82    0.67 
   1   5   8   18.21    0.51 
  -1  -5  -8   19.34    0.55 
  -1  -5  -8   18.85    0.61 
   2   5   8    1.72    0.21 
  -2  -5  -8    2.09    0.20 
  -2  -5  -8    1.89    0.14 
  -2  -5  -8    1.59    0.18 
  -2  -5  -8    2.07    0.20 
   3   5   8    1.95    0.15 
   3   5   8    1.93    0.21 
  -3  -5  -8    1.76    0.18 
  -3  -5  -8    2.16    0.21 
  -3  -5  -8    2.53    0.22 
   4   5   8    0.05    0.07 
  -4  -5  -8   -0.10    0.07 
  -4  -5  -8   -0.07    0.06 
  -4  -5  -8    0.05    0.07 
   5   5   8    0.12    0.09 
  -5  -5  -8    0.17    0.10 
   6   5   8    0.31    0.14 
  -6  -5  -8   -0.06    0.10 
   7   5   8    0.11    0.15 
  -7  -5  -8    0.16    0.11 
  -5   4   9   -0.03    0.15 
  -4   4   9    0.42    0.21 
  -3   4   9    0.99    0.24 
  -2   4   9    5.35    0.41 
  -2   4   9    4.74    0.35 
  -2   4   9    5.00    0.30 
   2  -4  -9    4.45    0.32 
  -1   4   9    2.75    0.22 
  -1   4   9    3.15    0.27 
  -1   4   9    2.95    0.31 
   1  -4  -9    3.31    0.25 
   1  -4  -9    3.17    0.21 
   0   4   9    0.50    0.13 
   0   4   9    0.32    0.08 
   0  -4  -9    0.67    0.11 
   0  -4  -9    0.37    0.11 
   1   4   9    0.09    0.09 
   1   4   9    0.04    0.07 
  -1  -4  -9    0.09    0.06 
  -1  -4  -9    0.20    0.07 
   2   4   9    1.55    0.10 
   2   4   9    1.49    0.16 
  -2  -4  -9    1.47    0.16 
  -2  -4  -9    1.99    0.22 
  -2  -4  -9    1.56    0.19 
  -2  -4  -9    2.00    0.14 
   3   4   9    0.28    0.09 
   3   4   9    0.27    0.06 
  -3  -4  -9    0.18    0.08 
  -3  -4  -9    0.29    0.10 
  -3  -4  -9    0.18    0.07 
   4   4   9    1.94    0.13 
   4   4   9    1.77    0.20 
  -4  -4  -9    2.21    0.25 
  -4  -4  -9    1.93    0.22 
  -4  -4  -9    2.17    0.23 
   5   4   9    0.40    0.08 
  -5  -4  -9    0.11    0.09 
   6   4   9    0.69    0.11 
   6   4   9    0.33    0.16 
  -6  -4  -9    0.68    0.18 
   7   4   9    0.30    0.16 
   7   4   9   -0.09    0.05 
  -7  -4  -9    0.19    0.15 
  -4   3  10    0.72    0.24 
  -3   3  10    2.39    0.35 
  -2   3  10    6.10    0.44 
  -2   3  10    5.65    0.37 
   2  -3 -10    5.41    0.44 
  -1   3  10   12.52    0.60 
  -1   3  10    8.78    0.50 
  -1   3  10   11.87    0.51 
   1  -3 -10   12.26    0.51 
   1  -3 -10   11.41    0.52 
   0   3  10    1.94    0.25 
   0   3  10    1.53    0.18 
   0   3  10    1.92    0.16 
   0  -3 -10    2.09    0.19 
   0  -3 -10    2.12    0.24 
   1   3  10    1.85    0.14 
   1   3  10    2.22    0.16 
   1   3  10    1.86    0.21 
  -1  -3 -10    2.39    0.26 
  -1  -3 -10    2.45    0.16 
  -1  -3 -10    2.26    0.19 
  -1  -3 -10    2.32    0.24 
   2   3  10    2.26    0.16 
   2   3  10    1.98    0.19 
   2   3  10    1.93    0.21 
  -2  -3 -10    2.00    0.20 
  -2  -3 -10    2.17    0.23 
  -2  -3 -10    1.63    0.17 
  -2  -3 -10    1.74    0.21 
   3   3  10    0.18    0.07 
   3   3  10    0.07    0.09 
  -3  -3 -10    0.24    0.11 
  -3  -3 -10    0.30    0.12 
  -3  -3 -10    0.13    0.07 
   4   3  10    0.34    0.08 
   4   3  10    0.34    0.13 
  -4  -3 -10    0.30    0.12 
  -4  -3 -10    0.26    0.11 
   5   3  10    0.30    0.09 
  -5  -3 -10    0.39    0.13 
   6   3  10    0.46    0.11 
   6   3  10    0.70    0.19 
  -6  -3 -10    0.53    0.17 
   7   3  10    0.04    0.16 
   7   3  10    0.31    0.10 
  -7  -3 -10    0.05    0.16 
  -4   2  11   -0.01    0.17 
  -3   2  11   -0.14    0.14 
  -2   2  11    2.42    0.29 
  -2   2  11    2.17    0.31 
  -1   2  11    0.26    0.13 
  -1   2  11    0.24    0.08 
  -1   2  11    0.20    0.11 
   0   2  11    2.82    0.20 
   0   2  11    2.38    0.25 
   0   2  11    2.83    0.18 
   1   2  11    6.34    0.28 
   1   2  11    5.66    0.36 
   1   2  11    6.15    0.30 
  -1  -2 -11    5.58    0.37 
  -1  -2 -11    6.61    0.38 
  -1  -2 -11    6.46    0.32 
   2   2  11    2.86    0.21 
   2   2  11    3.65    0.23 
   2   2  11    3.54    0.28 
  -2  -2 -11    3.67    0.29 
  -2  -2 -11    3.43    0.24 
  -2  -2 -11    3.75    0.29 
   3   2  11    0.02    0.10 
   3   2  11    0.16    0.09 
   3   2  11    0.11    0.07 
  -3  -2 -11    0.18    0.11 
   4   2  11    2.10    0.26 
   4   2  11    1.85    0.20 
   4   2  11    1.72    0.23 
  -4  -2 -11    1.39    0.22 
  -4  -2 -11    1.52    0.10 
   5   2  11    1.80    0.29 
   5   2  11    1.88    0.20 
  -5  -2 -11    1.77    0.25 
   6   2  11   -0.06    0.07 
  -6  -2 -11    0.24    0.14 
  -7  -2 -11    0.14    0.18 
  -3   1  12    0.20    0.17 
  -2   1  12    0.00    0.11 
  -2   1  12   -0.02    0.14 
  -2   1  12    0.06    0.09 
  -1   1  12    0.00    0.08 
  -1   1  12    0.06    0.08 
   0   1  12    1.49    0.24 
   0   1  12    1.59    0.19 
   0   1  12    1.81    0.19 
   0  -1 -12    1.43    0.23 
   1   1  12    2.60    0.29 
   1   1  12    3.33    0.23 
   1   1  12    2.60    0.24 
  -1  -1 -12    2.63    0.29 
   2   1  12    1.12    0.17 
   2   1  12    1.12    0.18 
   2   1  12    1.38    0.22 
  -2  -1 -12    1.23    0.21 
   3   1  12    0.33    0.13 
   3   1  12    0.10    0.09 
   3   1  12    0.41    0.13 
  -3  -1 -12    0.07    0.10 
  -3  -1 -12    0.16    0.07 
   4   1  12    0.07    0.09 
   4   1  12   -0.04    0.12 
   4   1  12    0.16    0.12 
  -4  -1 -12    0.16    0.12 
   5   1  12    0.00    0.10 
  -5  -1 -12    0.14    0.13 
  -6  -1 -12    0.59    0.19 
  -2   0  13    0.16    0.17 
  -2   0  13    0.01    0.14 
  -2   0  13    0.14    0.17 
  -1   0  13    0.48    0.17 
  -1   0  13    0.45    0.15 
   1   0 -13    0.54    0.19 
   0   0  13    0.01    0.12 
   0   0  13    0.16    0.10 
   0   0 -13    0.06    0.11 
   1   0  13   -0.03    0.10 
   1   0  13    0.07    0.12 
  -1   0 -13    0.05    0.11 
  -1   0 -13   -0.02    0.06 
   2   0  13    0.02    0.10 
   2   0  13   -0.02    0.11 
  -2   0 -13    0.20    0.13 
  -2   0 -13    0.00    0.06 
   3   0  13    0.46    0.16 
   3   0  13    0.42    0.14 
  -3   0 -13    0.07    0.12 
  -3   0 -13    0.38    0.15 
   4   0  13    0.73    0.22 
   4   0  13    0.64    0.16 
  -4   0 -13    0.44    0.18 
   5   0  13    1.59    0.26 
  -5   0 -13    1.71    0.28 
   0  -1  14    0.16    0.14 
   0  -1  14    0.13    0.17 
   0   1 -14    0.32    0.17 
   0   1 -14    0.22    0.11 
   1  -1  14    1.02    0.21 
   1  -1  14    0.68    0.21 
  -1   1 -14    0.63    0.15 
  -1   1 -14    0.64    0.20 
   2  -1  14    0.57    0.17 
   2  -1  14    0.49    0.19 
  -2   1 -14    0.36    0.12 
  -2   1 -14    0.80    0.21 
   3  -1  14    0.32    0.16 
   3  -1  14    0.68    0.23 
  -3   1 -14    0.30    0.16 
  -2  10   4    0.09    0.11 
   2 -10  -4    0.08    0.09 
   0 -10  -4    0.32    0.12 
  -1 -10  -4   -0.03    0.09 
  -3   9   5    0.10    0.13 
   3  -9  -5    0.24    0.13 
  -2   9   5    0.40    0.13 
  -1   9   5    0.12    0.08 
   0  -9  -5    0.33    0.09 
  -1  -9  -5   -0.03    0.07 
   4   9   5    0.24    0.08 
   5   9   5    0.60    0.13 
  -5  -9  -5    0.63    0.13 
  -5  -9  -5    0.21    0.09 
   4  -8  -6   -0.05    0.12 
  -3   8   6    0.05    0.12 
  -2   8   6    0.31    0.12 
  -1   8   6    0.01    0.07 
   0   8   6    0.46    0.10 
   0  -8  -6    0.53    0.10 
   3   8   6    4.48    0.24 
  -3  -8  -6    4.29    0.22 
   4   8   6    6.45    0.32 
  -4  -8  -6    5.77    0.30 
   5   8   6    1.70    0.22 
  -5  -8  -6    1.15    0.17 
   6   8   6    0.22    0.13 
  -6  -8  -6    0.08    0.11 
  -3   7   7    0.07    0.14 
  -3   7   7   -0.01    0.12 
  -2   7   7    0.03    0.09 
  -2   7   7    0.13    0.12 
  -1   7   7    0.26    0.15 
  -1   7   7    0.61    0.13 
   1  -7  -7    0.51    0.13 
   0   7   7    0.44    0.12 
   0   7   7    0.54    0.16 
   0  -7  -7    0.40    0.10 
   1   7   7    5.47    0.35 
  -1  -7  -7    6.04    0.27 
   2   7   7    1.09    0.18 
  -2  -7  -7    1.21    0.14 
  -2  -7  -7    1.11    0.13 
   3   7   7   -0.03    0.07 
  -3  -7  -7    0.15    0.07 
  -3  -7  -7   -0.03    0.05 
   4   7   7    0.13    0.08 
  -4  -7  -7    0.15    0.07 
   5   7   7    1.39    0.21 
  -5  -7  -7    0.91    0.17 
   6   7   7    0.30    0.14 
  -6  -7  -7    0.42    0.12 
  -4   6   8    0.11    0.16 
  -3   6   8    0.19    0.15 
  -2   6   8    0.81    0.18 
  -2   6   8    0.82    0.22 
  -1   6   8    0.02    0.08 
  -1   6   8   -0.09    0.08 
   1  -6  -8   -0.07    0.06 
   0   6   8   22.94    0.75 
   0   6   8   23.25    0.85 
   0  -6  -8   23.45    0.72 
   1   6   8    0.00    0.09 
  -1  -6  -8   -0.01    0.06 
   2   6   8   39.33    1.13 
  -2  -6  -8   38.04    0.98 
  -2  -6  -8   37.32    1.04 
  -2  -6  -8   37.66    1.03 
   3   6   8    4.04    0.27 
  -3  -6  -8    3.61    0.24 
  -3  -6  -8    4.17    0.25 
   4   6   8    7.30    0.34 
  -4  -6  -8    8.20    0.38 
   5   6   8   -0.03    0.07 
  -5  -6  -8    0.07    0.09 
   6   6   8   -0.04    0.10 
  -6  -6  -8   -0.06    0.09 
   7   6   8   -0.08    0.11 
  -7  -6  -8   -0.01    0.11 
  -4   5   9    0.59    0.22 
  -3   5   9   -0.07    0.13 
  -2   5   9    0.68    0.20 
  -2   5   9    0.49    0.16 
  -1   5   9    0.24    0.12 
  -1   5   9    0.25    0.14 
  -1   5   9    0.15    0.09 
   1  -5  -9    0.10    0.08 
   1  -5  -9    0.11    0.09 
   0   5   9    1.11    0.21 
   0   5   9    1.15    0.13 
   0   5   9    1.23    0.19 
   0  -5  -9    0.96    0.13 
   0  -5  -9    0.95    0.15 
   1   5   9   19.30    0.72 
   1   5   9   18.49    0.56 
  -1  -5  -9   18.98    0.65 
  -1  -5  -9   19.09    0.58 
   2   5   9    0.00    0.06 
   2   5   9   -0.03    0.08 
  -2  -5  -9   -0.19    0.05 
  -2  -5  -9    0.05    0.07 
  -2  -5  -9   -0.08    0.05 
  -2  -5  -9    0.07    0.06 
   3   5   9   11.49    0.41 
  -3  -5  -9   11.78    0.47 
  -3  -5  -9   11.41    0.48 
  -3  -5  -9   12.05    0.43 
  -4  -5  -9    1.79    0.21 
  -5  -5  -9    0.15    0.10 
   6   5   9    0.09    0.13 
  -6  -5  -9   -0.09    0.08 
   7   5   9    0.26    0.13 
  -7  -5  -9    0.01    0.11 
  -4   4  10    0.97    0.27 
  -3   4  10    0.04    0.14 
  -2   4  10    0.24    0.16 
  -1   4  10    0.33    0.12 
  -1   4  10    0.03    0.10 
  -1   4  10    0.50    0.17 
   1  -4 -10    0.28    0.11 
   0   4  10    2.84    0.30 
   0   4  10    2.62    0.22 
   0  -4 -10    2.92    0.21 
   0  -4 -10    3.12    0.30 
   1   4  10    2.39    0.30 
  -1  -4 -10    2.82    0.20 
  -1  -4 -10    2.30    0.23 
  -1  -4 -10    2.83    0.22 
   2   4  10   -0.03    0.07 
   2   4  10    0.09    0.05 
  -2  -4 -10    0.16    0.07 
  -2  -4 -10    0.25    0.09 
  -2  -4 -10    0.10    0.07 
  -2  -4 -10    0.19    0.08 
   3   4  10    0.13    0.05 
   3   4  10    0.05    0.07 
  -3  -4 -10    0.23    0.09 
  -3  -4 -10    0.01    0.08 
  -3  -4 -10    0.17    0.09 
   4   4  10    1.25    0.12 
  -4  -4 -10    1.52    0.20 
   5   4  10    0.07    0.05 
  -5  -4 -10   -0.01    0.08 
   6   4  10    0.20    0.13 
   6   4  10    0.02    0.06 
  -6  -4 -10   -0.01    0.11 
   7   4  10    0.44    0.18 
   7   4  10    0.33    0.10 
  -7  -4 -10    0.38    0.18 
  -4   3  11    0.17    0.19 
  -3   3  11    0.34    0.19 
  -2   3  11    0.63    0.20 
  -1   3  11    0.13    0.11 
  -1   3  11    0.27    0.15 
   0   3  11   21.69    0.65 
   0   3  11   21.42    0.84 
   0   3  11   20.91    0.75 
   0  -3 -11   19.59    0.76 
   1   3  11    7.97    0.31 
   1   3  11    8.19    0.33 
   1   3  11    8.10    0.42 
  -1  -3 -11    7.99    0.42 
  -1  -3 -11    7.52    0.42 
   2   3  11    0.15    0.08 
   2   3  11    0.25    0.08 
   2   3  11    0.17    0.12 
  -2  -3 -11    0.06    0.10 
  -2  -3 -11    0.20    0.11 
   3   3  11    0.01    0.10 
   3   3  11   -0.04    0.06 
  -3  -3 -11    0.11    0.11 
  -3  -3 -11    0.04    0.10 
   4   3  11    0.00    0.11 
   4   3  11    0.09    0.07 
  -4  -3 -11    0.14    0.10 
   5   3  11   -0.03    0.07 
  -5  -3 -11   -0.02    0.10 
   6   3  11   -0.03    0.12 
   6   3  11    0.03    0.08 
  -6  -3 -11    0.14    0.13 
   7   3  11    0.04    0.09 
  -7  -3 -11    0.16    0.18 
  -3   2  12    0.27    0.20 
  -2   2  12    0.12    0.16 
  -1   2  12    0.24    0.15 
  -1   2  12   -0.03    0.09 
  -1   2  12   -0.07    0.07 
   0   2  12    0.09    0.08 
   0   2  12    0.21    0.08 
   0   2  12    0.30    0.13 
   0  -2 -12    0.40    0.14 
   1   2  12    2.15    0.21 
   1   2  12    1.68    0.19 
   1   2  12    1.73    0.23 
  -1  -2 -12    1.35    0.22 
   2   2  12    0.09    0.07 
   2   2  12    0.05    0.10 
   2   2  12    0.10    0.08 
  -2  -2 -12    0.06    0.10 
   3   2  12    0.46    0.13 
   3   2  12    0.35    0.11 
   3   2  12    0.32    0.12 
  -3  -2 -12    0.28    0.13 
   4   2  12    0.21    0.11 
   4   2  12    0.01    0.08 
   4   2  12    0.26    0.17 
  -4  -2 -12    0.11    0.12 
   5   2  12    0.00    0.08 
  -5  -2 -12    0.06    0.12 
  -6  -2 -12    0.01    0.14 
  -2   1  13    1.86    0.33 
  -1   1  13    0.23    0.17 
  -1   1  13    0.41    0.16 
  -1   1  13    0.28    0.11 
   1  -1 -13    0.16    0.12 
   0   1  13    0.06    0.11 
   0   1  13   -0.05    0.08 
   0  -1 -13    0.01    0.11 
   1   1  13    0.06    0.09 
   1   1  13   -0.01    0.11 
  -1  -1 -13    0.03    0.11 
   2   1  13    1.14    0.19 
   2   1  13    0.78    0.18 
  -2  -1 -13    0.97    0.20 
   3   1  13    0.57    0.16 
   3   1  13    0.33    0.14 
  -3  -1 -13    0.26    0.08 
  -3  -1 -13    0.38    0.15 
   4   1  13    0.53    0.17 
  -4  -1 -13    0.82    0.20 
   5   1  13   -0.10    0.11 
  -5  -1 -13    0.12    0.14 
   1   0 -14    0.57    0.20 
   0   0  14    1.03    0.22 
   0   0  14    1.21    0.21 
   0   0 -14    0.64    0.16 
   0   0 -14    0.72    0.21 
   1   0  14   -0.02    0.15 
   1   0  14    0.14    0.12 
  -1   0 -14    0.02    0.14 
  -1   0 -14   -0.03    0.07 
   2   0  14   -0.03    0.11 
   2   0  14    0.22    0.15 
  -2   0 -14    0.01    0.08 
  -2   0 -14    0.12    0.14 
   3   0  14    0.42    0.15 
   3   0  14    0.16    0.18 
  -3   0 -14    0.24    0.16 
   4   0  14    0.21    0.15 
  -4   0 -14    0.24    0.18 
  -2  10   5    0.30    0.13 
   2 -10  -5    0.54    0.14 
  -1 -10  -5    0.30    0.13 
  -3   9   6    0.40    0.16 
  -2   9   6    0.12    0.11 
  -1   9   6    0.12    0.09 
  -1  -9  -6    1.01    0.17 
   4   9   6    0.24    0.09 
  -4  -9  -6    0.17    0.08 
   5   9   6    0.53    0.13 
  -5  -9  -6    0.40    0.11 
  -2   8   7    0.21    0.11 
  -1   8   7    0.19    0.14 
  -1   8   7    0.10    0.09 
   0   8   7    0.09    0.10 
   0   8   7    0.05    0.08 
   1   8   7    0.15    0.11 
  -1  -8  -7    0.12    0.06 
   2   8   7    4.91    0.31 
  -2  -8  -7    5.19    0.25 
  -3  -8  -7    3.24    0.20 
   4   8   7    2.41    0.25 
  -4  -8  -7    3.07    0.21 
   5   8   7    0.89    0.17 
  -5  -8  -7    0.62    0.13 
   6   8   7    3.13    0.34 
  -6  -8  -7    3.25    0.31 
  -4   7   8    0.39    0.22 
  -3   7   8    0.26    0.20 
  -2   7   8    1.53    0.23 
  -2   7   8    1.65    0.27 
  -1   7   8    0.13    0.10 
  -1   7   8   -0.05    0.10 
   0   7   8    0.00    0.11 
   0   7   8    0.21    0.10 
   1   7   8    0.44    0.14 
  -1  -7  -8    0.62    0.11 
   2   7   8    2.15    0.26 
  -2  -7  -8    2.57    0.18 
  -2  -7  -8    2.58    0.18 
   3   7   8    3.75    0.27 
  -3  -7  -8    4.08    0.24 
   4   7   8    0.72    0.14 
  -4  -7  -8    0.57    0.12 
   5   7   8    0.58    0.16 
  -5  -7  -8    0.63    0.13 
   6   7   8    0.18    0.12 
  -6  -7  -8    0.00    0.09 
  -4   6   9    0.21    0.20 
  -3   6   9   -0.03    0.15 
  -2   6   9    0.01    0.11 
  -2   6   9   -0.01    0.14 
  -1   6   9    1.92    0.29 
  -1   6   9    2.56    0.28 
   0   6   9    1.88    0.24 
   0   6   9    2.45    0.31 
   0  -6  -9    2.73    0.38 
   1   6   9    0.17    0.12 
  -1  -6  -9    0.16    0.08 
   2   6   9   22.17    0.79 
  -2  -6  -9   22.26    0.72 
  -2  -6  -9   22.47    0.71 
   3   6   9    0.75    0.15 
  -3  -6  -9    0.94    0.16 
   4   6   9   12.96    0.51 
  -4  -6  -9   13.19    0.53 
   5   6   9   -0.01    0.08 
   5   6   9    0.10    0.11 
  -5  -6  -9   -0.10    0.07 
   6   6   9    0.38    0.17 
  -6  -6  -9    0.09    0.11 
  -4   5  10    0.10    0.18 
  -3   5  10   -0.25    0.12 
  -2   5  10    0.00    0.15 
  -1   5  10    3.37    0.36 
  -1   5  10    3.74    0.31 
   0   5  10    1.62    0.23 
   0   5  10    1.76    0.18 
   0   5  10    1.57    0.26 
   1   5  10    0.08    0.07 
   1   5  10    0.14    0.11 
  -1  -5 -10    0.09    0.07 
  -1  -5 -10   -0.04    0.07 
   2   5  10    0.80    0.16 
   2   5  10    0.76    0.12 
  -2  -5 -10    1.21    0.16 
  -2  -5 -10    1.16    0.20 
  -2  -5 -10    0.99    0.16 
  -3  -5 -10   12.79    0.52 
  -4  -5 -10   -0.09    0.07 
  -5  -5 -10    7.63    0.43 
   6   5  10    0.09    0.13 
  -6  -5 -10    0.11    0.10 
  -4   4  11   -0.23    0.17 
  -3   4  11    0.14    0.16 
  -2   4  11    1.27    0.26 
  -1   4  11    0.85    0.23 
   0   4  11    4.63    0.32 
   0   4  11    4.06    0.36 
   1   4  11    0.62    0.16 
   1   4  11    0.39    0.13 
  -1  -4 -11    0.40    0.13 
   2   4  11    4.47    0.21 
   2   4  11    3.38    0.26 
  -2  -4 -11    4.50    0.30 
   3   4  11    0.09    0.06 
  -3  -4 -11   -0.04    0.06 
   4   4  11    0.29    0.08 
  -4  -4 -11    0.15    0.10 
   5   4  11    0.04    0.06 
  -5  -4 -11    0.08    0.09 
   6   4  11    0.02    0.13 
   6   4  11    0.12    0.07 
  -6  -4 -11    0.09    0.14 
  -3   3  12   -0.04    0.16 
  -2   3  12   -0.04    0.15 
  -1   3  12    0.38    0.17 
   0   3  12    0.06    0.11 
   0   3  12   -0.04    0.13 
   0   3  12   -0.06    0.06 
   1   3  12    1.11    0.19 
   1   3  12    0.66    0.11 
   1   3  12    0.99    0.13 
  -1  -3 -12    0.91    0.19 
   2   3  12    4.50    0.34 
   2   3  12    4.37    0.25 
   2   3  12    4.54    0.25 
  -2  -3 -12    3.56    0.33 
   3   3  12    1.77    0.18 
  -3  -3 -12    1.94    0.26 
   4   3  12   -0.02    0.07 
  -4  -3 -12    0.04    0.11 
   5   3  12    0.08    0.08 
  -5  -3 -12   -0.12    0.10 
   6   3  12    0.14    0.10 
  -6  -3 -12    0.25    0.16 
  -2   2  13    0.06    0.17 
  -1   2  13   -0.10    0.13 
   0   2  13    0.55    0.12 
   0   2  13    0.67    0.13 
   0  -2 -13    0.30    0.14 
   1   2  13   -0.05    0.11 
   1   2  13    0.12    0.09 
   1   2  13    0.12    0.08 
  -1  -2 -13    0.28    0.13 
   2   2  13    1.59    0.19 
   2   2  13    1.67    0.27 
   2   2  13    1.64    0.20 
  -2  -2 -13    2.10    0.27 
   3   2  13    0.17    0.09 
   3   2  13    0.10    0.11 
  -3  -2 -13    0.32    0.15 
   4   2  13    0.16    0.09 
   4   2  13    0.09    0.11 
  -4  -2 -13    0.24    0.13 
  -5  -2 -13    0.04    0.14 
  -1   1  14    0.23    0.18 
   1  -1 -14   -0.01    0.13 
   0   1  14    2.09    0.24 
   0  -1 -14    1.19    0.23 
   1   1  14    0.13    0.11 
  -1  -1 -14    0.06    0.13 
   2   1  14    0.00    0.10 
  -2  -1 -14   -0.03    0.12 
  -2  -1 -14   -0.02    0.06 
   3   1  14   -0.10    0.10 
  -3  -1 -14   -0.17    0.10 
   4   1  14    0.46    0.17 
  -4  -1 -14    0.47    0.18 
  -2   9   7    2.24    0.26 
  -1   9   7    0.10    0.09 
   0   9   7    0.10    0.08 
   4   9   7   -0.02    0.07 
  -4  -9  -7   -0.16    0.07 
   5   9   7   -0.06    0.08 
  -5  -9  -7    0.03    0.08 
  -2   8   8    0.13    0.12 
  -2   8   8    0.04    0.14 
  -1   8   8   -0.04    0.09 
  -1   8   8    0.07    0.13 
   0   8   8    1.06    0.22 
   0   8   8    1.04    0.16 
   1   8   8    0.16    0.12 
   2   8   8    3.27    0.33 
  -2  -8  -8    2.80    0.20 
   3   8   8    0.70    0.15 
  -3  -8  -8    0.89    0.13 
   4   8   8    0.64    0.14 
  -4  -8  -8    0.98    0.16 
   5   8   8   -0.10    0.08 
  -5  -8  -8   -0.17    0.08 
  -3   7   9    0.21    0.19 
  -2   7   9    0.01    0.14 
  -1   7   9    0.30    0.16 
  -1   7   9    0.10    0.11 
   0   7   9    3.28    0.27 
   0   7   9    3.43    0.39 
   1   7   9    0.90    0.20 
   2   7   9    0.01    0.09 
  -2  -7  -9   -0.03    0.05 
   3   7   9    0.53    0.15 
  -3  -7  -9    0.33    0.10 
   4   7   9    1.22    0.19 
  -4  -7  -9    1.15    0.17 
   5   7   9    2.25    0.29 
  -5  -7  -9    2.18    0.25 
   6   7   9    0.02    0.12 
  -6  -7  -9   -0.04    0.11 
  -3   6  10    0.00    0.19 
  -2   6  10    0.44    0.20 
  -1   6  10   -0.07    0.09 
  -1   6  10   -0.02    0.12 
   0   6  10    0.04    0.09 
   0   6  10    0.10    0.12 
   1   6  10    1.80    0.28 
   2   6  10    3.66    0.31 
  -2  -6 -10    3.84    0.26 
   3   6  10    0.34    0.12 
  -3  -6 -10    0.27    0.10 
   4   6  10   16.27    0.63 
  -4  -6 -10   17.03    0.64 
   5   6  10   -0.01    0.09 
  -5  -6 -10    0.11    0.10 
   6   6  10    8.81    0.55 
  -6  -6 -10    8.95    0.50 
  -3   5  11    0.36    0.21 
  -2   5  11    1.55    0.31 
  -1   5  11    3.18    0.40 
   0   5  11   -0.02    0.17 
   0   5  11   -0.16    0.10 
   1   5  11    0.57    0.15 
  -1  -5 -11    0.49    0.12 
   2   5  11   -0.11    0.08 
  -2  -5 -11    0.19    0.09 
  -3  -5 -11    0.12    0.09 
  -4  -5 -11    0.18    0.11 
  -5  -5 -11    2.58    0.29 
   6   5  11    0.81    0.22 
  -6  -5 -11    0.72    0.19 
  -3   4  12   -0.01    0.18 
  -2   4  12    0.04    0.16 
  -1   4  12    0.94    0.24 
   0   4  12    6.19    0.46 
   1   4  12    0.16    0.14 
  -1  -4 -12    0.48    0.14 
   2   4  12    1.41    0.14 
  -2  -4 -12    1.14    0.19 
   3   4  12    3.14    0.19 
  -3  -4 -12    3.09    0.31 
   4   4  12    3.22    0.20 
  -4  -4 -12    2.81    0.30 
   5   4  12    0.05    0.06 
  -5  -4 -12    0.02    0.12 
   6   4  12   -0.01    0.08 
  -6  -4 -12   -0.06    0.12 
  -2   3  13   -0.07    0.17 
  -1   3  13   -0.09    0.13 
   0   3  13    0.33    0.20 
   0   3  13    0.58    0.12 
   0  -3 -13    0.58    0.17 
   1   3  13    0.21    0.08 
   1   3  13    0.07    0.07 
  -1  -3 -13    0.23    0.13 
   2   3  13    1.90    0.20 
   2   3  13    1.71    0.18 
  -2  -3 -13    1.54    0.24 
   3   3  13    1.86    0.19 
  -3  -3 -13    1.53    0.24 
   4   3  13    2.10    0.20 
  -4  -3 -13    2.68    0.32 
   5   3  13    0.12    0.10 
  -5  -3 -13    0.05    0.13 
  -1   2  14    1.17    0.29 
   1  -2 -14    0.97    0.22 
   0  -2 -14    0.02    0.13 
   1   2  14   -0.02    0.08 
  -1  -2 -14   -0.05    0.11 
   2   2  14   -0.03    0.09 
  -2  -2 -14   -0.15    0.12 
   3   2  14    0.63    0.16 
  -3  -2 -14    0.28    0.16 
   4   2  14    0.54    0.16 
  -4  -2 -14    0.56    0.18 
  -1  -1 -15    0.00    0.14 
   2   1  15    0.30    0.14 
  -2  -1 -15    0.22    0.17 
  -1  10   7    1.76    0.21 
  -2   9   8   -0.03    0.12 
  -1   9   8    2.00    0.24 
   0   9   8    1.33    0.18 
   0   9   8    1.04    0.24 
   1   9   8    0.13    0.09 
   1   9   8    0.04    0.12 
   4   9   8    0.01    0.07 
  -4  -9  -8    0.12    0.07 
  -2   8   9    0.02    0.15 
  -1   8   9    0.17    0.13 
  -1   8   9    0.14    0.16 
   0   8   9    0.38    0.12 
   0   8   9    0.15    0.13 
   1   8   9   -0.01    0.10 
   1   8   9    0.08    0.09 
   2   8   9   -0.07    0.09 
  -2  -8  -9    0.03    0.07 
   3   8   9    0.08    0.11 
  -3  -8  -9    0.59    0.12 
  -4  -8  -9    0.10    0.08 
   5   8   9    0.34    0.14 
  -5  -8  -9    0.30    0.11 
  -3   7  10    0.15    0.21 
  -2   7  10    0.66    0.25 
  -1   7  10   -0.14    0.12 
  -1   7  10   -0.08    0.10 
   0   7  10   -0.09    0.11 
   0   7  10   -0.01    0.10 
   1   7  10    0.05    0.12 
   2   7  10    2.20    0.28 
  -2  -7 -10    2.34    0.22 
   3   7  10   -0.02    0.09 
  -3  -7 -10   -0.11    0.06 
   4   7  10    0.02    0.10 
  -4  -7 -10    0.03    0.07 
   5   7  10    0.88    0.20 
  -5  -7 -10    1.56    0.22 
  -3   6  11   -0.12    0.19 
  -2   6  11    0.00    0.17 
  -1   6  11    1.37    0.26 
   0   6  11    0.36    0.16 
   1   6  11    0.08    0.13 
  -1  -6 -11   -0.05    0.06 
   2   6  11    0.40    0.14 
  -2  -6 -11    0.63    0.13 
   3   6  11    2.12    0.26 
  -3  -6 -11    2.06    0.24 
   4   6  11    2.10    0.26 
  -4  -6 -11    1.90    0.23 
   5   6  11    0.21    0.12 
  -5  -6 -11    0.52    0.14 
   6   6  11    5.41    0.45 
  -6  -6 -11    5.60    0.40 
  -2   5  12   -0.01    0.18 
  -1   5  12    2.62    0.37 
   0   5  12    1.58    0.29 
   1   5  12    0.17    0.13 
  -1  -5 -12    0.00    0.07 
   2   5  12    0.39    0.15 
  -2  -5 -12    0.60    0.14 
  -3  -5 -12    0.56    0.14 
  -4  -5 -12   -0.01    0.09 
  -5  -5 -12    0.60    0.16 
  -6  -5 -12    0.06    0.12 
  -2   4  13    0.26    0.21 
  -1   4  13    0.25    0.21 
   0   4  13    0.33    0.18 
   1   4  13   -0.10    0.12 
  -1  -4 -13    0.16    0.12 
   2   4  13    0.07    0.07 
  -2  -4 -13    0.24    0.13 
   3   4  13   -0.03    0.05 
  -3  -4 -13    0.02    0.11 
   4   4  13    0.72    0.12 
  -4  -4 -13    0.16    0.15 
   5   4  13    0.35    0.09 
  -5  -4 -13    0.18    0.14 
  -1   3  14    0.04    0.17 
   0   3  14    0.01    0.17 
   0   3  14    0.07    0.09 
   0  -3 -14   -0.03    0.11 
   1   3  14    0.27    0.10 
  -1  -3 -14    0.15    0.13 
   2   3  14    0.23    0.11 
   2   3  14    0.21    0.09 
  -2  -3 -14    0.19    0.14 
   3   3  14    0.06    0.09 
  -3  -3 -14   -0.01    0.14 
   4   3  14    0.44    0.11 
  -4  -3 -14    0.81    0.21 
  -1  -2 -15    1.09    0.25 
   2   2  15    0.06    0.17 
  -2  -2 -15    0.50    0.19 
  -3  -2 -15    0.11    0.16 
   0  10   8    0.07    0.10 
  -1   9   9    0.08    0.15 
  -1   9   9   -0.05    0.11 
   0   9   9    0.73    0.20 
   0   9   9    0.67    0.15 
   1   9   9    1.00    0.17 
   1   9   9    1.31    0.25 
  -1  -9  -9    1.19    0.15 
   2   9   9    0.81    0.20 
  -2  -9  -9    0.97    0.15 
  -3  -9  -9   -0.02    0.06 
   4   9   9    0.33    0.12 
  -4  -9  -9    0.27    0.11 
  -2   8  10    0.00    0.16 
  -1   8  10    0.20    0.18 
   0   8  10   -0.05    0.10 
   0   8  10    0.16    0.15 
   1   8  10    0.03    0.12 
   1   8  10    0.08    0.10 
   2   8  10    0.03    0.11 
  -2  -8 -10   -0.05    0.06 
   3   8  10    0.61    0.18 
  -3  -8 -10    0.77    0.14 
  -4  -8 -10    0.31    0.12 
   5   8  10    0.38    0.14 
  -5  -8 -10    0.32    0.13 
  -2   7  11    0.07    0.20 
  -1   7  11    0.86    0.23 
   0   7  11    0.06    0.15 
   1   7  11    0.11    0.13 
  -1  -7 -11   -0.09    0.06 
   2   7  11    0.03    0.11 
  -2  -7 -11    0.00    0.07 
   3   7  11    0.22    0.15 
  -3  -7 -11    0.33    0.13 
   4   7  11    0.14    0.13 
  -4  -7 -11    0.24    0.11 
  -5  -7 -11    0.24    0.11 
  -2   6  12    0.49    0.24 
  -1   6  12    0.22    0.18 
   0   6  12   -0.09    0.12 
   1   6  12    0.10    0.14 
  -1  -6 -12    0.06    0.09 
   2   6  12    0.01    0.12 
  -2  -6 -12    0.27    0.11 
   3   6  12    0.19    0.13 
  -3  -6 -12    0.01    0.08 
   4   6  12   -0.21    0.08 
  -4  -6 -12   -0.04    0.08 
  -5  -6 -12    0.00    0.11 
  -1   5  13   -0.13    0.17 
   0   5  13    0.12    0.17 
   1   5  13    0.39    0.16 
  -1  -5 -13    0.19    0.12 
   2   5  13    0.16    0.14 
  -2  -5 -13    0.18    0.12 
  -3  -5 -13    0.07    0.09 
  -4  -5 -13    0.20    0.12 
  -5  -5 -13    0.19    0.13 
  -1   4  14   -0.02    0.18 
   0   4  14    0.17    0.17 
   0  -4 -14    0.03    0.14 
   1   4  14   -0.33    0.12 
  -1  -4 -14   -0.03    0.11 
   2   4  14    0.66    0.12 
  -2  -4 -14    0.67    0.20 
   3   4  14    0.05    0.07 
  -3  -4 -14   -0.13    0.12 
   4   4  14    0.12    0.08 
  -4  -4 -14   -0.16    0.13 
   1   3  15    0.08    0.10 
  -1  -3 -15   -0.06    0.13 
   2   3  15   -0.01    0.09 
  -2  -3 -15   -0.15    0.13 
   0   9  10   -0.05    0.11 
   0   9  10    0.10    0.15 
   1   9  10    0.02    0.10 
   1   9  10   -0.06    0.12 
  -1  -9 -10   -0.04    0.07 
   2   9  10    0.51    0.17 
  -2  -9 -10    0.79    0.15 
  -3  -9 -10    0.58    0.13 
  -1   8  11    0.23    0.20 
   0   8  11   -0.15    0.13 
   1   8  11    0.07    0.11 
   1   8  11    0.04    0.13 
  -1  -8 -11    0.05    0.08 
   2   8  11   -0.07    0.11 
  -2  -8 -11    0.14    0.09 
   3   8  11    0.06    0.12 
  -3  -8 -11    0.01    0.09 
  -4  -8 -11    0.17    0.11 
  -1   7  12    0.04    0.16 
   0   7  12    0.03    0.15 
   1   7  12    0.08    0.17 
  -1  -7 -12    0.22    0.11 
   2   7  12    0.26    0.16 
  -2  -7 -12    0.22    0.11 
   3   7  12   -0.03    0.12 
  -3  -7 -12    0.00    0.09 
   4   7  12    0.47    0.17 
  -4  -7 -12    0.30    0.11 
  -1   6  13    1.42    0.34 
   0   6  13    0.30    0.22 
   1   6  13    0.02    0.14 
  -1  -6 -13    0.13    0.11 
   2   6  13    0.76    0.22 
  -2  -6 -13    0.78    0.17 
   3   6  13    0.02    0.12 
  -3  -6 -13   -0.03    0.08 
   4   6  13    0.09    0.13 
  -4  -6 -13    0.03    0.10 
   0   5  14    0.07    0.20 
   0  -5 -14    0.12    0.11 
   1   5  14    0.25    0.17 
  -1  -5 -14    0.20    0.12 
   2   5  14   -0.01    0.13 
  -2  -5 -14   -0.08    0.09 
  -3  -5 -14    0.11    0.12 
  -4  -5 -14    0.04    0.11 
   1   8  12    1.96    0.35 
  -1  -8 -12    1.46    0.21 
   2   8  12    0.40    0.19 
  -2  -8 -12    0.34    0.13 
   3   8  12   -0.09    0.12 
  -3  -8 -12   -0.07    0.10 
   1   7  13    0.22    0.18 
  -1  -7 -13    0.21    0.12 
   2   7  13   -0.08    0.14 
  -2  -7 -13   -0.01    0.09 
   3   7  13    0.16    0.15 
  -3  -7 -13    0.39    0.15 
   1   6  14    0.03    0.17 
  -1  -6 -14   -0.16    0.10 
   2   6  14    0.04    0.14 
  -2  -6 -14   -0.15    0.10 
   0   0   0    0.00    0.00 
;
_shelx_hkl_checksum              30254
loop_
_space_group_symop_operation_xyz
'x, y, z'
'-x, -y, -z'
loop_
_atom_site_label
_atom_site_type_symbol
_atom_site_fract_x
_atom_site_fract_y
_atom_site_fract_z
_atom_site_U_iso_or_equiv
_atom_site_adp_type
_atom_site_occupancy
_atom_site_site_symmetry_order
_atom_site_calc_flag
_atom_site_refinement_flags_posn
_atom_site_refinement_flags_adp
C1 C 0.2112(2) 0.25318(19) 1.06634(13) 0.0352(4) Uani 1 1 d . .
C2 C 0.1482(3) 0.2945(2) 1.17617(14) 0.0434(4) Uani 1 1 d . .
H2 H 0.1093 0.2164 1.2425 0.052 Uiso 1 1 calc R U
C3 C 0.1451(3) 0.4499(2) 1.18349(14) 0.0430(4) Uani 1 1 d . .
C4 C 0.2015(2) 0.5713(2) 1.08738(14) 0.0402(4) Uani 1 1 d . .
H4 H 0.1978 0.6770 1.0958 0.048 Uiso 1 1 calc R U
C5 C 0.2625(2) 0.53215(19) 0.98018(14) 0.0377(4) Uani 1 1 d . .
H5 H 0.3004 0.6125 0.9151 0.045 Uiso 1 1 calc R U
C6 C 0.2692(2) 0.37328(19) 0.96626(13) 0.0325(4) Uani 1 1 d . .
C7 C 0.3345(2) 0.19536(19) 0.85023(13) 0.0344(4) Uani 1 1 d . .
C8 C 0.2167(2) 0.0865(2) 1.05785(14) 0.0409(4) Uani 1 1 d . .
C9 C 0.4668(3) 0.1934(2) 0.63766(14) 0.0398(4) Uani 1 1 d . .
C10 C 0.6421(3) 0.2764(2) 0.61589(15) 0.0496(5) Uani 1 1 d . .
H10 H 0.7060 0.2812 0.6764 0.060 Uiso 1 1 calc R U
C11 C 0.7211(3) 0.3520(2) 0.50397(17) 0.0593(5) Uani 1 1 d . .
H11 H 0.8383 0.4092 0.4883 0.071 Uiso 1 1 calc R U
C12 C 0.6260(3) 0.3426(2) 0.41546(17) 0.0621(6) Uani 1 1 d . .
H12 H 0.6789 0.3936 0.3396 0.075 Uiso 1 1 calc R U
C13 C 0.4527(3) 0.2581(3) 0.43854(16) 0.0606(6) Uani 1 1 d . .
H13 H 0.3917 0.2518 0.3772 0.073 Uiso 1 1 calc R U
C14 C 0.3654(3) 0.1815(2) 0.55093(15) 0.0467(5) Uani 1 1 d . .
C15 C 0.1741(3) 0.0926(3) 0.5753(2) 0.0715(6) Uani 1 1 d . .
H15A H 0.2061 -0.0201 0.5862 0.107 Uiso 1 1 calc R U
H15B H 0.1068 0.1246 0.5107 0.107 Uiso 1 1 calc R U
H15C H 0.0867 0.1164 0.6445 0.107 Uiso 1 1 calc R U
F1 F 0.08444(17) 0.49172(14) 1.28929(9) 0.0649(4) Uani 1 1 d . .
N1 N 0.3330(2) 0.34384(16) 0.85437(11) 0.0372(3) Uani 1 1 d . .
N2 N 0.3868(2) 0.12122(16) 0.75685(11) 0.0410(4) Uani 1 1 d . .
N3 N 0.3682(2) -0.03936(17) 0.79289(13) 0.0515(4) Uani 1 1 d . .
N4 N 0.3048(2) -0.07290(17) 0.90295(13) 0.0512(4) Uani 1 1 d . .
N5 N 0.2818(2) 0.06988(15) 0.94166(11) 0.0391(3) Uani 1 1 d . .
O1 O 0.1750(2) -0.02976(15) 1.13563(10) 0.0606(4) Uani 1 1 d . .
loop_
_atom_site_aniso_label
_atom_site_aniso_U_11
_atom_site_aniso_U_22
_atom_site_aniso_U_33
_atom_site_aniso_U_23
_atom_site_aniso_U_13
_atom_site_aniso_U_12
C1 0.0364(9) 0.0327(10) 0.0360(9) -0.0038(7) -0.0087(7) -0.0028(7)
C2 0.0490(10) 0.0415(11) 0.0379(9) -0.0015(8) -0.0089(8) -0.0080(8)
C3 0.0439(10) 0.0502(12) 0.0375(9) -0.0157(8) -0.0058(8) -0.0054(8)
C4 0.0386(9) 0.0346(10) 0.0499(10) -0.0133(8) -0.0084(8) -0.0036(7)
C5 0.0381(9) 0.0305(9) 0.0432(9) -0.0048(7) -0.0073(7) -0.0036(7)
C6 0.0308(8) 0.0300(9) 0.0369(9) -0.0058(7) -0.0074(7) -0.0028(6)
C7 0.0382(9) 0.0280(9) 0.0358(8) -0.0039(7) -0.0062(7) -0.0034(7)
C8 0.0482(10) 0.0338(10) 0.0384(9) -0.0005(7) -0.0090(8) -0.0050(7)
C9 0.0496(10) 0.0320(10) 0.0366(9) -0.0096(7) -0.0051(8) 0.0025(7)
C10 0.0580(12) 0.0468(12) 0.0444(10) -0.0115(8) -0.0065(9) -0.0076(9)
C11 0.0649(13) 0.0520(13) 0.0541(12) -0.0096(10) 0.0050(10) -0.0109(10)
C12 0.0808(15) 0.0528(14) 0.0423(11) -0.0034(9) 0.0020(10) 0.0044(11)
C13 0.0788(15) 0.0618(14) 0.0443(11) -0.0145(10) -0.0221(10) 0.0155(11)
C14 0.0529(11) 0.0424(11) 0.0485(10) -0.0162(8) -0.0149(9) 0.0078(8)
C15 0.0623(13) 0.0765(17) 0.0849(16) -0.0222(13) -0.0288(12) -0.0036(11)
F1 0.0833(8) 0.0686(8) 0.0449(6) -0.0243(6) -0.0002(5) -0.0156(6)
N1 0.0451(8) 0.0280(8) 0.0362(8) -0.0038(6) -0.0055(6) -0.0031(6)
N2 0.0550(9) 0.0285(8) 0.0386(8) -0.0073(6) -0.0062(7) -0.0032(6)
N3 0.0721(11) 0.0303(9) 0.0505(9) -0.0080(7) -0.0080(8) -0.0046(7)
N4 0.0735(11) 0.0280(9) 0.0501(9) -0.0075(7) -0.0079(8) -0.0040(7)
N5 0.0514(9) 0.0244(8) 0.0400(8) -0.0037(6) -0.0074(6) -0.0037(6)
O1 0.0949(10) 0.0335(8) 0.0451(7) 0.0050(6) -0.0058(7) -0.0092(7)
loop_
_atom_type_symbol
_atom_type_description
_atom_type_scat_dispersion_real
_atom_type_scat_dispersion_imag
_atom_type_scat_source
C C 0.0033 0.0016 'International Tables Vol C Tables 4.2.6.8 and 6.1.1.4'
H H 0.0000 0.0000 'International Tables Vol C Tables 4.2.6.8 and 6.1.1.4'
N N 0.0061 0.0033 'International Tables Vol C Tables 4.2.6.8 and 6.1.1.4'
O O 0.0106 0.0060 'International Tables Vol C Tables 4.2.6.8 and 6.1.1.4'
F F 0.0171 0.0103 'International Tables Vol C Tables 4.2.6.8 and 6.1.1.4'
loop_
_geom_angle_atom_site_label_1
_geom_angle_atom_site_label_2
_geom_angle_atom_site_label_3
_geom_angle
C2 C1 C6 119.98(15)
C2 C1 C8 119.04(14)
C6 C1 C8 120.98(15)
C3 C2 C1 118.69(15)
C3 C2 H2 120.7
C1 C2 H2 120.7
C2 C3 F1 119.36(15)
C2 C3 C4 123.09(16)
F1 C3 C4 117.56(16)
C5 C4 C3 118.58(16)
C5 C4 H4 120.7
C3 C4 H4 120.7
C4 C5 C6 121.33(15)
C4 C5 H5 119.3
C6 C5 H5 119.3
N1 C6 C5 117.66(13)
N1 C6 C1 124.01(15)
C5 C6 C1 118.33(15)
N1 C7 N2 130.07(14)
N1 C7 N5 127.41(14)
N2 C7 N5 102.52(13)
O1 C8 N5 120.94(16)
O1 C8 C1 128.58(16)
N5 C8 C1 110.47(13)
C10 C9 C14 122.88(16)
C10 C9 N2 117.10(15)
C14 C9 N2 119.99(15)
C11 C10 C9 119.40(17)
C11 C10 H10 120.3
C9 C10 H10 120.3
C12 C11 C10 119.60(19)
C12 C11 H11 120.2
C10 C11 H11 120.2
C11 C12 C13 120.22(18)
C11 C12 H12 119.9
C13 C12 H12 119.9
C12 C13 C14 122.20(18)
C12 C13 H13 118.9
C14 C13 H13 118.9
C9 C14 C13 115.69(17)
C9 C14 C15 122.64(17)
C13 C14 C15 121.68(17)
C14 C15 H15A 109.5
C14 C15 H15B 109.5
H15A C15 H15B 109.5
C14 C15 H15C 109.5
H15A C15 H15C 109.5
H15B C15 H15C 109.5
C7 N1 C6 113.21(13)
N3 N2 C7 110.18(13)
N3 N2 C9 122.27(14)
C7 N2 C9 127.37(14)
N4 N3 N2 109.77(14)
N3 N4 N5 106.94(13)
C7 N5 N4 110.59(13)
C7 N5 C8 123.91(14)
N4 N5 C8 125.49(13)
loop_
_geom_bond_atom_site_label_1
_geom_bond_atom_site_label_2
_geom_bond_distance
C1 C2 1.404(2)
C1 C6 1.413(2)
C1 C8 1.450(2)
C2 C3 1.351(2)
C2 H2 0.9300
C3 F1 1.3603(19)
C3 C4 1.388(2)
C4 C5 1.366(2)
C4 H4 0.9300
C5 C6 1.402(2)
C5 H5 0.9300
C6 N1 1.3879(19)
C7 N1 1.283(2)
C7 N2 1.369(2)
C7 N5 1.3723(19)
C8 O1 1.2177(19)
C8 N5 1.402(2)
C9 C10 1.381(2)
C9 C14 1.387(2)
C9 N2 1.438(2)
C10 C11 1.374(2)
C10 H10 0.9300
C11 C12 1.372(3)
C11 H11 0.9300
C12 C13 1.375(3)
C12 H12 0.9300
C13 C14 1.395(3)
C13 H13 0.9300
C14 C15 1.498(3)
C15 H15A 0.9600
C15 H15B 0.9600
C15 H15C 0.9600
N2 N3 1.3601(19)
N3 N4 1.275(2)
N4 N5 1.3833(19)
loop_
_geom_torsion_atom_site_label_1
_geom_torsion_atom_site_label_2
_geom_torsion_atom_site_label_3
_geom_torsion_atom_site_label_4
_geom_torsion
C6 C1 C2 C3 -0.2(2)
C8 C1 C2 C3 179.46(15)
C1 C2 C3 F1 180.00(14)
C1 C2 C3 C4 0.0(3)
C2 C3 C4 C5 0.2(2)
F1 C3 C4 C5 -179.84(14)
C3 C4 C5 C6 -0.1(2)
C4 C5 C6 N1 180.00(14)
C4 C5 C6 C1 -0.1(2)
C2 C1 C6 N1 -179.84(14)
C8 C1 C6 N1 0.5(2)
C2 C1 C6 C5 0.2(2)
C8 C1 C6 C5 -179.42(14)
C2 C1 C8 O1 -1.0(3)
C6 C1 C8 O1 178.67(17)
C2 C1 C8 N5 179.57(14)
C6 C1 C8 N5 -0.8(2)
C14 C9 C10 C11 0.4(3)
N2 C9 C10 C11 -177.90(16)
C9 C10 C11 C12 -0.6(3)
C10 C11 C12 C13 0.0(3)
C11 C12 C13 C14 1.0(3)
C10 C9 C14 C13 0.5(3)
N2 C9 C14 C13 178.74(15)
C10 C9 C14 C15 -179.35(18)
N2 C9 C14 C15 -1.1(3)
C12 C13 C14 C9 -1.2(3)
C12 C13 C14 C15 178.68(19)
N2 C7 N1 C6 179.75(15)
N5 C7 N1 C6 -0.1(2)
C5 C6 N1 C7 179.91(14)
C1 C6 N1 C7 0.0(2)
N1 C7 N2 N3 179.18(16)
N5 C7 N2 N3 -0.94(17)
N1 C7 N2 C9 4.1(3)
N5 C7 N2 C9 -175.99(14)
C10 C9 N2 N3 -118.19(18)
C14 C9 N2 N3 63.5(2)
C10 C9 N2 C7 56.3(2)
C14 C9 N2 C7 -122.00(18)
C7 N2 N3 N4 0.92(19)
C9 N2 N3 N4 176.27(14)
N2 N3 N4 N5 -0.46(19)
N1 C7 N5 N4 -179.45(15)
N2 C7 N5 N4 0.66(16)
N1 C7 N5 C8 -0.3(3)
N2 C7 N5 C8 179.83(14)
N3 N4 N5 C7 -0.15(18)
N3 N4 N5 C8 -179.30(15)
O1 C8 N5 C7 -178.81(15)
C1 C8 N5 C7 0.7(2)
O1 C8 N5 N4 0.2(3)
C1 C8 N5 N4 179.74(14)
