#------------------------------------------------------------------------------
#$Date: 2019-11-08 03:21:00 +0200 (Fri, 08 Nov 2019) $
#$Revision: 225029 $
#$URL: file:///home/coder/svn-repositories/cod/cif/7/15/69/7156939.cif $
#------------------------------------------------------------------------------
#
# This file is available in the Crystallography Open Database (COD),
# http://www.crystallography.net/
#
# All data on this site have been placed in the public domain by the
# contributors.
#
data_7156939
loop_
_publ_author_name
'Houston, Sevan D.'
'Fahrenhorst-Jones, Tyler'
'Xing, Hui'
'Chalmers, Benjamin A.'
'Sykes, Melissa L.'
'Stok, Jeanette E.'
'Farfan Soto, Clementina'
'Burns, Jed M.'
'Bernhardt, Paul V.'
'De Voss, James J.'
'Boyle, Glen M.'
'Smith, Maree T.'
'Tsanaktsidis, John'
'Savage, G. Paul'
'Avery, Vicky M.'
'Williams, Craig M.'
_publ_section_title
;
 The cubane paradigm in bioactive molecule discovery: further scope,
 limitations and the cyclooctatetraene complement.
;
_journal_issue                   28
_journal_name_full               'Organic &amp; biomolecular chemistry'
_journal_page_first              6790
_journal_page_last               6798
_journal_paper_doi               10.1039/c9ob01238a
_journal_volume                  17
_journal_year                    2019
_chemical_compound_source        'synthesis as described'
_chemical_formula_moiety         'C9 H7 Cl1 O2'
_chemical_formula_sum            'C9 H7 Cl O2'
_chemical_formula_weight         182.6
_space_group_IT_number           14
_space_group_name_Hall           '-P 2ybc'
_space_group_name_H-M_alt        'P 1 21/c 1'
_symmetry_cell_setting           monoclinic
_symmetry_Int_Tables_number      14
_symmetry_space_group_name_Hall  '-P 2ybc'
_symmetry_space_group_name_H-M   'P 1 21/c 1'
_atom_sites_solution_hydrogens   geom
_audit_conform_dict_location     ftp://ftp.iucr.org/pub/cif_core.dic
_audit_conform_dict_name         cif_core.dic
_audit_conform_dict_version      2.4.5
_audit_creation_date             2019-03-28T17:29:22-00:00
_audit_creation_method           'WinGX routine CIF_UPDATE'
_audit_update_record
;
2019-03-28 deposited with the CCDC.    2019-06-14 downloaded from the CCDC.
;
_cell_angle_alpha                90
_cell_angle_beta                 98.979(8)
_cell_angle_gamma                90
_cell_formula_units_Z            4
_cell_length_a                   5.6807(5)
_cell_length_b                   11.3724(9)
_cell_length_c                   11.9319(9)
_cell_measurement_reflns_used    1009
_cell_measurement_temperature    190(2)
_cell_measurement_theta_max      27.33
_cell_measurement_theta_min      3.89
_cell_measurement_wavelength     0.71073
_cell_volume                     761.39(11)
_computing_cell_refinement
'CrysalisPro  Version 1.171.37.35 (Agilent Technologies, 2014)'
_computing_data_collection
'CrysalisPro  Version 1.171.37.35 (Agilent Technologies, 2014)'
_computing_data_reduction
'CrysalisPro  Version 1.171.37.35 (Agilent Technologies, 2014)'
_computing_molecular_graphics    'Ortep-3 for Windows (Farrugia, 1997)'
_computing_publication_material  'WinGX publication routines (Farrugia, 1999)'
_computing_structure_refinement  'SHELXL-2018/1 (Sheldrick, 2018)'
_computing_structure_solution    'SIR92 (Giacovazzo et al, 1993)'
_diffrn_ambient_temperature      190(2)
_diffrn_detector                 'CCD plate'
_diffrn_detector_area_resol_mean 16.07
_diffrn_measured_fraction_theta_full 0.997
_diffrn_measured_fraction_theta_max 0.997
_diffrn_measurement_device       '\k-geometry diffractometer'
_diffrn_measurement_device_type
'Agilent Technologies Xcalibur, Sapphire3, Gemini ultra'
_diffrn_measurement_method       '\w scans'
_diffrn_orient_matrix_UB_11      -0.019999
_diffrn_orient_matrix_UB_12      -0.025842
_diffrn_orient_matrix_UB_13      -0.05476
_diffrn_orient_matrix_UB_21      0.076613
_diffrn_orient_matrix_UB_22      -0.047257
_diffrn_orient_matrix_UB_23      0.020243
_diffrn_orient_matrix_UB_31      -0.098388
_diffrn_orient_matrix_UB_32      -0.031511
_diffrn_orient_matrix_UB_33      0.014759
_diffrn_radiation_monochromator  graphite
_diffrn_radiation_probe          x-ray
_diffrn_radiation_type           MoK\a
_diffrn_radiation_wavelength     0.71073
_diffrn_reflns_av_R_equivalents  0.0303
_diffrn_reflns_av_unetI/netI     0.0548
_diffrn_reflns_Laue_measured_fraction_full 0.997
_diffrn_reflns_Laue_measured_fraction_max 0.997
_diffrn_reflns_limit_h_max       6
_diffrn_reflns_limit_h_min       -6
_diffrn_reflns_limit_k_max       13
_diffrn_reflns_limit_k_min       -12
_diffrn_reflns_limit_l_max       14
_diffrn_reflns_limit_l_min       -8
_diffrn_reflns_number            2553
_diffrn_reflns_point_group_measured_fraction_full 0.997
_diffrn_reflns_point_group_measured_fraction_max 0.997
_diffrn_reflns_reduction_process
;
 Scaled and merged with Sortav
 R.H. Blessing, (1987) Cryst. Rev. 1, 3-58
 R.H. Blessing, (1989) J. Appl. Cryst. 22, 396-397
;
_diffrn_reflns_theta_full        25
_diffrn_reflns_theta_max         25
_diffrn_reflns_theta_min         3.457
_diffrn_source                   'Enhance (Mo) X-ray Source'
_diffrn_standards_number         0
_exptl_absorpt_coefficient_mu    0.447
_exptl_absorpt_correction_T_max  1
_exptl_absorpt_correction_T_min  0.986
_exptl_absorpt_correction_type   multi-scan
_exptl_absorpt_process_details
;
        CrysAlisPro, Agilent Technologies,
        Version 1.171.37.35 (release 13-08-2014 CrysAlis171 .NET)
        (compiled Aug 13 2014,18:06:01)
        Empirical absorption correction using spherical harmonics,
        implemented in SCALE3 ABSPACK scaling algorithm.
        Empirical absorption correction using spherical harmonics,
        implemented in SCALE3 ABSPACK scaling algorithm.
;
_exptl_crystal_colour            colourless
_exptl_crystal_density_diffrn    1.593
_exptl_crystal_density_method    'not measured'
_exptl_crystal_description       prism
_exptl_crystal_F_000             376
_exptl_crystal_size_max          0.3
_exptl_crystal_size_mid          0.2
_exptl_crystal_size_min          0.2
_refine_diff_density_max         0.273
_refine_diff_density_min         -0.343
_refine_diff_density_rms         0.061
_refine_ls_extinction_method     none
_refine_ls_goodness_of_fit_ref   1.032
_refine_ls_hydrogen_treatment    constr
_refine_ls_matrix_type           full
_refine_ls_number_constraints    0
_refine_ls_number_parameters     110
_refine_ls_number_reflns         1335
_refine_ls_number_restraints     0
_refine_ls_restrained_S_all      1.032
_refine_ls_R_factor_all          0.054
_refine_ls_R_factor_gt           0.0407
_refine_ls_shift/su_max          0
_refine_ls_shift/su_mean         0
_refine_ls_structure_factor_coef Fsqd
_refine_ls_weighting_details
'w=1/[\s^2^(Fo^2^)+(0.0457P)^2^+0.1051P] where P=(Fo^2^+2Fc^2^)/3'
_refine_ls_weighting_scheme      calc
_refine_ls_wR_factor_gt          0.0947
_refine_ls_wR_factor_ref         0.1063
_reflns_Friedel_coverage         0
_reflns_number_gt                1055
_reflns_number_total             1335
_reflns_threshold_expression     'I > 2\s(I)'
_iucr_refine_instructions_details
;
TITL 1333hx-4-40 in P2(1)/c
    shelx.res
    created by SHELXL-2018/1 at 17:28:52 on 28-Mar-2019
CELL  0.71073   5.6807  11.3724  11.9319   90.000   98.979   90.000
ZERR     4.00   0.0005   0.0009   0.0009    0.000    0.008    0.000
LATT   1
SYMM  - X, 1/2 + Y, 1/2 - Z
SFAC  C    H    O    CL
UNIT  36 28 8 4
MERG   2
OMIT    -2.00  50.00
FMAP   2
PLAN    5
ACTA
L.S.   4
TEMP   -83.00
WGHT    0.045700    0.105100
FVAR       9.43081
C1    1    0.305200    0.244789    0.370276    11.00000    0.02221    0.01887 =
         0.01851   -0.00104    0.00379   -0.00018
C2    1    0.422222    0.119482    0.380328    11.00000    0.02643    0.01799 =
         0.02127    0.00002    0.00407   -0.00132
AFIX  13
H2    2    0.563871    0.096342    0.436683    11.00000   -1.20000
AFIX   0
C3    1    0.168041    0.063399    0.370873    11.00000    0.03280    0.02390 =
         0.02742   -0.00311    0.00958   -0.00867
AFIX  13
H3    2    0.122744   -0.001014    0.420433    11.00000   -1.20000
AFIX   0
C4    1    0.052734    0.188492    0.359481    11.00000    0.02407    0.03002 =
         0.03254   -0.00514    0.00854   -0.00536
AFIX  13
H4    2   -0.077993    0.216007    0.400333    11.00000   -1.20000
AFIX   0
C5    1    0.036454    0.181139    0.227522    11.00000    0.02579    0.03592 =
         0.02973   -0.00393   -0.00354   -0.00442
AFIX  13
H5    2   -0.104600    0.204466    0.170892    11.00000   -1.20000
AFIX   0
C6    1    0.152457    0.055812    0.238753    11.00000    0.03645    0.02508 =
         0.02507   -0.00731    0.00401   -0.01099
AFIX  13
H6    2    0.095544   -0.013935    0.191067    11.00000   -1.20000
AFIX   0
C7    1    0.405646    0.111619    0.248679    11.00000    0.02855    0.02006 =
         0.02307   -0.00364    0.00800   -0.00261
AFIX  13
H7    2    0.535832    0.084094    0.207484    11.00000   -1.20000
AFIX   0
C8    1    0.289149    0.235326    0.237397    11.00000    0.03108    0.01923 =
         0.01787   -0.00083    0.00283   -0.00561
C9    1    0.389714    0.351845    0.433457    11.00000    0.02473    0.01895 =
         0.01536    0.00078    0.00345    0.00097
O1    3    0.244370    0.423725    0.461825    11.00000    0.03116    0.02723 =
         0.03863   -0.01126    0.00185    0.00759
O2    3    0.617505    0.366410    0.453210    11.00000    0.02718    0.02637 =
         0.04303   -0.01067    0.00360   -0.00383
AFIX 147
H2A   2    0.648882    0.432798    0.482644    11.00000   -1.50000
AFIX   0
CL1   4    0.368564    0.349855    0.152392    11.00000    0.06109    0.02678 =
         0.02686    0.00510    0.00829   -0.00687
HKLF    4




REM  1333hx-4-40 in P2(1)/c
REM R1 =  0.0407 for    1055 Fo > 4sig(Fo)  and  0.0540 for all    1335 data
REM    110 parameters refined using      0 restraints

END

WGHT      0.0455      0.1092

REM Highest difference peak  0.273,  deepest hole -0.343,  1-sigma level  0.061
Q1    1   0.3795  0.1786  0.2324  11.00000  0.05    0.27
Q2    1   0.1577  0.2071  0.2225  11.00000  0.05    0.25
Q3    1   0.1379  0.0337  0.3004  11.00000  0.05    0.24
Q4    1   0.0483  0.1110  0.2146  11.00000  0.05    0.22
Q5    1   0.3039  0.2591  0.3009  11.00000  0.05    0.22
;
_cod_data_source_file            c9ob01238a2.cif
_cod_data_source_block           shelx
_cod_depositor_comments
'Adding full bibliography for 7156939--7156942.cif.'
_cod_original_sg_symbol_H-M      'P 21/c'
_cod_database_code               7156939
_shelx_shelxl_version_number     2018/1
_iucr_refine_reflections_details
;
   0   0   2 166136. 2631.68   3
   0   0   3 120.631 148.173   3
   0   0   4 41224.3 1851.35   3
   0   0   5 164.412 257.905   3
   0   0   6 6229.27 904.986   3
   0   0   7 41.8806 121.766   3
   0   0   8 104373. 4289.74   3
   0   0   9 51.2631 270.445   3
   0   0  10 248113. 7562.71   3
   0   0  11 864.443 512.974   3
   0   0  12 643.408 520.059   3
   0   0  13-18.3019 312.453   3
   0   0  14 3323.49 1086.23   3
   0   0  15-117.797 278.223   3
   0  -1   2 112930. 2171.13   3
   0   1   2 109209. 2344.54   3
   0  -1   3 491476. 5517.10   3
   0   1   3 481121. 5896.76   3
   0   1   4 458202. 6497.08   3
   0  -1   4 465624. 6193.62   3
   0   1   5 97675.3 3319.24   3
   0  -1   5 98063.9 3193.16   3
   0   1  -5 104780. 3331.45   3
   0   1   6 2599.39 603.605   3
   0  -1   6 3382.19 687.022   3
   0  -1   7 202796. 5474.01   3
   0   1   7 200262. 5629.79   3
   0   1   8 571.785 376.906   3
   0  -1   8 876.855 427.403   3
   0  -1   9 202.778 172.312   2
   0  -1   9 238.217 307.903   3
   0   1   9-19.8925 158.957   3
   0  -1  10 1704.55 644.773   3
   0  -1  10 2149.60 510.182   2
   0   1  10 2659.21 759.075   3
   0  -1  11 534.152 530.090   3
   0   1  11 1143.98 737.317   3
   0  -1  11 416.783 188.254   2
   0  -1  12 16242.8 2098.48   3
   0   1  12 18131.2 2294.52   3
   0   1  13 615.789 425.893   3
   0  -1  13 871.942 530.380   3
   0   1  14 53212.5 4353.21   3
   0  -1  14 57458.9 4412.59   3
   0   1  15 3036.47 1111.02   3
   0  -1  15 1390.89 684.632   3
   0   2   0 141629. 1913.21   1
   0   2   1 57611.9 1733.07   3
   0   2  -1 57920.0 1501.93   1
   0   2   2 78103.1 2309.52   3
   0   2  -3 437471. 3347.21   2
   0   2   3 446084. 6094.24   3
   0  -2   3 444213. 5495.54   3
   0  -2   4 53627.3 2163.19   3
   0   2   4 57342.7 2438.85   3
   0  -2   4 59939.4 1388.69   2
   0   2  -4 60725.6 2307.44   3
   0   2   5 1230.10 448.065   3
   0  -2   5 1492.18 245.352   2
   0  -2   5 1297.94 407.793   3
   0   2  -5 1046.93 334.913   3
   0  -2   6 4644.51 494.245   2
   0   2   6 4850.72 846.445   3
   0  -2   6 3810.61 717.160   3
   0   2   7 338052. 7567.88   3
   0  -2   7 352192. 4789.38   2
   0  -2   7 332273. 7011.00   3
   0   2   8 8286.99 1262.92   3
   0  -2   8 9942.30 867.246   2
   0  -2   8 10384.2 1335.98   3
   0  -2   9 215.506 161.093   2
   0  -2   9 230.517 240.167   3
   0   2   9 78.0272 296.368   3
   0  -2  10 8587.74 1379.08   3
   0  -2  10 7802.58 894.189   2
   0   2  10 7461.76 1348.52   3
   0  -2  11 27539.4 2597.04   3
   0   2  11 29041.6 2819.13   3
   0  -2  12-54.4260 259.954   3
   0   2  12 498.926 402.350   3
   0  -2  13 2007.31 780.964   3
   0   2  13 2334.12 988.575   3
   0  -2  14 6417.82 1488.39   3
   0   2  14 6334.90 1543.53   3
   0  -2  15 17506.5 2557.25   3
   0   2  15 16227.8 2565.48   3
   0   3   0 115.778 89.8143   1
   0  -3   0-41.0323 85.1724   1
   0   3   1 12857.7 966.192   3
   0  -3  -1 12698.3 661.142   1
   0   3  -1 13674.3 849.919   1
   0   3   2 24838.3 1466.45   3
   0   3  -2 23404.7 1256.13   1
   0   3   3 379020. 6233.29   3
   0   3  -3 366368. 3690.62   2
   0   3  -3 373691. 5549.23   3
   0   3  -4 167557. 3987.63   3
   0   3  -4 165371. 2432.58   2
   0   3   5 4412.32 781.239   3
   0   3   6 67627.4 3323.10   3
   0  -3   6 63800.0 2926.58   3
   0  -3   7 225218. 5868.09   3
   0  -3   7 237069. 3519.86   2
   0   3   7 223037. 6437.05   3
   0  -3   8-99.3236 169.403   3
   0  -3   8-13.6554 51.1438   2
   0   3   8-97.0525 294.075   3
   0   3   9 6140.37 1182.43   3
   0  -3   9 7568.48 1245.35   3
   0  -3   9 7642.15 733.478   2
   0   3  10 3964.26 1015.46   3
   0  -3  10 4952.03 1058.74   3
   0   3  11 1069.48 583.133   3
   0  -3  11 770.308 495.629   3
   0  -3  12 1649.83 695.715   3
   0   3  12 1916.94 825.362   3
   0   3  13 6470.24 1521.76   3
   0  -3  13 5772.20 1297.10   3
   0   3  14 2787.27 1100.58   3
   0  -3  14 2912.10 1003.09   3
   0  -3  15 1019.59 557.838   3
   0   3  15 963.522 646.532   3
   0  -4   0 469406. 4966.99   1
   0   4   0 480361. 5019.26   1
   0   4   1 32043.0 1742.19   3
   0   4  -1 36454.5 1538.08   1
   0  -4  -1 35350.5 1266.33   1
   0   4  -2 42085.3 1829.36   1
   0   4   2 37590.2 2005.42   3
   0   4  -3 1821.51 426.596   1
   0   4   3 2267.81 546.221   3
   0   4  -4 13043.0 784.302   2
   0   4   4 13035.1 1352.87   3
   0   4   5 43067.4 2610.37   3
   0   4  -5 41999.4 1368.56   2
   0   4   6 10400.1 1361.08   3
   0   4   7 3370.20 832.230   3
   0   4   8 3372.02 856.078   3
   0   4   9 3201.59 890.198   3
   0   4  10 45649.5 3555.26   3
   0   4  11 14076.1 2067.34   3
   0   4  12 1396.61 741.761   3
   0   4  13 63.0295 222.383   3
   0   4  14 758.482 502.448   3
   0   5   0 233.185 190.961   1
   0  -5   0 30.0401 80.7372   1
   0  -5  -1 38795.8 1510.70   1
   0   5  -1 36810.6 1706.05   1
   0   5   1 38281.7 2139.40   3
   0   5  -2 124642. 3441.18   1
   0  -5  -2 131576. 2760.11   1
   0   5   2 131367. 4146.20   3
   0   5   3 30686.4 2107.62   3
   0   5   4 99026.2 3978.94   3
   0   5   5 167.184 155.210   3
   0   5  -5 104.224 69.5545   2
   0   5  -6 79326.9 1996.48   2
   0   5   6 86398.0 4121.09   3
   0   5   7 946.317 501.212   3
   0   5   8 71915.3 4194.53   3
   0   5   9 14137.4 1943.86   3
   0   5  10 1184.24 604.312   3
   0   5  11 1806.35 824.393   3
   0   5  12 4712.94 1296.79   3
   0   5  13 757.449 557.132   3
   0   5  14 1828.56 872.866   3
   0   6   0 137.266 159.625   1
   0  -6   0 153.489 153.574   1
   0  -6  -1 135439. 3077.76   1
   0   6  -1 141397. 3585.45   1
   0   6   2 712.618 355.775   3
   0  -6  -2 843.896 240.556   1
   0   6   3 8866.97 1218.58   3
   0   6   4 52552.6 3097.65   3
   0   6   5 2544.14 730.086   3
   0   6  -5 2552.62 432.655   2
   0   6   6 37178.7 2867.58   3
   0   6  -6 35518.3 1509.79   2
   0   6   7 10656.1 1588.24   3
   0   6   8 15887.8 2071.44   3
   0   6   9 15570.6 2145.35   3
   0   6  10 9010.35 1714.36   3
   0   6  11 19782.4 2593.08   3
   0   6  12 4979.93 1378.09   3
   0   6  13 2502.86 966.517   3
   0  -7   0 37.0649 128.735   1
   0  -7  -1 2799.38 484.201   1
   0   7   1 3665.39 798.620   3
   0   7   2 34530.0 2504.78   3
   0  -7  -2 34696.8 1656.58   1
   0   7   3 48867.6 3060.33   3
   0  -7  -3 47529.4 1947.99   1
   0   7   4-189.484 285.388   3
   0   7   5 16546.8 1918.46   3
   0   7   6 2211.81 754.842   3
   0   7   7 21458.8 2366.90   3
   0   7   8 2165.91 785.527   3
   0   7   9 1330.41 633.434   3
   0   7  10 6855.18 1558.82   3
   0   7  11 2437.69 989.343   3
   0   7  12 1642.48 782.435   3
   0   7  13 11858.0 2252.31   3
   0  -8   0 13576.6 1185.87   1
   0   8   1 103074. 4512.57   3
   0  -8  -1 107671. 3188.57   1
   0  -8  -2 661.448 232.969   1
   0   8   2 405.065 335.914   3
   0  -8  -3 8312.88 862.585   1
   0   8   3 7549.97 1301.64   3
   0  -8  -4 5704.33 725.394   1
   0   8   4 5240.70 1072.24   3
   0   8   5 25744.9 2549.40   3
   0   8   6-794.924 478.733   3
   0   8   7-91.3753 383.255   3
   0   8   8-183.459 299.729   3
   0   8   9 15827.4 2304.15   3
   0   8  10 2996.17 1110.13   3
   0   8  11 31456.7 3519.11   3
   0   8  12 2412.47 1012.05   3
   0   9   0-151.415 258.174   3
   0   9   1 877.978 455.847   3
   0  -9  -1 459.599 239.687   1
   0  -9  -2 10089.5 1003.18   1
   0   9   2 12001.8 1681.68   3
   0   9   3 19697.8 2216.76   3
   0  -9  -3 16329.2 1254.18   1
   0  -9  -4 28190.4 1660.89   1
   0   9   4 25271.6 2587.64   3
   0   9   5 53.5967 222.982   3
   0  -9  -5 204.435 145.990   1
   0   9   6 8697.80 1632.37   3
   0   9   7 23242.9 2713.59   3
   0   9   8 33548.3 3384.94   3
   0   9   9 3815.80 1215.23   3
   0   9  10-142.691 272.026   3
   0   9  11 1098.31 734.342   3
   0  10   0 85978.3 4647.12   3
   0  10   1-183.680 377.846   3
   0  10   2 1026.53 631.007   3
   0 -10  -2 847.148 294.722   1
   0 -10  -3-22.4428 129.912   1
   0  10   3-269.416 314.871   3
   0  10   4 23137.7 2609.11   3
   0  10   5 1441.95 760.379   3
   0  10   6 6176.87 1428.54   3
   0  10   7 3058.73 1012.88   3
   0  10   8 121.200 260.364   3
   0  10   9 2189.60 900.540   3
   0  10  10 27875.1 3432.81   3
   0  11   0 425.627 375.192   3
   0  11  -1-132.496 285.319   3
   0  11   1 634.160 495.974   3
   0  11   2 7493.82 1505.23   3
   0  11   3 15308.4 2173.97   3
   0  11   4 20060.4 2561.29   3
   0  11   5 255.861 189.432   3
   0  11   6 6981.59 1588.99   3
   0  11   7 14193.2 2348.19   3
   0  11   8 3607.70 1186.76   3
   0  11   9 534.136 262.874   3
   0  12   0 2522.43 907.091   3
   0  12  -1 21701.1 2608.16   3
   0  12   1 24565.1 2838.93   3
   0  12   2 3.22630 130.493   3
   0  12   3 10452.2 1914.86   3
   0  12   4 1719.80 848.822   3
   0  12   5 2773.47 1082.97   3
   0  12   6 4307.34 1300.41   3
   0  12   7 13311.9 2335.20   3
   0  13   0-46.4379 189.734   3
   0  13  -1 329.978 448.273   3
   0  13   1-760.900 549.327   3
   0  13  -2 367.380 383.144   3
   0  13   2-35.8525 211.329   3
   0  13   3 17755.2 2613.12   3
   0  13   4 7370.17 1708.07   3
   0  13   5 972.882 630.713   3
   0  13   6 3574.95 1253.15   3
   0  14   0 6243.57 1581.02   3
   0  14  -1 10337.7 1988.46   3
   0  14   1 10533.5 2056.79   3
   0  14  -2 8770.17 1872.21   3
   0  14   2 7227.84 1698.67   3
   0  14   3 1397.05 784.195   3
   0  14  -3 2536.47 1014.11   3
  -1   0  16 1643.58 777.385   3
  -1   0  15 118.209 451.725   3
  -1   0  14 41665.5 3605.41   3
  -1   0  13 786.718 460.110   3
  -1   0  12 38896.2 2727.72   2
  -1   0  12 40724.7 3195.00   3
  -1   0  11 52.0759 144.332   2
  -1   0  11 249.195 327.022   3
  -1   0  10 12459.2 1375.46   2
  -1   0  10 13571.0 1640.92   3
  -1   0   9-84.3132 127.546   2
  -1   0   9 473.375 330.026   3
  -1   0   8 7554.61 1053.66   3
  -1   0   7-36.6253 179.810   3
  -1   0   6 8712.87 957.766   3
   1   0  -6 6941.52 855.030   3
   1   0  -5-63.2645 106.039   3
  -1   0   5 104.839 102.406   3
  -1   0   4 52572.8 1791.87   3
   1   0  -4 51080.1 1766.89   3
  -1   0   4 48266.1 1913.38   2
   1   0  -3-21.0035 62.1508   3
  -1   0   3-177.067 152.486   2
  -1   0   2 169224. 3049.73   2
   1   0  -2 164137. 1902.12   3
  -1   0   2 159452. 1928.22   3
  -1   0   1 168.451 111.566   2
   1   0   0 303576. 2955.99   3
  -1   0   0 305332. 3528.05   2
   1   0   1 41.2883 120.487   3
  -1   0  -1 149.521 152.889   1
  -1   0  -2 12816.2 845.350   1
   1   0   2 13275.2 959.780   3
   1   0   3 100.758 173.107   3
  -1   0  -3 105.177 212.141   1
   1   0   4 260304. 5382.86   3
  -1   0  -4 269838. 4861.27   1
   1   0   5 164.017 157.065   3
   1   0   6 31930.3 2244.33   3
   1   0   7 14.7411 233.309   3
   1   0   8 352.786 284.780   3
   1   0   9-69.4449 217.052   3
   1   0  10 47057.8 3492.84   3
   1   0  11 501.254 489.880   3
   1   0  12 6569.70 1438.51   3
   1   0  13 158.129 402.748   3
   1   0  14 33984.5 3599.86   3
  -1   1  16 2866.90 1050.55   3
  -1  -1  15 16844.0 2352.81   3
  -1   1  15 19611.7 2632.90   3
  -1   1  14 17256.9 2387.45   3
  -1  -1  14 18537.4 2358.07   3
  -1   1  13 5469.76 1236.85   3
  -1   1  13 3376.95 878.060   2
  -1  -1  13 4733.94 1109.64   3
  -1  -1  12 1228.73 528.966   3
  -1   1  12 1437.93 659.731   3
  -1  -1  12 1051.70 447.881   2
  -1  -1  11 1782.86 637.627   3
  -1   1  11 2001.93 699.542   3
  -1  -1  11 2035.14 585.799   2
  -1   1  10 63199.6 3616.46   3
  -1  -1  10 60097.5 3383.58   3
  -1  -1  10 62928.9 3079.33   2
  -1  -1   9 3707.33 788.282   3
  -1   1   9 3297.54 781.171   3
  -1  -1   9 4066.51 744.823   2
  -1  -1   8 193085. 5242.94   3
  -1   1   8 191189. 5514.52   3
  -1  -1   8 196386. 4847.83   2
  -1  -1   7 31689.9 1856.98   2
  -1   1   7 32460.3 2104.91   3
  -1  -1   7 32666.0 1992.43   3
   1   1  -6 61449.4 2501.34   3
  -1  -1   6 60135.2 2400.12   2
  -1   1   6 58605.7 2593.38   3
  -1  -1   6 57580.3 2377.73   3
  -1   1   5 29573.7 1679.68   3
   1  -1  -5 30455.6 1694.84   3
   1   1  -5 30633.4 1545.56   3
  -1  -1   5 29488.5 1588.04   2
  -1  -1   5 28818.3 1470.45   3
  -1   1   4 280124. 4550.19   3
   1  -1  -4 272636. 4517.39   3
  -1  -1   4 279535. 3944.07   3
  -1  -1   4 269207. 4498.80   2
   1   1  -4 283920. 3956.40   3
  -1   1   3 259745. 3840.90   3
  -1  -1   3 269451. 4165.88   2
   1  -1  -3 265412. 3893.84   3
   1   1  -3 266526. 3001.72   3
  -1  -1   3 261462. 2899.06   3
  -1  -1   2 76241.7 2108.00   2
  -1   1   2 77809.9 1834.78   3
  -1  -1   1 17720.3 960.039   2
  -1   1   0 999999. 6137.24   2
   1   1   0 917001. 5175.03   3
  -1   1  -1 73331.1 2029.96   1
   1   1   1 69637.2 1442.99   1
   1   1   1 71852.4 1889.17   3
  -1  -1  -1 69883.0 1460.08   1
   1  -1   1 69585.0 1427.13   2
  -1   1  -1 71525.9 1464.08   2
   1   1   2 206217. 3847.25   3
  -1   1  -2 210710. 3802.62   1
  -1  -1  -2 209457. 2971.88   1
   1  -1   2 199291. 3798.07   3
   1  -1   2 202905. 2246.94   2
  -1  -1  -3 2466.13 395.190   1
  -1   1  -3 2576.63 455.899   1
   1  -1   3 2554.83 502.504   3
   1   1   3 2445.21 497.418   3
   1  -1   4 12386.6 1161.99   3
  -1   1  -4 12294.1 1104.09   1
   1   1   4 11996.3 1175.69   3
   1  -1   5 786.350 354.564   3
   1   1   5 1022.64 416.907   3
   1   1   6 66218.4 3253.29   3
   1  -1   6 66382.7 3199.36   3
   1   1   7 116414. 4626.19   3
   1  -1   7 125288. 4712.21   3
   1   1   8 2525.95 740.622   3
   1  -1   8 1273.15 519.499   3
   1   1   9 539.703 269.352   3
   1  -1   9-48.3139 228.067   3
   1   1  10 28652.4 2747.53   3
   1  -1  10 25716.4 2567.79   3
   1   1  11 4635.55 1160.03   3
   1  -1  11 4966.93 1194.48   3
   1  -1  12 4996.11 1252.85   3
   1   1  12 4071.62 1156.77   3
   1   1  13 2156.64 884.648   3
   1  -1  13 1005.13 642.536   3
   1  -1  14 484.157 448.902   3
   1   1  14 703.648 550.078   3
  -1   2  16 1892.89 895.894   3
  -1   2  15 17895.3 2592.95   3
  -1  -2  15 17283.6 2406.41   3
  -1   2  14 1267.15 668.172   3
  -1  -2  14 2647.07 917.569   3
  -1  -2  13 3861.57 1067.80   3
  -1   2  13 1700.27 737.219   3
  -1  -2  12 2274.00 777.135   3
  -1   2  12 2313.30 796.783   3
  -1  -2  11 46548.2 3121.84   3
  -1   2  11 42985.0 3256.99   3
  -1  -2  11 44584.0 2581.08   2
  -1   2  10 6806.00 1229.50   3
  -1  -2  10 8006.24 1219.23   3
  -1  -2  10 8128.39 1069.89   2
  -1  -2   9 638.162 309.918   3
  -1  -2   9 813.913 309.912   2
  -1   2   9 761.546 391.018   3
  -1  -2   8 1939.75 491.441   2
  -1  -2   8 2021.05 518.907   3
  -1   2   8 1779.93 560.892   3
  -1   2   7 284202. 6621.46   3
  -1  -2   7 298498. 5583.07   2
  -1  -2   7 299105. 5861.05   3
   1   2  -6 9549.64 969.282   3
  -1  -2   6 8927.13 918.755   3
  -1  -2   6 9112.38 915.692   2
  -1   2   6 10239.7 1138.31   3
   1  -2  -5 48591.9 2287.74   3
   1   2  -5 48576.0 1934.58   3
  -1  -2   5 48822.7 1924.56   3
  -1   2   5 49690.8 2324.99   3
  -1  -2   5 47635.9 2077.47   2
   1   2  -4 13762.2 1002.74   2
   1   2  -4 13093.6 860.782   3
   1  -2  -4 14086.4 1135.68   3
  -1  -2   4 14418.7 1046.70   2
  -1   2   4 13450.6 1127.99   3
  -1  -2   4 12295.6 838.972   3
   1   2  -3 62025.4 1554.37   3
   1  -2  -3 67105.2 2230.71   3
   1   2  -3 61357.6 2036.20   2
  -1  -2   3 58150.9 1996.49   2
  -1   2   3 67603.0 2258.23   3
  -1   2   2 3166.40 450.717   3
   1   2  -1 381000. 3361.39   3
  -1  -2   0 13549.2 765.024   3
   1   2   0 12759.9 742.981   3
  -1   2  -1 37192.8 1633.99   1
   1   2   1 35557.8 1476.22   3
  -1   2  -2 14377.7 1087.53   1
   1   2   2 12921.9 1031.95   3
  -1  -2  -2 13890.0 650.749   1
  -1   2  -2 12497.3 510.964   2
  -1   2  -3 481914. 6788.88   1
   1   2   3 473087. 6963.73   3
   1  -2   3 475154. 6860.01   3
   1   2   4 378.018 224.236   3
   1  -2   4 530.554 315.651   3
   1   2   5 495.213 291.690   3
   1  -2   5 26.2799 173.988   3
   1   2   6 12256.2 1444.24   3
   1  -2   6 12875.6 1453.98   3
   1  -2   6 10394.9 464.044   2
   1  -2   7 15018.1 1652.76   3
   1   2   7 15496.5 1723.02   3
   1  -2   7 13683.1 647.746   2
   1   2   8 3834.50 910.108   3
   1  -2   8 3940.84 399.989   2
   1  -2   8 3847.49 881.267   3
   1   2   9 31145.9 2755.67   3
   1  -2   9 29956.9 2634.78   3
   1  -2   9 30572.1 1235.56   2
   1  -2  10 945.539 512.149   3
   1   2  10 720.508 443.152   3
   1   2  11 7910.49 1539.14   3
   1  -2  11 7110.27 1405.92   3
   1  -2  12-250.590 312.863   3
   1   2  12 739.140 561.881   3
   1   2  13 12930.7 2178.41   3
   1  -2  13 11994.1 2018.77   3
   1   2  14 1778.84 757.930   3
   1  -2  14 1883.05 966.000   3
  -1   3  15 17527.4 2582.44   3
  -1  -3  14 26.0434 181.492   3
  -1   3  14 38.8651 371.990   3
  -1  -3  13 7544.31 1403.90   3
  -1   3  13 8106.38 1628.21   3
  -1   3  12-4.21421 250.045   3
  -1  -3  12 119.957 206.418   3
  -1   3  11 12121.8 1805.08   3
  -1  -3  11 10727.9 1215.92   2
  -1  -3  11 11068.0 1540.81   3
  -1   3  10 6002.50 1194.73   3
  -1  -3  10 6232.49 912.196   2
  -1  -3  10 5859.99 1048.38   3
  -1  -3   9-89.2380 116.860   2
  -1  -3   9-241.865 215.144   3
  -1   3   9-137.166 187.208   3
  -1  -3   8 4005.70 668.771   2
  -1   3   8 4732.52 943.242   3
  -1  -3   8 4238.05 791.347   3
  -1   3   7 11552.5 1379.43   3
  -1  -3   7 13233.5 1276.28   3
  -1  -3   7 14011.3 1214.04   2
   1   3  -6 826.427 307.433   3
  -1   3   6 1493.35 493.809   3
  -1  -3   6 589.668 216.984   2
  -1   3   5 107153. 3688.14   3
   1   3  -5 115056. 3120.51   3
  -1  -3   5 114638. 3100.89   2
   1   3  -5 110322. 3032.19   2
   1  -3  -4 32881.4 1891.93   3
  -1   3   4 33173.0 1933.57   3
   1   3  -4 38499.9 1738.53   2
   1   3  -4 35394.5 1522.27   3
  -1   3   3 192927. 4375.70   3
   1   3  -3 196092. 3890.42   2
   1   3  -1 45232.3 1526.93   3
  -1  -3   0 99731.8 2440.52   3
   1   3   0 96260.7 2461.42   3
  -1   3  -1 28899.0 1553.64   1
  -1  -3  -1 31788.7 1565.90   3
   1   3   1 30009.6 1537.39   3
   1   3   2 12592.7 1091.08   3
  -1   3  -2 14552.4 1190.68   1
   1   3   3 72677.1 2893.08   3
   1   3   4 37010.8 2261.46   3
   1   3   5 53079.0 2902.92   3
   1  -3   6 9345.91 1244.94   3
   1   3   6 9900.02 1339.11   3
   1   3   7 53161.0 3307.45   3
   1  -3   7 49059.8 3052.34   3
   1  -3   8 1359.70 569.745   3
   1   3   8 1895.20 648.703   3
   1   3   9 3883.84 986.242   3
   1  -3   9 2861.33 817.286   3
   1   3  10 3354.25 985.117   3
   1  -3  10 3010.26 903.910   3
   1  -3  11 23541.1 2600.70   3
   1   3  11 23084.1 2677.74   3
   1   3  12-229.242 304.175   3
   1  -3  12 1395.35 811.153   3
   1   3  13 2383.44 958.455   3
   1  -3  13 2027.44 878.962   3
   1  -3  14 1400.84 741.529   3
   1   3  14 2121.72 1015.55   3
  -1   4  15 251.383 359.315   3
  -1   4  14 94.2338 220.766   3
  -1   4  13 57.4299 470.900   3
  -1   4  12 13565.0 2040.68   3
  -1   4  11 21310.5 2440.78   3
  -1   4  10 19742.8 2235.62   3
  -1   4   9 1083.14 582.129   3
  -1   4   8 46279.7 3111.31   3
  -1   4   7 25681.9 2191.06   3
  -1   4   6 23267.3 1967.84   3
   1   4  -6 20031.3 1362.51   2
   1   4  -5 16.3387 84.1020   3
   1   4  -5 130.984 137.018   2
  -1   4   5 142.221 137.409   3
   1   4  -4-9.92879 124.132   3
   1   4  -4 59.1035 154.558   2
  -1   4   4 396.519 200.342   3
  -1   4   3 9041.43 1063.24   3
   1   4  -3 8457.53 869.694   2
   1   4  -1 296447. 4606.79   3
   1  -4  -1 270095. 4896.33   1
   1   4   0 410238. 3142.93   1
   1   4   0 416617. 5898.03   3
   1  -4   0 403774. 6045.37   1
   1   4   1 11145.3 1074.83   3
  -1  -4  -1 14142.8 1152.44   3
  -1   4  -1 14581.4 1181.96   1
  -1  -4  -2 80507.7 2988.68   3
   1   4   2 81268.9 3050.68   3
   1   4   3 5115.30 810.064   3
   1   4   4 45333.1 2619.52   3
   1   4   5 28428.2 2237.13   3
   1   4   6 12917.1 1611.74   3
   1   4   7 2019.57 724.327   3
   1   4   8 31065.9 2765.13   3
   1   4   9 30566.6 2886.14   3
   1   4  10 28671.3 2924.32   3
   1   4  11-294.544 331.633   3
   1   4  12 394.211 199.727   3
   1   4  13 5277.17 1428.18   3
  -1   5  14 36132.3 3751.37   3
  -1   5  13 884.378 571.511   3
  -1   5  12 2355.92 842.832   3
  -1   5  11-424.857 396.631   3
  -1   5  10 3474.57 949.413   3
  -1   5   9-138.671 355.434   3
  -1   5   8 5354.85 1122.84   3
  -1   5   7 486.650 412.861   3
   1   5  -6 256.125 169.915   2
  -1   5   6 654.594 352.722   3
  -1   5   5 23352.2 1997.10   3
   1   5  -5 22264.3 1537.61   2
   1   5  -4 286716. 5447.96   2
  -1   5   4 291356. 6770.12   3
  -1   5   3 7236.08 1041.35   3
   1   5  -1 1880.69 313.456   1
   1  -5  -1 1458.17 374.570   1
   1   5  -1 1322.29 377.423   3
   1   5   0 28748.2 1777.42   3
   1   5   0 28006.2 964.918   1
   1  -5   0 26631.3 1667.59   1
   1   5   1 1408.88 444.170   3
   1  -5   1 1572.55 438.323   1
   1   5   2 14080.1 1362.17   3
   1   5   3 3589.75 734.802   3
   1   5   4 397.712 360.693   3
   1   5   5 2541.00 684.998   3
   1   5   6 132315. 5329.72   3
   1   5   7 27333.7 2567.67   3
   1   5   8 47668.8 3525.80   3
   1   5   9 779.120 425.932   3
   1   5  10 208.222 224.573   3
   1   5  11 534.461 429.158   3
   1   5  12 25928.7 3123.99   3
   1   5  13-351.243 424.896   3
  -1   6  14 6711.42 1680.20   3
  -1   6  13 859.944 545.770   3
  -1   6  12 3382.25 1004.05   3
  -1   6  11 20565.9 2603.85   3
  -1   6  10 29981.5 3000.15   3
  -1   6   9 12475.3 1851.30   3
  -1   6   8 90621.6 4751.50   3
  -1   6   7 47181.7 3309.29   3
  -1   6   6 56404.3 3483.28   3
  -1   6   5 4637.37 959.671   3
  -1   6   4 10589.4 1395.68   3
  -1   6   3 9366.29 1267.16   3
   1  -6  -2 48299.1 2327.44   1
   1   6  -2 43894.3 1915.12   1
  -1   6   2 42208.2 2564.96   3
   1   6  -1 224.870 149.573   3
   1   6  -1 480.524 200.680   1
   1  -6  -1 279.512 259.809   1
   1   6   0 4483.71 442.584   1
   1   6   0 4987.50 807.713   3
   1  -6   0 5134.25 783.237   1
   1   6   1 65287.9 3034.87   3
   1   6   2 169236. 5131.78   3
   1   6   3 34793.1 2453.51   3
   1   6   4 24066.8 2133.44   3
  -1   6  -5 4158.50 355.026   2
   1   6   5 4213.18 934.437   3
   1   6   6 11.1276 277.728   3
   1   6   7 40440.9 3229.23   3
   1   6   8 25215.5 2681.45   3
   1   6   9-59.1567 193.957   3
   1   6  10-454.421 519.343   3
   1   6  11-192.011 305.225   3
   1   6  12 1199.12 701.605   3
  -1   7  13 3713.63 1242.38   3
  -1   7  12 173.273 311.563   3
  -1   7  11 14789.2 2310.45   3
  -1   7  10-203.882 314.567   3
  -1   7   9 11041.9 1833.34   3
  -1   7   8 568.394 461.966   3
  -1   7   7 114127. 5387.53   3
  -1   7   6 17014.0 2041.68   3
  -1   7   5 54470.9 3483.16   3
  -1   7   4 1714.38 646.443   3
  -1   7   3 43059.2 2922.16   3
  -1   7   2 53205.5 3114.70   3
   1   7  -2 57139.7 2336.03   1
   1   7  -1 48391.3 1909.77   1
   1   7  -1 48899.9 2664.48   3
   1   7   0 686.126 194.658   1
   1   7   0 1294.28 494.678   3
   1   7   1 75580.4 3514.98   3
   1   7   2 24434.3 2091.33   3
   1   7   3 123287. 4909.97   3
   1   7   4 4028.76 941.687   3
  -1  -7  -4 2848.56 301.130   1
   1   7   5 63387.8 3842.19   3
   1   7   6 39039.3 3138.88   3
   1   7   7 17580.2 2196.36   3
   1   7   8 31441.8 3116.60   3
   1   7   9 6540.52 1485.59   3
   1   7  10 2293.72 880.206   3
   1   7  11 22553.6 2944.74   3
   1   7  12-522.924 502.227   3
  -1   8  12 220.354 518.752   3
  -1   8  11 34296.7 3616.20   3
  -1   8  10 11567.7 2008.86   3
  -1   8   9 1621.68 746.134   3
  -1   8   8 171.708 436.625   3
  -1   8   7 18978.5 2332.18   3
  -1   8   6 14695.6 1975.64   3
  -1   8   5 1933.35 670.843   3
  -1   8   4 5701.63 1153.49   3
  -1   8   3 1687.47 591.182   3
  -1   8   2 34309.0 2690.59   3
   1   8  -1 132157. 3350.03   1
   1   8  -1 133150. 4802.60   3
   1   8   0 176044. 5697.69   3
   1  -8   1 10971.6 1310.26   1
   1   8   1 9120.19 1316.06   3
   1  -8   2 91.7751 176.832   1
   1   8   2-35.7454 146.198   3
   1   8   3 18769.0 2048.53   3
   1   8   4 283.807 342.907   3
   1   8   5 9366.95 1561.07   3
   1   8   6 529.634 353.470   3
   1   8   7 8121.86 1564.05   3
   1   8   8 43926.0 3783.06   3
   1   8   9 26459.3 3089.69   3
   1   8  10 14524.9 2349.30   3
   1   8  11 2847.97 1045.32   3
  -1   9  11 451.051 459.390   3
  -1   9  10 8469.97 1800.51   3
  -1   9   9 10146.5 1876.93   3
  -1   9   8 4218.97 1197.11   3
  -1   9   7 113.986 305.913   3
  -1   9   6 1331.46 677.650   3
   1  -9  -5 7247.52 1093.75   1
  -1   9   5 6680.86 1397.23   3
  -1   9   4 89814.4 4881.69   3
  -1   9   3 9738.25 1560.22   3
  -1   9   2 33441.1 2883.98   3
   1  -9  -1 11626.5 1330.85   1
   1   9  -1 12201.9 1561.88   3
   1  -9   0 9460.30 1247.24   1
   1   9   0 10746.3 1526.83   3
   1  -9   1 9740.38 1294.89   1
   1   9   1 10253.1 1524.58   3
   1   9   2 15635.1 1910.32   3
   1   9   3 973.122 504.117   3
   1   9   4-405.142 349.855   3
   1   9   5 5995.92 1308.07   3
   1   9   6 2240.73 775.096   3
   1   9   7 388.236 479.422   3
   1   9   8 4263.61 1199.56   3
   1   9   9 1174.01 688.596   3
   1   9  10 2957.31 1151.80   3
  -1  10  10 11723.6 2197.23   3
  -1  10   9 19281.2 2726.08   3
  -1  10   8 19485.0 2659.51   3
  -1  10   7 11713.5 2004.71   3
   1 -10  -6 15127.7 1653.28   1
  -1  10   6 14422.5 2195.50   3
   1 -10  -5 3658.66 791.100   1
  -1  10   5 4563.38 1208.42   3
   1 -10  -4 831.041 312.780   1
  -1  10   4 2300.73 1038.13   3
   1 -10  -3 13174.9 1469.03   1
  -1  10   3 14206.3 2022.34   3
   1 -10  -2 2309.95 630.562   1
   1  10  -2 1974.67 666.724   3
  -1  10   2 2277.69 858.257   3
   1 -10  -1 1519.48 527.032   1
   1  10  -1 1399.54 579.924   3
  -1  10   1 865.743 418.948   3
   1 -10   0 31523.5 2346.70   1
   1  10   0 33106.1 2821.33   3
   1  10   1 48000.3 3450.25   3
   1 -10   1 48840.9 3009.53   1
   1  10   2 9651.87 1567.91   3
   1  10   3-358.280 337.791   3
   1  10   4 49869.6 3830.27   3
   1  10   5 56.9592 244.583   3
   1  10   6 17926.8 2425.81   3
   1  10   7 19085.6 2584.01   3
   1  10   8 1714.91 818.308   3
   1  10   9 2129.10 965.312   3
  -1  11   9-583.615 528.692   3
  -1  11   8 9045.02 1932.13   3
  -1  11   7 5712.67 1453.93   3
  -1  11   6 1182.81 765.376   3
  -1  11   5 12852.5 2100.60   3
  -1  11   4 20085.1 2587.13   3
  -1  11   3 22597.5 2686.33   3
   1 -11  -3 20038.1 1856.00   1
   1  11  -2 11449.5 1723.59   3
   1 -11  -2 11450.1 1426.89   1
  -1  11   2 11440.7 1871.84   3
   1 -11  -1-191.575 296.969   1
   1  11  -1-71.6750 208.480   3
  -1  11   1 41.7896 425.595   3
   1 -11   0 54915.1 3239.25   1
   1  11   0 57202.3 3955.04   3
   1  11   1 212.742 380.619   3
   1  11   2 10581.3 1751.29   3
   1  11   3 8093.91 1577.24   3
   1  11   4 1364.67 689.118   3
   1  11   5 21326.8 2698.49   3
   1  11   6 15064.1 2341.77   3
   1  11   7 29251.3 3381.68   3
   1  11   8 1123.31 705.920   3
  -1  12   8 428.592 527.244   3
  -1  12   7 32822.1 3702.74   3
  -1  12   6 11421.5 2106.91   3
  -1  12   5 524.904 570.014   3
  -1  12   4 326.858 385.633   3
   1  12  -3 3099.33 917.544   3
  -1  12   3 1292.57 753.941   3
   1  12  -2 268.628 407.982   3
  -1  12   2-58.6196 388.543   3
  -1  12   1 25493.4 2935.14   3
   1 -12  -1 24022.2 2160.05   1
   1  12  -1 23451.2 2653.32   3
  -1  12   0-95.3300 252.064   3
   1  12   0 47.3877 212.641   3
   1  12   1 2174.79 897.925   3
   1  12   2 1356.38 637.824   3
   1  12   3 30338.1 3219.04   3
   1  12   4 6800.28 1576.20   3
   1  12   5 445.300 425.701   3
   1  12   6-685.277 538.590   3
   1  12   7 14049.0 2419.29   3
  -1  13   5 2416.60 1014.43   3
  -1  13   4 9672.30 1960.25   3
   1  13  -4 7409.20 1569.80   3
  -1  13   3 23683.5 3044.77   3
   1  13  -3 22853.0 2732.68   3
  -1  13   2 380.262 435.383   3
   1  13  -2 752.713 327.823   3
   1  13  -1 4623.79 1234.91   3
  -1  13   1 3784.92 1170.14   3
  -1  13   0 455.908 459.722   3
   1  13   0-280.565 332.290   3
   1  13   1 10843.6 1932.59   3
   1  13   2 142.003 381.432   3
   1  13   3 1123.74 650.841   3
   1  13   4 961.596 577.851   3
   1  13   5-442.690 468.655   3
   1  14  -5 4659.40 1275.23   3
   1  14  -4 2557.27 941.383   3
   1  14  -3-123.054 255.614   3
   1  14  -2 3135.36 1035.14   3
  -1  14   2 1508.36 815.297   3
  -1  14   1-16.2287 176.071   3
   1  14  -1 859.447 587.394   3
  -1  14   0 5495.53 1523.22   3
   1  14   0 5101.86 1392.46   3
   1  14   1 603.243 466.965   3
  -1  14  -1 2312.35 961.487   3
   1  14   2 5554.10 1446.01   3
   1  14   3 5496.85 1566.89   3
   1  15  -3 704.688 557.141   3
   1  15  -2 14861.5 2461.77   3
   1  15  -1 4751.84 1383.99   3
  -2   0  14 3154.36 950.699   3
  -2   0  13 47.3756 192.541   2
  -2   0  13 360.728 398.672   3
  -2   0  12 25771.4 2394.35   3
  -2   0  12 24735.7 2415.56   2
  -2   0  11-52.6575 212.151   3
  -2   0  11-112.675 288.660   2
  -2   0  10 6048.33 1013.44   3
  -2   0  10 5813.54 1060.35   2
  -2   0   9-52.4869 190.018   3
  -2   0   9 261.811 227.358   2
  -2   0   8 195603. 5684.36   2
  -2   0   8 193098. 4866.85   3
  -2   0   7-76.5542 191.731   3
  -2   0   7 214.792 261.671   2
   2   0  -7 54.0105 96.3488   3
   2   0  -6 3451.62 519.677   3
  -2   0   6 3695.72 551.290   3
  -2   0   6 2571.94 625.242   2
  -2   0   5-65.1074 78.1273   3
   2   0  -5 2.65464 79.4634   3
  -2   0   5 63.0845 140.110   2
  -2   0   4 4255.60 727.056   2
  -2   0   4 4119.04 426.073   3
  -2   0   3 194.533 263.632   2
  -2   0   3-59.2264 53.0423   3
  -2   0   2 325385. 5595.10   2
  -2   0   1 95.9845 126.419   3
  -2   0   1-28.7968 147.680   2
   2   0   0 16929.9 999.861   3
  -2   0   0 17504.0 1208.91   2
  -2   0   0 18225.6 1046.95   3
   2   0   1 427.622 226.096   2
   2   0   1 94.3458 173.397   3
   2   0   1-119.360 115.253   1
  -2   0  -1 87.9619 162.325   3
  -2   0  -2 42543.9 2041.97   3
  -2   0  -2 39153.5 1856.84   1
   2   0   2 41483.8 1904.46   1
   2   0   2 38899.6 1954.97   3
   2   0   2 39786.3 1742.18   2
  -2   0  -3-179.878 163.068   1
   2   0   3-29.1888 160.837   3
   2   0   3 80.1912 202.136   1
   2   0   4 39196.3 2331.34   3
   2   0   5-65.5687 193.660   3
   2   0   6 10998.9 1452.01   3
   2   0   7 110.961 250.003   3
   2   0   8 79370.2 4380.62   3
   2   0   9 92.9678 120.101   3
   2   0  10 668.906 370.921   3
   2   0  11-914.679 564.855   3
   2   0  12 4141.74 1150.03   3
   2   0  13-160.850 311.404   3
  -2   1  14 869.655 485.634   3
  -2   1  14 1083.00 503.151   2
  -2  -1  13 156.144 240.507   2
  -2   1  13 104.424 217.585   3
  -2  -1  13 402.031 322.535   3
  -2   1  13-242.095 286.007   2
  -2  -1  12 16918.1 1883.96   3
  -2   1  12 15012.1 1904.50   2
  -2   1  12 19058.3 2090.50   3
  -2  -1  12 18526.7 2035.10   2
  -2  -1  11 8860.40 1282.21   3
  -2   1  11 9294.30 1426.62   2
  -2   1  11 11363.8 1531.60   3
  -2  -1  11 9346.34 1399.12   2
  -2   1  10 11206.0 1441.43   3
  -2  -1  10 11533.3 1366.80   3
  -2  -1  10 8842.42 1312.82   2
  -2   1  10 9354.40 1376.30   2
  -2   1   9 7333.08 1084.08   3
  -2   1   9 5627.88 1005.12   2
  -2  -1   9 6479.01 957.296   3
  -2  -1   9 5689.66 982.964   2
  -2  -1   8 11988.0 1394.65   2
  -2   1   8 11101.4 1251.89   3
  -2   1   8 10084.9 1318.18   2
  -2  -1   8 12140.2 1174.11   3
  -2   1   7 109.031 156.786   3
  -2   1   7 175.812 251.032   2
  -2  -1   7 171.163 242.949   2
  -2  -1   7-50.0030 117.975   3
   2   1  -7-119.784 127.062   3
  -2  -1   6 21857.5 1215.11   3
   2   1  -6 22512.2 1255.91   3
  -2   1   6 22934.4 1805.26   2
  -2   1   6 22375.2 1495.34   3
   2  -1  -6 23535.5 1502.36   3
  -2  -1   6 24945.0 1837.68   2
  -2   1   5 72646.4 2424.75   3
  -2  -1   5 75772.6 1874.21   3
   2  -1  -5 71313.7 2350.74   3
  -2   1   5 74716.2 3055.78   2
  -2  -1   5 75177.9 3062.88   2
   2   1  -5 73117.4 1861.02   3
  -2   1   4 73873.9 2207.24   3
   2   1  -4 70764.0 1310.59   3
  -2   1   4 71196.2 2895.08   2
  -2  -1   4 72432.5 1333.01   3
  -2  -1   4 67742.6 2818.97   2
  -2   1   3 18767.6 1024.62   3
  -2  -1   3 20074.8 1474.65   2
  -2   1   3 16533.0 1350.01   2
  -2   1   2 56705.8 2363.99   2
  -2  -1   2 56259.3 2402.20   2
  -2  -1   1 17917.8 770.831   3
  -2   1   1 16813.7 1220.68   2
   2   1  -1 17260.1 740.119   3
  -2  -1   1 18435.8 1328.83   2
  -2   1   0 146394. 3409.54   2
  -2   1   0 141824. 3185.94   3
  -2  -1   0 146169. 2845.66   3
   2  -1   0 147572. 3351.22   2
   2   1   0 141696. 2746.17   3
  -2   1  -1 196459. 3771.74   2
   2  -1   1 199257. 3756.30   2
  -2  -1  -1 206338. 3995.65   3
  -2   1  -1 213643. 4235.29   3
   2   1   1 207356. 4305.85   2
   2   1   1 195671. 3884.49   3
   2   1   1 198830. 3644.85   1
  -2   1  -2 33920.2 1857.27   1
  -2  -1  -2 37725.9 1677.93   1
   2  -1   2 35435.1 1927.21   3
   2  -1   2 34539.8 1498.95   2
  -2  -1  -2 37592.9 1939.29   3
   2   1   2 36472.4 1884.92   3
  -2   1  -2 37418.2 1976.52   3
   2   1   2 33750.0 1571.34   1
   2   1   3 19053.0 1253.71   1
   2   1   3 19650.6 1521.46   3
   2  -1   3 18584.3 1443.06   1
   2  -1   3 19241.7 1539.09   3
   2  -1   3 18245.3 1072.05   2
  -2  -1  -3 19530.0 1338.13   1
   2  -1   4 76726.5 3282.15   3
   2   1   4 78022.1 3318.23   3
   2  -1   4 76279.7 2189.37   2
  -2  -1  -4 79279.6 2845.57   1
   2  -1   5 37335.1 2467.18   3
   2   1   5 37418.3 2490.85   3
   2  -1   5 37071.9 1535.36   2
   2   1   6 797.568 401.991   3
   2  -1   6 757.042 380.418   3
   2  -1   7 370.810 251.182   3
   2   1   7-22.7414 248.069   3
   2   1   8 5385.36 1170.56   3
   2  -1   8 3949.40 985.717   3
   2   1   9 1417.23 656.209   3
   2  -1   9 850.444 521.440   3
   2   1  10 20646.1 2490.29   3
   2  -1  10 20476.2 2457.86   3
   2   1  11 14415.1 2173.47   3
   2  -1  11 13291.3 2052.29   3
   2   1  12 2743.71 1000.55   3
   2  -1  12 2881.37 974.491   3
   2  -1  13 7054.78 1686.21   3
   2   1  13 4275.96 1286.05   3
  -2   2  14 4070.37 1085.17   3
  -2   2  14 5766.49 1290.71   2
  -2   2  13 5917.96 1292.85   3
  -2   2  13 4865.97 1136.09   2
  -2   2  12 1606.25 631.197   3
  -2  -2  12 522.013 321.778   2
  -2  -2  12 797.796 417.846   3
  -2   2  12 667.546 351.512   2
  -2  -2  11 17593.7 1910.26   2
  -2   2  11 14980.1 1847.36   2
  -2   2  11 18365.9 2046.30   3
  -2  -2  11 17528.9 1762.08   3
  -2   2  10 127.198 221.703   3
  -2  -2  10 41.8528 339.332   2
  -2  -2  10 342.659 296.166   3
  -2  -2   9 33545.0 2080.97   3
  -2  -2   9 36717.2 2506.54   2
  -2   2   9 32822.9 2431.45   3
   2   2  -8 10688.7 1092.84   3
  -2  -2   8 14011.7 1207.96   3
  -2   2   8 12188.8 1406.71   3
  -2  -2   8 10505.9 1302.27   2
  -2  -2   7 23580.0 1409.69   3
  -2   2   7 21263.1 1703.31   3
   2   2  -7 23115.1 1425.28   3
  -2  -2   7 23754.1 1866.90   2
  -2  -2   6-125.598 178.295   2
  -2  -2   6 129.810 118.860   3
   2   2  -6-74.2833 123.903   3
  -2   2   6-4.51075 97.4875   3
  -2  -2   5 1999.34 507.146   2
   2   2  -5 1869.07 278.042   3
  -2   2   5 1875.48 457.413   3
  -2   2   4 28513.8 1583.73   3
  -2  -2   4 30899.9 1924.65   2
  -2   2   3 76761.9 2457.97   3
  -2  -2   3 82549.0 3019.70   2
  -2   2   2 12585.1 1122.34   2
  -2  -2   1 5192.87 436.841   3
   2   2  -1 5367.70 442.185   3
  -2   2   1 4905.50 679.933   2
  -2   2   0 15601.0 1130.14   2
   2   2   0 16205.8 976.283   3
  -2  -2   0 16201.3 974.591   3
  -2   2  -1 270724. 4306.87   2
   2   2   1 263520. 4608.71   3
  -2  -2  -1 270844. 4712.95   3
   2   2   1 266634. 3752.08   1
   2   2   2 12764.9 854.224   1
  -2  -2  -2 11940.2 873.636   1
   2   2   2 12150.7 1119.22   3
  -2   2  -2 11520.6 829.345   2
   2  -2   2 12044.4 824.622   2
  -2  -2  -2 13252.1 1188.12   3
   2   2   3 25054.7 1755.25   3
   2  -2   3 25497.3 1117.86   2
  -2  -2  -3 27690.9 1400.94   1
   2  -2   4 9032.26 1185.48   3
   2   2   4 10576.8 1267.52   3
  -2  -2  -4 10966.0 979.124   1
   2  -2   4 9167.72 637.850   2
   2   2   5 17829.7 1721.93   3
   2  -2   5 17339.2 825.405   2
   2  -2   5 17363.2 1727.15   3
  -2  -2  -5 20263.8 1447.80   1
   2   2   6 3473.75 832.009   3
   2  -2   6 4088.82 894.745   3
   2  -2   6 3537.65 355.715   2
   2   2   7 36073.3 2819.31   3
   2  -2   7 31039.8 1014.18   2
   2  -2   7 37304.6 2856.72   3
   2   2   8 318.184 301.020   3
   2  -2   8 470.806 370.024   3
   2   2   9 287.120 368.385   3
   2  -2   9 51.7505 311.004   3
   2   2  10 390.212 352.518   3
   2  -2  10 193.591 261.838   3
   2   2  11 4894.04 1260.01   3
   2  -2  11 4018.91 1166.28   3
   2   2  12 2489.11 956.349   3
   2  -2  12 4483.68 1302.07   3
   2   2  13 2721.34 1053.18   3
   2  -2  13 1384.18 787.022   3
  -2   3  15 15196.8 2230.10   2
  -2   3  15 16814.2 2435.95   3
  -2   3  14 1418.61 690.157   3
  -2   3  14 1792.83 743.854   2
  -2   3  13 1041.71 604.569   3
  -2  -3  12 5527.84 1087.48   2
  -2  -3  12 5546.21 1058.99   3
  -2   3  12 5393.75 1207.83   3
  -2   3  11 37542.4 3005.44   3
  -2  -3  11 31455.7 2359.91   3
  -2  -3  11 38148.5 2719.21   2
  -2   3  10 697.169 382.347   3
  -2  -3  10 1032.41 534.595   2
  -2  -3  10 413.721 185.039   3
  -2   3   9 643.994 431.247   3
  -2  -3   9 1265.33 477.064   2
  -2  -3   9 987.742 327.192   3
   2   3  -8 1032.79 340.888   3
  -2  -3   8 1362.31 461.425   2
  -2   3   8 933.696 406.634   3
   2   3  -7 635.040 235.968   3
  -2  -3   7 494.722 270.701   2
  -2   3   7 714.078 299.520   3
   2   3  -6 50259.8 1842.76   3
  -2  -3   6 51029.1 2651.88   2
  -2   3   6 52035.5 2692.08   3
   2   3  -5 76867.3 1930.82   3
  -2   3   5 75548.8 3067.01   3
  -2  -3   5 74843.3 3122.54   2
   2   3  -4-25.7912 35.7620   3
  -2   3   4 25.8935 181.761   3
   2   3  -3 31011.3 917.121   3
   2   3  -2 4604.07 403.773   3
  -2  -3   1 17119.4 945.272   3
   2   3  -1 17649.0 947.888   3
  -2  -3   0 17434.4 1110.66   3
   2   3   0 16990.2 1107.54   3
  -2   3   0 15827.6 1139.06   2
   2   3   1 26808.4 1584.23   3
  -2  -3  -1 26282.3 1546.61   3
  -2   3  -1 23972.8 1306.80   2
   2   3   1 23103.4 950.277   1
  -2  -3  -2 5960.48 820.430   3
   2   3   2 5145.66 460.322   1
  -2   3  -2 5124.13 540.031   2
   2   3   2 4930.22 760.752   3
   2   3   3 1002.18 358.649   3
  -2  -3  -3 495.443 169.212   1
  -2   3  -3 506.643 156.442   2
   2   3   4 21921.1 1853.48   3
  -2  -3  -4 21518.4 1258.88   1
   2   3   5 145664. 5141.60   3
  -2  -3  -5 151762. 3708.56   1
   2   3   6 4617.59 967.439   3
   2  -3   6 3637.86 863.109   3
   2  -3   7 38959.7 2971.09   3
   2   3   7 38414.6 2963.87   3
   2   3   8 4517.94 1098.37   3
   2  -3   8 4519.33 1090.45   3
   2   3   9 1307.22 682.911   3
   2  -3   9 1752.78 643.570   3
   2   3  10 1697.85 799.329   3
   2  -3  10 485.599 383.672   3
   2  -3  11 16014.9 2321.67   3
   2   3  11 16844.4 2413.99   3
   2   3  12 4016.72 1210.41   3
   2  -3  12 4011.34 1255.97   3
   2   3  13 8149.63 1852.72   3
   2  -3  13 6956.16 1667.18   3
  -2   4  15 913.272 600.819   3
  -2   4  15 738.375 518.650   2
  -2   4  14 6167.42 1482.07   3
  -2   4  13 3694.15 1057.46   3
  -2   4  12 5345.13 1251.42   3
  -2   4  11 881.714 518.671   3
  -2  -4  11 998.988 439.227   2
  -2   4  10 2020.02 677.307   3
  -2  -4  10 1442.68 548.633   2
  -2   4   9 2865.22 779.201   3
  -2  -4   9 4202.75 836.224   2
  -2   4   8 20941.7 2028.60   3
  -2   4   7 85997.2 3888.98   3
   2   4  -7 80885.0 2775.00   3
  -2   4   6 10363.1 1279.01   3
   2   4  -6 9814.15 868.659   3
  -2   4   5 23533.7 1855.89   3
   2   4  -5 21555.6 1153.87   3
   2   4  -4 11320.6 771.191   3
  -2   4   4 12119.4 1276.10   3
   2   4  -3 5566.88 527.954   3
   2   4  -2 167354. 3125.08   3
   2   4  -1 488.509 184.081   3
   2   4   0 58782.4 2275.87   3
  -2  -4   0 58703.7 2236.34   3
  -2  -4  -1 46160.4 2209.34   3
   2   4   1 48383.8 2266.04   3
   2   4   1 44728.5 973.013   1
   2   4   2 10369.7 1157.18   3
  -2   4  -2 8285.60 724.577   2
   2   4   3 62990.9 3073.81   3
  -2   4  -3 62236.8 1760.65   2
   2   4   4 8077.81 1189.83   3
  -2  -4  -4 8857.45 706.289   1
  -2  -4  -5 19155.0 1209.01   1
   2   4   5 18889.6 1903.67   3
   2   4   6 19332.2 2060.96   3
  -2  -4  -6 18539.4 1348.34   1
   2   4   7 1916.56 629.319   3
   2   4   8 103866. 5302.69   3
   2   4   9 428.030 478.985   3
   2   4  10 511.541 323.802   3
   2   4  11 1382.13 733.104   3
   2   4  12 7324.27 1674.40   3
  -2   5  15 1167.72 699.244   3
  -2   5  14 25778.4 3101.61   3
  -2   5  13 927.981 665.278   3
  -2   5  12 8158.27 1582.03   3
  -2   5  11 531.539 497.388   3
  -2   5  10 42463.5 3337.15   3
  -2   5   9 8991.96 1468.02   3
  -2   5   8 2479.30 762.846   3
   2   5  -7 5096.93 724.401   3
  -2   5   7 6829.40 1209.26   3
  -2   5   6 44728.1 2902.10   3
   2   5  -6 40525.9 1927.19   3
  -2   5   5 12247.9 1453.77   3
   2   5  -5 11967.6 970.053   3
  -2   5   4 106295. 4158.29   3
   2   5  -3 18408.6 1169.67   3
   2   5  -2 156948. 3600.72   3
   2   5  -1 45379.7 2059.85   3
   2   5   0 112347. 3467.74   3
   2   5   1 3413.35 680.142   3
   2   5   2 1729.14 513.037   3
   2   5   3 3156.28 710.256   3
  -2   5  -3 2562.05 380.282   2
  -2  -5  -4 11040.2 619.718   1
   2  -5   4 13045.8 1557.31   1
   2   5   4 13328.6 1570.35   3
  -2   5  -4 12978.3 684.206   2
   2   5   5 555.534 247.975   3
  -2  -5  -5 464.164 163.102   1
   2   5   6-347.711 327.792   3
  -2  -5  -6-60.5601 82.7552   1
   2   5   7 232.313 172.660   3
   2   5   8 29413.9 2886.65   3
   2   5   9 1174.55 542.270   3
   2   5  10 14618.0 2226.90   3
   2   5  11 102.358 475.791   3
   2   5  12 10351.0 2034.42   3
  -2   6  14 751.973 590.754   3
  -2   6  13 1397.78 844.580   3
  -2   6  12-84.2929 360.270   3
  -2   6  11 5301.37 1279.93   3
  -2   6  10 12806.6 1939.03   3
  -2   6   9 15633.7 2057.70   3
  -2   6   8 10112.0 1600.63   3
  -2   6   7 79236.1 4262.20   3
  -2   6   6 15535.3 1824.61   3
   2   6  -5-78.7896 141.725   3
  -2   6   5 37.9822 211.383   3
  -2   6   4 41272.7 2768.28   3
   2   6  -3 16559.4 1282.33   3
   2   6  -2 45371.7 2194.65   3
   2   6  -1 22286.9 1611.65   3
   2   6   0 104553. 3666.66   3
   2  -6   0 104408. 4119.92   1
   2   6   1 90779.7 3606.17   3
   2  -6   1 81145.6 3682.59   1
   2   6   2 35798.4 2419.91   3
   2  -6   2 35341.0 2481.47   1
   2  -6   3 42639.8 2799.92   1
   2   6   3 43648.8 2814.58   3
   2   6   4 8298.30 1282.05   3
   2  -6   4 7040.34 1189.60   1
  -2   6  -4 8373.09 631.050   2
  -2  -6  -5 1723.86 235.381   1
   2   6   5 2513.26 786.867   3
   2   6   6 26474.0 2572.47   3
   2   6   7 6563.41 1387.70   3
   2   6   8 53356.7 4053.01   3
   2   6   9 55.7163 192.950   3
   2   6  10 1419.62 735.071   3
   2   6  11 2534.36 987.688   3
   2   6  12 12744.6 2338.39   3
  -2   7  14 5956.56 1592.60   3
  -2   7  13 1721.69 831.240   3
  -2   7  12-681.423 540.368   3
  -2   7  11 38391.8 3634.42   3
  -2   7  10-373.810 367.027   3
  -2   7   9 1967.83 745.379   3
  -2   7   8 63589.3 4186.27   3
  -2   7   7 3703.15 950.058   3
  -2   7   6 30778.8 2710.47   3
  -2   7   5 18485.3 2045.87   3
  -2   7   4 3741.58 921.264   3
   2  -7  -3 16759.3 1720.08   1
  -2   7   3 14187.2 1694.35   3
   2   7  -3 15886.0 1429.54   3
   2  -7  -2 22242.4 1944.11   1
   2   7  -2 24225.0 1796.40   3
   2   7  -2 20808.3 1285.57   1
   2   7  -1 39166.3 1452.77   1
   2   7  -1 38769.6 2331.77   3
   2  -7  -1 40585.0 2648.40   1
   2   7   0 17404.0 1632.01   3
   2  -7   0 16444.0 1711.94   1
   2  -7   1 804.648 363.802   1
   2   7   1 57.9619 136.639   3
   2  -7   2 30190.6 2392.53   1
   2   7   2 35589.1 2550.10   3
   2  -7   3 486.238 263.437   1
   2   7   3 971.733 418.932   3
  -2   7  -4 824.523 234.371   2
   2   7   4 718.478 408.077   3
   2   7   5 49793.5 3522.07   3
   2   7   6 4024.27 1098.87   3
   2   7   7 16616.0 2222.10   3
   2   7   8 7254.16 1530.61   3
   2   7   9 3398.33 1088.79   3
   2   7  10 104.869 354.746   3
   2   7  11 7828.55 1767.00   3
  -2   8  13 12106.2 2292.33   3
  -2   8  12 46.3077 222.797   3
  -2   8  11 3829.47 1203.56   3
  -2   8  10 3601.80 1109.22   3
  -2   8   9 4662.14 1270.69   3
  -2   8   8 4941.50 1259.96   3
  -2   8   7 50240.5 3763.06   3
  -2   8   6 39979.3 3290.19   3
  -2   8   5 10615.1 1657.88   3
   2  -8  -4 1571.50 512.612   1
  -2   8   4 266.714 172.347   3
   2  -8  -3 13239.4 1563.66   1
   2   8  -3 14826.1 1494.78   3
  -2   8   3 15929.7 1944.43   3
   2   8  -2 35404.9 2369.87   3
   2   8  -2 27281.8 1529.19   1
   2  -8  -2 32827.9 2453.72   1
   2   8  -1 5942.26 990.329   3
   2  -8  -1 6806.39 1139.29   1
   2   8  -1 6079.00 586.955   1
   2  -8   0 505.838 333.303   1
   2   8   0-138.581 293.027   3
   2   8   1 5539.60 1030.51   3
   2  -8   1 5966.71 1110.57   1
   2  -8   2 5363.39 1065.50   1
   2   8   2 4478.17 952.153   3
   2   8   3 49900.7 3360.24   3
   2  -8   3 47018.1 3210.28   1
   2   8   4-850.734 470.094   3
   2   8   5 22.0532 225.378   3
   2   8   6 21566.3 2530.91   3
   2   8   7 11419.8 1916.51   3
   2   8   8 1624.39 826.421   3
   2   8   9 2565.33 984.310   3
   2   8  10 776.962 578.085   3
  -2   9  12 742.786 583.352   3
  -2   9  11 13027.7 2291.16   3
  -2   9  10 19036.5 2660.23   3
  -2   9   9 54670.7 4403.17   3
  -2   9   8 6363.84 1493.04   3
  -2   9   7 9856.28 1760.65   3
  -2   9   6 336.014 268.900   3
   2  -9  -5 1455.15 597.764   1
  -2   9   5 2467.16 887.715   3
   2  -9  -4 52007.3 3240.40   1
  -2   9   4 49765.5 3714.18   3
   2   9  -4 51265.8 2986.02   3
  -2   9   3 693.434 416.481   3
   2   9  -3 344.142 342.479   3
   2  -9  -3 499.729 343.475   1
   2   9  -2 14724.4 1678.54   3
   2  -9  -2 16395.0 1835.24   1
   2   9  -1 84016.7 4017.86   3
   2  -9  -1 88408.9 4240.84   1
   2  -9   0 61504.6 3560.99   1
   2   9   0 66479.5 3695.62   3
   2   9   1 81819.3 4231.60   3
   2  -9   1 84419.9 4261.13   1
   2  -9   2 5184.03 1079.72   1
   2   9   2 6897.59 1267.60   3
   2  -9   3 4542.18 1037.88   1
   2   9   3 3584.97 956.840   3
   2   9   4 18416.7 2227.74   3
   2   9   5 80.9031 221.109   3
   2   9   6 30439.1 3119.01   3
   2   9   7 8553.84 1725.84   3
   2   9   8 2167.87 921.661   3
   2   9   9 10407.8 2027.49   3
   2   9  10 6331.80 1649.07   3
  -2  10  11 341.588 400.655   3
  -2  10  10 1705.39 835.487   3
  -2  10   9 221.345 348.597   3
  -2  10   8 58955.1 4674.92   3
   2 -10  -7 7078.21 1325.18   1
  -2  10   7 8765.73 1768.23   3
   2 -10  -6 11158.6 1608.72   1
  -2  10   6 11358.3 1930.15   3
   2 -10  -5 1155.09 515.743   1
  -2  10   5 1585.42 702.210   3
   2 -10  -4 28210.3 2459.11   1
   2  10  -4 22635.8 2165.79   3
  -2  10   4 23491.1 2710.98   3
   2  10  -3 2123.38 617.594   3
   2 -10  -3 1296.86 542.787   1
  -2  10   3 2007.85 793.315   3
   2 -10  -2 1086.76 537.588   1
  -2  10   2 1480.14 694.615   3
   2  10  -2 1576.61 579.460   3
   2  10  -1 20233.8 2133.24   3
   2 -10  -1 18057.6 2001.53   1
   2 -10   0 24553.8 2355.31   1
   2  10   0 27721.1 2550.01   3
   2 -10   1 1250.31 570.394   1
   2  10   1 1468.76 609.731   3
   2  10   2 44314.1 3410.71   3
   2 -10   2 45011.8 3298.47   1
   2  10   3 156.230 230.267   3
   2  10   4 5158.43 1228.46   3
   2  10   5 24567.6 2791.71   3
   2  10   6 1662.23 775.378   3
   2  10   7 1587.01 753.866   3
   2  10   8-238.152 347.905   3
   2  10   9 3674.16 1276.45   3
  -2  11   9 2621.62 1029.87   3
  -2  11   8-1084.07 684.359   3
  -2  11   7 9963.93 1983.80   3
   2 -11  -6 3633.83 914.262   1
  -2  11   6 4092.02 1266.41   3
   2 -11  -5 9075.35 1462.89   1
   2  11  -5 9036.82 1479.13   3
  -2  11   5 9493.92 1830.00   3
   2 -11  -4 7702.45 1338.55   1
   2  11  -4 8135.09 1376.20   3
  -2  11   4 8132.65 1714.54   3
  -2  11   3 403.059 261.831   3
   2  11  -3-39.9021 159.904   3
  -2  11   2 18577.0 2452.73   3
   2  11  -2 19735.7 2186.59   3
   2 -11  -2 20648.5 2198.83   1
   2  11  -1 11978.1 1737.43   3
   2 -11  -1 11659.9 1661.18   1
   2 -11   0 5199.95 1121.64   1
   2  11   0 6106.82 1268.23   3
   2 -11   1 422.063 369.381   1
   2  11   1 475.102 452.786   3
   2 -11   2 1488.94 623.825   1
   2  11   2 4814.66 1197.49   3
   2  11   3 770.251 501.074   3
   2  11   4 18404.2 2448.72   3
   2  11   5-321.777 378.107   3
   2  11   6 24463.1 3044.46   3
   2  11   7 3017.97 1119.16   3
   2  11   8 9780.30 2062.45   3
  -2  12   7 992.307 708.218   3
  -2  12   6 5515.95 1509.50   3
  -2  12   5 2333.64 994.275   3
   2  12  -4 3322.10 965.215   3
  -2  12   4 3750.45 1240.75   3
  -2  12   3 22948.8 2910.78   3
   2  12  -3 21772.3 2457.09   3
   2 -12  -3 23852.1 2431.24   1
  -2  12   2 3938.37 1228.92   3
   2 -12  -2 4512.15 1061.85   1
   2  12  -2 3957.72 1062.00   3
  -2  12   1 21306.3 2735.72   3
   2  12  -1 24416.4 2645.99   3
   2 -12  -1 22451.5 2357.83   1
   2 -12   0 6971.84 1348.38   1
   2  12   0 6911.88 1455.71   3
   2 -12   1 2843.49 893.804   1
   2  12   1 2117.68 775.947   3
   2  12   2-142.043 271.375   3
   2  12   3 3105.91 1018.30   3
   2  12   4-1098.76 653.517   3
   2  12   5 2369.40 921.816   3
   2  12   6 4325.32 1378.19   3
  -2  13   5 20306.8 2972.42   3
  -2  13   4 6.11117 173.713   3
  -2  13   3 1149.29 645.286   3
   2  13  -3 642.722 464.756   3
  -2  13   2 608.047 520.464   3
   2  13  -2 1032.37 490.083   3
  -2  13   1 14277.3 2333.66   3
   2  13  -1 15313.2 2213.51   3
   2 -13   0 1970.50 738.187   1
   2  13   0 2153.31 849.911   3
   2  13   1 12720.0 2118.01   3
   2  13   2 809.004 544.899   3
   2  13   3 15321.1 2400.34   3
   2  13   4 3180.79 1117.52   3
   2  13   5-434.569 443.418   3
   2  14  -1 1289.32 620.248   3
   2  14   0 3380.90 1145.14   3
   2  14   1 277.186 376.984   3
   2  14   2 7554.30 1709.54   3
   2  14   3 4511.78 1422.38   3
  -3   0  14 20667.4 2542.18   2
  -3   0  13 345.190 383.723   2
  -3   0  12 206.976 299.824   2
  -3   0  11-283.098 399.286   2
  -3   0  10 26081.9 1893.88   3
  -3   0  10 23880.9 2407.28   2
  -3   0   9 103.084 215.824   2
  -3   0   9 103.705 183.305   3
  -3   0   8 49785.1 2187.49   3
  -3   0   8 46322.6 3100.24   2
  -3   0   7 157.556 269.492   2
  -3   0   7 87.5319 84.4319   3
  -3   0   6 73832.1 2124.40   3
  -3   0   6 75917.7 3704.99   2
  -3   0   5 66.4140 207.698   2
  -3   0   5 442.855 144.199   3
  -3   0   4 6705.86 522.421   3
  -3   0   4 7125.98 1078.17   2
  -3   0   3 319.549 160.655   2
  -3   0   3-13.3582 82.0004   3
  -3   0   2 7014.70 1003.18   2
  -3   0   2 6781.10 611.810   3
  -3   0   1-6.57988 80.9268   3
  -3   0   1 124.848 147.642   2
   3   0   0 179481. 4705.27   1
  -3   0   0 181567. 4801.00   2
  -3   0   0 181746. 4048.73   3
   3   0   1-54.8969 137.414   3
   3   0   1 1693.83 448.789   1
   3   0   2 25702.5 1813.91   3
   3   0   2 25093.4 1795.14   1
   3   0   3 65.6544 153.596   3
   3   0   3 31.8048 250.483   1
   3   0   4 14562.6 1443.02   1
   3   0   4 14698.0 1585.43   3
   3   0   5 130.055 132.025   3
   3   0   6 2223.17 727.368   3
   3   0   7-182.800 337.781   3
   3   0   8 20654.7 2372.42   3
   3   0   9 345.486 351.157   3
   3   0  10 34097.9 3362.48   3
   3   0  11 40.3146 208.657   3
   3   0  12 1854.80 835.737   3
  -3   1  15 736.427 544.986   2
  -3   1  14 1558.92 908.089   2
  -3  -1  14 455.172 391.074   2
  -3   1  13 3477.52 979.441   2
  -3  -1  13 4139.36 1095.14   2
  -3  -1  12 14496.1 1973.00   2
  -3   1  12 14599.3 2055.80   2
  -3   1  11 6292.59 1304.22   2
  -3  -1  11 5297.09 1156.32   2
  -3   1  11 6151.41 1057.56   3
  -3   1  10 6654.52 1281.00   2
  -3  -1  10 5756.89 1169.62   2
  -3   1  10 8024.62 1147.26   3
  -3  -1  10 6468.44 902.253   3
  -3   1   9 22891.6 1782.46   3
  -3   1   9 20935.4 2213.86   2
  -3  -1   9 22928.5 1517.15   3
  -3  -1   9 18790.1 2001.50   2
  -3   1   8 1474.36 578.579   2
  -3   1   8 1201.63 379.948   3
  -3  -1   8 766.414 369.940   2
  -3  -1   8 1497.73 348.724   3
  -3   1   7 11727.1 1107.38   3
  -3   1   7 11686.1 1533.58   2
  -3  -1   7 12283.9 821.769   3
  -3  -1   7 9097.86 1341.51   2
  -3   1   6 5635.92 1026.32   2
  -3  -1   6 5646.46 997.090   2
  -3   1   6 6800.75 770.317   3
  -3  -1   6 6508.32 454.892   3
  -3   1   5 25166.7 1372.36   3
  -3   1   5 23248.4 2007.00   2
  -3  -1   5 24140.4 2075.19   2
  -3   1   4 209.016 313.171   2
  -3  -1   4-41.0898 263.960   2
  -3   1   4 2.37023 85.5136   3
  -3   1   3 25044.9 1919.68   2
  -3  -1   3 21178.9 1809.20   2
  -3  -1   2 48469.2 1383.61   3
  -3   1   2 57848.0 2838.17   2
  -3   1   2 50273.2 1923.54   3
  -3  -1   2 54403.8 2831.62   2
  -3  -1   1 36054.9 1497.71   3
  -3   1   1 37880.3 1811.12   3
  -3   1   1 36745.7 2205.26   2
   3  -1   0 23555.0 1799.66   1
   3   1   0 24273.7 1624.98   1
  -3  -1   0 24265.4 1432.35   3
   3   1   0 23721.3 1386.44   3
  -3   1   0 24510.5 1742.18   2
  -3   1   0 23847.5 1537.37   3
   3   1   1 5972.78 824.312   1
  -3   1  -1 3227.85 621.327   2
  -3  -1  -1 6000.81 808.600   3
   3   1   1 5023.32 720.562   3
   3  -1   1 6154.13 927.432   1
   3   1   2 21198.2 1628.24   3
   3   1   2 20116.3 1513.40   1
   3  -1   2 18430.5 1624.31   1
   3  -1   3 8198.32 1118.40   3
   3   1   3 9173.60 1170.26   3
   3  -1   3 8997.80 1162.89   1
   3   1   3 9152.06 1037.35   1
   3  -1   3 8846.01 972.651   2
   3   1   4 98710.6 3541.05   1
   3  -1   4 97414.7 3929.76   1
   3   1   4 103756. 4213.39   3
   3  -1   4 101417. 4231.88   3
   3  -1   4 94213.1 3106.48   2
   3   1   5 57485.6 3348.98   3
   3  -1   5 56535.4 3373.01   3
   3  -1   5 50106.4 2245.79   2
   3  -1   6 235.414 138.285   2
   3   1   6 146.072 228.994   3
   3  -1   6 10.7046 210.173   3
   3  -1   7 1837.05 685.263   3
   3   1   7 1639.01 652.107   3
   3   1   8 4571.86 1103.76   3
   3  -1   8 4906.88 1156.24   3
   3   1   9 2095.93 834.501   3
   3  -1   9 2311.06 854.177   3
   3   1  10 540.997 459.308   3
   3  -1  10 1225.91 651.906   3
   3   1  11 3919.45 1215.50   3
   3  -1  11 2921.73 1003.47   3
   3   1  12 478.534 466.433   3
   3  -1  12 154.449 279.588   3
  -3   2  15 5467.07 1491.44   2
  -3   2  14 569.482 453.376   2
  -3  -2  13-128.364 229.694   2
  -3   2  13 35.0584 310.558   2
  -3   2  12 503.259 348.011   3
  -3  -2  12 360.304 169.435   2
  -3   2  12-188.109 279.206   2
  -3   2  11-53.6059 146.086   3
  -3  -2  11-537.207 391.642   2
  -3   2  11-210.805 264.154   2
  -3   2  10 15933.8 1706.68   3
  -3   2  10 13879.7 1854.88   2
  -3  -2  10 13990.8 1834.87   2
  -3   2   9 35475.3 2414.55   3
  -3   2   9 32714.2 2763.46   2
  -3  -2   9 30204.6 2597.61   2
  -3  -2   9 34771.0 1733.46   3
  -3   2   8 24823.1 1885.21   3
  -3   2   8 22435.5 2209.22   2
  -3  -2   8 21741.1 2144.53   2
  -3   2   7 14171.2 1705.03   2
  -3  -2   7 16573.4 1807.32   2
  -3   2   7 16904.8 1455.72   3
  -3   2   6 18624.0 1444.92   3
  -3   2   6 20188.9 1950.16   2
  -3  -2   6 16686.5 1748.57   2
  -3   2   5 16692.9 1295.71   3
  -3   2   5 13745.8 1554.91   2
  -3  -2   5 17290.0 1738.26   2
  -3   2   4 17371.0 1294.54   3
  -3   2   4 17985.6 1709.73   2
  -3  -2   4 17097.3 1678.87   2
  -3   2   3 94740.3 3801.32   2
  -3  -2   3 95080.8 3865.88   2
  -3  -2   2 28678.3 946.050   3
  -3   2   2 31052.5 2104.89   2
  -3  -2   1 13077.6 883.282   3
   3   2  -1 13954.9 881.533   3
  -3   2   1 15878.8 1431.94   2
   3   2   0 184448. 3869.53   3
   3   2   0 185058. 4233.17   1
  -3  -2   0 183550. 3973.12   3
  -3   2   0 186933. 4785.57   2
  -3  -2  -1 259543. 5289.28   3
   3   2   1 245928. 5080.31   3
  -3   2  -1 252707. 5305.57   2
   3  -2   1 259810. 6205.74   1
   3   2   1 250835. 4847.73   1
   3  -2   2 23140.9 1510.83   2
   3   2   2 25237.2 1803.92   3
   3   2   2 25108.9 1557.56   1
   3  -2   2 24263.6 1970.46   1
  -3   2  -2 25138.6 1609.70   2
   3   2   3 5042.93 877.692   3
   3   2   3 5653.50 772.173   1
   3  -2   3 4222.71 842.671   1
   3  -2   3 4413.60 631.414   2
   3   2   4-68.0813 204.668   3
   3  -2   4 439.925 348.419   1
   3  -2   4 64.0891 112.788   2
   3   2   5 9684.37 1402.91   3
   3  -2   5 8828.17 840.390   2
   3  -2   5 9978.29 1445.91   3
   3   2   6 1604.45 612.930   3
   3  -2   6 2014.43 690.526   3
   3   2   7 70848.0 4238.82   3
   3  -2   7 62944.6 4031.00   3
   3   2   8 13584.8 1953.52   3
   3  -2   8 19290.5 2347.51   3
   3   2   9-124.938 274.414   3
   3  -2   9-386.473 368.814   3
   3   2  10 8177.55 1658.76   3
   3  -2  10 6920.19 1549.16   3
   3   2  11 22040.5 2878.42   3
   3  -2  11 23986.1 2981.81   3
   3   2  12-459.599 471.211   3
   3  -2  12 639.126 488.386   3
  -3   3  15 8256.03 1719.89   2
  -3   3  14 2530.78 986.350   2
  -3   3  13 1444.87 655.820   2
  -3   3  12 4544.72 1063.79   3
  -3  -3  12 3776.40 1018.19   2
  -3   3  12 5596.05 1290.96   2
  -3   3  11 17904.8 1999.04   3
  -3   3  11 15763.2 2075.78   2
  -3  -3  11 15867.7 1942.92   2
  -3   3  10 3765.68 900.010   3
  -3  -3  10 2969.10 843.448   2
  -3   3  10 2166.11 753.650   2
  -3   3   9 12129.9 1732.30   2
  -3  -3   9 14702.5 1796.57   2
  -3   3   9 14940.1 1667.22   3
  -3  -3   8 2778.10 767.963   2
  -3   3   8 1518.31 617.881   2
  -3   3   8 2556.51 654.251   3
  -3   3   7 136738. 4520.17   3
  -3   3   7 123167. 5024.89   2
  -3  -3   7 134568. 5088.42   2
  -3   3   6 16288.1 1508.11   3
  -3   3   6 17464.8 1828.58   2
  -3  -3   6 17531.6 1800.42   2
  -3   3   5 23765.9 1759.28   3
  -3   3   5 20746.3 1917.84   2
  -3  -3   5 23064.3 2049.59   2
  -3   3   4 73.5572 117.455   3
  -3   3   4 166.008 222.872   2
  -3   3   3 33330.4 2279.30   2
  -3   3   2 220387. 5614.74   2
   3   3  -2 223266. 2792.54   3
  -3   3   1 3610.79 716.670   2
   3   3  -1 3681.38 488.338   3
  -3  -3   1 3147.96 441.121   3
  -3  -3   0 6510.14 765.378   3
   3   3   0 6716.02 762.672   3
  -3   3   0 7125.44 932.677   2
   3   3   1 3613.89 626.114   3
  -3   3  -1 3557.22 645.433   2
  -3  -3  -1 2720.31 559.036   3
   3   3   1 4484.02 609.402   1
   3   3   2 9186.83 1110.84   3
   3   3   2 8484.96 820.582   1
  -3   3  -2 8613.65 927.343   2
   3   3   3 71920.9 3351.27   3
   3  -3   3 67122.5 3463.02   1
   3   3   3 69668.2 2445.12   1
  -3  -3  -4 11666.8 1118.35   1
   3   3   4 11700.0 1469.64   3
   3  -3   4 12899.9 1557.52   1
   3   3   5 2606.01 733.779   3
   3  -3   5 1558.32 579.073   1
   3   3   6 62263.7 3786.35   3
   3   3   7 16943.4 2092.36   3
   3   3   8 55537.5 3984.13   3
   3   3   9 1564.29 734.381   3
   3  -3   9 1087.23 634.685   3
   3   3  10 288.548 362.510   3
   3  -3  10 134.543 400.289   3
   3   3  11 9014.08 1870.86   3
   3  -3  11 7332.19 1670.54   3
   3   3  12 4789.44 1409.95   3
  -3   4  14 18115.1 2562.47   2
  -3   4  13 2918.20 923.527   3
  -3   4  13 2771.69 959.320   2
  -3   4  12-116.265 196.903   3
  -3  -4  12 254.023 304.620   2
  -3   4  12-431.808 385.532   2
  -3   4  11 562.855 375.116   3
  -3  -4  11 694.589 498.197   2
  -3   4  11 1361.18 658.305   2
  -3   4  10 15170.9 1877.26   3
  -3  -4  10 11536.1 1628.85   2
  -3   4   9 933.412 463.177   3
  -3   4   8 1872.20 595.548   3
  -3   4   7 99.5985 219.254   3
  -3   4   6 44018.6 2685.87   3
  -3   4   5 2535.03 614.685   3
  -3   4   4 4103.15 760.269   3
  -3   4   3 94905.9 3898.84   2
   3   4  -3 96622.2 1627.55   3
   3   4  -2 2394.11 350.731   3
  -3   4   2 1850.31 524.505   2
  -3  -4   1 8560.90 806.461   3
   3   4  -1 8398.20 805.420   3
  -3   4   1 8632.69 1100.01   2
  -3  -4   0 24622.4 1553.04   3
   3   4   0 25858.4 1588.62   3
  -3   4   0 25051.9 1788.51   2
  -3   4  -1 26382.0 1732.26   2
   3   4   1 25915.3 1773.96   3
   3   4   1 28919.4 1353.43   1
   3   4   2 43.6448 169.219   3
  -3   4  -2-129.481 203.032   2
   3   4   2-50.7851 73.2753   1
   3  -4   2 9.79289 193.930   1
   3   4   3 4307.41 843.960   3
   3  -4   3 4014.26 910.640   1
  -3   4  -3 3971.22 598.978   2
   3   4   4-114.066 167.692   3
   3  -4   4 3.94321 223.296   1
  -3  -4  -5 6103.93 772.978   1
   3   4   5 6981.15 1221.14   3
   3  -4   5 6830.97 1248.55   1
   3   4   6 2226.23 753.779   3
   3   4   7 68478.5 4271.55   3
   3   4   8 26864.4 2835.86   3
   3   4   9 3344.54 1063.22   3
   3   4  10 7709.77 1677.40   3
   3   4  11 2101.25 952.247   3
  -3   5  14 802.638 664.155   2
  -3   5  13 286.554 231.150   3
  -3   5  13 657.304 608.545   2
  -3   5  12 9820.53 1701.31   3
  -3   5  11-118.364 418.612   3
  -3   5  10 24331.3 2502.63   3
  -3   5   9 3801.87 938.164   3
  -3   5   8 204.213 292.447   3
  -3   5   7 2166.16 688.759   3
   3   5  -6 16120.5 763.034   3
  -3   5   6 17700.9 1842.69   3
   3   5  -5 3051.08 317.557   3
   3   5  -5 3523.13 331.455   3
  -3   5   5 3738.64 860.988   3
   3   5  -4 4216.86 410.780   3
   3   5  -4 4435.99 413.452   3
  -3   5   4 4708.05 878.219   3
   3   5  -3 710.257 197.656   3
   3  -5  -2 42352.0 2852.62   1
   3   5  -2 42470.7 1773.33   3
   3  -5  -1 23123.4 2071.86   1
   3   5  -1 24178.3 1531.89   3
  -3   5   1 19194.7 1657.44   2
   3   5   0 148375. 2911.87   1
  -3   5   0 141399. 4324.10   2
   3   5   0 150735. 4175.54   3
   3  -5   0 148284. 5308.09   1
   3   5   1 1472.81 440.325   3
   3  -5   1 1097.90 529.006   1
   3   5   1 1463.21 243.586   1
  -3   5  -1 1160.69 382.743   2
   3   5   2 62.8412 128.714   3
  -3   5  -2 647.997 264.595   2
   3  -5   2 237.196 306.215   1
   3   5   3 3068.54 746.004   3
  -3   5  -3 3226.98 538.644   2
   3  -5   3 3066.92 814.758   1
   3   5   4 75125.3 3912.16   3
   3  -5   4 68848.6 3932.94   1
   3  -5   5 25973.6 2485.33   1
   3   5   5 27864.8 2543.73   3
   3   5   6 6696.22 1314.22   3
   3   5   7 6260.21 1350.13   3
   3   5   8 21870.3 2606.31   3
   3   5   9 9644.98 1852.97   3
   3   5  10 8525.14 1782.65   3
   3   5  11 352.079 410.422   3
  -3   6  13-421.407 412.817   3
  -3   6  12 1206.11 614.800   3
  -3   6  11 1308.89 653.263   3
  -3   6  10 9549.43 1631.20   3
  -3   6   9 492.074 388.832   3
  -3   6   8-297.848 306.187   3
  -3   6   7 601.052 379.820   3
  -3   6   6 221.272 278.739   3
  -3   6   5 1766.06 622.396   3
   3   6  -5 1374.28 285.068   3
  -3   6   4 55910.0 3333.47   3
   3   6  -4 59018.2 2043.84   3
   3  -6  -3 21964.0 2144.18   1
   3   6  -3 23697.5 1390.25   3
   3  -6  -2 1642.66 641.064   1
   3   6  -2 1038.87 309.958   3
   3  -6  -1 134.822 155.951   1
   3   6  -1 345.681 228.243   3
   3   6   0 44254.5 1315.59   1
   3   6   0 44312.4 2450.31   3
  -3   6   0 43349.3 2459.90   2
   3  -6   0 41591.5 2971.20   1
   3   6   1 29347.2 2165.48   3
  -3   6  -1 27178.2 1844.42   2
   3  -6   1 27096.3 2384.25   1
  -3   6  -2 939.739 314.139   2
   3   6   2 983.285 405.609   3
   3  -6   2 565.313 348.690   1
   3   6   3-104.768 327.425   3
  -3   6  -3 466.793 215.776   2
   3  -6   3 332.234 312.938   1
   3   6   4 7205.52 1238.96   3
   3  -6   4 6796.23 1271.73   1
  -3   6  -4 9056.01 806.826   2
   3   6   5 3902.24 984.387   3
   3   6   6 7723.05 1434.37   3
   3   6   7 18422.8 2347.43   3
   3   6   8 175.747 282.834   3
   3   6   9 999.548 716.303   3
   3   6  10 6114.78 1520.76   3
  -3   7  13 284.751 295.502   3
  -3   7  12-91.5410 267.036   3
  -3   7  11 13519.8 2137.41   3
  -3   7  10 11216.5 1839.32   3
  -3   7   9 124.713 210.537   3
  -3   7   8 1326.89 633.025   3
  -3   7   7 74256.1 4411.81   3
  -3   7   6 11140.0 1647.90   3
  -3   7   5 3312.63 876.524   3
   3   7  -5 3601.29 580.579   3
  -3   7   4-121.330 212.453   3
   3   7  -4-12.4841 84.5058   3
   3  -7  -3 10104.6 1499.89   1
   3   7  -3 13104.3 1201.56   3
   3  -7  -2 3841.92 918.143   1
   3   7  -2 4747.89 769.032   3
   3   7  -1 7031.58 979.907   3
   3  -7  -1 7863.99 1331.14   1
   3   7   0 19602.3 1746.86   3
   3  -7   0 19682.6 2115.39   1
   3   7   1 1508.45 530.560   3
   3  -7   1 1550.64 561.788   1
  -3   7  -1 2060.67 539.369   2
   3   7   2 5341.29 1029.10   3
   3  -7   2 3968.20 954.204   1
  -3   7  -2 4235.85 724.991   2
   3   7   3 55354.9 3502.72   3
  -3   7  -3 55656.1 2418.91   2
   3  -7   3 57433.9 3742.22   1
   3   7   4 1307.62 559.781   3
   3  -7   4 1207.46 564.143   1
   3   7   5 2568.47 812.296   3
   3   7   6-416.695 371.556   3
   3   7   7 2237.81 846.769   3
   3   7   8-382.664 396.971   3
   3   7   9 1378.24 660.736   3
   3   7  10 750.182 543.589   3
  -3   8  13 1987.03 919.185   3
  -3   8  12 570.809 553.586   3
  -3   8  11 7812.55 1664.28   3
  -3   8  10 14163.0 2199.21   3
  -3   8   9 24824.9 2843.73   3
  -3   8   8 19777.1 2462.71   3
  -3   8   7 8072.47 1525.41   3
  -3   8   6 3104.89 988.093   3
  -3   8   5 2710.22 850.701   3
  -3   8   4 4707.02 1106.16   3
   3  -8  -4 5058.05 1106.58   1
   3   8  -4 5191.01 817.112   3
   3  -8  -3 26418.5 2499.27   1
   3   8  -3 26892.3 1904.20   3
   3   8  -2 234.211 296.004   3
   3  -8  -2 86.6825 216.197   1
   3   8  -1 24597.2 1983.90   3
   3  -8  -1 22052.2 2292.00   1
   3   8   0 32484.4 2405.48   3
   3  -8   0 31572.6 2766.99   1
   3   8   1 20595.8 2017.71   3
   3  -8   1 20871.5 2260.52   1
   3   8   2 925.270 475.860   3
   3  -8   2 870.597 466.527   1
  -3   8  -2 1192.76 413.786   2
   3   8   3 2636.31 800.830   3
   3  -8   3 2740.91 854.982   1
   3   8   4 144.118 424.690   3
   3  -8   4-53.2940 254.058   1
   3   8   5 1545.19 732.803   3
   3   8   6 1549.69 700.717   3
   3   8   7 16281.1 2358.72   3
   3   8   8 195.554 238.979   3
   3   8   9 1977.16 895.800   3
  -3   9  12 5768.81 1646.45   3
  -3   9  11 3987.03 1248.21   3
  -3   9  10 189.460 441.901   3
  -3   9   9 988.214 575.766   3
  -3   9   8 13207.1 2113.20   3
  -3   9   7-259.997 318.454   3
   3  -9  -6 11736.1 1794.54   1
  -3   9   6 9749.18 1709.28   3
  -3   9   5 1186.06 610.889   3
   3  -9  -5 1218.70 543.313   1
  -3   9   4 3409.58 1019.78   3
   3  -9  -4 3931.86 1005.02   1
   3  -9  -3 827.154 505.931   1
   3   9  -3 246.177 216.742   3
   3  -9  -2 1326.06 644.652   1
   3   9  -2 731.723 331.225   3
   3  -9  -1 7148.88 1352.45   1
   3   9  -1 6314.34 1071.98   3
   3  -9   0 1034.42 493.726   1
   3   9   0 1345.55 546.351   3
   3  -9   1 3006.63 895.803   1
   3   9   1 3605.71 898.104   3
   3  -9   2 7932.43 1457.43   1
   3   9   2 8128.61 1394.68   3
   3   9   3 7435.92 1389.65   3
   3  -9   3 8363.67 1516.84   1
   3   9   4 22398.9 2540.60   3
   3  -9   4 20155.4 2441.58   1
   3   9   5 7562.90 1572.06   3
   3   9   6-613.043 481.063   3
   3   9   7-141.400 280.378   3
   3   9   8 56.8342 402.514   3
   3   9   9 1200.24 720.321   3
  -3  10  10 1771.35 986.582   3
  -3  10   9 5538.15 1462.88   3
  -3  10   8 6193.43 1526.64   3
   3 -10  -7 11517.8 1887.45   1
  -3  10   7 12801.6 2146.22   3
   3 -10  -6 671.039 467.290   1
  -3  10   6 703.985 580.686   3
   3 -10  -5 1256.69 661.499   1
  -3  10   5-145.232 270.659   3
   3 -10  -4 29437.1 2827.82   1
  -3  10   4 27690.4 3007.23   3
  -3  10   3 1202.47 606.761   3
   3 -10  -3 1297.89 606.973   1
   3  10  -2 23545.6 2170.79   3
   3 -10  -2 19343.7 2280.58   1
   3 -10  -1-167.871 215.373   1
   3  10  -1-214.756 245.465   3
   3  10   0 10763.7 1572.23   3
   3 -10   0 10929.6 1734.13   1
   3 -10   1-369.530 373.362   1
   3  10   1 622.440 416.020   3
   3 -10   2 7200.21 1448.24   1
   3  10   2 6457.82 1327.64   3
   3  10   3 106.538 238.105   3
   3 -10   3 255.176 523.948   1
   3  10   4-71.5775 197.747   3
   3  10   5 592.759 465.844   3
   3  10   6 31274.8 3346.84   3
   3  10   7-333.610 398.045   3
   3  10   8 11316.8 2184.00   3
  -3  11   9 2243.09 984.470   3
   3 -11  -8 22591.2 2711.50   1
  -3  11   8 24294.7 3166.61   3
   3 -11  -7 1021.72 614.145   1
  -3  11   7 1405.22 703.048   3
   3 -11  -6 11314.1 1851.08   1
  -3  11   6 12219.9 2178.63   3
   3 -11  -5 510.743 374.399   1
  -3  11   5 134.995 250.935   3
   3 -11  -4 236.477 274.385   1
  -3  11   4-577.542 484.326   3
   3 -11  -3 9931.02 1719.40   1
  -3  11   3 7711.95 1681.44   3
   3 -11  -2 2640.14 901.767   1
   3 -11  -1 4613.10 1162.36   1
   3  11  -1 6696.71 1281.95   3
   3 -11   0 2281.10 840.281   1
   3  11   0 1201.64 507.117   3
   3 -11   1 7633.69 1516.94   1
   3  11   1 10444.3 1687.51   3
   3 -11   2 5918.77 1366.29   1
   3  11   2 5377.81 1307.36   3
   3 -11   3 2443.08 898.185   1
   3  11   3 4386.68 1216.54   3
   3  11   4 6858.86 1552.58   3
   3  11   5 639.127 580.532   3
   3  11   6 1351.85 785.669   3
   3  11   7 3105.07 1131.69   3
  -3  12   6 5117.93 1450.10   3
  -3  12   5 18015.4 2721.65   3
   3 -12  -5 11036.8 1866.59   1
   3 -12  -4 2467.19 931.738   1
  -3  12   4 1859.66 864.120   3
   3 -12  -3 4244.76 1148.51   1
  -3  12   3 2239.75 991.100   3
  -3  12   2-438.278 424.761   3
   3 -12  -2 598.914 450.327   1
   3 -12  -1 11000.3 1849.36   1
   3 -12   0 1515.34 619.139   1
   3  12   0 3124.70 906.075   3
   3  12   1 15139.6 2162.89   3
   3 -12   1 18025.2 2416.13   1
   3 -12   2 10017.4 1824.75   1
   3  12   2 12036.6 2006.50   3
   3  12   3 676.523 498.737   3
   3  12   4-84.6629 247.547   3
   3  12   5 56.4543 193.364   3
   3 -13  -3 2536.99 908.954   1
   3 -13  -2 3462.64 1056.23   1
   3 -13  -1 23832.5 2791.57   1
   3 -13   0 939.466 546.417   1
   3 -13   1 12274.9 2053.59   1
   3 -13   2 1952.04 861.583   1
   3  13   2 1364.08 715.741   3
   3  13   3 4192.66 1266.53   3
   3  13   4 4456.74 1293.64   3
   3 -14   1 1195.14 684.034   1
  -4   0  15 746.092 539.597   2
  -4   0  14 909.930 596.794   2
  -4   0  13-553.710 460.259   2
  -4   0  12 6302.16 1419.83   2
  -4   0  11-8.94893 288.638   2
  -4   0  10 43232.2 3561.26   2
  -4   0   9 577.475 417.217   2
  -4   0   8 6498.39 1267.51   2
  -4   0   7-240.633 507.189   2
  -4   0   6 37.3860 38.0127   3
  -4   0   6 366.887 279.993   2
  -4   0   5-145.720 366.789   2
  -4   0   5 4.46746 32.1091   3
  -4   0   5-8.96790 57.1001   3
  -4   0   4 25865.3 1143.52   3
  -4   0   4 22611.6 1058.23   3
  -4   0   4 25750.8 2323.88   2
  -4   0   3-72.6369 106.060   3
  -4   0   3 54.2855 183.463   2
  -4   0   2 6228.82 1083.70   2
  -4   0   2 6125.90 715.887   3
  -4   0   1 81.1243 131.608   3
  -4   0   1 155.723 233.761   2
   4   0  -1-362.266 278.587   1
   4   0   0 100189. 4047.62   1
   4   0   1 7.17756 208.392   1
   4   0   2 177.219 197.616   1
   4   0   2-14.6068 182.311   3
   4   0   3-53.7930 258.428   3
   4   0   3 81.9228 181.852   1
   4   0   4 19406.8 1878.39   1
   4   0   4 20620.0 2073.97   3
   4   0   5-371.366 317.265   3
   4   0   6 4837.92 1106.87   3
   4   0   7-598.316 438.536   3
   4   0   8 2058.70 734.401   3
   4   0   9 1181.65 659.364   3
   4   0  10 9382.69 1899.09   3
  -4   1  14 11292.4 2054.10   2
  -4  -1  14 12257.6 2104.00   2
  -4   1  13-718.896 520.437   2
  -4  -1  13 289.440 440.043   2
  -4   1  12 3991.45 1158.85   2
  -4  -1  12 1534.50 690.264   2
  -4   1  11 647.621 584.988   2
  -4  -1  11 1006.54 572.907   2
  -4   1  10 5672.67 1310.09   2
  -4  -1  10 5616.66 1286.20   2
  -4   1   9 8455.41 1534.38   2
  -4  -1   9 11485.0 1787.18   2
  -4   1   8 47222.6 3491.72   2
  -4  -1   8 44379.6 3395.50   2
  -4   1   7 56856.9 2215.89   3
  -4   1   7 54684.5 3669.97   2
  -4  -1   7 57949.1 3771.20   2
  -4   1   6 9424.95 1480.54   2
  -4  -1   6 8107.89 1370.26   2
  -4   1   6 8638.07 824.723   3
  -4   1   5 1356.79 590.364   2
  -4  -1   5 1762.32 637.542   2
  -4   1   5 1149.55 310.254   3
  -4   1   4 32103.4 1599.60   3
  -4   1   4 30192.9 1532.80   3
  -4   1   4 28435.4 2447.13   2
  -4  -1   4 31088.3 2566.81   2
  -4  -1   3 15434.8 785.511   3
  -4   1   3 12740.2 1059.53   3
  -4   1   3 14241.8 1671.18   2
  -4  -1   3 14193.3 1682.26   2
  -4  -1   2 484.901 183.496   3
  -4   1   2 447.871 271.857   2
  -4  -1   2 227.446 329.477   2
  -4  -1   1 71.6059 88.7924   3
   4  -1  -1-70.9184 312.687   1
  -4   1   1 475.514 355.312   2
   4  -1   0 17352.4 1772.73   1
   4   1   0 17282.2 1625.31   1
  -4   1   0 17155.4 1700.23   2
   4   1   1 22272.3 1735.40   3
   4  -1   1 27276.6 2222.45   1
   4   1   1 22311.6 1838.78   1
   4   1   2 16644.8 1616.27   3
   4   1   2 20863.0 1808.79   1
   4  -1   2 18739.3 1846.17   1
   4   1   3 7767.82 1118.81   1
   4   1   3 7184.95 1161.19   3
   4  -1   3 9203.69 1338.46   1
   4   1   4 13589.4 1495.94   1
   4  -1   4 11400.4 1529.26   1
   4   1   4 12432.9 1580.42   3
   4  -1   4 12780.8 1655.24   3
   4  -1   5 320.072 368.159   1
   4   1   5 325.602 334.358   3
   4  -1   5 322.495 414.327   3
   4   1   6 15703.0 1996.37   3
   4  -1   6 17233.7 2147.07   3
   4   1   7 2199.87 749.480   3
   4  -1   7 3037.98 984.272   3
   4   1   8 4420.84 1176.57   3
   4  -1   8 3899.52 1141.92   3
   4   1   9 1713.64 791.373   3
   4  -1   9 2292.17 857.264   3
   4   1  10 370.291 276.508   3
   4  -1  10 1523.82 755.337   3
  -4   2  14 2992.39 1095.43   2
  -4  -2  14 3721.95 1130.04   2
  -4   2  13 912.418 598.433   2
  -4  -2  13-557.631 457.746   2
  -4   2  12 166.011 300.145   2
  -4  -2  12-33.7755 167.386   2
  -4   2  11 15007.5 2234.94   2
  -4  -2  11 14662.4 2093.88   2
  -4   2  10 124.193 221.328   2
  -4  -2  10 303.214 307.652   2
  -4   2   9 7364.90 1437.81   2
  -4  -2   9 6339.67 1305.57   2
  -4   2   8-520.065 395.488   2
  -4  -2   8-772.991 468.529   2
  -4   2   8 152.706 187.078   3
  -4   2   7 26458.0 1764.31   3
  -4   2   7 21561.1 2342.04   2
  -4  -2   7 24179.8 2444.56   2
  -4   2   6 2923.46 867.089   2
  -4  -2   6 3907.89 960.236   2
  -4   2   6 3571.47 626.831   3
  -4   2   5 7478.77 1295.64   2
  -4   2   5 7230.63 891.523   3
  -4  -2   5 8548.53 1369.46   2
  -4   2   4 4272.87 986.155   2
  -4  -2   4 4196.34 963.948   2
  -4   2   3 22629.8 2116.86   2
  -4  -2   2 64078.2 1875.70   3
  -4   2   2 66969.5 3543.45   2
   4  -2  -1 13020.2 1623.61   1
  -4  -2   1 11517.6 990.274   3
  -4   2   1 10831.3 1405.23   2
  -4  -2   0-43.2327 87.6576   3
   4  -2   0 301.589 328.597   1
  -4   2   0 148.042 241.215   2
   4   2   0 93.5751 120.238   3
   4   2   0-383.643 250.645   1
   4   2   1 11537.4 1225.64   3
  -4   2  -1 12492.5 1427.13   2
   4  -2   1 11362.1 1501.82   1
   4   2   1 12785.1 1312.42   1
   4   2   2 1278.80 450.778   1
   4  -2   2 247.327 271.243   1
   4   2   2 559.627 348.161   3
   4   2   3 11366.6 1271.54   1
   4   2   3 9824.84 1326.51   3
   4  -2   3 11803.4 1564.80   1
   4   2   4 2700.82 621.010   1
   4   2   4 2990.80 797.593   3
   4  -2   4 2543.03 735.031   1
   4  -2   5 8752.61 1409.54   1
   4   2   5 10805.1 1589.29   3
   4   2   6 36332.1 3056.75   3
   4   2   7 6854.79 1432.93   3
   4   2   8 17347.7 2336.73   3
   4  -2   8 19358.2 2498.32   3
   4   2   9 5135.39 1333.04   3
   4  -2   9 4302.18 1247.21   3
   4   2  10 596.336 500.636   3
   4  -2  10 422.031 429.146   3
  -4   3  13 4878.63 1350.95   2
  -4  -3  13 3544.24 1070.55   2
  -4   3  12 209.898 607.399   2
  -4  -3  12 552.150 463.974   2
  -4   3  11 2065.56 901.292   2
  -4  -3  11 3019.37 942.249   2
  -4  -3  10 9080.65 1598.15   2
  -4   3  10 9214.34 1691.58   2
  -4  -3   9 1711.88 708.327   2
  -4   3   9 1501.69 667.285   2
  -4   3   9 1822.09 550.688   3
  -4   3   8 26834.9 2075.77   3
  -4   3   8 28024.1 2768.07   2
  -4  -3   8 25426.1 2563.64   2
  -4   3   7 18445.6 1666.64   3
  -4   3   7 18055.1 2170.98   2
  -4  -3   7 17978.7 2105.86   2
  -4   3   6 20286.6 1705.85   3
  -4   3   6 19016.3 2165.95   2
  -4   3   5 6997.64 1290.66   2
  -4   3   5 4460.04 791.719   3
  -4   3   4 16.6049 232.560   2
  -4   3   3 68316.4 3700.11   2
   4  -3  -2 11222.9 1533.76   1
  -4  -3   2 11009.2 752.256   3
  -4   3   2 9450.85 1365.40   2
   4  -3  -1 1597.03 613.393   1
  -4   3   1 1806.26 556.544   2
   4   3  -1 995.976 293.984   3
  -4  -3   1 1256.92 324.759   3
   4  -3   0 63902.5 3650.82   1
   4   3   0 62223.5 2794.59   1
  -4  -3   0 56462.3 2512.79   3
   4   3   0 65583.5 2619.76   3
  -4   3   0 63901.6 3279.69   2
   4   3   1 10348.8 1187.29   3
  -4   3  -1 10530.7 1279.05   2
   4  -3   1 9558.25 1452.16   1
   4   3   1 11349.2 1179.13   1
   4   3   2 10522.8 1301.18   3
   4   3   2 11643.9 1195.11   1
   4  -3   2 10775.1 1533.40   1
  -4   3  -2 12025.3 1327.71   2
   4   3   3 30793.6 1948.48   1
   4   3   3 31915.4 2450.14   3
   4  -3   3 28882.9 2555.11   1
   4   3   4 4624.72 995.307   3
   4  -3   4 3894.80 988.662   1
   4  -3   5 326.713 279.730   1
   4   3   5 73.3422 226.187   3
   4   3   6-47.4581 174.475   3
   4   3   7 21476.1 2503.11   3
   4   3   8 24458.4 2820.87   3
   4   3   9 53.3860 496.034   3
   4   3  10 1012.20 603.638   3
  -4   4  13 4363.65 1325.77   2
  -4   4  12 1707.42 764.322   2
  -4   4  11 9434.42 1807.65   2
  -4   4  10 48510.7 3919.11   2
  -4   4   9 15513.6 1768.90   3
  -4   4   9 12751.7 1923.67   2
  -4   4   8 137.507 153.218   3
  -4   4   8-99.9881 183.939   2
  -4   4   7 22247.0 1998.34   3
  -4   4   7 19092.5 2247.02   2
  -4   4   6 15001.4 1598.73   3
  -4   4   6 13892.8 1868.00   2
  -4   4   5 1690.04 515.067   3
  -4   4   5 2799.06 799.094   2
  -4   4   4 3687.58 886.376   2
  -4   4   3 872.435 449.962   2
   4  -4  -2 23854.5 2341.67   1
  -4   4   2 22603.0 2111.78   2
   4   4  -2 22785.8 1097.55   3
   4  -4  -1 84726.4 4342.92   1
  -4  -4   1 75304.2 2585.10   3
   4   4  -1 86712.3 2739.20   3
  -4   4   1 82762.4 3867.53   2
   4   4   0 98063.8 3295.19   1
   4   4   0 92455.2 3248.88   3
  -4   4   0 98994.7 4080.99   2
   4  -4   0 91633.1 4527.84   1
   4   4   1 23647.5 1819.60   3
  -4   4  -1 23950.4 1942.26   2
   4   4   1 24728.6 1624.64   1
   4  -4   1 24282.3 2344.60   1
   4  -4   2 9545.38 1499.95   1
   4   4   2 9706.64 1263.26   3
   4   4   2 8666.38 933.444   1
  -4   4  -2 9637.00 1171.77   2
   4   4   3 13439.6 1177.39   1
   4   4   3 12531.1 1567.67   3
   4  -4   3 11526.1 1673.58   1
   4   4   4 2887.80 797.680   3
   4  -4   4 4344.59 1041.02   1
   4  -4   5 14081.1 1929.48   1
   4   4   5 10342.8 1591.25   3
   4   4   6 7207.43 1425.07   3
   4   4   7 5948.55 1347.36   3
   4   4   8 2582.19 919.919   3
   4   4   9 18917.1 2650.90   3
   4   4  10 7531.51 1733.86   3
  -4   5  12 1335.97 729.962   2
  -4   5  11 384.310 326.882   2
  -4   5  10 1300.24 572.723   2
  -4   5  10 863.034 464.376   3
  -4   5   9 13016.6 1743.06   3
  -4   5   9 12435.5 1961.77   2
  -4   5   8 7575.35 1304.39   3
  -4   5   8 5596.90 1276.11   2
  -4   5   7 21231.3 2393.69   2
  -4   5   7 23855.2 2227.31   3
  -4   5   6 21150.9 2082.29   3
  -4   5   6 21730.2 2323.69   2
  -4   5   5 489.994 340.272   3
  -4   5   5-15.0511 226.790   2
  -4   5   4 49120.1 3332.54   2
   4  -5  -3 591.750 526.580   1
  -4   5   3 132.942 259.395   2
  -4   5   2 1667.65 622.025   2
   4   5  -2 886.365 240.977   3
   4  -5  -2 1052.64 507.454   1
   4  -5  -1 17499.3 2044.80   1
   4   5  -1 16750.8 1283.70   3
  -4   5   1 16944.2 1810.43   2
  -4   5   0 373.256 228.241   2
   4   5   0 264.640 229.830   3
   4   5   0 58.8302 95.3312   1
   4  -5   0-70.2254 232.132   1
   4   5   1 34700.4 2306.29   3
  -4   5  -1 36807.2 2434.35   2
   4   5   1 37838.8 1784.93   1
   4  -5   1 34617.4 2918.75   1
   4   5   2 2490.64 648.434   3
  -4   5  -2 3165.65 667.246   2
   4   5   2 3271.27 515.496   1
   4  -5   2 3658.87 991.007   1
   4   5   3 643.505 435.072   3
  -4   5  -3 72.5059 173.534   2
   4  -5   3 311.953 230.591   1
   4   5   4 43058.8 3113.86   3
   4  -5   4 39703.3 3261.55   1
   4   5   5 984.668 437.565   3
   4  -5   5 417.182 254.716   1
   4   5   6 36826.1 3220.79   3
   4   5   7 283.596 320.603   3
   4   5   8 4268.27 1219.67   3
   4   5   9 3679.39 1172.58   3
   4   5  10-1054.74 671.231   3
  -4   6  11 3006.99 1011.29   2
  -4   6  10 7997.77 1674.78   2
  -4   6  10 8106.31 1496.94   3
  -4   6   9-122.206 270.663   2
  -4   6   9 395.176 350.110   3
  -4   6   8 1837.05 715.794   3
  -4   6   8 1537.16 705.392   2
  -4   6   7 7235.07 1307.08   3
  -4   6   7 7523.33 1481.01   2
  -4   6   6 6261.23 1205.94   3
  -4   6   6 5616.64 1235.73   2
  -4   6   5 1034.16 494.951   3
  -4   6   5 829.053 532.464   2
  -4   6   4 4326.89 1022.38   2
   4  -6  -3 17860.6 2194.03   1
  -4   6   3 17676.0 1984.98   2
   4   6  -2 7282.99 802.650   3
   4  -6  -2 7541.05 1401.60   1
  -4   6   2 6510.74 1191.28   2
   4   6  -1 2124.85 488.869   3
   4  -6  -1 2187.50 763.397   1
  -4   6   1 1722.41 534.019   2
   4   6   0 37278.6 2286.63   3
  -4   6   0 35724.2 2564.66   2
   4  -6   0 38620.8 3145.08   1
  -4   6  -1 6562.57 1031.48   2
   4   6   1 6563.06 1045.54   3
   4  -6   1 3321.78 948.987   1
   4   6   2 8739.31 1299.08   3
  -4   6  -2 8919.97 1168.78   2
   4  -6   2 7358.88 1405.54   1
   4   6   3 11089.9 1553.66   3
   4  -6   3 10715.4 1722.12   1
  -4   6  -3 11026.7 1197.55   2
   4   6   4 3810.75 975.591   3
   4  -6   4 3305.58 968.125   1
   4   6   5 497.504 508.152   3
   4  -6   5 344.096 244.060   1
   4   6   6 5882.82 1358.27   3
   4   6   7 13165.4 2052.35   3
   4   6   8 2735.18 1018.63   3
   4   6   9 326.355 377.347   3
  -4   7  11 291.974 353.356   2
  -4   7  11-163.610 308.044   3
  -4   7  10-473.627 448.892   2
  -4   7  10-513.582 414.433   3
  -4   7   9 1518.83 676.416   3
  -4   7   8 2187.62 834.296   3
  -4   7   7 21412.7 2399.02   3
  -4   7   6 1237.28 609.209   3
  -4   7   5 569.450 408.258   2
  -4   7   5 1345.63 531.476   3
   4  -7  -4-40.6939 218.766   1
  -4   7   4-34.5445 137.326   2
   4  -7  -3 40763.1 3328.09   1
  -4   7   3 37825.7 2933.72   2
   4  -7  -2 1765.87 760.492   1
  -4   7   2 1127.65 443.043   2
   4   7  -1 10835.9 1206.75   3
  -4   7   1 9760.32 1417.89   2
   4  -7  -1 11144.5 1739.27   1
   4   7   0 301.420 180.961   3
   4  -7   0 341.222 339.559   1
  -4   7   0-107.362 187.075   2
  -4   7  -1 1083.61 425.757   2
   4  -7   1 1050.49 555.099   1
   4   7   1 1311.00 494.984   3
   4   7   2 2737.26 766.757   3
  -4   7  -2 3206.97 717.276   2
   4  -7   2 3424.87 998.260   1
   4   7   3 37668.0 2961.55   3
   4  -7   3 35104.9 3220.74   1
   4   7   4-91.8174 213.386   3
   4  -7   4 300.141 337.023   1
   4   7   5 619.540 480.103   3
   4  -7   5 171.092 369.214   1
   4   7   6 1049.64 577.718   3
   4   7   7 14469.8 2204.02   3
   4   7   8 223.881 320.866   3
   4   7   9 1591.68 813.348   3
  -4   8  11 6108.82 1492.46   3
  -4   8  10 1908.22 896.333   3
  -4   8   9 7506.19 1560.98   3
  -4   8   8 4025.55 1153.36   3
  -4   8   7 4353.82 1136.69   3
  -4   8   6 1205.26 648.568   3
  -4   8   5 2060.03 710.925   3
   4  -8  -5 1671.66 818.498   1
   4  -8  -4 968.701 583.030   1
  -4   8   4 792.476 581.723   3
   4  -8  -3 5389.06 1273.47   1
  -4   8   3 4969.23 1120.54   2
   4  -8  -2 2767.57 864.346   1
  -4   8   2 3074.79 865.546   2
  -4   8   1 18890.6 2003.54   2
   4  -8  -1 17371.1 2261.27   1
   4   8   0 20662.8 1933.65   3
  -4   8   0 18390.7 1925.41   2
   4  -8   0 18165.8 2311.07   1
   4   8   1 11622.6 1536.06   3
  -4   8  -1 14854.5 1658.98   2
   4  -8   1 13679.0 1995.24   1
   4   8   2 6304.89 1197.53   3
   4  -8   2 5952.98 1365.22   1
   4  -8   3 10904.9 1834.58   1
   4   8   3 11993.2 1720.26   3
   4   8   4-74.0128 386.027   3
   4  -8   4 56.8628 405.999   1
   4   8   5 229.450 446.623   3
   4  -8   5 341.666 487.089   1
   4   8   6-98.7458 224.934   3
   4   8   7 6150.26 1496.80   3
   4   8   8 1879.54 859.778   3
  -4   9  11 927.097 616.620   3
  -4   9  10 2146.03 897.561   3
  -4   9   9 4700.18 1356.22   3
  -4   9   8 3099.94 1033.07   3
  -4   9   7 4195.81 1240.09   3
   4  -9  -6 8446.04 1668.84   1
  -4   9   6 12409.1 2019.21   3
   4  -9  -5-282.320 365.439   1
  -4   9   5 745.082 549.781   3
   4  -9  -4 25722.3 2825.18   1
  -4   9   4 25809.9 2828.98   3
   4  -9  -3 1666.92 757.193   1
   4  -9  -2 131.713 233.087   1
   4  -9  -1 5032.66 1265.17   1
  -4   9   1 2405.65 765.896   2
   4  -9   0 153.878 257.676   1
  -4   9   0 775.572 412.193   2
   4   9   1 2030.11 624.182   3
   4  -9   1 1839.41 702.536   1
   4   9   2 683.891 480.500   3
   4  -9   2 557.698 448.734   1
   4   9   3 2746.83 865.764   3
   4  -9   3 4303.54 1193.63   1
   4   9   4 15546.8 2156.02   3
   4  -9   4 17679.2 2462.25   1
   4   9   5 397.232 323.282   3
   4   9   6 15996.2 2348.13   3
   4   9   7 1868.02 769.227   3
  -4  10  10 4747.96 1395.41   3
  -4  10   9 607.696 549.731   3
   4 -10  -8 1627.91 782.628   1
  -4  10   8 990.277 651.663   3
  -4  10   7 4848.91 1390.01   3
   4 -10  -7 3394.13 1130.97   1
   4 -10  -6 5724.94 1414.03   1
  -4  10   6 6966.84 1616.27   3
   4 -10  -5 6213.91 1460.18   1
  -4  10   5 3972.18 1182.20   3
  -4  10   4 4265.14 1228.90   3
   4 -10  -4 4702.64 1241.52   1
   4 -10  -3 912.581 527.823   1
   4 -10  -2 723.415 464.156   1
   4 -10  -1-206.464 274.631   1
  -4  10   1-473.269 361.551   2
  -4  10   0 24052.2 2318.08   2
   4 -10   0 22033.4 2711.46   1
   4 -10   1 781.432 435.639   1
   4  10   2 1506.41 648.206   3
   4 -10   2-287.495 366.244   1
   4  10   3 3693.50 1062.12   3
   4 -10   3 5364.03 1397.36   1
   4  10   4 3667.85 1100.96   3
   4 -10   4 786.794 679.327   1
   4  10   5 1387.79 644.789   3
   4  10   6 2589.74 986.407   3
   4  10   7 2565.43 977.908   3
  -4  11   8 19039.5 2842.19   3
   4 -11  -8 17072.7 2539.25   1
   4 -11  -7 3263.63 1083.76   1
  -4  11   7 5806.51 1578.77   3
   4 -11  -6 1707.34 849.023   1
  -4  11   6 2592.54 1111.77   3
  -4  11   5 1177.85 718.453   3
   4 -11  -5 1002.72 665.888   1
   4 -11  -4 1134.19 730.444   1
  -4  11   4 1161.69 686.031   3
  -4  11   3 11428.7 2065.21   3
   4 -11  -3 10892.5 1958.86   1
   4 -11  -2 1651.23 721.239   1
   4 -11  -1 10336.0 1881.37   1
   4 -11   0 1369.87 717.046   1
   4 -11   1 837.338 442.782   1
   4 -11   2 13342.3 2198.13   1
   4 -11   3 4576.90 1336.63   1
   4  11   4 1941.90 844.963   3
   4  11   5 1620.31 786.924   3
   4  11   6 51.0146 195.306   3
   4 -12  -7 731.394 555.325   1
   4 -12  -6 541.778 499.741   1
   4 -12  -5 902.471 621.128   1
   4 -12  -4 4386.70 1268.45   1
   4 -12  -3 1886.92 784.702   1
  -4  12   3 2821.45 1131.76   3
   4 -12  -2 1711.14 839.882   1
   4 -12  -1 3632.91 1220.11   1
   4 -12   0 4012.38 1213.16   1
   4 -12   1 2479.70 984.949   1
   4 -13  -3 3450.16 1144.29   1
  -5   0  12 4566.74 1378.35   2
  -5   0  11-130.708 288.870   2
  -5   0  10 19956.1 2616.59   2
  -5   0   9 159.294 433.432   2
  -5   0   8 36675.5 3412.45   2
  -5   0   7 110.061 444.322   2
  -5   0   6 96.4733 335.273   2
  -5   0   5 31.6047 318.127   2
  -5   0   4 331.106 249.025   2
  -5   0   3-613.325 416.770   2
  -5   0   2 10785.0 1641.14   2
   5   0  -1 297.398 322.705   1
   5   0   0 36289.5 2793.03   1
   5   0   1-136.670 222.379   1
   5   0   2 35791.3 2795.33   1
   5   0   3-253.470 308.929   1
   5   0   4-449.250 352.954   1
   5   0   5 286.982 333.194   3
   5   0   5 36.7008 294.708   1
   5   0   6 960.602 473.013   3
   5   0   7-516.766 445.072   3
   5   0   8 9646.15 1840.01   3
   5   0   9 271.898 396.547   3
  -5  -1  13-63.9814 198.288   2
  -5   1  12 1438.38 754.116   2
  -5  -1  12 1243.59 713.705   2
  -5   1  11 3080.69 1055.67   2
  -5  -1  11 1396.86 674.209   2
  -5   1  10-828.926 560.286   2
  -5  -1  10 215.341 305.816   2
  -5   1   9 2530.64 905.374   2
  -5  -1   9 2463.33 901.038   2
  -5   1   8 1639.28 740.739   2
  -5  -1   8 1066.74 643.141   2
  -5   1   7 11255.2 1839.83   2
  -5  -1   7 11120.1 1826.40   2
  -5   1   6 1764.26 694.637   2
  -5  -1   6 1990.69 770.443   2
  -5   1   5 12742.2 1878.19   2
  -5  -1   5 13269.9 1902.75   2
  -5   1   4 39892.7 3234.53   2
  -5  -1   4 43824.0 3401.38   2
  -5   1   3 7353.37 1375.56   2
  -5   1   2 100.814 213.128   2
   5  -1  -2 59.5582 272.841   1
  -5   1   1 120.488 207.743   2
   5   1  -1 845.674 382.792   1
   5  -1  -1 1225.85 539.674   1
   5  -1   0 1846.14 644.798   1
   5   1   0 2005.26 654.675   1
   5  -1   1-682.928 423.550   1
   5   1   1-40.6401 302.299   1
   5   1   2 650.864 410.923   1
   5  -1   2 634.151 401.920   1
   5   1   3 8839.76 1352.30   1
   5   1   3 8769.96 1404.92   3
   5  -1   3 9654.79 1514.44   1
   5   1   4 84.1992 147.873   1
   5  -1   4 205.185 222.643   1
   5   1   4 398.509 396.438   3
   5  -1   5 13400.5 1844.56   1
   5   1   5 18263.0 2211.47   3
   5   1   6 18366.4 2342.85   3
   5   1   7 1328.74 643.437   3
   5   1   8 2668.48 985.492   3
   5   1   9 158.527 279.538   3
  -5  -2  13-143.263 288.075   2
  -5   2  12 991.458 637.762   2
  -5  -2  12 406.561 403.557   2
  -5   2  11 13680.9 2275.17   2
  -5  -2  11 12478.0 2109.28   2
  -5   2  10 1940.11 942.898   2
  -5  -2  10 1304.26 605.451   2
  -5   2   9 6324.70 1459.99   2
  -5  -2   9 8366.56 1642.47   2
  -5   2   8 20766.9 2563.16   2
  -5  -2   8 22376.1 2636.56   2
  -5   2   7 38248.2 3384.55   2
  -5  -2   7 31328.9 3066.98   2
  -5   2   6 21143.1 2510.94   2
  -5  -2   6 17291.5 2300.14   2
  -5   2   5 3582.25 986.432   2
  -5   2   4 1794.90 686.117   2
  -5   2   3 9466.21 1561.56   2
   5  -2  -2 10.8864 413.689   1
  -5   2   2-100.289 323.054   2
   5  -2  -1 12677.1 1758.38   1
   5   2  -1 13133.4 1594.39   1
  -5   2   1 12708.3 1688.92   2
   5   2   0 3771.14 830.298   1
  -5   2   0 2460.77 769.130   2
   5  -2   0 4086.92 1016.17   1
   5   2   1 7419.55 1173.68   1
   5  -2   1 6988.68 1334.49   1
   5   2   1 7863.40 1120.46   3
   5  -2   2 6113.79 1263.49   1
   5   2   2 4676.84 939.141   3
   5   2   2 4882.02 962.302   1
   5   2   3 13775.8 1610.93   1
   5   2   3 11982.8 1619.22   3
   5  -2   3 13094.3 1853.83   1
   5   2   4 304.431 283.534   1
   5   2   4 20.8038 245.682   3
   5  -2   4 7.62499 141.608   1
   5  -2   5 1631.84 717.001   1
   5   2   5 426.965 394.145   3
   5   2   6 3022.99 922.052   3
   5   2   7 6935.90 1510.62   3
   5   2   8 790.017 478.268   3
   5   2   9 1391.75 794.427   3
  -5  -3  13 2527.32 990.404   2
  -5  -3  12 1336.57 704.940   2
  -5   3  11 5081.88 1412.48   2
  -5  -3  11 6237.20 1516.26   2
  -5   3  10 9455.63 1844.91   2
  -5  -3  10 8147.98 1655.78   2
  -5   3   9 8920.73 1773.18   2
  -5  -3   9 8514.23 1708.98   2
  -5   3   8 1257.30 626.047   2
  -5   3   7 19986.6 2490.97   2
  -5   3   6 3859.72 1106.65   2
  -5   3   5 10816.6 1274.11   3
  -5   3   5 12320.1 1827.68   2
  -5   3   4 10703.7 1670.22   2
   5  -3  -3 11301.9 1760.71   1
  -5   3   3 10221.1 1599.56   2
   5  -3  -2 53676.8 3792.75   1
  -5   3   2 56194.0 3702.66   2
   5  -3  -1 50620.7 3616.41   1
   5   3  -1 59256.6 3259.34   1
  -5   3   1 54332.2 3511.89   2
   5   3   0 814.994 422.137   1
  -5   3   0 957.832 502.347   2
   5   3   0 448.951 229.419   3
   5  -3   0 790.302 420.547   1
   5   3   1 20308.0 1809.63   3
   5   3   1 19181.9 1797.61   1
  -5   3  -1 16740.7 1851.38   2
   5  -3   1 17090.2 2126.69   1
   5  -3   2 323.936 444.748   1
   5   3   2 135.869 237.180   3
   5   3   2 733.104 366.896   1
   5   3   3 5817.17 1103.93   3
   5   3   3 6934.44 1088.74   1
   5  -3   3 6779.05 1359.82   1
   5   3   4 1049.98 517.556   3
   5  -3   4 819.249 457.655   1
   5  -3   5 2875.84 874.267   1
   5   3   5 4820.50 1112.47   3
   5   3   6 1584.06 701.155   3
   5   3   7 1565.76 664.877   3
   5   3   8 5021.15 1414.14   3
   5   3   9 6415.65 1568.10   3
  -5   4  11 1447.29 773.694   2
  -5   4  10 24377.6 3024.03   2
  -5   4   9 7774.04 1691.35   2
  -5   4   8 465.420 398.424   2
  -5   4   7 1580.82 658.247   2
  -5   4   6 1217.94 709.822   2
  -5   4   6 296.228 225.467   3
  -5   4   5 466.316 441.061   2
  -5   4   5 316.617 253.244   3
  -5   4   4 150.736 275.173   2
  -5   4   3-193.862 415.926   2
   5  -4  -3 3441.76 1012.47   1
   5  -4  -2 19553.6 2330.28   1
  -5   4   2 18652.4 2157.78   2
   5  -4  -1 132.442 349.135   1
  -5   4   1 237.340 262.424   2
   5   4  -1 305.971 252.335   1
  -5   4   0 68723.2 3902.79   2
   5  -4   0 71815.9 4460.25   1
   5   4   0 78352.1 3465.98   1
   5   4   1 16641.3 1636.21   3
  -5   4  -1 13381.9 1639.29   2
   5   4   1 17370.7 1596.28   1
   5  -4   1 15738.3 2106.43   1
   5   4   2 8727.88 1258.80   3
   5  -4   2 10507.6 1745.46   1
   5   4   3 5727.91 1118.98   3
   5  -4   3 4513.96 1178.75   1
   5   4   4 1036.78 511.658   3
   5  -4   4 1082.92 653.257   1
   5  -4   5 4583.73 1182.58   1
   5   4   5 4689.92 1157.68   3
   5   4   6 6669.40 1469.09   3
   5   4   7 759.561 578.778   3
   5   4   8 11372.6 2026.09   3
  -5   5  10 3003.56 1077.55   2
  -5   5   9 9545.78 1875.01   2
  -5   5   8 2465.70 933.642   2
  -5   5   7 2408.38 929.119   2
  -5   5   6 3731.32 1072.61   2
  -5   5   6 3590.70 882.482   3
  -5   5   5 309.576 358.048   2
  -5   5   5 2.03214 108.608   3
   5  -5  -4 22433.8 2640.92   1
  -5   5   4 25534.3 2658.67   2
  -5   5   3 628.154 461.955   2
   5  -5  -3 179.499 266.447   1
  -5   5   2 88.2682 202.809   2
   5  -5  -2 730.871 455.316   1
  -5   5   1 1048.64 502.938   2
   5  -5  -1 1711.06 753.026   1
  -5   5   0-184.690 199.857   2
   5  -5   0 328.063 368.553   1
   5  -5   1 3527.42 1056.40   1
  -5   5  -1 4516.48 968.195   2
   5   5   2 3499.83 832.234   3
  -5   5  -2 3564.84 824.411   2
   5  -5   2 4469.70 1202.03   1
   5   5   3 1826.04 666.366   3
   5  -5   3 2034.65 859.432   1
   5   5   4 3830.93 989.013   3
   5  -5   4 4087.64 1150.13   1
   5  -5   5 3737.66 1085.22   1
   5   5   5 3086.12 936.107   3
   5   5   6 6112.40 1421.48   3
   5   5   7-182.140 298.483   3
   5   5   8 3193.17 1134.10   3
  -5   6  10 3861.14 1246.90   2
  -5   6   9 9721.67 1909.21   2
  -5   6   8 3277.68 1080.80   2
  -5   6   7 18549.5 2139.35   3
  -5   6   7 21478.8 2672.17   2
  -5   6   6 17710.0 2094.62   3
  -5   6   6 14346.4 2144.20   2
  -5   6   5 2425.54 834.976   2
  -5   6   5 464.291 293.998   3
   5  -6  -4 413.042 396.345   1
  -5   6   4 1313.96 720.403   2
  -5   6   3 2003.98 785.391   2
   5  -6  -3 1825.47 725.476   1
   5  -6  -2 11439.5 1897.39   1
  -5   6   2 11628.8 1736.12   2
  -5   6   1-107.822 245.560   2
   5  -6  -1 366.211 445.227   1
  -5   6   0 16725.4 1966.24   2
   5  -6   0 15385.9 2203.97   1
   5  -6   1 972.156 649.101   1
  -5   6  -1 1200.29 579.632   2
   5  -6   2 2041.97 853.866   1
   5  -6   3 12179.6 1989.33   1
   5   6   3 10746.9 1618.19   3
   5   6   4 7073.99 1374.53   3
   5  -6   4 7960.60 1643.53   1
   5  -6   5 560.979 575.031   1
   5   6   5 990.347 607.598   3
   5   6   6 6987.73 1504.29   3
   5   6   7 1591.30 759.482   3
   5   6   8 4764.69 1354.56   3
  -5   7   9 4300.66 1285.58   2
  -5   7   8 1270.91 696.413   2
  -5   7   7 8321.48 1550.61   3
  -5   7   7 4350.08 1233.01   2
  -5   7   6 241.923 466.798   3
  -5   7   6 525.260 329.546   2
   5  -7  -5 4034.79 1155.07   1
  -5   7   5 2822.79 917.359   3
  -5   7   5 2968.03 942.691   2
  -5   7   4 60.1261 221.356   2
   5  -7  -4 180.784 285.232   1
   5  -7  -3 13636.7 2123.86   1
  -5   7   3 15405.7 2090.58   2
  -5   7   2 107.977 267.486   2
   5  -7  -2 673.611 377.068   1
  -5   7   1 18274.3 2137.84   2
   5  -7  -1 18769.5 2500.61   1
  -5   7   0 895.433 396.465   2
   5  -7   0 326.037 524.784   1
   5  -7   1 4568.75 1258.13   1
   5  -7   2 717.819 533.036   1
   5  -7   3 1312.57 727.361   1
   5   7   4 400.591 308.431   3
   5  -7   4 802.186 600.577   1
   5  -7   5 2326.88 996.489   1
   5   7   5 1352.44 655.658   3
   5   7   6 3373.31 1097.06   3
   5   7   7 5487.14 1453.92   3
  -5   8   8 1575.46 654.815   3
  -5   8   8 2382.77 967.855   2
  -5   8   7 7484.68 1556.72   3
  -5   8   7 10859.9 1989.94   2
   5  -8  -6-63.4343 253.358   1
  -5   8   6 33.6067 187.076   3
  -5   8   6-422.588 411.795   2
   5  -8  -5 467.233 426.036   1
  -5   8   5 71.3311 287.004   3
  -5   8   5 247.130 330.999   2
   5  -8  -4 2785.05 1044.36   1
  -5   8   4 1496.63 657.429   2
  -5   8   3-238.543 497.266   2
   5  -8  -3 666.407 585.350   1
  -5   8   2 617.379 486.419   2
   5  -8  -2-442.442 439.857   1
  -5   8   1 3172.01 899.706   2
   5  -8  -1 5072.47 1350.40   1
  -5   8   0 17.5962 172.335   2
   5  -8   0-1002.53 614.880   1
   5  -8   1 668.540 638.283   1
   5  -8   2 5255.93 1449.15   1
   5  -8   3 11681.6 2101.87   1
   5  -8   4-388.467 434.490   1
   5   8   5 561.545 448.342   3
   5   8   6 1634.35 767.481   3
   5   8   7 680.385 535.552   3
  -5   9   8 1446.17 660.748   3
   5  -9  -7 291.212 400.720   1
  -5   9   7 596.095 496.642   2
   5  -9  -6 96.7187 401.394   1
  -5   9   6 5.07840 270.718   3
  -5   9   6-753.832 546.688   2
   5  -9  -5 492.860 350.780   1
  -5   9   5 1398.90 705.268   3
  -5   9   5 1099.23 617.196   2
   5  -9  -4 9642.27 1875.49   1
  -5   9   4 7631.31 1598.93   3
  -5   9   4 8776.86 1678.27   2
   5  -9  -3 2833.03 1024.86   1
  -5   9   3 437.017 286.902   2
  -5   9   2 381.522 395.126   2
   5  -9  -2 425.503 401.609   1
  -5   9   1 784.135 463.391   2
   5  -9  -1 934.166 696.140   1
   5  -9   0 8306.04 1742.24   1
   5  -9   1-704.674 540.818   1
   5  -9   2-154.611 276.253   1
   5  -9   3-391.462 337.191   1
  -5  10   8 4458.53 1335.83   3
  -5  10   7 781.068 578.844   3
  -5  10   6 1076.28 711.549   3
  -5  10   6-10.9863 220.168   2
   5 -10  -5 1757.30 806.338   1
  -5  10   5 1979.29 878.201   3
  -5  10   5 1302.03 464.133   2
  -5  10   4 697.771 549.272   3
   5 -10  -4 85.7908 269.025   1
  -5  10   4 228.922 348.923   2
   5 -10  -3-506.774 486.083   1
  -5  10   3-188.185 318.770   2
   5 -10  -2 1097.86 673.022   1
  -5  10   2 1149.45 579.600   2
   5 -10  -1-858.717 609.443   1
   5 -10   0 319.341 335.919   1
  -5  11   4 10724.6 2114.45   3
  -5  11   4 11446.7 2007.32   2
  -5  11   3 3808.30 1288.47   3
  -5  11   3 4286.28 1197.12   2
  -6   0  10 1621.80 781.976   2
  -6   0   9 1304.92 733.843   2
  -6   0   8 12301.7 2154.57   2
  -6   0   7 3.48657 190.435   2
  -6   0   6-35.0011 239.340   2
  -6   0   5-41.8168 181.669   2
  -6   0   4 7203.74 1535.17   2
   6   0  -3 261.138 317.689   1
   6   0  -2-696.553 471.202   1
   6   0  -1 100.458 222.249   1
   6   0   0 2045.64 755.220   1
   6   0   1 544.159 531.297   1
   6   0   2 17588.0 2154.75   1
   6   0   3-775.469 475.453   1
   6   0   4 226.583 486.130   1
   6   0   5 398.156 391.893   1
  -6  -1  10 2149.66 925.639   2
  -6   1   9 960.478 634.189   2
  -6  -1   9 858.615 695.540   2
  -6   1   8 403.622 322.181   2
  -6  -1   8 1206.77 601.707   2
  -6   1   7 147.523 359.200   2
  -6  -1   7-884.890 596.364   2
  -6   1   6 1185.04 641.892   2
  -6  -1   6 932.301 536.009   2
  -6   1   5 1172.68 707.769   2
  -6   1   4 5919.01 1378.66   2
   6   1  -3 1446.77 624.562   1
  -6   1   3 892.831 579.912   2
   6  -1  -3 1624.39 740.616   1
   6   1  -2 4898.21 1152.40   1
   6  -1  -2 4091.32 1110.40   1
   6  -1  -1 5429.54 1239.64   1
   6   1  -1 6096.42 1279.34   1
   6  -1   0 2030.63 750.205   1
   6   1   0 2528.02 789.569   1
   6   1   1 921.882 562.256   1
   6  -1   1 1645.43 695.489   1
   6   1   2 288.428 326.165   1
   6  -1   2-232.500 247.690   1
   6   1   3-169.556 202.455   1
   6  -1   3 63.3897 285.823   1
   6   1   4 279.918 299.346   1
   6  -1   4 987.940 541.352   1
   6  -1   5 759.437 506.634   1
   6   1   7-467.488 443.278   3
  -6   2   9 4497.99 1343.13   2
  -6  -2   9 4701.61 1360.87   2
  -6   2   8-194.921 338.577   2
  -6   2   7 24268.0 2979.54   2
  -6   2   6 310.625 577.077   2
  -6   2   5 6078.83 1468.35   2
  -6   2   4 548.452 531.087   2
  -6   2   3 920.849 612.759   2
   6  -2  -3 609.163 445.941   1
  -6   2   2 4373.28 1121.75   2
   6   2  -2 1907.16 706.058   1
   6  -2  -2 3753.17 1063.97   1
   6  -2  -1 999.318 577.021   1
   6   2  -1 431.519 161.264   1
   6  -2   0 13.2380 174.822   1
   6   2   0 144.503 220.902   1
   6   2   1 5791.45 1176.23   1
   6  -2   1 4033.39 1120.99   1
   6   2   2-376.281 318.841   1
   6  -2   2-220.697 323.156   1
   6  -2   3 5181.31 1283.04   1
   6  -2   4 495.664 437.814   1
   6   2   4-262.807 306.933   3
   6  -2   5 2387.08 903.403   1
   6   2   5 2986.90 927.987   3
   6   2   6 383.234 309.831   3
   6   2   7 77.6723 246.613   3
  -6   3   9 1995.54 918.073   2
  -6   3   8 360.054 407.297   2
  -6   3   7 139.724 314.639   2
  -6   3   6 1661.10 779.160   2
  -6   3   5 3603.50 1168.54   2
  -6   3   4 1857.75 762.628   2
   6  -3  -4 3407.42 1090.41   1
  -6   3   3 4314.44 1160.77   2
   6  -3  -3 5343.81 1343.76   1
  -6   3   2 7785.84 1562.00   2
   6  -3  -2 5750.62 1359.70   1
   6   3  -2 8165.26 1432.17   1
   6   3  -1 168.024 315.305   1
  -6   3   1-191.765 452.661   2
   6  -3  -1-92.1563 314.375   1
   6  -3   0 2200.53 805.763   1
   6  -3   1 169.017 287.576   1
   6  -3   2 515.852 496.475   1
   6  -3   3 143.492 279.824   1
   6  -3   4 611.851 481.903   1
   6  -3   5 5261.76 1338.05   1
   6   3   5 3908.37 1128.57   3
   6   3   6 1135.84 594.083   3
   6   3   7 1966.34 852.947   3
  -6   4   8 325.076 343.046   2
  -6   4   7 8831.15 1837.96   2
  -6   4   6 6373.91 1534.81   2
  -6   4   5 60.6095 311.307   2
   6  -4  -4 2065.69 853.718   1
  -6   4   4 2207.00 846.210   2
  -6   4   3 5420.20 1340.87   2
   6  -4  -3 7817.19 1635.50   1
   6  -4  -2 623.320 582.429   1
  -6   4   2 1376.25 692.477   2
  -6   4   1-326.779 350.314   2
   6  -4  -1 131.617 361.708   1
   6  -4   0 10714.3 1920.12   1
  -6   4   0 8927.18 1582.00   2
   6  -4   1 3275.69 1101.01   1
   6  -4   2 2193.00 877.096   1
   6  -4   3 1.69142 262.527   1
   6  -4   4 746.263 540.664   1
   6  -4   5 901.212 592.574   1
   6   4   7 4718.90 1313.98   3
  -6   5   8 3050.83 1143.54   2
  -6   5   7 163.528 311.728   2
  -6   5   6 5957.84 1438.10   2
  -6   5   5-422.515 414.270   2
   6  -5  -5-384.115 506.526   1
  -6   5   4 632.508 490.503   2
   6  -5  -4 1472.79 795.129   1
  -6   5   3 406.961 555.619   2
   6  -5  -3 6.92258 271.445   1
   6  -5  -2 33856.7 3430.32   1
  -6   5   2 33398.7 3184.83   2
  -6   5   1 3439.81 1006.27   2
   6  -5  -1 4206.12 1231.60   1
  -6   5   0 21347.6 2418.24   2
   6  -5   0 23053.3 2884.55   1
   6  -5   1 57.2406 304.249   1
   6  -5   2-1076.16 657.044   1
   6  -5   3-166.615 348.462   1
   6  -5   4 1038.95 721.845   1
  -6   6   7 5131.31 1426.46   2
  -6   6   6 1879.95 846.997   2
   6  -6  -6 3203.05 1107.19   1
  -6   6   5 2003.77 849.811   2
   6  -6  -5 407.769 456.430   1
  -6   6   4-181.770 302.107   2
   6  -6  -4 1578.54 780.719   1
  -6   6   3 459.645 541.769   2
   6  -6  -3 460.132 378.057   1
  -6   6   2 73.1086 312.105   2
   6  -6  -2-905.314 616.346   1
  -6   6   1 5670.26 1298.59   2
   6  -6  -1 4987.14 1381.93   1
   6  -6   0-1.82261 192.899   1
  -6   6   0 99.3846 179.732   2
   6  -6   1 12369.3 2160.58   1
   6  -6   2-219.591 539.959   1
   6  -6   3-117.259 308.689   1
  -6   7   6-57.0665 389.056   2
   6  -7  -5 5981.02 1590.41   1
  -6   7   5 5941.25 1485.39   2
  -6   7   4 2143.53 798.130   2
   6  -7  -4 741.656 564.699   1
  -6   7   3 1999.26 849.641   2
   6  -7  -3 1790.16 882.065   1
  -6   7   2-118.377 348.379   2
   6  -7  -2 444.150 579.861   1
  -6   7   1 717.700 604.155   2
   6  -7  -1-175.310 345.606   1
   6  -7   0 14424.9 2373.92   1
   6  -7   1 1213.00 724.696   1
  -6   8   5-473.103 458.992   2
  -6   8   4 970.494 617.107   2
  -6   8   3 4568.28 1266.42   2
  -6   8   2 13752.2 2108.13   2
  -6   9   4 448.585 445.868   2
  -6   9   4-154.302 301.446   3
  -6   9   3 228.493 329.357   2
   7   0  -4 4927.44 1345.34   1
   7   0  -3-285.206 344.835   1
   7   0  -2 14389.8 2180.57   1
   7   0  -1 52.9140 350.869   1
   7   0   0 1049.20 664.755   1
   7   0   1 44.2511 216.504   1
   7   0   2 796.159 528.516   1
   7  -1  -5-65.1092 247.303   1
  -7   1   5-666.618 549.043   2
   7   1  -4 1632.09 761.392   1
   7  -1  -4 801.488 577.450   1
   7  -1  -3 29.3475 345.952   1
   7   1  -3 478.323 440.563   1
   7  -1  -2-841.133 564.431   1
   7   1  -2 683.019 486.294   1
   7  -1  -1 132.392 288.293   1
   7   1  -1 239.943 326.861   1
   7   1   0 1808.66 748.151   1
   7  -1   0 1095.26 640.297   1
   7  -1   1 1501.02 760.861   1
   7  -1   2 3428.54 1052.39   1
   7  -1   3 2424.12 903.011   1
   7  -2  -5-142.733 281.363   1
  -7   2   5 677.762 547.937   2
   7   2  -4 868.388 602.455   1
   7  -2  -4 16.8551 206.981   1
  -7   2   4 1114.27 669.550   2
   7  -2  -3 1072.84 548.104   1
   7   2  -3 258.597 188.826   1
   7  -2  -2 1294.78 735.542   1
   7  -2  -1 9033.31 1845.21   1
   7  -2   0 49.7493 347.776   1
   7  -2   1 2392.10 938.676   1
   7  -2   2 1404.01 737.115   1
   7  -2   3-2060.75 885.187   1
  -7   3   5 1717.51 841.470   2
  -7   3   4 1902.59 856.493   2
   7  -3  -4 1593.01 814.267   1
   7  -3  -3 1836.05 917.227   1
  -7   3   3 1360.40 734.244   2
   7  -3  -2 306.283 595.346   1
   7  -3  -1 2987.62 1081.25   1
   7  -3   0 2602.56 1005.37   1
   7  -3   1 792.028 434.191   1
   7  -3   2-430.851 444.927   1
  -7   4   4 59.0551 211.527   2
  -7   4   3-132.265 286.863   2
  -7   4   2 420.986 423.475   2
  -7   5   4 73.4330 242.300   2
  -7   5   3 1932.61 865.896   2
  -7   5   2 763.248 551.448   2
  -7   5   1 9018.20 1798.70   2
  -7   6   3 4009.76 1189.63   2
  -7   6   2 4156.29 1232.20   2
   0   0   0    0.00    0.00   0
TITL 1333hx-4-40 in P2(1)/c
REM P2(1)/c (#14 in standard setting)
CELL 0.71073   5.680706  11.372403  11.931901  90.0000  98.9791  90.0000
ZERR    4.00   0.000483   0.000877   0.000889   0.0000   0.0082   0.0000
LATT  1
SYMM -x, y+1/2,-z+1/2
SFAC C H O Cl
UNIT 36.00 28.00 8.00 4.00
TREF
HKLF 4
END
;
loop_
_symmetry_equiv_pos_as_xyz
'x, y, z'
'-x, y+1/2, -z+1/2'
'-x, -y, -z'
'x, -y-1/2, z-1/2'
loop_
_atom_site_label
_atom_site_type_symbol
_atom_site_fract_x
_atom_site_fract_y
_atom_site_fract_z
_atom_site_U_iso_or_equiv
_atom_site_adp_type
_atom_site_occupancy
_atom_site_site_symmetry_order
_atom_site_calc_flag
_atom_site_refinement_flags_posn
_atom_site_refinement_flags_adp
C1 C 0.3052(4) 0.2448(2) 0.37028(19) 0.0198(6) Uani 1 1 d . .
C2 C 0.4222(4) 0.1195(2) 0.3803(2) 0.0219(6) Uani 1 1 d . .
H2 H 0.563871 0.096342 0.436683 0.026 Uiso 1 1 calc R U
C3 C 0.1680(4) 0.0634(2) 0.3709(2) 0.0275(6) Uani 1 1 d . .
H3 H 0.122744 -0.001014 0.420433 0.033 Uiso 1 1 calc R U
C4 C 0.0527(4) 0.1885(2) 0.3595(2) 0.0284(6) Uani 1 1 d . .
H4 H -0.077993 0.216007 0.400333 0.034 Uiso 1 1 calc R U
C5 C 0.0365(4) 0.1811(2) 0.2275(2) 0.0313(6) Uani 1 1 d . .
H5 H -0.1046 0.204466 0.170892 0.038 Uiso 1 1 calc R U
C6 C 0.1525(4) 0.0558(2) 0.2388(2) 0.0289(6) Uani 1 1 d . .
H6 H 0.095544 -0.013935 0.191067 0.035 Uiso 1 1 calc R U
C7 C 0.4056(4) 0.1116(2) 0.2487(2) 0.0235(6) Uani 1 1 d . .
H7 H 0.535832 0.084094 0.207484 0.028 Uiso 1 1 calc R U
C8 C 0.2891(4) 0.2353(2) 0.23740(19) 0.0228(6) Uani 1 1 d . .
C9 C 0.3897(4) 0.3518(2) 0.43346(19) 0.0196(5) Uani 1 1 d . .
O1 O 0.2444(3) 0.42373(16) 0.46182(15) 0.0327(5) Uani 1 1 d . .
O2 O 0.6175(3) 0.36641(15) 0.45321(17) 0.0324(5) Uani 1 1 d . .
H2A H 0.648882 0.432798 0.482644 0.049 Uiso 1 1 calc R U
Cl1 Cl 0.36856(12) 0.34985(6) 0.15239(5) 0.0381(3) Uani 1 1 d . .
loop_
_atom_site_aniso_label
_atom_site_aniso_U_11
_atom_site_aniso_U_22
_atom_site_aniso_U_33
_atom_site_aniso_U_23
_atom_site_aniso_U_13
_atom_site_aniso_U_12
C1 0.0222(12) 0.0189(13) 0.0185(13) -0.0010(11) 0.0038(10) -0.0002(9)
C2 0.0264(12) 0.0180(13) 0.0213(13) 0.0000(11) 0.0041(10) -0.0013(10)
C3 0.0328(14) 0.0239(14) 0.0274(14) -0.0031(12) 0.0096(11) -0.0087(11)
C4 0.0241(12) 0.0300(15) 0.0325(15) -0.0051(13) 0.0085(11) -0.0054(11)
C5 0.0258(13) 0.0359(16) 0.0297(14) -0.0039(14) -0.0035(11) -0.0044(11)
C6 0.0364(14) 0.0251(15) 0.0251(14) -0.0073(12) 0.0040(11) -0.0110(11)
C7 0.0285(13) 0.0201(13) 0.0231(13) -0.0036(12) 0.0080(10) -0.0026(10)
C8 0.0311(13) 0.0192(13) 0.0179(12) -0.0008(11) 0.0028(10) -0.0056(10)
C9 0.0247(13) 0.0190(13) 0.0154(12) 0.0008(10) 0.0034(10) 0.0010(10)
O1 0.0312(9) 0.0272(10) 0.0386(11) -0.0113(9) 0.0018(8) 0.0076(8)
O2 0.0272(10) 0.0264(10) 0.0430(12) -0.0107(9) 0.0036(8) -0.0038(7)
Cl1 0.0611(5) 0.0268(4) 0.0269(4) 0.0051(3) 0.0083(3) -0.0069(3)
loop_
_atom_type_symbol
_atom_type_description
_atom_type_scat_dispersion_real
_atom_type_scat_dispersion_imag
_atom_type_scat_source
C C 0.0033 0.0016 'International Tables Vol C Tables 4.2.6.8 and 6.1.1.4'
H H 0 0 'International Tables Vol C Tables 4.2.6.8 and 6.1.1.4'
O O 0.0106 0.006 'International Tables Vol C Tables 4.2.6.8 and 6.1.1.4'
Cl Cl 0.1484 0.1585 'International Tables Vol C Tables 4.2.6.8 and 6.1.1.4'
loop_
_geom_angle_atom_site_label_1
_geom_angle_atom_site_label_2
_geom_angle_atom_site_label_3
_geom_angle
C9 C1 C4 127.21(19)
C9 C1 C2 127.69(19)
C4 C1 C2 90.38(18)
C9 C1 C8 122.3(2)
C4 C1 C8 88.90(16)
C2 C1 C8 88.41(17)
C7 C2 C3 89.66(17)
C7 C2 C1 90.96(17)
C3 C2 C1 89.40(16)
C4 C3 C2 90.27(18)
C4 C3 C6 90.3(2)
C2 C3 C6 90.09(17)
C1 C4 C3 89.94(17)
C1 C4 C5 90.82(17)
C3 C4 C5 89.83(19)
C8 C5 C4 89.64(17)
C8 C5 C6 89.03(18)
C4 C5 C6 90.3(2)
C7 C6 C5 90.39(18)
C7 C6 C3 89.69(17)
C5 C6 C3 89.60(19)
C8 C7 C6 89.23(17)
C8 C7 C2 89.62(17)
C6 C7 C2 90.56(17)
C5 C8 C7 91.35(19)
C5 C8 C1 90.64(17)
C7 C8 C1 91.01(17)
C5 C8 Cl1 124.79(18)
C7 C8 Cl1 125.40(17)
C1 C8 Cl1 123.45(17)
O1 C9 O2 123.7(2)
O1 C9 C1 120.3(2)
O2 C9 C1 115.9(2)
loop_
_geom_bond_atom_site_label_1
_geom_bond_atom_site_label_2
_geom_bond_distance
C1 C9 1.472(3)
C1 C4 1.557(3)
C1 C2 1.569(3)
C1 C8 1.578(3)
C2 C7 1.561(3)
C2 C3 1.566(3)
C3 C4 1.563(4)
C3 C6 1.567(3)
C4 C5 1.565(4)
C5 C8 1.550(3)
C5 C6 1.567(4)
C6 C7 1.560(3)
C7 C8 1.552(3)
C8 Cl1 1.753(2)
C9 O1 1.246(3)
C9 O2 1.289(3)
