#------------------------------------------------------------------------------
#$Date: 2021-02-05 01:31:17 +0200 (Fri, 05 Feb 2021) $
#$Revision: 261764 $
#$URL: file:///home/coder/svn-repositories/cod/cif/7/15/78/7157817.cif $
#------------------------------------------------------------------------------
#
# This file is available in the Crystallography Open Database (COD),
# http://www.crystallography.net/
#
# All data on this site have been placed in the public domain by the
# contributors.
#
data_7157817
loop_
_publ_author_name
'Ichikawa, Yuki'
'Hiramatsu, Michiaki'
'Mita, Yusuke'
'Makishima, Makoto'
'Matsumoto, Yotaro'
'Masumoto, Yui'
'Muranaka, Atsuya'
'Uchiyama, Masanobu'
'Hashimoto, Yuichi'
'Ishikawa, Minoru'
_publ_section_title
;
 <i>meta</i>-Non-flat substituents: a novel molecular design to improve
 aqueous solubility in small molecule drug discovery.
;
_journal_issue                   2
_journal_name_full               'Organic &amp; biomolecular chemistry'
_journal_page_first              446
_journal_page_last               456
_journal_paper_doi               10.1039/d0ob02083d
_journal_volume                  19
_journal_year                    2021
_chemical_formula_moiety         'C8 H10 O4 S2'
_chemical_formula_sum            'C8 H10 O4 S2'
_chemical_formula_weight         234.28
_chemical_melting_point          537
_chemical_name_systematic        1,4-Bis(methaneslufonyl)benzene
_space_group_crystal_system      triclinic
_space_group_IT_number           2
_space_group_name_Hall           '-P 1'
_space_group_name_H-M_alt        'P -1'
_atom_sites_solution_hydrogens   difmap
_atom_sites_solution_primary     direct
_atom_sites_solution_secondary   difmap
_audit_creation_method           SHELXL-2014
_audit_update_record
;
2018-03-08 deposited with the CCDC.	2020-11-27 downloaded from the CCDC.
;
_cell_angle_alpha                86.1628(1)
_cell_angle_beta                 88.9324(1)
_cell_angle_gamma                82.6823(1)
_cell_formula_units_Z            1
_cell_length_a                   5.3453(1)
_cell_length_b                   6.6576(1)
_cell_length_c                   6.9904(1)
_cell_measurement_reflns_used    5393
_cell_measurement_temperature    90
_cell_measurement_theta_max      30.034
_cell_measurement_theta_min      2.921
_cell_volume                     246.174(7)
_computing_cell_refinement       HKL2000
_computing_data_collection       CrystalClear
_computing_data_reduction        HKL2000
_computing_molecular_graphics    SV
_computing_publication_material  'SHELXL-2014 (Sheldrick, 2014)'
_computing_structure_refinement  'SHELXL-2014 (Sheldrick, 2014)'
_computing_structure_solution    SIR2004
_diffrn_ambient_temperature      90
_diffrn_detector_area_resol_mean 7.31
_diffrn_measured_fraction_theta_full 1.000
_diffrn_measured_fraction_theta_max 0.999
_diffrn_measurement_device_type  'Rigaku AFC-8 with Saturn70 CCD'
_diffrn_measurement_method       \w-scan
_diffrn_radiation_type           MoK\a
_diffrn_radiation_wavelength     0.71073
_diffrn_reflns_av_R_equivalents  0.0335
_diffrn_reflns_av_unetI/netI     0.0403
_diffrn_reflns_Laue_measured_fraction_full 1.000
_diffrn_reflns_Laue_measured_fraction_max 0.999
_diffrn_reflns_limit_h_max       7
_diffrn_reflns_limit_h_min       -7
_diffrn_reflns_limit_k_max       9
_diffrn_reflns_limit_k_min       -9
_diffrn_reflns_limit_l_max       9
_diffrn_reflns_limit_l_min       -9
_diffrn_reflns_number            5392
_diffrn_reflns_point_group_measured_fraction_full 1.000
_diffrn_reflns_point_group_measured_fraction_max 0.999
_diffrn_reflns_theta_full        25.242
_diffrn_reflns_theta_max         30.034
_diffrn_reflns_theta_min         2.921
_diffrn_source                   'Fine-focus rotating anode'
_exptl_absorpt_coefficient_mu    0.525
_exptl_absorpt_correction_T_max  0.96924
_exptl_absorpt_correction_T_min  0.95851
_exptl_absorpt_correction_type   multi-scan
_exptl_absorpt_process_details
;
 MULABS - Empirical Correction for Absorption Anisotropy.
 R.H. Blessing, Acta Cryst. (1995), A51, 33-38.
;
_exptl_crystal_colour            colourless
_exptl_crystal_density_diffrn    1.580
_exptl_crystal_description       plate
_exptl_crystal_F_000             122
_exptl_crystal_recrystallization_method 'Re-crystallisation from solvent'
_exptl_crystal_size_max          0.07
_exptl_crystal_size_mid          0.04
_exptl_crystal_size_min          0.03
_refine_diff_density_max         0.380
_refine_diff_density_min         -0.481
_refine_diff_density_rms         0.065
_refine_ls_extinction_method     none
_refine_ls_goodness_of_fit_ref   1.050
_refine_ls_hydrogen_treatment    refall
_refine_ls_matrix_type           full
_refine_ls_number_parameters     84
_refine_ls_number_reflns         1447
_refine_ls_number_restraints     0
_refine_ls_restrained_S_all      1.050
_refine_ls_R_factor_all          0.0380
_refine_ls_R_factor_gt           0.0312
_refine_ls_shift/su_max          0.000
_refine_ls_shift/su_mean         0.000
_refine_ls_structure_factor_coef Fsqd
_refine_ls_weighting_details
'w=1/[\s^2^(Fo^2^)+(0.0252P)^2^+0.1238P] where P=(Fo^2^+2Fc^2^)/3'
_refine_ls_weighting_scheme      calc
_refine_ls_wR_factor_gt          0.0723
_refine_ls_wR_factor_ref         0.0754
_reflns_Friedel_coverage         0.000
_reflns_number_gt                1263
_reflns_number_total             1447
_reflns_threshold_expression     'I > 2\s(I)'
_cod_data_source_file            d0ob02083d2.cif
_cod_data_source_block           CY012
_cod_depositor_comments
'Adding full bibliography for 7157808--7157819.cif.'
_cod_database_code               7157817
_shelx_space_group_comment
;
The symmetry employed for this shelxl refinement is uniquely defined
by the following loop, which should always be used as a source of
symmetry information in preference to the above space-group names.
They are only intended as comments.
;
_shelx_estimated_absorpt_t_min   0.964
_shelx_estimated_absorpt_t_max   0.984
_shelxl_version_number           2014-3
_shelx_res_file
;
TITL 141201_CY012
CELL 0.71073 5.3453 6.6576 6.9904 86.1628 88.9324 82.6823
ZERR 1 0.0001 0.0001 0.0001 0.0001 0.0001 0.0001
LATT 1
SFAC C H O S
UNIT 8 10 4 2
L.S. 10
FMAP 2
PLAN 10
REM colourless, plate
TEMP -183
SIZE 0.07 0.04 0.03
BOND $H
CONF
ACTA
WGHT    0.025200    0.123800
FVAR       5.08353
S1    4    0.167611    0.823575    0.229378    11.00000    0.01290    0.01416 =
         0.01352    0.00018   -0.00245    0.00132
O1    3    0.189560    0.755683    0.036272    11.00000    0.02386    0.02219 =
         0.01411   -0.00276   -0.00454    0.00433
O2    3   -0.081406    0.860376    0.314790    11.00000    0.01164    0.02021 =
         0.02098    0.00206   -0.00076    0.00079
C1    1    0.354068    0.639733    0.382038    11.00000    0.01191    0.01253 =
         0.01519    0.00056   -0.00222    0.00006
C2    1    0.550935    0.514253    0.301974    11.00000    0.01742    0.01697 =
         0.01255   -0.00060   -0.00072    0.00144
H2    2    0.582538    0.522917    0.166409    11.00000    0.02264
C3    1    0.699200    0.371702    0.421229    11.00000    0.01567    0.01636 =
         0.01507   -0.00089    0.00032    0.00230
H3    2    0.836288    0.277685    0.369371    11.00000    0.02839
C4    1    0.316806    1.046385    0.237149    11.00000    0.01509    0.01625 =
         0.01939    0.00238   -0.00104   -0.00036
H4A   2    0.223424    1.144629    0.149163    11.00000    0.02548
H4B   2    0.496771    1.016260    0.198863    11.00000    0.02700
H4C   2    0.298423    1.089757    0.364451    11.00000    0.02633
HKLF 4

REM  141201_CY012
REM R1 =  0.0312 for    1263 Fo > 4sig(Fo)  and  0.0380 for all    1447 data
REM     84 parameters refined using      0 restraints

END

WGHT      0.0249      0.1244

REM Highest difference peak  0.380,  deepest hole -0.481,  1-sigma level  0.065
Q1    1   0.6229  0.4356  0.3574  11.00000  0.05    0.38
Q2    1   0.2634  0.9469  0.2575  11.00000  0.05    0.34
Q3    1   0.2808  0.7071  0.3177  11.00000  0.05    0.34
Q4    1   0.4538  0.6132  0.3553  11.00000  0.05    0.29
Q5    1   0.3155  0.6277  0.4740  11.00000  0.05    0.27
Q6    1   0.1912  0.7863  0.1271  11.00000  0.05    0.21
Q7    1   0.1760  0.7596  0.3969  11.00000  0.05    0.20
Q8    1   0.6302  0.5782  0.1556  11.00000  0.05    0.19
Q9    1   0.1103  0.7057  0.1052  11.00000  0.05    0.18
Q10   1   0.2696  0.6381 -0.0886  11.00000  0.05    0.18
;
_shelx_res_checksum              1887
_shelx_hkl_file
;
  -7  -4   1   33.56   51.43
   7   4  -1  100.50   66.51
  -7  -3   1  416.21   92.23
   7   3  -1  580.79  104.47
   7   3  -2   40.95   45.85
  -7  -3   2    8.16   50.88
  -7  -2   1  583.70  105.37
   7   2  -1  621.92  102.47
  -7  -2   2  405.93   72.91
   7   2  -2  232.16   69.66
  -7  -2   3   44.05   51.39
  -7  -1   1 1374.23  159.02
  -7  -1   1 1399.71  169.37
  -7  -1   1 1619.85  172.81
  -7  -1   2 1715.15  205.85
  -7  -1   3   25.29   60.36
  -7   0   1 1725.83  254.45
  -7   0   1 1802.21  180.35
  -7   0   2   19.23   43.63
  -7   0   3 2289.52  263.77
  -7   1   0 1831.22  184.68
  -7   1   2 1188.10  158.21
  -7   1   2  789.82  114.43
  -7   2   0  270.91   61.33
  -7   2   1  209.81   58.97
  -7   2   1  171.24   57.78
   6   6  -1  -15.10   44.02
   6   6  -2  744.10  106.13
  -6  -6   2  806.46   94.63
  -6  -6   2  745.77  128.51
  -6  -5   1  626.68  144.34
   6   5  -1  772.55  128.35
  -6  -5   1  575.08  107.20
   6   5  -2  502.74  122.06
  -6  -5   2  379.41   77.82
  -6  -5   2  530.07  100.58
  -6  -5   3  161.55   88.10
  -6  -5   3  223.69   88.08
   6   5  -3  204.97   64.47
  -6  -4   1 1794.35  185.59
  -6  -4   1 1909.52  224.94
  -6  -4   2  671.84  106.86
   6   4  -2  718.71  110.86
  -6  -4   2  693.09  131.03
  -6  -4   3 1404.78  178.85
  -6  -4   3 1448.05  237.52
  -6  -4   4    8.26   59.56
   6   4  -4    2.37   33.92
  -6  -4   4   97.55   67.58
  -6  -3   1   40.45   52.88
  -6  -3   2   14.64   42.83
  -6  -3   2   81.29   51.35
  -6  -3   3 1330.14  171.80
  -6  -3   3 1167.62  142.64
   6   3  -3 1031.53  140.59
   6   3  -4 1749.76  209.11
  -6  -3   4 1564.91  188.29
   6   3  -5  310.36   93.19
  -6  -2   1  626.93  110.99
   6   2  -1  625.21  116.36
  -6  -2   2  254.25   76.37
   6   2  -2  136.77   48.61
  -6  -2   2  222.81   62.58
  -6  -2   3   48.79   53.95
   6   2  -3  183.93   65.27
  -6  -2   4  463.40  101.66
   6   2  -4  602.32  110.55
   6   2  -5 1775.93  242.69
  -6  -2   5 1910.97  248.38
  -6  -1   1  892.06  112.99
  -6  -1   1 1189.87  138.55
   6   1  -1  932.12  127.86
  -6  -1   2  921.70  129.10
   6   1  -2  901.35  119.56
   6   1  -3  286.26   79.48
  -6  -1   3  166.18   66.65
   6   1  -4 2977.57  274.86
  -6  -1   4 2949.72  285.53
  -6  -1   5  270.60   74.24
   6   1  -5  247.90   90.00
  -6   0   1  731.21  113.61
  -6   0   1  815.43  155.70
  -6   0   1  838.31  106.27
  -6   0   1  997.82  121.22
  -6   0   2 2461.44  241.87
  -6   0   2 2278.57  183.94
  -6   0   2 2244.11  129.73
   6   0  -2 2431.29  222.60
   6   0  -3   89.08   56.55
   6   0  -4 1723.01  195.98
  -6   0   4 1351.15  213.46
   6   0  -5 2391.29  275.04
  -6   0   5 2258.99  236.91
  -6   1   0   59.11   44.33
  -6   1   0   24.44   44.72
  -6   1   0   48.31   34.53
  -6   1   0   32.25   33.25
  -6   1   1  186.69   39.17
  -6   1   1  202.11   58.80
  -6   1   1  186.54   57.94
  -6   1   1  195.30   46.09
   6  -1  -2   75.28   38.36
  -6   1   2   76.29   54.63
  -6   1   2   62.71   44.24
  -6   1   3 1815.16  152.49
   6  -1  -3 2432.90  216.09
  -6   1   4   29.45   55.55
   6  -1  -4   22.20   45.75
  -6   1   5  633.23  122.70
   6  -1  -5  769.56  113.19
  -6   2   0 1420.19  195.06
   6  -2   0 1410.22  144.21
  -6   2   0 1475.44  183.62
  -6   2   1   57.50   33.47
  -6   2   1   74.84   47.81
  -6   2   1   48.55   50.37
  -6   2   2  825.31  107.56
   6  -2  -2  646.66   94.18
  -6   2   2  696.09  117.46
  -6   2   3  328.38   72.76
   6  -2  -3  452.21   88.51
  -6   2   3  518.87   82.59
  -6   2   4 1670.43  181.68
   6  -2  -4 1529.90  180.53
  -6   2   4 2226.13  232.18
   6  -2  -5  -30.82   43.60
  -6   3   0  140.73   56.64
   6  -3   0   47.15   54.14
  -6   3   0   52.05   42.60
   6  -3  -1 1605.20  189.33
  -6   3   1 1367.79  156.01
  -6   3   2  632.83  108.21
   6  -3  -2  897.36  144.10
  -6   3   3 3056.13  235.17
  -6   3   3 3941.02  384.40
  -6   3   4 1978.79  189.78
  -6   3   4 2013.64  166.91
  -6   4   0   75.55   61.13
   6  -4  -1  774.48  122.05
  -6   4   1  842.27  122.80
  -6   4   2   14.51   38.63
   6  -4  -2   19.53   59.95
   5   7  -1  447.31   98.80
  -5  -7   1  221.90   72.43
   5   7  -1  468.22  113.18
  -5  -7   1  336.77   85.40
  -5  -7   2  166.34   61.89
   5   7  -2  121.84   61.88
  -5  -7   2  214.58   76.71
   5   7  -2  176.69   69.93
  -5  -6   1 4609.56  400.36
   5   6  -1 4859.56  430.66
  -5  -6   1 4867.88  396.66
   5   6  -1 4794.50  377.98
   5   6  -2   -5.55   40.74
   5   6  -2   42.14   61.35
  -5  -6   2  -15.62   50.03
  -5  -6   2   69.33   57.06
   5   6  -3  511.33   75.56
  -5  -6   3  440.78   85.93
   5   6  -3  497.12  122.25
  -5  -6   3  459.79  104.78
   5   6  -4  489.56   91.54
   5   6  -4  407.97   86.40
  -5  -6   4  531.30  135.34
  -5  -6   4  409.91  100.67
   5   5  -1  438.66   93.15
  -5  -5   1  606.76   94.75
  -5  -5   1  524.98   89.57
   5   5  -1  394.40   74.31
   5   5  -2 3391.60  232.65
   5   5  -2 3999.57  382.85
  -5  -5   2 4268.41  358.06
  -5  -5   2 3434.23  320.84
   5   5  -3  229.24   58.70
   5   5  -3  119.66   87.86
  -5  -5   3  188.12   68.65
  -5  -5   3  151.43   72.49
  -5  -5   4  695.71  117.93
   5   5  -4  404.40   69.80
  -5  -5   4  519.61  111.76
   5   5  -4  504.61  104.36
   5   5  -5   62.42   46.36
  -5  -5   5   90.22   77.50
   5   5  -5   71.95   57.04
   5   5  -5   18.41   32.65
  -5  -4   1  738.32  107.08
   5   4  -1  751.39   63.44
   5   4  -1  910.57  116.52
  -5  -4   1  742.41  103.47
   5   4  -2  861.72  135.75
   5   4  -2  983.00  109.04
  -5  -4   2  783.40  138.34
   5   4  -3   64.83   40.12
  -5  -4   3   -4.64   45.64
   5   4  -3   -2.27   35.24
   5   4  -4   96.27   42.62
  -5  -4   4   54.87   54.23
   5   4  -4  157.79   82.44
   5   4  -4   82.69   43.43
   5   4  -5  128.65   59.33
   5   4  -5  214.91   60.78
  -5  -4   5  217.23   78.80
  -5  -4   6   80.30   57.16
   5   4  -6   77.43   61.64
  -5  -3   1 3849.39  296.25
   5   3  -1 3803.17  236.51
  -5  -3   2 1045.08  134.84
  -5  -3   2  877.22  106.41
   5   3  -2  960.61   95.95
   5   3  -3 1322.29  166.84
  -5  -3   3 1317.24  126.25
   5   3  -3 1278.05  124.70
   5   3  -3 1325.22  166.95
   5   3  -4  142.33   72.35
   5   3  -4   99.91   39.06
   5   3  -4   88.98   30.35
  -5  -3   4  169.80   68.25
  -5  -3   5  -25.21   64.76
   5   3  -5   49.82   39.58
   5   3  -5   78.39   54.16
   5   3  -6  670.96  138.11
  -5  -3   6  481.27  105.46
  -5  -2   1  497.06   71.27
   5   2  -1  523.30   74.75
  -5  -2   1  672.55   84.99
  -5  -2   2  919.62  104.95
   5   2  -2 1075.48   99.60
   5   2  -2 1065.54  173.94
   5   2  -3 1205.63  122.26
   5   2  -3 1680.02  152.21
   5   2  -3 1402.35  124.48
   5   2  -4 4027.95  345.02
   5   2  -4 3877.18  206.07
  -5  -2   5  503.06   87.57
   5   2  -5  499.60  109.12
  -5  -2   6  586.99  111.59
   5   2  -6  551.53  112.00
  -5  -2   7  742.60  135.72
   5   2  -7  548.65  101.86
  -5  -1   1 1746.66  173.80
   5   1  -1 1913.76  163.66
  -5  -1   1 1823.99  175.95
  -5  -1   1 1913.19  179.98
   5   1  -2  455.51   85.42
   5   1  -2  323.90   56.60
  -5  -1   2  475.01   74.35
  -5  -1   2  453.55   56.45
  -5  -1   3  245.44   58.99
   5   1  -3  332.18   53.65
   5   1  -3  221.77   57.19
  -5  -1   3  253.12   45.49
  -5  -1   4  146.39   53.63
   5   1  -4  270.95   66.95
   5   1  -5 3616.23  288.14
  -5  -1   5 4194.75  324.20
  -5  -1   6 1095.03  120.72
  -5  -1   7 1877.44  263.66
   5   1  -7 1515.37  165.97
   5   0  -1 2752.26  195.70
  -5   0   1 2773.16  248.47
   5   0  -1 2456.16  203.35
  -5   0   1 2840.66  232.62
  -5   0   2  102.31   40.32
   5   0  -2   44.15   40.16
   5   0  -2   64.34   30.31
   5   0  -3 1065.23  104.17
  -5   0   3 1115.14  137.09
   5   0  -3 1195.16  144.39
  -5   0   3 1181.89  152.57
   5   0  -4  786.41  101.47
  -5   0   4  846.27  105.59
  -5   0   4  569.75   80.52
  -5   0   5   27.07   55.69
   5   0  -5   79.53   61.15
  -5   0   6  723.52  125.45
   5   0  -6  759.54  149.14
   5   0  -7   28.58   55.16
  -5   0   7   86.59   57.52
  -5   1   0 4792.79  373.53
  -5   1   0 4591.96  300.70
  -5   1   0 4818.43  337.81
  -5   1   1  120.01   47.21
   5  -1  -1  114.65   34.53
  -5   1   1  118.86   50.92
  -5   1   1  102.77   43.36
  -5   1   2  977.37  105.45
   5  -1  -2  930.38  102.14
  -5   1   2 1102.49  126.15
  -5   1   2  930.27  128.94
   5  -1  -3   24.47   49.21
  -5   1   3  145.71   54.72
  -5   1   4  232.35   65.38
  -5   1   4  295.80   61.06
   5  -1  -4  335.03   74.66
   5  -1  -5 3204.52  302.79
  -5   1   5 2793.09  258.42
   5  -1  -6  269.56   71.41
   5  -1  -7  481.39  100.57
  -5   1   7  544.39  114.45
  -5   2   0   95.65   42.07
   5  -2   0   -2.36   39.13
  -5   2   0   92.35   46.90
  -5   2   0   94.48   49.97
   5  -2  -1  367.86   55.58
  -5   2   1  356.28   62.50
   5  -2  -1  436.20   66.02
  -5   2   1  300.06   58.10
   5  -2  -2  207.58   43.81
   5  -2  -2  182.85   71.15
  -5   2   2  184.02   53.44
  -5   2   2  217.60   46.53
  -5   2   3 2963.71  241.42
  -5   2   3 3026.16  273.13
   5  -2  -3 3005.50  218.52
  -5   2   4  430.96   85.22
   5  -2  -4  486.80   75.44
  -5   2   4  305.99   76.96
  -5   2   5  221.76   52.82
   5  -2  -5  412.48   97.99
  -5   2   5  231.49   59.92
  -5   2   6 1662.94  173.55
   5  -2  -6 1754.98  172.58
   5  -3   0 1356.98  162.01
  -5   3   0 1211.39  158.76
  -5   3   0 1275.61  138.34
  -5   3   1 1197.12  137.24
   5  -3  -1 1243.87  153.58
   5  -3  -1 1085.67  119.30
  -5   3   1 1029.53  161.16
   5  -3  -2  489.14   85.18
   5  -3  -2  507.33   96.84
  -5   3   2  521.95   91.97
   5  -3  -3  280.14   48.80
  -5   3   3  392.29   78.81
   5  -3  -3  277.53   78.81
  -5   3   4 3722.45  315.30
  -5   3   4 3618.95  327.92
   5  -3  -4 3291.12  296.11
  -5   3   5   85.42   49.53
   5  -3  -5   75.81   49.03
  -5   3   5   38.17   48.60
  -5   3   6  848.68  130.61
   5  -3  -6 1112.46  142.28
  -5   3   6 1033.83  165.78
   5  -4   0  418.42  101.96
  -5   4   0  638.47   88.16
  -5   4   0  546.61   96.37
  -5   4   1   86.24   50.51
   5  -4  -1  176.22   69.27
   5  -4  -2 2010.56  250.43
  -5   4   2 2033.09  259.86
   5  -4  -3 1856.59  253.49
  -5   4   3 2102.11  259.99
   5  -4  -4 1853.97  174.71
  -5   4   4 1727.87  210.84
   5  -4  -4 2245.25  189.15
  -5   4   5  786.65  128.61
   5  -4  -5  611.05  107.67
  -5   4   5  773.20  141.28
   5  -5   0  535.83  115.97
  -5   5   0  566.69  105.77
  -5   5   1   41.26   40.09
   5  -5  -1  -61.99   40.12
  -5   5   2   27.29   55.31
   5  -5  -2   99.64   72.42
   5  -5  -3  313.29   86.31
  -5   5   3  343.74  106.67
  -5   5   4 2029.99  199.44
   5  -5  -4 2310.44  270.67
   5  -6   0  134.32   57.35
  -5   6   0  177.46   69.14
   5  -6  -1  312.54   95.35
  -5   6   1  295.66   79.72
   4   8  -1 1030.65  140.03
  -4  -8   1  917.37  127.80
  -4  -8   1  974.50  155.34
   4   8  -1 1128.95  151.86
  -4  -8   2  514.75  102.62
   4   8  -2  753.83  123.95
   4   8  -2  617.59  116.47
  -4  -8   2  511.38   95.44
   4   7  -1   44.66   67.21
  -4  -7   1   38.00   59.32
  -4  -7   1   46.20   53.26
   4   7  -1  -52.83   61.10
   4   7  -2 3953.55  374.68
   4   7  -2 3666.48  279.30
  -4  -7   2 3611.67  351.23
  -4  -7   2 4007.35  362.70
  -4  -7   3  615.27  115.11
   4   7  -3  334.14  108.15
  -4  -7   3  399.87   88.30
   4   7  -3  492.47   92.77
  -4  -7   4 2460.08  250.94
   4   7  -4 2754.61  291.71
  -4  -7   4 2660.57  259.75
   4   6  -1 1703.56  193.33
  -4  -6   1 1855.26  198.37
   4   6  -1 1619.22  171.25
  -4  -6   1 1846.42  177.61
   4   6  -2  860.47  126.83
   4   6  -2  960.14  125.34
  -4  -6   2  718.09  113.47
  -4  -6   2  990.73  122.88
  -4  -6   3 2850.73  253.10
  -4  -6   3 3160.15  332.27
   4   6  -3 2956.09  223.14
   4   6  -3 2961.50  280.53
  -4  -6   4  493.77  100.90
  -4  -6   4  615.28  119.53
   4   6  -5  654.55  123.84
  -4  -6   5  790.61  149.19
  -4  -6   5  850.75  133.84
  -4  -5   1 6833.27  386.76
   4   5  -1 7018.24  452.46
  -4  -5   1 6937.53  408.70
   4   5  -1 6429.99  452.06
   4   5  -2  187.79   58.18
  -4  -5   2  224.40   61.44
   4   5  -2  233.18   65.40
  -4  -5   2  228.60   60.90
  -4  -5   3 1057.60  129.59
  -4  -5   3 1086.13  134.83
   4   5  -3  887.44  133.87
   4   5  -3 1022.21  110.69
  -4  -5   4  356.94   86.16
   4   5  -4  352.77   92.64
   4   5  -4  265.39   74.66
  -4  -5   5 2761.27  278.16
   4   5  -5 2450.22  206.82
   4   5  -5 2763.66  258.43
   4   5  -5 2456.05  227.65
   4   5  -6   68.92   52.76
   4   5  -6   44.11   44.75
   4   5  -6   92.62   60.80
  -4  -5   6  133.07   77.25
   4   4  -1  150.92   52.46
  -4  -4   1  105.93   49.43
   4   4  -1  117.64   39.91
  -4  -4   1  167.52   39.43
  -4  -4   2 6105.88  438.96
  -4  -4   2 6001.91  341.91
   4   4  -2 5906.63  327.11
   4   4  -3   40.29   38.93
   4   4  -3   80.36   53.91
   4   4  -3   47.15   53.62
   4   4  -4  583.51   82.98
  -4  -4   4  924.58  138.71
   4   4  -4  668.12   99.14
   4   4  -4  781.76   91.15
   4   4  -5  188.34   56.13
   4   4  -5   87.61   48.58
  -4  -4   5   29.32   48.29
   4   4  -5  128.41   51.02
  -4  -4   6 1356.01  212.81
   4   4  -6 1407.16  159.70
   4   4  -6 1505.00  169.72
   4   4  -7  415.38  100.32
   4   4  -7  229.36   79.66
  -4  -4   7  348.77  107.16
  -4  -3   1 8012.79  434.42
   4   3  -1 8174.66  456.72
   4   3  -1 7769.30  392.61
   4   3  -2   61.92   44.58
  -4  -3   2  -34.98   44.61
   4   3  -2  -26.03   44.69
   4   3  -2   -9.62   44.56
   4   3  -3 2627.36  191.26
   4   3  -3 2484.38  254.89
  -4  -3   3 2574.84  204.99
   4   3  -3 2099.07  227.05
  -4  -3   4  278.00   69.53
   4   3  -4  261.07   76.43
   4   3  -4  441.69   72.05
   4   3  -5 1642.51  134.69
   4   3  -5 1997.83  196.55
   4   3  -6  348.54   74.60
   4   3  -6  320.15   82.13
   4   3  -6  419.99   62.92
   4   3  -7  358.77  105.91
   4   3  -7  510.84  120.88
  -4  -2   113467.84  525.99
  -4  -2   113317.19  499.73
  -4  -2   113161.76  531.91
   4   2  -113540.82  612.83
   4   2  -112927.38  595.56
  -4  -2   2 3630.58  146.30
   4   2  -2 3364.74  230.98
  -4  -2   2 3588.50  164.14
  -4  -2   2 3318.99  240.80
   4   2  -2 3339.40  228.92
   4   2  -2 3703.79  262.55
  -4  -2   3 6684.50  241.62
   4   2  -3 6633.23  385.89
   4   2  -3 6820.11  455.96
  -4  -2   3 6931.60  369.43
  -4  -2   3 6843.85  269.23
   4   2  -4   75.26   33.85
   4   2  -4    4.27   47.64
   4   2  -5 1066.82  118.49
   4   2  -5 1344.83  169.68
  -4  -2   5 1214.66  165.49
   4   2  -6 1485.17  181.96
   4   2  -7  160.48   72.62
   4   2  -7    9.79   49.49
  -4  -2   7   87.47   66.33
  -4  -2   8  572.21  112.57
   4   2  -8  582.92  136.56
  -4  -1   1  949.47   87.57
   4   1  -1 1047.44   61.29
  -4  -1   1  969.08   83.42
   4   1  -1 1036.77  108.80
  -4  -1   1  940.04   60.41
   4   1  -1 1003.19  122.51
  -4  -1   1  970.92   82.92
  -4  -1   2 5089.83  299.24
   4   1  -2 5206.96  262.26
  -4  -1   2 4780.18  209.91
  -4  -1   2 5196.33  301.07
  -4  -1   3   49.51   42.98
   4   1  -3   53.60   44.62
   4   1  -3   -3.45   25.63
  -4  -1   412576.81  617.96
   4   1  -412665.46  490.54
  -4  -1   412390.79  746.63
  -4  -1   5   51.39   27.51
  -4  -1   5   60.40   65.48
   4   1  -5   57.97   37.20
   4   1  -5   65.01   50.50
   4   1  -5   77.01   26.95
   4   1  -6 1067.88  100.89
  -4  -1   6 1300.06  182.91
   4   1  -6  955.54  134.89
   4   1  -7  122.83   57.25
   4   1  -8   59.27   53.00
  -4   0   1 2344.67  202.45
  -4   0   1 2399.68  149.71
   4   0  -1 2462.62  199.07
  -4   0   2  422.03   56.65
  -4   0   2  517.74   78.96
   4   0  -2  484.05   59.31
  -4   0   2  504.89   54.21
   4   0  -2  524.19   55.95
   4   0  -2  565.81   38.02
   4   0  -2  508.23   44.10
   4   0  -3  218.20   34.30
  -4   0   3  170.33   42.88
  -4   0   3  146.24   29.31
   4   0  -3  154.27   54.30
   4   0  -3  168.55   29.26
   4   0  -4   -1.36   40.52
  -4   0   4   -7.74   32.76
  -4   0   4   17.48   41.03
  -4   0   5 3551.89  287.63
  -4   0   5 3765.74  305.28
   4   0  -5 4035.19  346.14
   4   0  -6  436.31   86.59
  -4   0   6  370.99   62.03
  -4   0   6  344.13   85.13
  -4   0   7  411.75   92.97
   4   0  -7  688.28  121.00
   4   0  -8  -43.43   56.25
  -4   0   8   -0.54   56.16
  -4   1   0 4606.93  276.61
   4  -1   0 4229.71  257.43
  -4   1   0 4451.81  272.90
  -4   1   0 4300.14  317.17
   4  -1  -1 2435.11  163.38
   4  -1  -1 2298.33  181.73
  -4   1   1 2332.84  185.98
  -4   1   2  295.26   56.25
  -4   1   2  154.75   40.17
   4  -1  -2  160.48   51.95
  -4   1   3 2240.90  112.22
  -4   1   3 2357.41  139.97
   4  -1  -3 2208.12  131.90
   4  -1  -3 2452.64  143.97
   4  -1  -3 2384.70  177.93
  -4   1   3 2627.76  182.78
  -4   1   3 2526.36  226.85
   4  -1  -4  822.71  114.65
  -4   1   4  937.38  103.91
   4  -1  -5   92.39   37.07
   4  -1  -5  144.75   62.35
  -4   1   5  128.64   53.08
  -4   1   5  143.86   58.94
  -4   1   6  477.36  110.14
   4  -1  -6  559.07   74.80
  -4   1   6  363.45   84.16
  -4   1   7  382.50   71.95
   4  -1  -7  675.41   94.98
   4  -1  -7  615.96  128.06
  -4   1   7  720.48  126.32
  -4   1   8  721.94  107.63
   4  -1  -8  812.99  103.27
   4  -1  -8  913.48  145.72
  -4   2   017170.83  752.09
   4  -2   017262.09  810.71
  -4   2   017586.90  764.27
   4  -2  -1  404.06   46.69
   4  -2  -1  474.41   63.10
  -4   2   1  393.58   66.50
  -4   2   1  388.52   51.78
  -4   2   2 6442.70  310.23
   4  -2  -2 6384.42  358.17
  -4   2   2 6470.64  288.14
  -4   2   2 6332.41  311.72
   4  -2  -2 6485.52  381.50
   4  -2  -3   15.60   43.81
   4  -2  -3   -9.43   43.78
  -4   2   3  -41.93   43.83
   4  -2  -4 1880.16  156.17
  -4   2   4 1853.27  201.03
   4  -2  -4 2096.20  168.25
  -4   2   4 2177.85  241.77
   4  -2  -5 3026.90  222.78
  -4   2   5 3035.06  280.84
  -4   2   5 3800.73  350.12
   4  -2  -5 3271.20  310.16
  -4   2   6  300.74   65.93
   4  -2  -6  344.75   76.88
  -4   2   6  245.30   84.64
   4  -2  -6  304.87   56.91
  -4   2   7  595.04   99.35
  -4   2   7  629.14  124.96
   4  -2  -7  612.72  105.08
   4  -2  -7  735.35  136.44
  -4   3   0    6.07   47.45
   4  -3   0  -17.87   47.53
  -4   3   0  -19.87   47.55
  -4   3   0  -24.29   47.66
  -4   3   0    2.54   47.54
   4  -3  -1 3243.71  251.82
   4  -3  -1 3122.81  179.37
  -4   3   1 3392.38  241.36
  -4   3   1 3208.67  242.17
   4  -3  -2  796.47   68.01
   4  -3  -2  995.83  114.60
  -4   3   2  802.58  112.98
  -4   3   2  681.92   76.50
   4  -3  -3 6739.90  418.58
  -4   3   3 7257.85  474.10
   4  -3  -3 7205.01  473.32
   4  -3  -3 7223.12  411.54
   4  -3  -4    7.35   56.77
  -4   3   4   94.29   47.96
   4  -3  -4   52.59   45.23
   4  -3  -4   10.19   28.29
  -4   3   5  500.67  100.87
  -4   3   5  496.58   90.53
   4  -3  -5  498.97   66.32
  -4   3   6 1090.15  148.57
   4  -3  -6 1037.24  172.48
  -4   3   6  967.49  154.37
   4  -3  -6 1101.25  152.12
  -4   3   7 1207.06  191.41
   4  -3  -7 1157.10  159.29
  -4   4   0  345.55   70.40
   4  -4   0  431.21   84.77
  -4   4   0  245.67   66.31
  -4   4   1 3407.24  262.42
   4  -4  -1 3060.03  251.72
  -4   4   1 3506.00  234.29
   4  -4  -1 3136.34  184.03
  -4   4   1 3177.15  213.26
   4  -4  -2  -25.50   28.04
  -4   4   2    2.45   20.97
   4  -4  -2   24.40   47.26
  -4   4   2   33.74   29.84
  -4   4   2   28.30   49.88
  -4   4   3  909.87  115.21
   4  -4  -3 1233.20  139.74
   4  -4  -3  950.76   97.40
  -4   4   4 1433.91  160.76
   4  -4  -4 1408.29  163.55
   4  -4  -4 1492.26  196.85
   4  -4  -4 1559.89  147.80
  -4   4   5   39.26   59.12
   4  -4  -5   31.40   50.27
   4  -4  -5  -37.96   46.97
  -4   4   6  106.22   74.20
  -4   4   6  -17.44   46.69
  -4   5   0  920.73  140.43
  -4   5   0  643.98  108.36
   4  -5   0  845.66  129.08
  -4   5   1   20.35   39.80
  -4   5   1  -24.94   48.52
   4  -5  -1   54.01   57.09
  -4   5   2 2935.03  293.71
   4  -5  -2 2880.13  311.24
  -4   5   3  667.11  105.28
   4  -5  -3  649.62  104.80
  -4   5   4  391.14  100.24
   4  -5  -4  512.81  112.67
   4  -5  -4  313.61   57.48
   4  -5  -5   60.49   60.76
   4  -5  -5  152.63   54.28
  -4   5   5  271.60   86.79
   4  -5  -6   42.05   50.35
   4  -5  -6  -61.13   50.14
  -4   5   6   15.24   50.07
   4  -6   0  207.54   74.15
  -4   6   0  270.46  101.28
  -4   6   0  302.04   59.49
   4  -6  -1  380.35   81.23
  -4   6   1  533.34  144.02
   4  -6  -2   63.16   57.54
  -4   6   2   89.74   59.29
  -4   6   3  636.19  113.05
   4  -6  -3  656.06  125.75
   4  -6  -4 2957.61  287.93
  -4   6   4 2613.96  247.99
  -4   7   0  706.99  133.76
   4  -7   0  630.95  144.76
  -4   7   1 1650.46  215.30
   4  -7  -1 1866.79  249.31
  -4   7   2  976.58  167.32
   4  -7  -2  901.55  138.58
  -3  -8   1  162.40   68.49
   3   8  -1  164.63   76.99
   3   8  -1  297.11   69.54
  -3  -8   1   82.88   60.46
  -3  -8   2  353.33   74.56
   3   8  -2  261.87   88.81
  -3  -8   2  362.03   81.20
   3   8  -2  322.25  100.14
  -3  -8   3  812.13  120.86
   3   8  -3  493.53  147.99
  -3  -8   3  623.99  113.12
   3   8  -3  569.38  120.21
  -3  -7   1 3779.22  214.58
   3   7  -1 3805.31  368.24
  -3  -7   1 3393.84  306.66
   3   7  -1 3907.90  331.44
   3   7  -2  975.41  137.58
  -3  -7   2  871.55  132.62
   3   7  -2  951.01  142.59
   3   7  -3 3350.91  353.69
  -3  -7   3 3328.50  299.56
   3   7  -3 3455.92  302.03
  -3  -7   3 3576.35  285.39
   3   7  -4  148.87   61.33
  -3  -7   4  142.03   65.80
  -3  -7   4  180.39   78.08
   3   7  -4  151.63   73.49
   3   7  -5  343.43  107.84
  -3  -7   5  274.22   89.93
   3   7  -5  298.77   81.45
  -3  -7   5  178.65   64.07
   3   6  -1   53.11   60.39
   3   6  -1  159.22   56.86
  -3  -6   1   54.91   54.55
  -3  -6   1   99.88   46.26
  -3  -6   2 3699.65  273.04
  -3  -6   2 3860.93  247.86
  -3  -6   3  883.68  111.49
  -3  -6   3  929.29  114.80
   3   6  -3  915.75  121.82
   3   6  -3  847.38  135.05
   3   6  -4 4248.90  389.41
   3   6  -4 3816.36  350.89
  -3  -6   4 4367.89  314.14
  -3  -6   4 3902.77  359.67
   3   6  -5  122.15   57.85
  -3  -6   5   68.45   63.73
   3   6  -6 2448.32  263.81
   3   6  -6 2415.72  258.88
  -3  -6   6 2367.53  263.67
   3   6  -6 2468.54  288.12
   3   5  -1  748.90  125.08
   3   5  -1  846.05  104.32
  -3  -5   1  855.84  118.42
  -3  -5   1  723.44  100.23
  -3  -5   2  -14.45   49.55
   3   5  -2   50.25   51.52
  -3  -5   2   82.57   50.67
  -3  -5   3 2608.03  198.85
   3   5  -3 2632.73  217.15
   3   5  -3 2784.87  248.88
   3   5  -4   52.94   62.11
   3   5  -4    3.18   33.01
  -3  -5   4   28.07  103.81
   3   5  -4   37.83   53.47
   3   5  -5 1768.74  165.04
   3   5  -5 2118.93  224.40
  -3  -5   5 2083.58  227.39
   3   5  -6   26.66   52.50
  -3  -5   6  -15.79   66.59
   3   5  -7 1427.57  199.14
  -3  -5   7 1970.17  229.18
   3   4  -1 2899.55  243.09
  -3  -4   1 2907.01  195.60
   3   4  -1 2711.84  229.17
  -3  -4   1 2866.16  211.49
   3   4  -2 3348.57  219.21
   3   4  -2 3232.54  206.99
  -3  -4   2 3520.57  273.15
   3   4  -2 3136.76  214.17
   3   4  -3  -32.79   51.69
  -3  -4   3  -40.69   51.68
   3   4  -3   12.99   51.71
   3   4  -3   21.88   51.67
   3   4  -4 3211.56  214.37
   3   4  -4 3396.04  240.79
  -3  -4   4 3255.69  259.65
   3   4  -4 2962.05  229.43
   3   4  -5 2308.00  191.84
  -3  -4   5 2377.25  243.98
   3   4  -5 2620.06  209.81
   3   4  -6 1433.04  174.81
  -3  -4   6 1450.25  188.50
  -3  -4   7   98.20   63.93
   3   4  -7   26.60   57.28
   3   3  -1 2705.12  221.25
  -3  -3   1 2521.96  233.87
  -3  -3   1 2864.18  182.84
   3   3  -1 2891.95  171.00
   3   3  -212594.07  585.01
   3   3  -211758.26  721.91
   3   3  -212205.45  577.66
   3   3  -3  650.68   86.42
   3   3  -3  635.04   90.81
   3   3  -3  779.03   79.13
   3   3  -4 3381.19  141.02
  -3  -3   4 3550.25  144.38
   3   3  -4 3784.22  269.88
   3   3  -4 3544.31  215.39
   3   3  -4 3678.37  248.70
   3   3  -5 1650.24  162.38
   3   3  -5 1852.07  132.29
   3   3  -6 6525.30  472.53
   3   3  -6 5833.85  358.59
   3   3  -6 6433.05  424.32
   3   3  -7 1006.12  155.97
   3   3  -8 1084.54  147.52
  -3  -3   8 1013.39  186.44
   3   2  -112442.07  552.91
  -3  -2   111731.66  439.83
  -3  -2   112394.22  432.94
  -3  -2   112215.72  553.94
  -3  -2   112167.71  457.91
   3   2  -111649.84  569.82
   3   2  -112072.54  519.63
   3   2  -2  295.53   54.73
  -3  -2   2  275.66   35.96
   3   2  -2  248.35   51.58
   3   2  -2  361.46   47.01
   3   2  -3 6869.05  370.01
  -3  -2   3 6735.92  274.55
  -3  -2   3 7164.91  453.34
   3   2  -3 6757.11  375.01
  -3  -2   3 6710.00  293.83
   3   2  -4 1507.24  120.10
   3   2  -4 1570.90  155.73
  -3  -2   4 1532.21   93.47
  -3  -2   4 1621.92  135.60
   3   2  -5 7185.46  469.87
   3   2  -5 7368.02  362.08
  -3  -2   5 7124.02  413.22
   3   2  -5 7064.02  345.25
  -3  -2   5 7372.77  398.48
  -3  -2   6  100.66   31.65
   3   2  -6  106.47   53.46
   3   2  -6  144.56   37.88
  -3  -2   6  156.62   63.21
   3   2  -6  130.13   46.92
  -3  -2   7 2463.15  244.44
   3   2  -7 2733.67  294.33
   3   2  -7 2311.08  212.99
   3   2  -8  -66.40   55.61
   3   2  -8   57.87   55.52
  -3  -1   1 4671.03  303.07
  -3  -1   1 5331.84  216.82
   3   1  -1 5269.76  264.50
  -3  -1   1 5411.74  296.89
   3   1  -1 5127.08  295.21
   3   1  -1 5274.94  271.12
  -3  -1   1 5220.83  232.02
  -3  -1   1 5039.43  218.11
   3   1  -2 3418.22  210.30
   3   1  -2 3567.38  198.90
  -3  -1   2 3054.64  212.19
  -3  -1   2 3374.51  134.13
  -3  -1   2 3303.19  205.82
  -3  -1   2 3319.50  187.90
  -3  -1   3 4674.33  271.55
   3   1  -3 4923.30  288.85
  -3  -1   3 4835.45  254.19
   3   1  -3 5151.99  270.06
   3   1  -3 4631.36  209.36
  -3  -1   3 4797.68  347.30
  -3  -1   3 4420.37  192.84
  -3  -1   4  495.83   75.77
   3   1  -4  485.80   82.54
   3   1  -4  543.14   62.17
  -3  -1   4  458.35   81.21
  -3  -1   4  480.90   48.75
   3   1  -4  429.48   66.84
   3   1  -5 2225.93  209.53
   3   1  -5 2180.43  153.51
  -3  -1   5 2231.20  168.67
  -3  -1   5 1976.10  200.89
  -3  -1   6 1650.62  191.93
  -3  -1   6 1615.35  163.02
   3   1  -6 1614.95  122.36
  -3  -1   7   41.87   37.96
  -3  -1   7   11.08   51.75
   3   1  -8   51.59   50.14
  -3  -1   8  145.77   72.39
  -3   0   118640.79  792.41
  -3   0   118639.07  773.05
  -3   0   116851.96  869.34
  -3   0   118229.03  784.74
   3   0  -117527.49  746.54
   3   0  -119373.90  814.09
   3   0  -2 3757.44  216.78
   3   0  -2 3967.68  208.07
  -3   0   2 3932.52  230.33
  -3   0   2 3857.22  275.14
   3   0  -2 3868.81  215.06
  -3   0   3 1806.36  115.72
   3   0  -3 1856.67  173.34
   3   0  -3 1850.29  140.76
  -3   0   3 1833.60  134.91
   3   0  -3 1943.70  116.96
   3   0  -3 1805.16  163.70
  -3   0   3 1915.28  159.14
  -3   0   416418.58  901.70
   3   0  -415956.62  908.85
  -3   0   413501.33  619.35
  -3   0   416255.94  709.56
   3   0  -416374.41  611.54
   3   0  -416146.04  616.65
   3   0  -5  131.37   21.38
   3   0  -5   81.99   35.96
   3   0  -5   54.12   50.58
  -3   0   5   73.74   42.24
  -3   0   5   71.86   50.36
   3   0  -6  713.72  111.78
   3   0  -6  576.15   70.63
  -3   0   6  509.75   89.91
  -3   0   6  670.24   95.70
   3   0  -7    9.25   46.00
   3   0  -7   53.99   71.63
  -3   0   7   34.06   42.60
  -3   0   7  114.99   60.40
  -3   0   8   16.08   57.06
   3   0  -8  -74.94   56.97
  -3   0   8  -26.80   57.06
   3  -1   0  237.18   38.66
   3  -1   0  173.19   38.79
  -3   1   0  176.42   34.29
  -3   1   0  136.79   31.28
  -3   1   0  190.28   42.77
   3  -1   0  192.29   32.60
   3  -1  -1 8130.54  444.01
  -3   1   1 8056.76  383.43
  -3   1   1 7994.48  403.37
   3  -1  -1 8179.31  391.98
   3  -1  -2  692.32   69.40
   3  -1  -2  580.19   50.77
  -3   1   2  584.37   63.10
  -3   1   2  570.03   35.19
   3  -1  -2  547.76   84.86
   3  -1  -3 6921.49  329.29
   3  -1  -3 6824.88  495.07
  -3   1   3 6509.44  368.36
  -3   1   3 7034.72  444.14
   3  -1  -3 6772.03  378.92
  -3   1   4 1140.01  108.39
   3  -1  -4 1271.48  118.23
   3  -1  -4 1165.46  114.94
  -3   1   4 1141.70  114.89
   3  -1  -513289.72  635.47
  -3   1   512970.14  737.98
  -3   1   513423.69  703.98
   3  -1  -6  428.18   75.87
  -3   1   6  572.31   85.56
  -3   1   6  274.15   67.57
   3  -1  -6  307.17   73.37
  -3   1   7 1646.75  193.41
   3  -1  -7 1348.96  185.25
  -3   1   7 1499.67  214.25
   3  -1  -8   31.99   56.90
  -3   1   8  -18.08   56.86
   3  -1  -8  -37.05   56.99
  -3   1   8   10.91   56.90
  -3   2   0 9906.75  504.36
   3  -2   0 9779.25  505.71
   3  -2   010154.70  455.22
  -3   2   010039.13  466.35
  -3   2   0 9506.92  542.32
  -3   2   010117.58  362.06
  -3   2   0 9768.31  505.44
  -3   2   1 3220.67  204.66
   3  -2  -1 3163.25  265.58
   3  -2  -1 3267.03  196.79
   3  -2  -1 3217.41  178.54
  -3   2   1 3319.48  224.76
  -3   2   1 3063.34  185.48
  -3   2   1 3375.31  182.39
  -3   2   2 2393.45  133.09
   3  -2  -2 2445.45  171.46
   3  -2  -2 2412.93  191.24
   3  -2  -2 2385.27  109.07
  -3   2   2 2512.68  178.69
   3  -2  -3 8371.77  506.52
   3  -2  -3 7873.11  415.53
  -3   2   3 8519.49  486.30
   3  -2  -3 8163.06  385.02
   3  -2  -4 4763.05  304.01
   3  -2  -4 4715.78  360.74
   3  -2  -4 5019.06  358.10
  -3   2   4 4668.35  307.37
  -3   2   5   -3.55   38.21
  -3   2   5   26.98   52.87
   3  -2  -6 2091.99  186.36
  -3   2   6 2003.56  185.96
  -3   2   6 1750.51  200.89
   3  -2  -6 2206.42  222.58
  -3   2   7  -20.30   45.68
   3  -2  -7  -43.09   45.92
   3  -2  -7  -15.66   45.88
  -3   2   7   93.80   45.90
   3  -2  -8 1931.47  200.65
  -3   2   8 2091.87  237.56
  -3   2   8 1926.17  227.84
   3  -2  -8 1922.06  216.39
   3  -3   015446.88  704.25
  -3   3   014984.08  784.00
  -3   3   014792.80  683.83
   3  -3   014604.00  546.52
  -3   3   014889.10  589.60
   3  -3  -1  246.36   36.35
  -3   3   1  300.90   50.31
  -3   3   1  199.73   34.55
  -3   3   1  335.65   63.82
   3  -3  -1  293.28   57.56
  -3   3   1  315.82   48.59
   3  -3  -1  263.59   37.13
  -3   3   210142.45  446.21
  -3   3   2 9966.37  470.67
   3  -3  -210349.76  453.16
   3  -3  -2 9320.53  463.49
  -3   3   2 9711.39  392.24
   3  -3  -2 9514.87  543.06
   3  -3  -3   -1.27   39.63
  -3   3   3  -27.72   39.58
  -3   3   4 5921.45  323.74
  -3   3   4 5229.06  337.03
   3  -3  -4 5549.41  379.80
   3  -3  -5  988.38  125.05
   3  -3  -5  882.79  107.93
   3  -3  -5  794.63   94.69
  -3   3   5  762.50   96.28
   3  -3  -6 1099.65  169.83
  -3   3   6 1151.20  134.71
  -3   3   6 1243.24  158.55
   3  -3  -6 1218.30  149.07
   3  -3  -7   -0.55   33.40
  -3   3   7   46.39   50.65
   3  -3  -7   31.01   52.54
  -3   3   7   -3.10   45.88
   3  -3  -8  388.31   95.61
  -3   4   0 2691.99  184.57
  -3   4   0 2474.62  198.01
  -3   4   0 2695.91  171.34
  -3   4   1 4152.79  241.62
   3  -4  -1 4297.44  314.09
   3  -4  -1 4367.85  242.55
  -3   4   1 3974.23  318.53
  -3   4   1 4358.65  272.85
  -3   4   2  310.18   42.87
  -3   4   2  247.18   56.29
   3  -4  -2  209.46   60.55
  -3   4   2  344.63   69.62
  -3   4   3 9365.78  508.82
  -3   4   3 8859.63  566.25
   3  -4  -3 8903.13  506.07
  -3   4   4   64.00   48.79
   3  -4  -4    8.80   56.73
   3  -4  -5  112.50   65.19
  -3   4   5  194.97   54.57
   3  -4  -5  113.88   49.73
   3  -4  -6  284.00   83.42
  -3   4   6  304.70   81.56
   3  -4  -6  138.77   64.30
   3  -4  -7  857.13  142.61
  -3   4   7  851.56  146.52
  -3   4   7  698.49  130.25
   3  -4  -7  907.81  104.44
  -3   5   0 1486.95  145.39
  -3   5   0 1347.32  152.99
  -3   5   0 1307.18  140.73
  -3   5   1  748.76  122.83
  -3   5   1  709.06   97.12
   3  -5  -1  954.55   95.93
   3  -5  -1  745.09   59.13
  -3   5   1  744.60   94.42
  -3   5   2 2037.62  200.14
  -3   5   2 1788.42  122.65
   3  -5  -2 1578.23  159.83
  -3   5   2 1858.87  161.84
   3  -5  -3  180.46   70.28
  -3   5   3  125.84   63.83
   3  -5  -3  185.88   39.86
  -3   5   4 3607.71  284.89
   3  -5  -4 3794.45  205.91
  -3   5   4 3631.63  333.81
   3  -5  -4 3516.01  290.69
   3  -5  -5   28.74   44.52
  -3   5   5   -4.80   44.19
   3  -5  -5  -54.79   44.34
   3  -5  -6   51.44   48.71
   3  -5  -6    9.04   52.24
  -3   5   6   22.86   54.05
   3  -5  -7  194.42   69.96
  -3   5   7  129.56   74.32
  -3   5   7  185.07   80.28
  -3   6   0 2632.79  248.38
  -3   6   0 2654.64  258.96
  -3   6   0 2724.63  243.71
  -3   6   1  939.96  131.30
  -3   6   1  887.68  100.66
   3  -6  -1 1008.59  116.22
  -3   6   1  967.53  108.44
   3  -6  -2 6196.19  444.72
  -3   6   2 6751.95  484.48
  -3   6   2 5802.44  482.68
   3  -6  -3 1926.78  208.63
  -3   6   3 1610.20  206.23
  -3   6   3 1580.77  134.16
   3  -6  -4  801.05  129.79
  -3   6   4  723.73  152.40
   3  -6  -4  859.00  115.74
  -3   6   4  932.52  134.84
  -3   6   5  314.13   76.05
   3  -6  -5  346.47   69.54
  -3   6   6  409.89   81.48
   3  -6  -6  222.87   76.87
  -3   6   6  283.13   87.46
  -3   7   0  619.45   91.11
  -3   7   0  361.73   61.06
  -3   7   0  477.75  110.33
   3  -7  -1 2139.89  247.82
  -3   7   1 1979.60  247.01
   3  -7  -2   -8.14   59.99
  -3   7   2  102.53   73.61
  -3   7   2   16.66   45.92
   3  -7  -3 2707.79  288.13
  -3   7   3 2637.68  312.75
  -3   7   3 2001.73  215.76
  -3   7   4  790.30  123.68
  -3   7   4  475.94   85.50
  -3   8   0  594.31  138.29
   3  -8   0  708.70  133.42
  -3   8   0  680.19   93.24
  -3   8   1 1966.29  280.61
   3  -8  -1 1520.85  242.27
  -3   8   1 1669.31  231.87
  -2  -9   1  697.16  113.94
   2   9  -1  703.59  149.96
   2   9  -1  581.41  141.73
   2   8  -1  483.90  109.54
   2   8  -1  469.15   88.98
  -2  -8   1  410.19   63.41
  -2  -8   1  517.44  107.61
   2   8  -2 2131.67  264.46
  -2  -8   2 2264.52  232.98
   2   8  -2 2618.19  240.71
  -2  -8   2 2127.41  233.01
   2   8  -3    9.42   46.74
   2   8  -3   99.58   46.97
  -2  -8   3  -93.86   46.84
   2   8  -4 1082.42  180.16
  -2  -8   4 1165.14  166.73
   2   8  -4 1023.30  166.85
   2   7  -1   15.59   55.58
  -2  -7   1   76.44   49.63
   2   7  -1   28.65   30.37
   2   7  -1   40.75   48.03
  -2  -7   1  -22.73   48.28
   2   7  -2 2052.78  223.97
   2   7  -2 2116.72  230.13
  -2  -7   2 1830.17  173.72
  -2  -7   2 2002.26  192.26
  -2  -7   3  503.49  111.11
   2   7  -3  473.86   88.96
  -2  -7   3  540.39   81.32
  -2  -7   4  125.20   47.72
   2   7  -4   86.80   60.51
   2   7  -4  132.57   73.04
  -2  -7   4  -25.49   52.33
  -2  -7   5  831.32   95.28
   2   7  -5 1092.68  191.64
  -2  -7   5 1020.34  149.17
  -2  -6   1 5483.39  289.89
  -2  -6   1 5458.29  367.07
   2   6  -1 5463.04  300.99
   2   6  -1 5720.67  416.92
   2   6  -1 5575.28  408.65
   2   6  -2   37.51   27.00
   2   6  -2   53.99   48.90
  -2  -6   2  -56.76   30.11
  -2  -6   2   17.45   52.07
   2   6  -3 1527.51  184.57
  -2  -6   3 1633.29  186.84
  -2  -6   3 1773.80  146.05
   2   6  -4  139.50   61.93
  -2  -6   4  251.00   53.80
   2   6  -4  230.63   74.07
  -2  -6   4   73.32   67.96
  -2  -6   5  -33.29   54.33
   2   6  -5   30.49   49.36
   2   6  -5    1.00   28.89
   2   6  -5   46.87   66.61
   2   6  -6  713.31  135.33
   2   6  -6  518.57   83.94
  -2  -6   6  707.42  126.78
  -2  -5   1   49.32   45.42
   2   5  -1   25.53   38.88
   2   5  -1   30.12   40.82
  -2  -5   1    3.82   42.57
   2   5  -1   60.59   28.03
   2   5  -1   74.61   15.52
   2   5  -2 2575.76  131.54
  -2  -5   2 2800.99  201.61
   2   5  -2 2586.58  228.13
  -2  -5   2 2930.22  231.00
   2   5  -2 2721.00  157.71
   2   5  -3 2631.13  219.96
   2   5  -3 2489.43  124.93
   2   5  -3 2453.59  208.09
   2   5  -3 2450.49  168.94
  -2  -5   3 2423.95  230.46
   2   5  -4 2441.09  188.25
  -2  -5   4 2462.06  237.68
   2   5  -4 2340.62  143.46
   2   5  -4 2260.35  195.48
   2   5  -4 2427.81  232.73
  -2  -5   5   -7.26   37.38
   2   5  -5  -18.19   37.48
   2   5  -6 1175.69  176.32
  -2  -5   6 1265.43  189.97
   2   5  -6 1326.07  140.75
   2   5  -6 1304.13  147.27
   2   5  -7  779.35  110.28
   2   5  -7  764.54  118.72
  -2  -5   7  640.16  126.51
  -2  -4   1 2950.17  251.29
   2   4  -1 2761.56  134.62
   2   4  -1 2976.26  137.37
  -2  -4   1 2896.61  239.20
   2   4  -1 2825.03  140.36
   2   4  -1 3103.70  228.70
   2   4  -2  268.50   47.40
   2   4  -2  354.24   30.77
   2   4  -2  400.74   56.15
  -2  -4   2  390.94   62.36
   2   4  -2  313.46   25.51
   2   4  -3 3041.97  245.07
   2   4  -3 2897.65  147.03
   2   4  -3 2872.98  160.20
   2   4  -3 2868.60  205.25
   2   4  -3 2801.97  217.32
  -2  -4   3 3176.16  244.00
  -2  -4   4  672.20   80.25
   2   4  -4  687.70   98.92
   2   4  -4  724.90  109.33
   2   4  -4  676.43   49.57
  -2  -4   4  753.25   73.27
  -2  -4   5 6024.20  417.63
   2   4  -5 5725.31  420.05
   2   4  -5 5967.52  328.92
   2   4  -5 5878.62  417.98
   2   4  -6  405.22   74.24
  -2  -4   6  351.10   80.89
  -2  -4   7 5234.82  433.27
   2   4  -7 4824.61  403.27
   2   4  -7 4296.00  317.22
   2   4  -7 4672.90  424.72
   2   4  -8  246.80   72.81
   2   4  -8  245.32   85.36
  -2  -4   8  219.49   69.90
   2   4  -8  203.01   84.33
   2   3  -1 8159.58  505.78
  -2  -3   1 7810.06  375.97
   2   3  -1 7878.47  387.91
   2   3  -2 2293.56  224.20
   2   3  -2 2290.93  192.62
   2   3  -2 2240.19  154.54
  -2  -3   2 2270.46  189.19
   2   3  -3  105.81   38.39
   2   3  -3  122.14   47.75
  -2  -3   3   62.34   54.44
   2   3  -3   46.89   18.12
  -2  -3   3   58.66   17.10
  -2  -3   4 2911.69  226.97
   2   3  -4 2868.11  164.01
  -2  -3   4 2945.83  183.89
   2   3  -4 3203.16  236.11
   2   3  -4 3128.71  193.12
  -2  -3   5 2861.75  206.34
   2   3  -5 2750.40  167.91
   2   3  -5 2709.57  223.16
  -2  -3   5 2695.36  158.31
  -2  -3   6 4605.61  324.86
   2   3  -6 4957.24  375.23
   2   3  -6 4847.56  327.89
  -2  -3   6 4564.81  298.74
   2   3  -7   43.29   48.10
  -2  -3   7   35.06   31.97
   2   3  -7   64.14   51.26
  -2  -3   7  123.16   71.05
  -2  -3   8 2128.44  265.17
   2   3  -8 1468.96  183.62
   2   3  -8 1465.36  155.92
   2   3  -8 1790.60  188.23
   2   2  -1   95.28   37.53
  -2  -2   1  204.73   39.72
   2   2  -1  206.65   38.62
  -2  -2   1  140.72   32.89
  -2  -2   1  154.71   39.04
   2   2  -1  165.90   35.57
   2   2  -1  147.04   35.47
   2   2  -2 4338.08  243.04
   2   2  -2 4160.01  298.09
  -2  -2   2 4421.63  281.80
  -2  -2   2 4081.91  231.91
  -2  -2   2 4208.41  154.19
  -2  -2   2 4409.80  229.68
   2   2  -2 4228.00  148.52
   2   2  -3   53.92   30.59
   2   2  -3   89.22   38.05
  -2  -2   3   86.54   17.68
  -2  -2   3   15.50   24.03
   2   2  -3   60.15   39.95
  -2  -2   3   21.58   46.43
   2   2  -3   57.34   17.27
  -2  -2   4 1524.39  119.45
   2   2  -4 1447.44  113.14
   2   2  -4 1298.04  116.11
   2   2  -4 1439.67  144.49
  -2  -2   4 1583.68   96.34
  -2  -2   5 2723.57  187.21
   2   2  -5 2421.62  158.27
   2   2  -5 2290.94  253.30
  -2  -2   5 2841.03  176.51
  -2  -2   6 6330.69  425.54
   2   2  -6 6490.94  403.69
   2   2  -6 6649.80  408.84
  -2  -2   6 6446.89  405.17
  -2  -2   7  849.65  104.43
   2   2  -8 1540.75  189.31
  -2  -2   8 1427.77  173.54
   2   2  -9   36.03   59.57
   2   1  -1 2616.90  210.25
   2   1  -1 2591.70  167.67
  -2  -1   1 2733.52  147.64
  -2  -1   1 2544.81  193.43
  -2  -1   1 2644.74  157.27
   2   1  -1 2737.09  171.75
  -2  -1   1 2517.02  123.06
  -2  -1   2 8600.31  347.36
   2   1  -2 7676.20  601.05
   2   1  -2 7964.99  308.47
  -2  -1   2 8011.03  351.49
  -2  -1   2 8070.19  308.59
  -2  -1   2 8336.97  444.14
   2   1  -2 8499.96  389.82
   2   1  -2 7992.53  320.76
   2   1  -2 8159.47  436.23
  -2  -1   3 2291.90  122.03
  -2  -1   3 2275.20  176.73
  -2  -1   3 2186.96  118.95
   2   1  -3 2071.73  114.38
   2   1  -3 2361.09  163.30
   2   1  -3 2256.96  166.60
  -2  -1   4  173.96   33.51
  -2  -1   4  125.69   53.78
   2   1  -4  200.59   34.02
   2   1  -4  189.78   46.36
   2   1  -4  192.60   44.04
  -2  -1   5 6408.58  345.49
  -2  -1   5 6619.77  354.96
   2   1  -5 6882.20  336.25
   2   1  -5 6654.40  409.52
  -2  -1   5 5879.53  337.36
  -2  -1   6 2178.03  180.27
   2   1  -6 2282.90  156.01
   2   1  -6 1971.53  167.55
   2   1  -6 2241.21  192.63
  -2  -1   6 2048.22  181.59
  -2  -1   7 2741.21  244.22
   2   1  -7 2723.16  270.11
  -2  -1   7 2829.47  257.62
  -2  -1   8   91.12   44.84
  -2  -1   8  248.78   72.04
  -2  -1   9 2744.00  237.71
   2   1  -9 3128.41  321.78
  -2   0   1   20.32   22.60
  -2   0   1   35.53   22.03
  -2   0   1  -21.84   20.48
  -2   0   1   13.33   25.58
   2   0  -1   44.76   27.87
  -2   0   1   25.93   29.46
  -2   0   1   60.18   24.18
   2   0  -2 3753.14  223.43
   2   0  -2 3796.96  207.54
   2   0  -2 3786.52  219.04
  -2   0   2 3946.24  213.85
  -2   0   2 3949.23  221.37
  -2   0   2 3729.77  273.48
   2   0  -2 3531.16  234.66
  -2   0   2 3614.15  342.42
  -2   0   2 3991.40  149.94
   2   0  -3   92.07   25.63
   2   0  -3  106.30   29.22
   2   0  -3   49.84   22.70
  -2   0   3   72.51   23.39
  -2   0   3  116.81   31.73
  -2   0   3   66.31   38.01
  -2   0   4 5922.88  359.91
  -2   0   4 5957.63  338.19
  -2   0   4 6017.77  254.88
   2   0  -4 5981.64  268.40
   2   0  -4 5969.73  339.83
   2   0  -5   -1.09   19.56
  -2   0   5   51.93   42.85
  -2   0   5    3.36   31.59
   2   0  -5   29.70   40.42
   2   0  -6 6431.47  328.62
  -2   0   6 6015.21  394.10
   2   0  -6 6609.24  453.37
  -2   0   6 6408.98  344.82
  -2   0   7  267.61   82.67
   2   0  -7  309.27   84.40
   2   0  -7  315.71   69.88
  -2   0   7  297.14   80.42
  -2   0   8 1305.85  149.63
   2   0  -8 1482.60  188.59
   2   0  -8 1741.78  200.77
  -2   0   9   36.58   45.68
   2   0  -9  145.40   64.24
  -2   0   9  134.94   69.79
   2   0  -9  143.84   65.67
   2  -1   0 7586.11  343.33
   2  -1   0 8018.24  358.61
   2  -1   0 7813.57  351.50
  -2   1   0 7894.10  385.37
  -2   1   0 8054.58  360.14
  -2   1   0 8189.05  427.77
  -2   1   0 7607.46  287.47
  -2   1   122368.84  858.83
   2  -1  -122430.88  905.55
   2  -1  -121723.82  827.50
  -2   1   123531.04  863.69
  -2   1   123088.21  972.64
   2  -1  -123497.73  889.15
  -2   1   121538.63  810.97
  -2   1   121600.22  944.90
  -2   1   2 4962.16  200.55
   2  -1  -2 4797.85  260.38
   2  -1  -2 4701.43  268.15
  -2   1   2 4981.24  325.26
   2  -1  -2 4848.94  263.95
  -2   1   2 4814.65  210.41
   2  -1  -2 4779.97  241.62
   2  -1  -2 4838.87  259.24
   2  -1  -3 3928.92  246.16
   2  -1  -3 4122.29  241.83
   2  -1  -3 3924.50  167.62
  -2   1   3 4059.28  331.07
   2  -1  -420354.78  844.56
  -2   1   420756.48  907.61
  -2   1   420738.68  856.52
  -2   1   5 3459.00  219.56
  -2   1   5 3396.02  238.46
   2  -1  -5 3749.67  249.81
   2  -1  -5 3507.73  282.59
   2  -1  -6 1242.34  156.88
   2  -1  -6 1288.70   55.38
   2  -1  -6 1299.21  138.43
  -2   1   6 1234.75  115.80
  -2   1   6 1169.68  136.04
  -2   1   7 1057.92  150.12
   2  -1  -7  840.38  123.34
   2  -1  -7 1139.62  128.82
  -2   1   7  952.14  118.59
  -2   1   8  888.98  141.63
   2  -1  -8 1167.80  169.99
   2  -1  -8  989.06  139.78
  -2   1   8 1011.93  149.13
   2  -1  -9 1608.17  219.04
  -2   1   9 1139.58  174.90
  -2   1   9 1507.75  198.81
  -2   2   0  102.18   25.84
  -2   2   0   62.42   24.42
   2  -2   0   56.45   19.30
   2  -2   0   42.50   27.01
   2  -2   0   52.53   16.30
  -2   2   0   57.94   40.10
  -2   2   0   71.64   24.63
  -2   2   0   40.42   18.08
  -2   2   0  136.58   30.90
   2  -2  -1  300.96   37.63
   2  -2  -1  292.55   44.39
  -2   2   1  245.23   52.09
  -2   2   1  272.71   47.31
   2  -2  -1  310.97   38.25
   2  -2  -1  335.42   41.96
  -2   2   1  296.89   31.56
   2  -2  -2  965.85   81.21
  -2   2   2  832.28   54.80
  -2   2   2  953.78   93.86
  -2   2   2  902.39   68.60
   2  -2  -3 8933.99  501.14
   2  -2  -3 8535.50  475.44
   2  -2  -3 8344.79  310.94
  -2   2   3 8593.43  491.01
   2  -2  -4 2225.76  192.86
   2  -2  -4 2373.65  170.33
   2  -2  -4 2433.45  187.44
  -2   2   4 2309.37  166.04
  -2   2   520089.69  918.49
  -2   2   520730.58  877.57
   2  -2  -519803.16  843.80
   2  -2  -520495.14  860.35
  -2   2   6   -2.00   38.92
   2  -2  -6  -76.18   39.05
  -2   2   6   12.93   39.05
   2  -2  -7 3541.44  309.18
  -2   2   7 3510.67  232.01
  -2   2   8  210.71   83.63
   2  -2  -8  141.82   67.10
  -2   2   8  207.76   64.83
  -2   2   9  969.65  140.33
  -2   2   9 1214.57  181.40
   2  -2  -9 1165.00  171.65
   2  -2  -9  954.12  178.11
   2  -3   0 1742.11  134.00
   2  -3   0 1594.84   88.74
   2  -3   0 1562.95  109.97
  -2   3   0 1749.63  152.66
  -2   3   0 1793.70  119.15
   2  -3   0 1796.33   94.43
  -2   3   0 1594.81  109.35
  -2   3   1   78.76   47.04
   2  -3  -1   29.60   20.97
   2  -3  -1    3.44   36.87
   2  -3  -1   -3.00   22.06
  -2   3   1  -25.05   27.69
  -2   3   1    0.91   22.61
   2  -3  -2  287.25   64.16
   2  -3  -2  307.67   50.05
  -2   3   2  382.56   38.67
  -2   3   2  430.09   63.43
  -2   3   2  346.06   47.31
  -2   3   3 2399.26  202.10
   2  -3  -3 2329.26  229.37
  -2   3   3 2348.48  127.30
   2  -3  -4 5130.60  299.76
   2  -3  -4 4975.77  348.69
  -2   3   4 4933.56  375.22
  -2   3   5  501.32   82.72
  -2   3   5  529.16   63.54
   2  -3  -5  574.39   82.11
   2  -3  -5  646.52   93.84
   2  -3  -6 2430.42  216.02
   2  -3  -6 2708.25  247.88
  -2   3   6 2606.44  248.05
  -2   3   6 2783.66  279.97
   2  -3  -7  268.57   76.99
   2  -3  -7  156.19   60.48
  -2   3   7  229.66   64.61
  -2   3   8 2509.14  249.42
  -2   3   8 2459.41  268.83
  -2   4   0 3687.99  153.00
  -2   4   0 3580.13  241.78
   2  -4   0 3821.68  239.85
   2  -4   0 3780.05  141.99
  -2   4   0 3757.47  233.68
  -2   4   0 3953.62  233.45
  -2   4   1  853.74   72.64
   2  -4  -1  738.50   76.81
   2  -4  -1  841.75   78.70
  -2   4   1  805.76   95.60
   2  -4  -1  959.89   82.01
  -2   4   1  791.68   56.44
  -2   4   1  816.87   86.60
   2  -4  -2 3682.17  202.93
   2  -4  -2 3646.60  301.55
  -2   4   2 3994.45  173.20
   2  -4  -2 4027.01  217.79
  -2   4   2 4037.45  286.85
  -2   4   2 4069.09  291.12
   2  -4  -3 2292.77  111.21
   2  -4  -3 2573.84  194.88
  -2   4   3 2302.12  182.89
  -2   4   3 2349.70  132.20
  -2   4   3 2216.09  216.70
   2  -4  -4 2154.21  179.82
  -2   4   4 2142.60  181.81
  -2   4   4 2032.69  151.42
  -2   4   5 2312.86  221.17
   2  -4  -5 2264.71  233.80
   2  -4  -5 2520.17  222.94
  -2   4   6  424.26   98.08
   2  -4  -6  453.63   75.68
   2  -4  -6  231.89   81.44
  -2   4   6  463.27   84.43
  -2   4   7  166.50   59.56
   2  -4  -7  202.27   83.72
   2  -4  -7  149.03   65.99
  -2   4   7  153.08   59.16
   2  -4  -8  119.81   67.20
   2  -4  -8  182.83   72.79
  -2   4   8   78.35   61.81
  -2   4   8   72.55   76.91
   2  -5   0 6397.53  373.19
  -2   5   0 6686.56  393.53
  -2   5   0 6396.59  362.35
  -2   5   1 5960.24  378.46
  -2   5   1 6270.48  331.34
  -2   5   1 5676.71  270.21
   2  -5  -1 6290.42  361.12
   2  -5  -2  293.20   69.00
  -2   5   2  304.84   51.22
  -2   5   2  276.38   69.78
  -2   5   2  347.22   45.84
   2  -5  -2  220.73   42.30
  -2   5   312652.75  624.42
  -2   5   312640.86  695.37
   2  -5  -313003.18  581.65
  -2   5   313035.81  598.37
   2  -5  -313075.86  689.15
   2  -5  -4  965.78  117.94
  -2   5   4 1036.16  122.42
  -2   5   4  840.30   98.81
   2  -5  -5 1348.59  143.95
  -2   5   5 1375.38  170.83
   2  -5  -5 1262.10  153.24
  -2   5   5 1473.78  172.28
  -2   5   6  730.54  133.09
   2  -5  -6  603.21  104.38
   2  -5  -6  756.78  141.24
  -2   5   6  553.97  118.09
  -2   5   7 2485.16  262.48
   2  -5  -7 2729.71  302.32
  -2   5   7 2682.20  297.10
   2  -6   0  464.47   93.81
  -2   6   0  416.06   76.24
  -2   6   0  541.48   87.76
  -2   6   0  362.48   71.36
   2  -6  -1  238.38   66.82
  -2   6   1  331.78   71.58
  -2   6   1  236.60   73.97
  -2   6   1  278.91   54.28
   2  -6  -2 5091.39  419.28
  -2   6   2 4350.76  296.41
  -2   6   2 4770.26  309.49
  -2   6   2 4932.97  262.46
   2  -6  -3   91.67   51.90
   2  -6  -3   25.05   31.98
   2  -6  -4 6864.15  447.05
   2  -6  -4 7033.57  430.00
  -2   6   4 7062.04  538.67
  -2   6   4 6641.20  429.92
   2  -6  -5  277.64   73.00
  -2   6   5  163.82   60.24
   2  -6  -5  410.18   77.05
  -2   6   5  285.74   94.40
   2  -6  -6  584.45  140.19
   2  -6  -6  751.12  107.14
  -2   6   6  804.58  145.41
  -2   6   6  744.03  104.67
   2  -6  -7   41.96   52.06
  -2   6   7    6.35   51.91
  -2   6   7  -40.52   51.97
  -2   7   0 1470.38  188.27
  -2   7   0 1580.08  165.89
   2  -7   0 1384.22  181.03
  -2   7   0 1574.46  214.59
  -2   7   1  195.12   56.48
  -2   7   1  236.91   74.07
  -2   7   1  284.04   79.90
   2  -7  -1  127.75   71.89
   2  -7  -2 4106.26  361.44
  -2   7   2 4346.72  358.36
  -2   7   2 3605.75  200.83
   2  -7  -3 1339.04  141.11
  -2   7   3 1248.04  158.37
  -2   7   3 1332.20  178.02
  -2   7   4  804.66  144.55
   2  -7  -4  601.94   95.47
  -2   7   4  692.62  120.33
   2  -7  -5  299.32   90.14
  -2   7   5  275.99   85.18
  -2   7   5  218.08   67.03
   2  -8   0  -45.98   58.49
  -2   8   0    9.17   58.59
  -2   8   0   -6.00   58.64
  -2   8   0   16.90   58.60
   2  -8  -1 1104.08  125.74
  -2   8   1  775.75  103.78
  -2   8   1 1039.52  188.47
  -2   8   1  791.42  116.72
  -2   8   2  385.44   77.82
   2  -8  -2  463.63  102.02
  -2   8   2  558.42  115.45
   2  -8  -3 1369.56  203.93
  -2   8   3 1552.00  208.04
  -2   8   3 1500.07  178.28
   2  -8  -4  580.02  109.01
  -2   8   4  454.64  117.18
  -2   8   4  347.42   87.68
   1   9  -1  735.30  124.40
   1   9  -1  448.66  114.88
  -1  -9   1  885.51  133.57
   1   9  -2  418.50  106.92
   1   9  -2  880.08  132.74
  -1  -9   2  699.49  126.59
   1   8  -1 3075.49  285.92
   1   8  -1 3060.85  266.31
  -1  -8   1 2866.91  255.83
   1   8  -1 3564.20  336.60
   1   8  -2  -43.77   49.39
   1   8  -2  125.87   76.70
  -1  -8   2  145.29   60.97
  -1  -8   3 2158.86  276.39
   1   8  -3 1744.57  219.81
   1   8  -3 1714.81  209.88
   1   8  -4  621.35  105.27
  -1  -8   4  558.73  101.58
   1   7  -1 2171.17  193.68
   1   7  -1 1650.57  156.38
   1   7  -1 2182.41  198.53
  -1  -7   1 2007.57  197.93
  -1  -7   1 1838.00  166.52
   1   7  -2 4381.42  316.39
   1   7  -2 3901.09  307.69
   1   7  -2 4396.90  332.20
  -1  -7   2 4312.64  312.11
   1   7  -3  470.30  104.65
   1   7  -3  436.72   78.48
   1   7  -3  536.50  108.33
  -1  -7   3  430.62  114.33
  -1  -7   3  452.15   75.01
   1   7  -4  662.86  125.99
  -1  -7   4  602.33  125.26
   1   7  -5   19.49   61.38
   1   7  -5   19.91   57.54
  -1  -7   5   64.65   78.59
   1   7  -6 1025.84  171.03
   1   7  -6 1177.85  162.92
  -1  -7   6 1231.26  208.98
   1   6  -1  172.07   54.46
   1   6  -1  128.40   36.54
   1   6  -1  190.79   61.05
  -1  -6   1  102.85   56.24
  -1  -6   1  122.91   37.09
   1   6  -2 1329.50  147.72
   1   6  -2 1244.12  102.37
   1   6  -2 1507.40  139.03
  -1  -6   2 1416.28  139.93
  -1  -6   2 1464.67  116.64
   1   6  -3  936.67  134.41
   1   6  -3 1040.04  129.35
   1   6  -3  934.30  103.31
  -1  -6   3 1068.51  122.50
  -1  -6   3 1107.94  104.11
  -1  -6   4   92.44   35.65
   1   6  -4   93.38   67.54
   1   6  -4   70.53   35.99
   1   6  -4   93.98   59.66
  -1  -6   4  134.50   69.38
   1   6  -5  514.41  101.43
   1   6  -5  290.98   57.92
   1   6  -5  409.15   83.28
  -1  -6   5  476.51  103.00
   1   6  -6  -43.66   48.11
  -1  -6   6  -50.56   47.94
   1   6  -7  945.72  164.51
   1   6  -7 1187.85  140.78
  -1  -6   7 1183.60  173.83
   1   5  -117076.99  858.98
   1   5  -114341.90  728.31
   1   5  -115934.41  977.10
  -1  -5   115879.95  779.69
  -1  -5   116254.21  640.43
   1   5  -116067.55  694.33
   1   5  -2  753.73   74.27
   1   5  -2  585.84   70.15
   1   5  -2  611.04   74.57
  -1  -5   2  626.12  109.83
  -1  -5   2  702.55   81.06
   1   5  -3 2209.54  220.56
   1   5  -3 2319.14  161.47
   1   5  -3 2601.25  164.19
  -1  -5   3 2232.96  186.97
  -1  -5   3 2244.49  156.12
   1   5  -4   30.47   45.08
   1   5  -4   36.37   40.27
   1   5  -4   73.04   48.87
  -1  -5   4   83.58   34.47
  -1  -5   4   65.16   55.01
   1   5  -5  147.75   53.98
  -1  -5   5   33.49   30.58
  -1  -5   5   27.01   50.67
   1   5  -6 2279.82  263.56
   1   5  -6 2130.90  157.64
   1   5  -6 2208.78  218.61
  -1  -5   6 1631.59  182.50
  -1  -5   6 1843.85  219.54
   1   5  -7   61.99   65.18
  -1  -5   7  -12.79   65.95
   1   4  -1  412.29   70.01
   1   4  -1  364.20   61.63
   1   4  -1  357.53   44.93
   1   4  -1  448.28   57.70
  -1  -4   1  241.22   53.61
  -1  -4   1  231.59   49.35
  -1  -4   1  316.86   40.19
   1   4  -215932.80  849.96
   1   4  -216576.61  718.62
   1   4  -215670.25  650.91
   1   4  -216365.99  709.89
   1   4  -216852.80  828.95
  -1  -4   216755.92  829.76
   1   4  -3  451.94   70.38
   1   4  -3  502.15   50.75
   1   4  -3  538.29   66.20
  -1  -4   3  533.86   52.92
  -1  -4   3  643.36   82.73
   1   4  -4 5656.34  509.79
   1   4  -4 5828.92  332.42
  -1  -4   4 6074.30  322.11
  -1  -4   4 5858.10  380.76
   1   4  -5  871.58   94.54
   1   4  -5  802.90  116.59
  -1  -4   5  735.69   89.50
  -1  -4   5  741.79  118.38
   1   4  -6 2025.16  186.58
   1   4  -6 1668.90  149.25
   1   4  -6 2023.29  202.30
  -1  -4   6 1683.93  150.25
  -1  -4   6 1663.12  184.26
   1   4  -7 1561.85  161.99
  -1  -4   7 1584.10  135.69
  -1  -4   7 1661.53  203.45
   1   4  -8   -7.35   32.20
  -1  -4   8  -23.14   32.22
   1   3  -1 7441.51  351.87
   1   3  -1 7262.31  378.52
   1   3  -1 7128.23  474.54
   1   3  -1 7212.68  338.30
  -1  -3   1 7365.18  389.14
  -1  -3   1 7445.69  444.13
  -1  -3   1 7169.86  452.13
  -1  -3   1 7588.97  363.70
   1   3  -1 7429.80  377.24
   1   3  -2 1739.96  139.81
   1   3  -2 1597.90  123.12
   1   3  -2 1609.80  119.19
  -1  -3   2 1637.75   99.17
  -1  -3   2 1823.52  141.00
   1   3  -3  582.67   91.65
   1   3  -3  717.84   76.26
  -1  -3   3  601.91   69.46
  -1  -3   3  716.86   67.69
   1   3  -4  155.32   54.47
   1   3  -4  145.67   33.25
   1   3  -4  288.06   55.05
  -1  -3   4  159.24   37.43
  -1  -3   4  140.92   48.06
   1   3  -5 5541.20  303.29
   1   3  -5 5478.03  361.20
  -1  -3   5 5795.89  292.69
  -1  -3   5 5454.99  318.89
   1   3  -6   -4.91   44.82
   1   3  -6  -14.91   44.81
  -1  -3   6   28.08   44.80
  -1  -3   6  -11.34   44.72
   1   3  -7 3686.56  286.19
   1   3  -7 3392.57  282.49
   1   3  -7 3469.68  322.42
  -1  -3   7 3497.13  273.88
  -1  -3   7 3698.73  349.35
  -1  -3   8   91.76   47.83
   1   3  -8  102.57   52.51
  -1  -3   8   48.63   70.04
   1   3  -9  526.25  126.73
  -1  -3   9  571.42  120.40
   1   2  -110980.50  477.51
   1   2  -110774.37  401.84
   1   2  -110690.42  413.19
   1   2  -110712.73  452.85
   1   2  -110634.96  524.51
   1   2  -110798.45  503.32
  -1  -2   110912.44  395.61
  -1  -2   110792.37  505.59
  -1  -2   110593.47  505.28
   1   2  -2   59.97   25.67
   1   2  -2  145.05   37.56
  -1  -2   2  161.63   29.30
  -1  -2   2  110.51   20.31
  -1  -2   2   91.07   40.09
   1   2  -3  229.51   42.85
   1   2  -3  239.73   41.05
   1   2  -3  263.14   49.68
   1   2  -3  265.43   62.91
  -1  -2   3  235.51   40.33
  -1  -2   3  250.03   39.59
  -1  -2   3  182.90   44.60
   1   2  -4   41.23   32.69
   1   2  -4   29.59   25.61
   1   2  -4   12.02   29.78
  -1  -2   4    9.92   25.03
   1   2  -5  978.57   87.54
  -1  -2   5  982.57   87.66
  -1  -2   6 3008.99  229.30
   1   2  -7  785.81   93.91
  -1  -2   7  728.49   96.19
  -1  -2   7  731.29  124.75
  -1  -2   8 1270.57  121.84
  -1  -2   8 1409.54  182.48
   1   2  -9   17.12   51.17
  -1  -2   9   61.32   51.33
  -1  -2   9  -26.48   51.23
   1   2  -9  -46.65   51.28
   1   1  -1  235.72   41.81
   1   1  -1  237.97   18.55
   1   1  -1  240.51   39.81
   1   1  -1  201.27   45.33
   1   1  -1  222.49   41.68
  -1  -1   1  263.59   34.51
  -1  -1   1  200.57   18.74
  -1  -1   1  226.78   37.97
   1   1  -2  918.14   66.47
   1   1  -2  936.00   85.52
  -1  -1   2 1071.31   82.28
  -1  -1   2  834.94   59.16
  -1  -1   2  904.57   90.20
  -1  -1   2  842.62   91.57
  -1  -1   2  929.01   80.60
   1   1  -2  773.20   92.39
   1   1  -3 2384.99  145.53
   1   1  -3 2416.97  112.50
   1   1  -3 2200.97  211.46
   1   1  -3 2350.44  229.99
   1   1  -3 2300.23  185.67
  -1  -1   3 2255.31  132.14
  -1  -1   3 2371.65  165.54
  -1  -1   4    5.72   19.88
   1   1  -4   12.18   46.25
   1   1  -4   -6.01   33.50
  -1  -1   4   54.82   34.98
   1   1  -4   13.78   19.04
  -1  -1   4  -15.32   31.36
   1   1  -5 4209.46  279.16
   1   1  -5 3684.06  267.17
  -1  -1   5 4111.75  246.68
  -1  -1   5 4319.51  237.03
   1   1  -6 1408.52  130.16
   1   1  -6 1455.38  118.65
  -1  -1   6 1289.88  120.49
  -1  -1   6 1516.59  161.43
   1   1  -7 2246.70  194.71
   1   1  -7 2284.21  176.94
  -1  -1   7 2073.54  160.73
  -1  -1   7 2361.48  205.30
   1   1  -8   61.28   69.35
   1   1  -8   97.59   46.20
  -1  -1   8   73.36   46.18
   1   1  -9  274.26   79.28
  -1  -1   9  214.69   56.59
  -1  -1   9  534.49  102.90
   1   0  -133091.63 1175.46
   1   0  -133123.04 1065.82
   1   0  -133168.52 1150.97
  -1   0   133725.93 1150.79
  -1   0   132567.85 1221.51
  -1   0   133113.16 1192.90
  -1   0   134484.93 1173.03
  -1   0   133487.81 1219.81
   1   0  -2 3604.46  179.37
   1   0  -2 3491.72  206.82
   1   0  -2 3648.04  229.44
  -1   0   2 3714.45  187.34
  -1   0   2 3649.44  210.24
  -1   0   2 3493.39  222.53
  -1   0   2 3731.22  217.86
  -1   0   2 3871.85  226.81
  -1   0   2 3611.25  183.81
   1   0  -3 3875.76  219.30
   1   0  -3 3807.06  250.72
   1   0  -3 3676.49  211.97
   1   0  -3 3633.39  195.88
   1   0  -3 3755.98  227.51
  -1   0   3 3752.47  287.22
  -1   0   3 3572.40  213.58
  -1   0   3 3748.67  266.41
   1   0  -4  557.30   56.95
   1   0  -4  510.66   78.60
   1   0  -4  490.07   84.52
   1   0  -4  547.16   63.37
  -1   0   4  506.87   64.26
  -1   0   4  667.55   70.79
  -1   0   4  670.33   69.04
   1   0  -5 6260.25  397.00
  -1   0   5 6049.54  335.47
  -1   0   5 6063.96  366.59
  -1   0   5 6431.04  438.46
   1   0  -6 7275.10  423.24
   1   0  -6 6692.04  330.63
  -1   0   6 7027.93  393.40
  -1   0   6 6542.21  398.09
   1   0  -7 3735.84  315.18
  -1   0   7 3597.75  229.13
  -1   0   7 3596.78  250.13
   1   0  -8 1048.54  120.48
  -1   0   8  945.02  138.36
  -1   0   8 1207.59  142.78
   1   0  -9 4880.46  453.32
  -1   0   9 4793.04  413.91
  -1   0   9 5041.25  422.50
   1  -1   0 3983.30  180.82
  -1   1   0 4031.55  210.75
  -1   1   0 3851.72  189.31
   1  -1   0 3926.57  236.39
   1  -1   0 4028.99  219.83
   1  -1   0 3945.80  192.34
  -1   1   0 3794.72  176.61
   1  -1   0 3962.83  176.64
  -1   1   0 4271.75  222.65
  -1   1   0 4317.69  181.65
   1  -1  -111489.09  565.29
   1  -1  -111590.83  475.50
   1  -1  -111379.78  473.32
   1  -1  -110943.44  408.39
  -1   1   111354.23  442.15
  -1   1   111614.71  445.88
  -1   1   110838.30  389.09
   1  -1  -2  808.85   47.87
   1  -1  -2  841.08   79.16
   1  -1  -2  733.81   61.55
  -1   1   2  873.95   89.36
  -1   1   2  857.64   84.26
   1  -1  -3 2483.82  106.66
   1  -1  -3 2517.99  144.70
   1  -1  -3 2489.19  196.49
   1  -1  -3 2522.60  175.53
   1  -1  -3 2368.50  151.51
   1  -1  -3 2501.51  169.38
  -1   1   3 2577.04  192.16
  -1   1   3 2353.21  166.59
  -1   1   3 2375.85  280.26
   1  -1  -4 6183.75  273.03
  -1   1   4 6268.13  395.35
  -1   1   4 6114.61  404.20
   1  -1  -5   -0.36   15.44
  -1   1   5  -40.18   15.42
  -1   1   5    8.63   15.44
   1  -1  -6 5238.78  312.25
   1  -1  -6 6193.10  377.73
  -1   1   6 5773.51  412.74
  -1   1   6 6004.19  400.91
   1  -1  -7  201.76   60.87
  -1   1   7  368.50   70.08
  -1   1   7  293.89   58.70
   1  -1  -8 3479.02  294.89
  -1   1   8 3208.89  286.49
   1  -1  -8 3385.38  318.10
  -1   1   8 3387.92  271.16
   1  -1  -9  171.63   70.04
   1  -1  -9   32.69   55.66
  -1   1   9   41.44   51.44
  -1   1   9    6.63   48.66
   1  -2   0 6617.92  320.06
  -1   2   0 6544.50  352.54
  -1   2   0 6803.52  223.27
   1  -2   0 6555.22  318.12
   1  -2   0 6856.04  332.89
   1  -2   0 6338.21  265.51
  -1   2   0 6754.29  286.25
  -1   2   0 6963.44  350.02
  -1   2   0 6340.13  366.91
   1  -2  -1  776.10   56.55
   1  -2  -1  761.02   81.27
   1  -2  -1  723.27   72.29
   1  -2  -1  781.87   54.07
  -1   2   1  752.27   49.37
  -1   2   1  744.78   76.65
  -1   2   1  697.91   80.89
  -1   2   1  692.09   71.17
   1  -2  -2 1974.36   90.74
   1  -2  -2 1710.61  206.98
   1  -2  -2 2115.56  146.66
   1  -2  -2 1900.21  138.21
  -1   2   2 1887.73   99.39
  -1   2   2 2070.98  164.62
  -1   2   2 1867.49  128.01
  -1   2   2 1978.94  126.90
   1  -2  -3  349.83   23.70
   1  -2  -3  374.19   49.64
   1  -2  -3  353.94   47.49
  -1   2   3  338.56   56.80
  -1   2   3  297.95   53.48
   1  -2  -410122.92  493.22
   1  -2  -410448.61  387.95
  -1   2   410098.16  565.91
  -1   2   410389.05  549.93
   1  -2  -5 1749.58   93.90
   1  -2  -5 2044.84  173.00
   1  -2  -5 1800.32  141.12
  -1   2   5 1916.27  151.17
  -1   2   5 1783.15  146.32
   1  -2  -6  142.14   68.25
   1  -2  -6   84.42   51.96
  -1   2   6   16.70   39.58
  -1   2   7  705.25   83.77
  -1   2   7  645.66   91.34
  -1   2   8  831.38  116.53
   1  -2  -8  770.35  113.92
   1  -2  -8  782.86  137.83
  -1   2   8  862.04  118.28
  -1   2   9 1560.64  207.76
   1  -2  -9 1480.32  183.37
   1  -2  -9 1693.07  186.02
   1  -3   0  333.36   35.12
   1  -3   0  254.54   38.69
   1  -3   0  282.54   55.53
  -1   3   0  332.08   57.14
  -1   3   0  233.85   52.74
  -1   3   0  350.97   52.98
  -1   3   0  363.35   32.50
  -1   3   0  308.69   64.00
   1  -3  -1 1414.98   93.06
   1  -3  -1 1458.04  117.11
   1  -3  -1 1604.88   94.20
  -1   3   1 1574.23  125.84
  -1   3   1 1394.38  143.67
  -1   3   1 1633.38  125.14
   1  -3  -2  587.58   54.64
   1  -3  -2  465.22   65.23
  -1   3   2  585.18   45.09
  -1   3   2  562.71   78.15
  -1   3   2  534.21   65.94
   1  -3  -3 2677.17  150.29
   1  -3  -3 2660.04  209.24
   1  -3  -3 2702.56  206.63
  -1   3   3 2727.57  193.72
  -1   3   3 2676.19  166.58
  -1   3   4 4905.85  259.40
   1  -3  -4 4770.70  285.96
   1  -3  -5 8479.93  321.37
   1  -3  -5 8456.06  481.41
   1  -3  -5 8300.80  379.54
  -1   3   5 8219.06  539.68
  -1   3   5 8525.64  447.20
   1  -3  -6  266.78   65.29
   1  -3  -6  340.89   65.13
  -1   3   6  236.35   57.98
  -1   3   6  116.43   51.31
   1  -3  -7 1205.09  163.33
   1  -3  -7 1511.21  161.10
  -1   3   7 1560.42  176.34
  -1   3   7 1583.72  139.66
   1  -3  -8   16.72   57.80
  -1   3   8   25.69   60.45
  -1   3   8   13.01   38.58
   1  -3  -9  615.23  109.35
   1  -3  -9  593.33  109.38
  -1   3   9  509.33   75.82
  -1   3   9  482.53  114.04
   1  -4   0 1664.75  131.55
  -1   4   0 1590.22  126.54
  -1   4   0 1353.21  114.42
  -1   4   0 1555.70  101.09
  -1   4   0 1573.82  151.22
   1  -4  -1   22.60   23.60
   1  -4  -1   34.90   41.61
  -1   4   1   24.59   21.50
  -1   4   1    3.26   36.09
  -1   4   1    6.38   32.51
   1  -4  -2   34.33   20.53
   1  -4  -2   41.69   34.76
  -1   4   2   83.27   25.10
  -1   4   2   77.57   43.40
  -1   4   2   78.40   43.34
   1  -4  -3   76.94   45.46
   1  -4  -3   36.10   48.50
  -1   4   3   91.97   57.00
  -1   4   3   22.37   38.01
  -1   4   4 5290.34  325.74
   1  -4  -4 4897.43  244.63
   1  -4  -4 5438.67  361.40
  -1   4   4 5208.86  379.09
   1  -4  -5 4850.03  211.91
   1  -4  -5 4704.53  286.64
  -1   4   5 4834.09  392.22
  -1   4   5 4780.32  330.80
   1  -4  -6 5083.41  387.67
  -1   4   6 5991.20  473.25
  -1   4   6 5199.43  330.34
   1  -4  -7   53.76   68.27
  -1   4   7   -4.36   60.24
  -1   4   7   40.97   42.52
   1  -4  -8 4836.74  447.60
  -1   4   8 4454.81  286.26
  -1   4   8 4618.48  360.83
   1  -5   0 5962.53  347.77
   1  -5   0 5632.24  321.69
   1  -5   0 5262.87  211.72
  -1   5   0 5433.61  379.12
  -1   5   0 5494.88  331.58
  -1   5   0 5847.56  365.81
   1  -5  -1   55.63   41.23
  -1   5   1   21.50   30.57
  -1   5   1   -5.35   50.62
  -1   5   1   -8.98   22.67
  -1   5   1   71.40   50.39
   1  -5  -2 4235.47  300.52
   1  -5  -2 3923.53  258.38
  -1   5   2 4167.55  248.98
  -1   5   2 4391.47  289.86
   1  -5  -3 2442.47  127.31
   1  -5  -3 2725.77  217.46
   1  -5  -3 2715.47  174.59
  -1   5   3 2772.62  198.04
  -1   5   3 2553.18  174.27
  -1   5   3 2519.07  172.13
  -1   5   4 1308.62  124.83
   1  -5  -4 1464.21  131.83
  -1   5   4 1156.08  127.50
   1  -5  -5 2563.50  215.18
  -1   5   5 3251.57  277.04
  -1   5   5 3149.79  243.86
   1  -5  -6  142.54   55.36
  -1   5   6  195.18   86.23
   1  -5  -7 1821.32  210.05
  -1   5   7 1891.61  202.34
  -1   5   7 1849.05  189.41
   1  -5  -8  180.27   66.43
   1  -5  -8   67.59   63.59
  -1   5   8  186.57   63.74
  -1   5   8  110.71   52.99
   1  -6   0  680.81  125.44
  -1   6   0  810.58  108.54
  -1   6   0  870.79  125.55
  -1   6   0  854.53   93.27
   1  -6  -1 4211.84  303.48
  -1   6   1 3686.34  215.69
  -1   6   1 3974.17  308.81
  -1   6   1 4093.78  258.38
   1  -6  -2   44.26   48.33
   1  -6  -2   60.03   34.85
  -1   6   2   82.74   49.93
  -1   6   2   23.56   51.74
  -1   6   2   15.63   51.25
   1  -6  -3 7220.91  366.79
  -1   6   3 6952.79  392.25
  -1   6   3 7062.16  451.70
  -1   6   3 6770.42  394.86
   1  -6  -4  516.46   86.20
  -1   6   4  536.74   68.97
  -1   6   4  675.14  103.82
  -1   6   4  636.88   88.20
  -1   6   5  931.04  142.06
  -1   6   5  914.02  126.60
   1  -6  -6  255.42   79.74
   1  -6  -6  271.39   86.77
  -1   6   6  354.12   89.20
  -1   6   6  195.69   75.57
   1  -6  -7 2654.82  243.16
  -1   6   7 3121.27  309.87
  -1   6   7 2997.76  277.24
   1  -7   0  414.70   84.51
  -1   7   0  320.84   62.40
  -1   7   0  472.28   81.24
  -1   7   0  322.49   71.88
   1  -7  -1   -0.54   45.57
  -1   7   1   23.14   45.64
  -1   7   1  -29.49   45.64
  -1   7   1  -15.52   45.66
   1  -7  -2 1873.17  191.24
   1  -7  -2 1878.72  153.77
  -1   7   2 2046.80  156.90
  -1   7   2 1883.62  205.92
  -1   7   2 1824.09  182.03
  -1   7   3  240.77   55.16
  -1   7   3  232.47   77.56
  -1   7   3  195.32   66.20
   1  -7  -4 3076.03  289.33
  -1   7   4 3473.16  272.52
  -1   7   4 3044.35  270.97
   1  -7  -5   32.09   57.36
  -1   7   5  -52.36   57.26
   1  -7  -6  303.16   77.84
   1  -7  -6  406.13   92.08
  -1   7   6  428.73  100.43
  -1   7   6  333.09   83.60
   1  -8   0  503.89   98.32
  -1   8   0  326.64   71.68
  -1   8   0  455.39  118.13
  -1   8   0  394.22   87.05
   1  -8  -1  112.82   67.24
  -1   8   1   68.62   51.64
  -1   8   1   10.34   51.63
  -1   8   1  198.16   60.52
   1  -8  -2  657.13  128.64
  -1   8   2  565.06   95.28
  -1   8   2  434.60   98.46
  -1   8   2  726.91  114.35
  -1   8   3 1859.65  199.88
  -1   8   3 1375.88  191.29
  -1   8   4   79.62   38.91
   1  -8  -4  -45.81   38.84
  -1   8   4   48.83   38.93
   1  -8  -5  670.27  113.01
  -1   8   5  678.19  156.29
  -1   8   5  752.15  113.56
  -1   9   0  -13.72   53.23
   1  -9   0   58.92   66.81
  -1   9   0    4.72   54.33
   1  -9  -1  928.14  140.55
  -1   9   1  791.59   94.11
  -1   9   1  852.08  161.20
  -1   9   1  929.56  128.13
   0  -9   1   30.01   63.38
   0   9  -1  -20.35   53.15
   0  -8   1  807.98  112.03
   0   8  -1  776.78  127.52
   0   8  -1  478.89   82.84
   0   8  -1  693.10   87.45
   0  -8   2 1497.58  183.91
   0   8  -2 1088.43  169.03
   0   8  -2 1112.01  126.38
   0   8  -2 1289.65  155.56
   0  -8   3 2842.19  303.81
   0   8  -3 2836.20  266.98
   0   8  -3 2342.42  199.17
   0   8  -3 2708.04  280.67
   0   8  -4  443.69  128.66
   0  -8   4  678.63  140.56
   0   8  -4  726.46  111.25
   0   7  -1  944.14  107.79
   0  -7   1 1168.35  151.60
   0   7  -1  918.35  105.98
   0   7  -1 1096.87  139.42
   0  -7   2  105.51   59.15
   0   7  -2   47.08   58.88
   0   7  -2   99.13   44.02
   0   7  -2  101.67   61.18
   0  -7   3 1032.80  179.31
   0   7  -3 1127.20  131.27
   0   7  -3 1333.38  123.96
   0  -7   4 1083.58  190.30
   0   7  -4  996.32  120.45
   0   7  -4 1175.57  136.48
   0  -7   5 1376.20  171.98
   0   7  -5 1107.72  126.89
   0   7  -5 1354.60  170.81
   0   6  -1  130.09   47.70
   0  -6   1  123.85   54.84
   0  -6   1  140.05   35.38
   0   6  -1   91.31   46.97
   0   6  -1  177.36   52.40
   0  -6   2 9634.01  543.61
   0  -6   2 9214.75  439.30
   0   6  -2 8849.49  559.72
   0   6  -2 9349.32  537.13
   0   6  -2 8771.89  492.44
   0  -6   3  187.94   58.46
   0  -6   3  169.25   33.18
   0   6  -3  239.78   55.00
   0   6  -3  184.51   67.97
   0  -6   4 1612.48  167.59
   0   6  -4 1650.42  153.49
   0  -6   5  210.26   51.66
   0  -6   5  192.13   89.06
   0   6  -5  199.91   83.09
   0   6  -5  242.93   72.17
   0  -6   6 1981.05  175.99
   0  -6   6 2639.43  268.33
   0   6  -6 2721.23  284.90
   0  -6   7   -6.80   48.06
   0   5  -1 6650.25  405.37
   0  -5   1 7138.82  425.00
   0  -5   1 6990.75  327.23
   0  -5   1 6201.47  380.65
   0   5  -1 7166.40  387.64
   0  -5   2 1574.64  124.41
   0  -5   2 1474.42  130.76
   0   5  -2 1665.23  165.84
   0   5  -2 1433.90  111.66
   0   5  -2 1466.01  180.81
   0  -5   2 1589.92  122.33
   0  -5   310071.70  522.15
   0  -5   3 9827.15  561.85
   0  -5   310458.15  472.90
   0   5  -3 9743.58  597.70
   0   5  -3 9521.34  593.58
   0  -5   4  113.85   51.07
   0   5  -4  206.97   36.92
   0  -5   5 3245.63  285.99
   0  -5   5 3467.27  266.43
   0   5  -5 3108.60  210.22
   0  -5   6  140.94   51.83
   0  -5   6  174.11   70.57
   0   5  -6   48.55   53.63
   0   5  -6  231.55   64.82
   0  -5   7 3453.61  313.00
   0  -5   7 3554.82  346.02
   0  -4   131927.06 1527.17
   0  -4   134641.33 1509.53
   0  -4   133134.66 1235.58
   0   4  -137217.09 1558.51
   0   4  -134423.50 1461.19
   0   4  -132674.30 1364.72
   0   4  -133289.50 1404.75
   0  -4   2 1927.33  142.37
   0  -4   2 2026.54  163.92
   0  -4   2 2085.66  146.87
   0  -4   2 1823.42  113.77
   0   4  -2 2090.12  181.87
   0   4  -2 2022.26  199.51
   0  -4   3 6227.95  412.38
   0  -4   3 6242.74  406.43
   0   4  -3 6353.77  355.12
   0   4  -3 6659.28  386.55
   0  -4   4   50.30   34.14
   0  -4   4    4.16   41.97
   0   4  -4   60.65   44.70
   0   4  -4   92.09   35.51
   0  -4   5 1564.21  132.99
   0  -4   5 1467.36  161.70
   0   4  -5 1458.74  179.84
   0   4  -5 1493.66  154.79
   0   4  -5 1431.24  150.52
   0  -4   6 2447.48  204.56
   0  -4   6 2483.21  285.90
   0   4  -6 2466.69  216.29
   0  -4   7  161.72   61.20
   0  -4   7  158.84   82.28
   0   4  -7  242.69   54.09
   0  -4   8 1491.14  161.41
   0  -4   8 1495.46  207.82
   0   4  -8 1591.36  208.94
   0  -3   1  142.47   36.26
   0  -3   1   93.97   38.91
   0  -3   1  112.77   30.49
   0  -3   1  143.51   24.65
   0  -3   1   98.01   29.80
   0   3  -1  107.05   45.14
   0   3  -1  149.84   32.27
   0   3  -1  120.96   28.54
   0   3  -1  155.82   33.20
   0   3  -1   80.99   36.78
   0  -3   226199.07 1016.46
   0  -3   225955.61 1130.36
   0   3  -226991.63 1280.40
   0   3  -225197.20 1221.54
   0   3  -226434.30  979.01
   0   3  -225920.19 1225.29
   0  -3   3   21.94   25.66
   0  -3   3   11.49   26.97
   0   3  -3    7.79   36.06
   0   3  -3    0.82   21.01
   0   3  -3   18.06   45.11
   0  -3   4 8235.63  401.67
   0  -3   4 7706.94  507.43
   0   3  -4 8101.24  507.50
   0   3  -4 7808.75  425.48
   0   3  -4 8044.10  497.53
   0  -3   5 4616.44  263.59
   0  -3   5 4709.11  444.43
   0  -3   6  989.72  113.29
   0  -3   6 1046.17  130.50
   0   3  -6 1074.74  145.96
   0  -3   7  383.91   83.60
   0  -3   7  325.81   98.07
   0   3  -7  335.48   72.55
   0   3  -7  485.18   90.73
   0  -3   8   42.72   48.26
   0  -3   8   27.55   60.64
   0   3  -8  -66.94   49.96
   0   3  -8   69.03   39.19
   0  -3   9  379.54   78.26
   0  -3   9  487.53   95.63
   0   3  -9  151.14   78.88
   0   2  -125281.00  909.24
   0  -2   126262.83 1038.92
   0  -2   124776.20  982.06
   0  -2   124953.25 1019.64
   0  -2   125677.44  888.26
   0   2  -126003.58 1045.01
   0   2  -126712.74 1083.16
   0  -2   2  753.43   67.35
   0  -2   2  787.81   65.03
   0  -2   2  791.67   74.08
   0  -2   2  782.84   42.78
   0   2  -2  742.60   73.69
   0   2  -2  736.75   57.77
   0   2  -2  797.28   45.14
   0   2  -2  890.36   71.33
   0   2  -2  727.78   80.43
   0  -2   3 2344.24  186.81
   0  -2   3 2388.53  167.72
   0   2  -3 2155.00  171.14
   0   2  -3 2204.28  164.62
   0  -2   4  541.97   76.23
   0  -2   4  622.88   81.21
   0   2  -4  451.94   72.97
   0   2  -4  524.40   49.81
   0  -2   5 8622.82  557.53
   0  -2   5 8377.24  469.06
   0   2  -5 8493.77  682.21
   0  -2   6   66.42   34.53
   0  -2   6  132.23   53.76
   0   2  -6   59.45   40.57
   0  -2   7  895.00  106.28
   0  -2   7  987.65  119.73
   0   2  -7 1148.08  144.13
   0   2  -7 1064.46  140.07
   0  -2   8  166.66   58.37
   0  -2   8   42.08   42.99
   0   2  -8  101.79   49.22
   0   2  -8   87.12   54.36
   0  -2   9  -23.87   55.36
   0   2  -9   10.35   55.36
   0  -2   9    4.91   55.43
   0  -1   112800.36  525.72
   0  -1   112717.44  467.27
   0  -1   112188.08  422.74
   0  -1   112084.96  500.29
   0   1  -112416.31  516.23
   0   1  -112590.99  546.69
   0   1  -112354.75  567.71
   0  -1   213742.81  603.28
   0  -1   213091.41  561.05
   0  -1   213336.78  630.84
   0  -1   213717.83  631.48
   0  -1   212487.96  537.83
   0   1  -214546.28  646.88
   0   1  -213104.66  735.80
   0   1  -213501.03  620.88
   0   1  -213842.19  589.76
   0   1  -3 1073.41  127.75
   0   1  -3 1198.72  107.07
   0  -1   3 1341.02  149.48
   0   1  -3 1344.65  102.56
   0  -1   3 1280.52   88.17
   0   1  -3 1229.73   80.08
   0   1  -3 1258.71   84.42
   0  -1   4  928.88   59.74
   0  -1   4  998.66   94.18
   0   1  -4  857.70   96.37
   0   1  -4  882.55   85.09
   0  -1   5 1519.80  153.39
   0   1  -5 1550.87  182.66
   0   1  -5 1711.36  127.53
   0  -1   6 6092.20  341.51
   0  -1   6 5762.14  346.70
   0   1  -6 5353.09  331.01
   0   1  -6 5522.78  390.74
   0  -1   7 1106.54  114.60
   0  -1   7 1193.18  101.02
   0   1  -7  955.78  127.84
   0   1  -7 1087.29  148.23
   0  -1   8 1722.79  182.34
   0  -1   8 1862.10  190.39
   0  -1   9   52.47   53.01
   0  -1   9   18.54   45.43
   0   1  -9    5.36   45.31
   0   1  -9   64.78   54.88
   0   0   1 1511.40  101.72
   0   0   1 1401.99   75.24
   0   0   1 1469.68   85.18
   0   0   1 1450.99   96.65
   0   0  -1 1503.07  103.93
   0   0  -1 1491.52   95.77
   0   0  -1 1515.09   90.85
   0   0   227775.95  978.19
   0   0   225923.46  997.45
   0   0   226500.56  998.37
   0   0   227985.79 1102.70
   0   0  -226945.91 1071.33
   0   0  -227036.15  971.23
   0   0  -227168.99 1054.39
   0   0   3 7068.70  427.66
   0   0   3 7005.62  425.14
   0   0   3 6892.77  470.42
   0   0  -3 6728.10  398.33
   0   0  -3 7008.09  268.87
   0   0  -3 7201.17  376.28
   0   0  -3 7113.92  324.52
   0   0  -3 7044.50  339.65
   0   0   4 6293.42  272.76
   0   0   4 6428.23  380.00
   0   0   4 6768.06  394.08
   0   0  -4 6865.98  376.07
   0   0  -4 6494.38  365.60
   0   0  -4 6893.87  440.83
   0   0   5 2976.26  221.53
   0   0   5 2953.62  182.05
   0   0  -5 2793.80  161.38
   0   0  -5 2839.14  236.27
   0   0   6 2348.50  184.95
   0   0  -6 2545.15  186.62
   0   0  -6 2482.30  182.14
   0   0   7 1133.64  115.75
   0   0   7 1080.93   92.72
   0   0  -7  887.41  106.41
   0   0  -7  936.51  101.89
   0   0  -7  964.65  116.38
   0   0   8  145.75   63.30
   0   0  -8   89.41   67.42
   0   0   9 1026.51  122.08
   0   0  -9  987.06  153.05
   0   0   9  938.17  142.47
   0   1   0 2970.80  174.41
   0   1   0 2813.18  125.92
   0  -1   0 2890.98  145.29
   0  -1   0 2816.20  140.15
   0   1   0 2829.64  173.66
   0  -1   0 2820.18  137.85
   0  -1   0 2821.27  146.72
   0  -1   0 2974.64  167.91
   0   1   0 2813.78  157.29
   0   1   156939.18 2050.93
   0   1   157029.63 1886.84
   0   1   155337.18 1757.50
   0  -1  -157784.61 2144.23
   0  -1  -156366.71 1997.98
   0  -1  -157159.10 1812.79
   0   1   2 8069.75  345.78
   0   1   2 8225.21  418.19
   0   1   2 8525.91  299.17
   0   1   2 8222.55  408.38
   0  -1  -2 8133.87  360.65
   0  -1  -2 8406.04  370.98
   0  -1  -2 8365.33  390.64
   0  -1  -2 8618.72  440.73
   0   1   3 8722.31  463.84
   0  -1  -3 9419.82  427.07
   0   1   3 9605.55  448.67
   0   1   3 9290.14  413.86
   0   1   3 9134.84  458.33
   0  -1  -3 8859.06  299.11
   0   1   3 8972.35  425.23
   0  -1  -3 8863.25  455.47
   0  -1  -3 8752.90  397.01
   0   1   412484.25  610.60
   0   1   412211.93  587.92
   0   1   412023.79  514.35
   0  -1  -411908.47  494.18
   0  -1  -411921.56  589.32
   0   1   5 4447.13  296.24
   0   1   5 4393.14  301.07
   0  -1  -5 4334.53  292.90
   0  -1  -5 4047.09  237.94
   0  -1  -5 4306.97  320.97
   0  -1  -5 4461.81  267.57
   0  -1  -6 1780.42  134.69
   0  -1  -6 2008.99  144.76
   0   1   6 1721.48  148.35
   0   1   6 1861.74  150.72
   0   1   7 1623.43  138.56
   0   1   7 1661.61  164.79
   0  -1  -7 1481.09  139.03
   0  -1  -7 1557.01  163.23
   0   1   8   18.50   43.72
   0  -1  -8   67.64   64.18
   0  -1  -9 2842.69  254.03
   0   1   9 3023.36  301.44
   0   1   9 2587.91  240.00
   0  -1  -9 3378.80  350.77
   0   2   0 5816.03  270.12
   0   2   0 5665.48  306.66
   0   2   0 5399.39  300.32
   0   2   0 5186.58  184.10
   0  -2   0 5472.21  308.28
   0  -2   0 5226.26  244.29
   0  -2   0 5173.05  276.27
   0  -2   0 5286.04  340.96
   0  -2   0 5739.88  320.12
   0   2   0 5440.16  269.83
   0   2   1 1740.13  108.33
   0   2   1 1530.64  110.76
   0   2   1 1757.28  126.73
   0   2   1 1629.10  127.34
   0   2   1 1547.27  166.52
   0  -2  -1 1669.55  119.38
   0  -2  -1 1879.71  121.26
   0  -2  -1 1701.70  146.37
   0  -2  -1 1651.47  128.00
   0  -2  -1 1743.15  123.98
   0   2   2 3221.34  175.41
   0   2   2 3342.07  187.62
   0   2   2 3190.04  217.69
   0  -2  -2 3109.87  175.75
   0  -2  -2 3155.13  201.86
   0  -2  -2 3328.48  196.02
   0  -2  -2 3409.58  185.72
   0   2   3 5777.35  338.11
   0  -2  -3 5773.85  277.28
   0   2   3 5837.45  285.19
   0   2   3 5744.40  406.47
   0   2   3 5808.46  274.26
   0   2   3 5823.28  190.01
   0  -2  -3 5572.41  195.86
   0   2   4 2310.78  212.11
   0  -2  -4 2290.50  148.73
   0  -2  -4 2204.19  137.42
   0  -2  -4 2338.08  163.68
   0   2   5   36.52   48.30
   0   2   5   71.64   29.46
   0  -2  -5   73.75   43.60
   0   2   6  536.16   96.91
   0   2   6  710.69   64.74
   0  -2  -6  724.85   97.70
   0   2   7  496.65   88.30
   0   2   7  593.69   74.21
   0  -2  -7  585.86   66.47
   0  -2  -7  604.35  129.53
   0   2   8 1818.00  203.51
   0   2   8 1495.87  152.61
   0  -2  -8 1425.06  127.91
   0  -2  -8 1513.36  168.24
   0   2   9  462.54  118.32
   0  -2  -9  638.06  117.89
   0  -3   011326.42  598.92
   0  -3   011341.43  466.07
   0  -3   011171.90  447.32
   0   3   011571.47  562.57
   0  -3   011317.54  495.77
   0   3   010918.63  581.16
   0   3   011130.83  435.34
   0   3   011579.41  436.87
   0   3   011413.42  424.27
   0   3   011343.36  618.09
   0   3   1 3396.97  145.38
   0   3   1 3548.53  195.75
   0   3   1 3578.28  196.48
   0   3   1 3414.57  139.38
   0   3   1 3534.68  222.97
   0  -3  -1 3405.04  228.44
   0  -3  -1 3429.29  226.64
   0  -3  -1 3371.40  223.16
   0  -3  -1 3531.56  178.32
   0  -3  -1 3349.81  246.01
   0   3   2 6549.42  335.47
   0   3   2 6324.96  386.92
   0   3   2 6464.66  384.62
   0   3   2 6269.82  437.48
   0  -3  -2 6551.95  309.01
   0  -3  -2 6398.15  318.70
   0  -3  -2 6858.75  359.33
   0  -3  -2 6490.88  398.13
   0   3   3  326.25   38.64
   0   3   3  252.71   51.26
   0   3   3  348.19   51.39
   0   3   3  355.99   64.07
   0  -3  -3  365.51   44.32
   0  -3  -3  396.81   55.75
   0   3   4 3898.28  216.19
   0   3   4 3961.32  262.17
   0   3   4 3983.41  253.40
   0  -3  -4 3779.37  210.84
   0  -3  -4 3864.66  225.97
   0  -3  -4 4183.15  301.30
   0   3   5 1473.13  141.57
   0   3   5 1541.10  170.30
   0  -3  -5 1587.95  110.16
   0  -3  -5 1235.52  103.67
   0  -3  -5 1380.86  102.16
   0   3   6  786.49  112.68
   0   3   6  681.46   82.27
   0   3   6  956.93  107.93
   0   3   7  859.40  123.58
   0   3   7  758.19   85.27
   0  -3  -7  799.07   91.24
   0  -3  -7  888.74  113.46
   0   3   8  -50.18   49.55
   0   3   8  -19.82   49.72
   0   3   9 2569.74  291.06
   0  -3  -9 2688.56  317.70
   0  -3  -9 2997.73  296.60
   0   4   0 1169.06  128.01
   0   4   0  862.99  122.58
   0   4   0 1110.96   96.35
   0  -4   0 1058.77  113.09
   0   4   0  942.76   92.66
   0   4   1 1805.05  155.02
   0   4   1 1999.10  169.01
   0   4   1 1687.24  188.21
   0   4   1 1853.67  166.91
   0  -4  -1 1899.95  137.19
   0   4   2  219.33   40.95
   0   4   2  247.42   50.14
   0   4   2  177.94   56.43
   0  -4  -2  247.57   40.97
   0  -4  -2  133.76   47.86
   0  -4  -2  188.63   40.74
   0   4   3 9007.25  389.61
   0   4   3 9095.09  473.09
   0   4   3 9751.93  581.75
   0  -4  -3 9212.42  481.11
   0  -4  -3 8996.51  435.61
   0   4   4 2530.34  182.20
   0   4   4 2936.43  214.46
   0   4   4 2807.92  205.47
   0  -4  -4 2344.76  155.30
   0  -4  -4 2792.69  190.76
   0  -4  -4 2620.19  222.15
   0   4   5 6024.11  314.46
   0   4   5 6178.81  445.21
   0   4   5 5727.87  362.45
   0  -4  -5 5933.94  401.29
   0   4   6  166.33   56.11
   0  -4  -6   79.01   34.70
   0  -4  -6   83.10   54.19
   0   4   7  955.03  135.66
   0   4   7  970.34  112.32
   0   4   7 1001.09  123.90
   0   4   8  658.65  128.25
   0  -4  -8  667.82  114.73
   0   4   9  513.16   90.21
   0  -4  -9  410.52  104.23
   0  -4  -9  424.27  117.11
   0   5   0 2591.48  202.57
   0  -5   0 2566.02  234.06
   0  -5   0 2270.79  148.61
   0  -5   0 2181.85  128.65
   0   5   0 2262.93  201.35
   0   5   0 2470.68  202.57
   0   5   1 4955.66  351.82
   0   5   1 5202.98  286.37
   0   5   1 5344.60  370.99
   0  -5  -1 5125.19  366.49
   0  -5  -1 4920.90  260.77
   0   5   2   79.65   33.93
   0   5   2   69.44   39.34
   0   5   2   48.48   47.48
   0  -5  -2    5.99   38.18
   0  -5  -2   50.68   42.84
   0   5   3 1499.33  126.57
   0   5   3 1444.78  131.27
   0   5   3 1639.60  159.92
   0  -5  -3 1399.64  119.04
   0   5   4 2810.25  213.84
   0   5   4 2440.20  237.16
   0   5   4 2768.30  194.19
   0  -5  -4 2879.29  207.87
   0  -5  -4 2585.27  212.59
   0   5   5 2019.27  150.34
   0   5   5 1804.43  175.36
   0   5   5 2001.17  194.32
   0  -5  -5 2027.77  169.90
   0  -5  -5 1889.69  208.43
   0   5   6 4197.61  339.86
   0   5   6 4171.68  271.22
   0  -5  -6 4391.52  318.12
   0   5   7   36.03   73.59
   0   5   7   13.91   33.37
   0   5   8 4386.38  297.94
   0  -5  -8 3842.71  394.60
   0   6   0 4410.85  290.05
   0  -6   0 4269.39  281.45
   0   6   0 4628.12  291.70
   0   6   0 4390.87  290.61
   0   6   1 1046.82  109.23
   0   6   1 1352.40  114.04
   0   6   1 1003.93   98.99
   0  -6  -1 1125.93  124.52
   0   6   2 3949.22  295.75
   0   6   2 3943.42  334.89
   0   6   2 3745.12  237.89
   0  -6  -2 3678.35  246.76
   0  -6  -2 4252.43  250.50
   0   6   3  232.03   74.20
   0   6   3  220.36   61.91
   0  -6  -3  176.10   52.78
   0  -6  -3  182.57   50.05
   0   6   4  104.44   56.31
   0   6   4  247.72   70.14
   0  -6  -4  205.95   55.15
   0   6   5  193.74   61.53
   0   6   5   46.86   53.95
   0  -6  -5   99.42   44.66
   0   6   6  156.10   64.51
   0   6   6   12.46   52.29
   0  -6  -6   -4.37   33.39
   0  -6  -6   27.47   62.40
   0   6   7 1286.86  183.73
   0   6   7 1307.38  180.80
   0  -6  -7  950.22  120.71
   0  -7   0  378.81   82.40
   0   7   0  299.37   70.47
   0   7   0  573.20   76.50
   0   7   0  318.33   74.43
   0   7   1 3270.06  233.28
   0   7   1 3055.06  213.59
   0  -7  -1 3314.05  234.18
   0  -7  -1 3226.41  189.30
   0   7   1 3056.60  240.31
   0   7   2  189.42   65.86
   0   7   2  170.27   70.23
   0   7   2  194.86   62.26
   0  -7  -2   80.58   48.08
   0   7   3 2135.69  225.43
   0   7   3 2104.93  199.84
   0  -7  -3 2086.29  204.02
   0   7   4  393.46   67.82
   0   7   4  535.52   91.73
   0   7   4  523.04   91.90
   0  -7  -4  383.53   84.64
   0  -7  -4  494.10   89.97
   0   7   5   49.88   67.06
   0   7   5   61.57   66.58
   0  -7  -5   24.09   56.54
   0   7   6  301.94   95.78
   0   7   6  320.76   76.15
   0  -7  -6  511.07   90.09
   0  -8   0   77.35   64.26
   0   8   0   12.25   48.45
   0   8   0   19.77   46.07
   0   8   0  -51.69   58.87
   0   8   1   14.25   45.19
   0   8   1   -0.36   45.13
   0   8   1  -41.48   45.20
   0   8   2 2367.62  245.11
   0   8   2 2593.78  263.98
   0   8   2 2757.59  233.88
   0  -8  -2 2733.24  270.26
   0  -8  -2 2421.94  183.50
   0   8   3  459.91   90.44
   0   8   3  353.91   81.45
   0  -8  -3  367.74   93.73
   0  -8  -3  280.00   68.24
   0   8   4 2127.24  235.63
   0   8   4 2129.05  235.36
   0  -8  -4 1913.60  185.95
   0   8   5   64.04   59.87
   0   8   5   35.34   53.87
   0  -8  -5   -8.99   38.40
   0  -9   0 1781.27  250.58
   0   9   0 1915.52  194.62
   0   9   0 1784.28  204.56
   0   9   0 1852.32  212.92
   0   9   1    1.45   44.14
   0   9   1    8.26   50.99
   0  -9  -1   14.34   65.63
   0   9   2  446.73   84.13
   0   9   2  375.93  102.54
   0   9   2  577.36  120.76
   0  -9  -2  459.20   95.12
   0   9   3  559.91  120.94
   0   9   3  809.45  142.59
   1  -8   1  156.29   72.29
  -1   8  -1  160.55   69.37
  -1   8  -1  105.52   65.86
  -1   8  -1  210.79   76.75
  -1   8  -2 1560.22  175.32
  -1   8  -2 1384.79  185.19
   1  -8   3  -30.88   53.70
  -1   8  -3  -40.36   53.91
  -1   8  -3   22.12   53.99
  -1   8  -3  -33.62   53.89
   1  -7   1  917.34  129.92
  -1   7  -1  871.40  125.00
  -1   7  -1  984.89  125.06
  -1   7  -1  743.46  116.57
   1  -7   2  123.12   65.51
  -1   7  -2   99.20   50.83
  -1   7  -2   86.32   48.79
   1  -7   3 4499.51  359.76
  -1   7  -3 4292.79  384.03
  -1   7  -3 4244.56  366.54
   1  -7   4   37.44   58.51
  -1   7  -4   29.33   48.66
  -1   7  -4  -10.45   41.54
  -1   7  -4   58.79   54.80
   1  -7   5 1377.18  207.26
  -1   7  -5 1290.03  160.93
   1  -6   1  814.95  103.49
  -1   6  -1  766.93   96.71
  -1   6  -1  807.55  108.85
  -1   6  -1  827.07   97.34
   1  -6   2 2205.16  177.66
  -1   6  -2 2296.13  235.03
  -1   6  -2 2202.34  230.34
   1  -6   3  648.28   91.86
  -1   6  -3  871.73  110.29
  -1   6  -3  931.69  122.64
  -1   6  -3  887.94  131.12
   1  -6   4 5429.99  400.60
   1  -6   4 5228.58  419.70
  -1   6  -4 5529.69  365.07
   1  -6   5 1417.23  156.29
   1  -6   5 1583.02  176.33
  -1   6  -5 1544.51  205.54
  -1   6  -5 1144.66  151.46
   1  -6   6  715.96  127.42
   1  -6   6  880.29  148.24
   1  -5   1 1575.87  147.86
   1  -5   1 1627.40   81.40
  -1   5  -1 1673.31  129.44
  -1   5  -1 1673.64  129.55
  -1   5  -1 1595.91  127.35
   1  -5   210839.83  559.73
  -1   5  -210796.57  687.87
  -1   5  -210497.40  615.37
  -1   5  -210817.29  580.81
   1  -5   3  444.55   66.73
   1  -5   3  454.96   73.10
  -1   5  -3  515.84   72.58
   1  -5   4 2837.83  244.30
   1  -5   4 3105.14  233.12
   1  -5   4 2898.26  169.77
  -1   5  -4 2819.92  260.30
   1  -5   5  336.81   67.03
   1  -5   5  444.13   88.43
   1  -5   6 7896.46  520.02
   1  -5   6 8341.38  588.78
   1  -5   7   40.43   45.15
   1  -5   7  -10.34   48.08
   1  -4   1 4423.39  230.72
  -1   4  -1 4358.32  284.46
  -1   4  -1 4381.87  284.35
   1  -4   2  125.28   42.67
   1  -4   2   94.49   41.48
  -1   4  -2   56.32   46.17
  -1   4  -2   83.88   36.32
   1  -4   3 8024.45  534.59
   1  -4   3 7513.70  423.15
  -1   4  -3 8151.42  564.37
   1  -4   4  313.62   54.71
   1  -4   4  448.37  104.53
  -1   4  -4  305.42   46.27
   1  -4   5 3784.35  263.15
   1  -4   5 3630.73  245.09
  -1   4  -5 3715.77  237.75
   1  -4   6  548.98   80.20
   1  -4   6  662.92   82.02
  -1   4  -6  529.95   63.27
   1  -4   7 5270.97  458.08
   1  -4   7 4897.00  371.94
  -1   4  -7 5479.86  367.82
   1  -4   8   44.27   49.89
   1  -4   8   19.54   48.18
  -1   4  -8  -14.61   61.88
   1  -3   110479.66  571.12
   1  -3   110009.80  533.17
   1  -3   1 9834.68  609.26
  -1   3  -110033.62  505.98
  -1   3  -1 9894.80  492.90
   1  -3   2 6313.75  301.62
   1  -3   2 6529.44  324.32
  -1   3  -2 6664.85  367.19
  -1   3  -2 6487.91  255.79
  -1   3  -2 6525.99  418.01
   1  -3   3   34.18   37.35
   1  -3   3   58.43   37.14
   1  -3   3   13.22   19.23
  -1   3  -3  -23.01   19.55
   1  -3   4  878.49   96.96
   1  -3   4  774.08   91.50
  -1   3  -4  944.27   89.61
  -1   3  -4  776.05   68.63
   1  -3   5  967.90  106.62
   1  -3   5 1071.01  114.84
   1  -3   6 4773.16  310.57
   1  -3   6 4716.35  341.61
  -1   3  -6 4832.08  328.98
   1  -3   7   50.61   57.68
   1  -3   7   96.67   39.07
  -1   3  -7   46.42   52.59
   1  -3   8 1016.38  146.24
   1  -3   8  964.78  111.88
  -1   3  -8 1379.28  159.06
   1  -2   122416.53  883.93
   1  -2   123009.00 1056.81
   1  -2   124278.41  958.64
  -1   2  -123310.42 1057.47
  -1   2  -123401.35 1079.69
  -1   2  -123109.90  929.97
  -1   2  -122958.83  908.53
   1  -2   228694.42 1496.94
   1  -2   229340.79 1189.76
   1  -2   228952.42 1093.16
  -1   2  -227994.54 1409.99
  -1   2  -229417.43 1320.96
  -1   2  -228869.60 1231.28
   1  -2   3 4788.53  250.68
   1  -2   3 4787.35  320.17
   1  -2   3 4511.67  275.98
  -1   2  -3 4508.20  206.11
   1  -2   411858.82  677.83
   1  -2   412445.37  695.30
   1  -2   411480.91  661.17
  -1   2  -411816.98  561.33
   1  -2   5  268.63   61.40
   1  -2   5  240.71   48.48
  -1   2  -5  450.81   75.76
   1  -2   6 1516.05  139.59
   1  -2   6 1511.85  189.75
  -1   2  -6 1600.94  130.50
  -1   2  -6 1547.17  160.01
   1  -2   7 2789.49  237.04
   1  -2   7 2614.02  142.32
  -1   2  -7 2499.36  223.24
  -1   2  -7 2429.30  226.67
   1  -2   8   -3.99   50.69
   1  -2   8  -21.39   50.89
   1  -2   9  505.09  113.23
  -1   2  -9  775.27  131.14
  -1   2  -9  525.33   92.91
   1  -1   162282.36 2284.44
   1  -1   163602.43 2267.95
   1  -1   162816.75 2089.75
   1  -1   163001.10 2322.17
  -1   1  -164692.08 2381.86
  -1   1  -163883.73 2061.97
  -1   1  -162548.32 2303.42
  -1   1  -160833.95 2172.59
   1  -1   2 7639.36  370.19
   1  -1   2 7946.26  360.21
   1  -1   2 7568.89  347.19
  -1   1  -2 7763.51  435.77
  -1   1  -2 7687.67  347.47
  -1   1  -2 7351.74  412.44
   1  -1   317953.40  787.08
   1  -1   317847.53  785.14
   1  -1   319132.15  758.80
   1  -1   318269.10  708.91
   1  -1   318515.18  796.01
  -1   1  -317896.65  971.29
  -1   1  -316853.59  597.09
  -1   1  -317700.94  795.06
   1  -1   4  784.51   81.12
  -1   1  -4  519.06   67.74
  -1   1  -4  666.68   76.71
   1  -1   528819.79 1268.68
   1  -1   528786.46 1139.81
  -1   1  -527340.19 1090.58
  -1   1  -527445.10 1124.62
   1  -1   6  598.84   79.24
   1  -1   6  428.38   61.10
  -1   1  -6  576.28   81.74
  -1   1  -6  431.17   82.21
   1  -1   7 2547.03  233.38
   1  -1   7 2718.09  201.45
  -1   1  -7 2831.50  212.11
  -1   1  -7 2668.46  225.44
   1  -1   8  -54.29   42.76
   1  -1   8   22.67   42.89
  -1   1  -8  -21.87   42.73
   1  -1   9  239.50   88.67
  -1   1  -9  389.69   76.34
  -1   1  -9  403.91   82.92
   1   0   0 1087.24   81.43
   1   0   0 1045.34   57.82
   1   0   0  991.50   79.68
   1   0   0 1101.68   67.87
  -1   0   0 1173.71   89.54
  -1   0   0 1040.14   62.77
  -1   0   0 1125.56   50.24
   1   0   1 7165.42  361.27
   1   0   1 7304.59  266.15
   1   0   1 6979.62  317.99
  -1   0  -1 7510.44  348.58
  -1   0  -1 6982.14  335.69
  -1   0  -1 7070.54  296.98
  -1   0  -1 6840.70  266.16
  -1   0  -1 6876.99  325.05
   1   0   213080.12  581.80
   1   0   213544.54  577.88
   1   0   212938.79  495.87
  -1   0  -213890.00  606.09
  -1   0  -214925.79  645.48
  -1   0  -213675.16  467.07
  -1   0  -213084.13  512.36
  -1   0  -212543.67  571.29
  -1   0  -213822.83  607.16
   1   0   3 6864.31  380.86
   1   0   3 6356.10  319.61
  -1   0  -3 6598.76  315.63
  -1   0  -3 6452.85  425.86
  -1   0  -3 6581.07  344.52
  -1   0  -3 6384.69  350.13
   1   0   4 4869.94  275.35
   1   0   4 5059.34  285.51
  -1   0  -4 4611.60  294.28
  -1   0  -4 4474.19  305.91
  -1   0  -4 4503.02  261.66
  -1   0  -4 4977.65  284.25
   1   0   5 6091.52  425.35
  -1   0  -5 5545.44  297.73
  -1   0  -5 5762.00  352.02
   1   0   6 8304.09  474.57
   1   0   6 8479.17  509.61
  -1   0  -6 9183.98  529.06
   1   0   7  147.64   60.88
  -1   0  -7  100.99   49.18
  -1   0  -7  180.03   53.72
  -1   0  -7  140.30   68.61
   1   0   8 1192.35  143.88
   1   0   8 1281.11  119.77
  -1   0  -8 1236.49  184.15
   1   0   9  493.08  114.75
  -1   0  -9  661.18  119.96
  -1  -1   093828.75 3170.66
  -1  -1   099999.00 3210.60
   1   1   1  163.75   39.88
   1   1   1  285.23   20.25
   1   1   1  249.83   42.78
   1   1   1  269.83   42.21
  -1  -1  -1  240.56   24.18
  -1  -1  -1  220.00   37.48
  -1  -1  -1  271.39   32.47
  -1  -1  -1  251.92   34.48
   1   1   2 3506.97  229.37
   1   1   2 3340.71  205.83
   1   1   2 3404.22  145.71
   1   1   2 3355.18  140.60
   1   1   2 3324.33  161.90
  -1  -1  -2 3445.86  204.01
  -1  -1  -2 3471.90  252.25
  -1  -1  -2 3424.47  117.27
   1   1   3 3135.42  225.56
   1   1   3 3447.28  213.13
   1   1   3 3198.88  165.61
   1   1   3 3079.98  172.83
   1   1   3 3019.12  241.23
  -1  -1  -3 3214.26  239.78
  -1  -1  -3 3051.78  192.53
   1   1   410610.91  509.21
   1   1   410887.14  462.71
   1   1   411006.78  455.46
  -1  -1  -410482.66  528.73
  -1  -1  -410547.20  530.09
  -1  -1  -410632.13  668.65
  -1  -1  -410855.11  582.16
   1   1   5 2008.20  151.88
   1   1   5 1610.00  105.89
  -1  -1  -5 1827.50  153.03
  -1  -1  -5 2073.15  187.16
   1   1   6 1899.89  194.43
   1   1   6 1860.08  154.75
   1   1   6 1872.98  134.18
  -1  -1  -6 1966.67  184.50
   1   1   7  -23.24   50.29
  -1  -1  -7   14.52   50.27
  -1  -1  -7  -29.67   50.43
   1   1   8   78.36   45.67
  -1  -1  -8   55.16   36.93
  -1  -1  -8   62.55   54.81
   1   1   9  407.55   89.39
  -1  -1  -9  427.28   90.31
   1   2   029173.39 1071.30
   1   2   029107.83 1144.69
   1   2   028466.23 1125.25
   1   2   030630.74 1308.07
  -1  -2   030144.19 1111.15
  -1  -2   028472.65 1086.37
  -1  -2   028974.64 1101.61
  -1  -2   028431.34 1140.07
   1   2   152332.66 1815.68
   1   2   153300.87 1949.78
   1   2   152886.38 1855.77
   1   2   148710.27 1710.60
  -1  -2  -152348.89 1836.87
  -1  -2  -153821.05 1851.27
  -1  -2  -152949.33 1872.54
   1   2   2   27.53   38.47
   1   2   2   50.41   28.75
   1   2   2   16.24   16.69
   1   2   2  -16.80   24.61
  -1  -2  -2  -11.65   21.84
  -1  -2  -2   22.40   20.04
  -1  -2  -2    9.26   17.70
  -1  -2  -2  -14.51   27.12
  -1  -2  -2  -11.88   19.40
   1   2   312941.09  532.40
   1   2   312553.35  690.60
   1   2   313432.18  556.10
   1   2   313928.60  542.51
  -1  -2  -313244.64  551.13
   1   2   4 3796.79  199.07
   1   2   4 3638.73  234.56
   1   2   4 3992.60  210.02
   1   2   4 3675.94  229.57
  -1  -2  -4 3837.26  291.06
   1   2   5 3378.47  243.18
   1   2   5 3232.94  209.84
   1   2   5 3287.57  205.22
  -1  -2  -5 3490.98  227.72
   1   2   6 1550.88  157.53
   1   2   6 1584.53  109.53
   1   2   6 1227.48  106.47
  -1  -2  -6 1691.42  113.78
  -1  -2  -6 1669.14  177.02
  -1  -2  -6 1762.81  164.96
   1   2   7  899.14  127.30
   1   2   7  868.16   96.76
  -1  -2  -7  815.69   89.47
   1   2   8  -26.39   51.42
  -1  -2  -8  -37.92   51.44
   1   2   9 1005.35  122.46
  -1  -2  -9 1214.68  152.90
  -1  -3   026714.48 1004.80
   1   3   024406.13 1059.83
   1   3   025271.15  980.59
   1   3   024805.81 1025.21
   1   3   023992.13  926.92
  -1  -3   024967.92  856.75
  -1  -3   025402.18 1087.59
  -1  -3   024526.27 1020.27
  -1  -3   026047.30  979.75
   1   3   1   -1.63   18.97
   1   3   1   27.02   27.75
   1   3   1   29.46   22.91
  -1  -3  -1   13.32   25.19
   1   3   1   14.08   39.88
   1   3   1  -15.87   25.57
  -1  -3  -1   51.60   31.32
  -1  -3  -1   22.45   32.59
  -1  -3  -1   -2.73   29.59
   1   3   2 7298.10  396.73
   1   3   2 7775.31  390.52
   1   3   2 7473.40  257.41
   1   3   2 7437.93  305.31
  -1  -3  -2 7368.85  460.45
  -1  -3  -2 7573.31  347.60
  -1  -3  -2 7620.56  396.67
   1   3   3 4811.16  251.67
   1   3   3 4543.00  275.73
   1   3   3 4761.35  248.62
  -1  -3  -3 4489.75  253.37
  -1  -3  -3 4646.59  234.44
   1   3   415132.74  616.00
   1   3   414237.04  706.49
   1   3   413552.41  599.37
   1   3   414575.35  589.49
  -1  -3  -414173.52  672.25
   1   3   5  273.86   47.67
   1   3   5  193.44   54.94
   1   3   5  184.40   28.43
   1   3   5  214.35   56.97
   1   3   6 1220.55  156.55
   1   3   6 1278.17  108.07
   1   3   6 1463.88  135.90
   1   3   7  231.34   67.37
   1   3   7  265.98   49.80
  -1  -3  -7  193.61   50.49
  -1  -3  -7  206.97   70.93
   1   3   8 2621.62  256.82
  -1  -3  -8 2342.81  168.58
  -1  -3  -8 2841.67  271.43
   1   3   9  511.80  106.98
  -1  -3  -9  735.71  123.67
   1   4   011121.06  557.97
   1   4   011238.33  527.52
   1   4   010961.79  480.52
   1   4   010883.21  621.80
  -1  -4   011029.63  558.83
  -1  -4   011210.71  576.29
  -1  -4   011337.88  483.96
  -1  -4  -1 2223.46  181.09
   1   4   1 2124.18  176.71
   1   4   1 2215.18  172.04
   1   4   1 2126.05  250.96
  -1  -4  -1 2127.86  137.31
  -1  -4  -1 2356.22  201.75
   1   4   216677.99  906.87
   1   4   217224.31  762.15
  -1  -4  -217225.73  776.17
   1   4   3  106.96   45.67
   1   4   3  217.69   50.00
  -1  -4  -3  120.83   29.19
   1   4   4 9081.97  452.31
   1   4   4 9629.50  489.92
  -1  -4  -4 8973.71  452.86
  -1  -4  -4 8496.55  510.72
   1   4   5 1591.73  136.27
   1   4   5 1503.09  158.12
   1   4   5 1834.12  120.66
  -1  -4  -5 1631.11  145.67
  -1  -4  -5 1634.75  166.22
   1   4   6  161.95   46.38
   1   4   6  220.21   72.02
   1   4   6  129.41   33.86
   1   4   7  482.17  102.31
   1   4   7  332.11   53.91
   1   4   7  598.34   94.60
  -1  -4  -7  346.59   84.91
   1   4   8  102.22   62.20
  -1  -4  -8  240.88   79.69
  -1  -4  -8  186.24   78.68
   1   4   9 2099.79  228.49
  -1  -4  -9 1893.84  227.26
   1   5   0  367.35   77.74
   1   5   0  426.41   47.62
   1   5   0  542.81   73.07
  -1  -5   0  484.76   56.56
  -1  -5   0  504.73   57.92
  -1  -5  -1 2285.34  154.77
   1   5   1 1897.68  164.42
   1   5   1 2049.27  133.30
  -1  -5  -1 1969.38  152.83
   1   5   1 2159.05  202.09
   1   5   2  555.22   56.65
   1   5   2  604.43   82.33
   1   5   2  614.13   86.85
  -1  -5  -2  544.31   62.25
   1   5   311729.42  539.19
   1   5   310989.82  574.19
   1   5   311533.54  550.15
  -1  -5  -311357.02  541.22
   1   5   4   29.06   51.49
   1   5   4   45.90   54.09
  -1  -5  -4   65.33   34.71
  -1  -5  -4   89.04   50.70
   1   5   5 4274.65  306.56
   1   5   5 4319.62  304.27
  -1  -5  -5 4252.91  277.66
  -1  -5  -5 3959.31  304.66
   1   5   6  468.72   82.41
   1   5   6  689.66  128.58
   1   5   6  542.25  108.64
  -1  -5  -6  651.16   93.82
  -1  -5  -6  457.06   97.96
   1   5   7  546.54  110.08
   1   5   7  511.74  101.64
  -1  -5  -7  606.70   91.68
   1   5   8  139.75   93.11
  -1  -5  -8   96.86   70.96
   1   6   0 3676.88  271.10
   1   6   0 3430.25  218.98
   1   6   0 3284.28  237.18
  -1  -6   0 3215.68  246.71
  -1  -6   0 3541.11  223.68
   1   6   1 1918.22  198.61
   1   6   1 1856.75  162.53
   1   6   1 1739.33  147.21
  -1  -6  -1 2020.66  165.76
   1   6   2  723.62   87.96
   1   6   2  616.53   75.70
   1   6   2  646.51  100.13
  -1  -6  -2  689.58   81.16
  -1  -6  -2  568.75   79.32
   1   6   3  328.87   69.49
   1   6   3  439.61   87.44
  -1  -6  -3  301.30   56.27
  -1  -6  -3  465.65   70.00
   1   6   4 1599.54  145.15
   1   6   4 1368.83  159.70
   1   6   4 1574.00  177.69
  -1  -6  -4 1288.18  161.32
   1   6   5  758.89  127.18
  -1  -6  -5  886.41  109.64
  -1  -6  -5  927.06  122.08
   1   6   6 1664.30  150.93
   1   6   6 1686.51  182.95
   1   6   6 1551.04  187.83
  -1  -6  -6 1577.79  183.26
   1   6   7  154.23   77.71
   1   6   7   74.07   77.06
  -1  -6  -7  182.78   84.64
   1   7   0 2477.95  223.69
   1   7   0 2339.28  188.89
   1   7   0 2386.40  196.15
  -1  -7   0 2335.27  188.89
   1   7   1  197.77   70.07
   1   7   1  143.61   44.67
   1   7   1  108.23   60.84
  -1  -7  -1  236.99   67.08
   1   7   2 3431.52  344.42
   1   7   2 3332.71  236.41
   1   7   2 3939.66  275.28
  -1  -7  -2 3239.26  284.16
   1   7   3  891.04  103.96
   1   7   3  986.84  121.28
   1   7   3  952.93  124.12
  -1  -7  -3  889.92  113.40
  -1  -7  -3  886.38  109.43
   1   7   4    2.45   41.06
   1   7   4  136.29   68.42
   1   7   4   84.88   60.55
  -1  -7  -4   19.64   47.55
   1   7   5   57.78   63.87
   1   7   5  146.63   70.59
  -1  -7  -5  110.46   43.15
   1   7   6    6.08   63.19
   1   7   6  149.95   58.89
  -1  -7  -6  169.83   80.74
   1   7   7 1519.36  214.90
  -1  -7  -7 1626.72  200.17
   1   8   0  219.07   59.69
   1   8   0  182.96   52.42
   1   8   0  168.74   72.33
  -1  -8   0  239.80   68.42
   1   8   1 6874.03  493.15
   1   8   1 6308.93  419.69
   1   8   1 6848.49  471.36
  -1  -8  -1 6732.36  441.33
   1   8   2  -23.98   41.24
   1   8   2   67.65   46.62
  -1  -8  -2   61.72   51.21
  -1  -8  -2    5.00   42.71
   1   8   3 3195.17  279.94
   1   8   3 3437.46  352.51
  -1  -8  -3 3287.00  268.21
  -1  -8  -3 3488.26  289.54
   1   8   4  163.14   67.49
   1   8   4   33.20   47.25
  -1  -8  -4   58.44   52.73
  -1  -8  -4   78.81   56.45
   1   8   5  263.32   84.48
   1   8   5  234.17   94.21
  -1  -8  -5  389.41   91.46
  -1  -8  -5  278.69   99.51
   1   9   0  153.69   59.46
   1   9   0   21.43   49.86
  -1  -9   0   15.20   47.96
   1   9   1  122.45   71.22
   1   9   1  223.06   66.14
   1   9   1   82.94   51.90
  -1  -9  -1   64.70   54.61
   1   9   2 2709.65  252.45
   1   9   2 2697.81  295.61
  -1  -9  -2 2646.69  255.55
   1   9   3   26.44   45.33
   1   9   3   69.88   48.01
   1   9   3   20.03   48.66
  -1  -9  -3   24.89   47.24
   2  -8   1 1248.34  200.23
  -2   8  -1 1309.97  148.65
  -2   8  -1 1134.98  156.28
  -2   8  -1 1202.69  150.05
  -2   8  -2  356.12   94.83
  -2   8  -2  320.56  102.53
  -2   8  -2  427.27   96.58
   2  -8   3  443.56  101.94
  -2   8  -3  407.83   91.87
  -2   8  -3  455.32   98.80
  -2   8  -3  307.40   83.62
  -2   7  -1  263.58   71.79
   2  -7   1  239.59   78.84
  -2   7  -1  211.96   81.13
  -2   7  -1  328.99   90.90
   2  -7   2 3062.89  274.89
  -2   7  -2 2978.58  268.27
  -2   7  -2 3048.58  285.15
  -2   7  -2 2857.86  273.45
   2  -7   3   -0.09   46.27
  -2   7  -3   -4.82   67.86
  -2   7  -3   66.95   55.61
  -2   7  -3  -16.10   43.21
   2  -7   4 1594.38  228.95
  -2   7  -4 1787.61  225.18
  -2   7  -4 1600.62  198.83
   2  -7   5   56.28   48.85
  -2   7  -5  -22.33   53.56
  -2   7  -5   -7.63   52.23
   2  -6   1 1615.84  194.49
  -2   6  -1 1551.30  155.45
  -2   6  -1 1547.99  151.21
   2  -6   2 1745.93  140.65
  -2   6  -2 1930.70  191.30
  -2   6  -2 1972.30  191.33
  -2   6  -3 5273.72  448.33
  -2   6  -3 5065.39  309.22
   2  -6   3 5037.77  401.18
   2  -6   4  -45.23   45.14
   2  -6   4   26.58   45.18
  -2   6  -4  -58.37   45.21
   2  -6   5 2440.63  208.41
   2  -6   5 2512.01  270.30
  -2   6  -5 2310.61  230.98
   2  -6   6  216.27   69.19
   2  -6   6  185.31   73.78
  -2   6  -6  124.35   68.20
  -2   6  -6  104.01   55.36
   2  -5   1 1275.61  125.36
  -2   5  -1 1337.92  121.74
  -2   5  -1 1454.85  116.75
   2  -5   2  343.01   70.63
  -2   5  -2  420.50   72.61
  -2   5  -2  346.09   64.85
   2  -5   3  555.04   64.96
   2  -5   3  522.96   88.61
  -2   5  -3  415.82   70.43
   2  -5   4 1999.66  218.87
   2  -5   4 2406.06  200.09
  -2   5  -4 2047.56  231.21
  -2   5  -4 1948.37  244.76
   2  -5   5 1156.21  146.81
   2  -5   5 1358.30  144.23
  -2   5  -5  943.71  157.40
   2  -5   6 1091.33  134.99
   2  -5   6  823.40  142.83
   2  -5   7  312.50   77.63
   2  -5   7  255.74   83.80
   2  -4   1 5794.29  338.35
  -2   4  -1 5406.47  304.71
  -2   4  -1 5691.96  289.11
   2  -4   2 2468.60  226.88
   2  -4   2 2376.32  183.98
  -2   4  -2 2223.18  175.53
  -2   4  -2 2197.78  175.80
   2  -4   3  575.88   77.59
   2  -4   3  636.85   90.44
   2  -4   4    0.36   37.11
   2  -4   4   17.00   38.36
  -2   4  -4   60.20   57.94
   2  -4   5  664.60   90.26
   2  -4   5  687.52   95.76
  -2   4  -5  962.69  116.33
  -2   4  -5  832.12   98.27
   2  -4   6 4495.90  345.47
   2  -4   6 4392.18  310.53
  -2   4  -6 4434.98  377.93
  -2   4  -6 4258.23  322.90
   2  -4   7  283.53   87.65
   2  -4   7  375.54   63.28
   2  -4   8  218.71   80.25
  -2   4  -8  113.23   59.16
   2  -3   1 5649.13  339.96
   2  -3   1 5983.73  356.28
   2  -3   1 5850.93  311.76
  -2   3  -1 6000.36  325.48
   2  -3   2  642.04   90.80
   2  -3   2  618.06   78.61
  -2   3  -2  631.44   73.84
  -2   3  -2  708.28   62.77
   2  -3   3 4989.07  319.64
   2  -3   3 5145.55  303.14
   2  -3   3 4832.20  205.74
  -2   3  -3 5307.88  380.33
  -2   3  -3 5020.73  191.27
  -2   3  -3 4836.63  272.48
   2  -3   4  313.91   71.18
   2  -3   4  347.35   69.63
   2  -3   4  297.41   30.04
   2  -3   5 3507.12  252.65
   2  -3   5 3227.46  191.71
  -2   3  -5 3179.41  259.10
   2  -3   6  425.53   76.30
   2  -3   6  604.58   82.98
  -2   3  -6  558.62  106.01
  -2   3  -6  484.57   97.73
   2  -3   7 5472.13  401.60
   2  -3   7 6050.34  344.39
  -2   3  -7 6025.49  373.90
   2  -3   8  236.83   89.70
  -2   3  -8  159.81   87.79
   2  -2   1 8683.34  498.88
   2  -2   1 8543.44  366.62
   2  -2   1 8755.37  459.92
  -2   2  -1 8789.28  501.53
  -2   2  -1 8470.88  288.59
  -2   2  -1 8736.60  444.27
   2  -2   2 6617.69  349.02
   2  -2   2 6779.52  368.10
   2  -2   2 6679.00  242.26
  -2   2  -2 6914.67  461.80
  -2   2  -2 6722.39  495.11
  -2   2  -2 7026.27  277.89
  -2   2  -2 6780.91  394.34
   2  -2   3  241.30   62.94
   2  -2   3  249.79   40.84
   2  -2   3  240.44   32.10
  -2   2  -3  263.90   54.14
  -2   2  -3  278.74   44.15
  -2   2  -3  287.01   56.38
   2  -2   4 4065.29  334.50
   2  -2   4 3677.02  216.34
   2  -2   4 3708.06  236.84
  -2   2  -4 4343.85  270.74
  -2   2  -4 4112.24  231.47
  -2   2  -4 3754.91  248.70
   2  -2   5  807.66   99.75
   2  -2   5  888.58   86.93
  -2   2  -5  830.64   97.80
   2  -2   612991.64  704.45
   2  -2   612193.14  659.65
   2  -2   7   -9.34   48.22
   2  -2   7   19.83   48.38
  -2   2  -7  -56.43   48.19
   2  -2   8 3935.88  400.00
   2  -2   9   67.03   57.16
  -2   2  -9   42.81   57.51
   2  -1   1 4462.46  255.53
   2  -1   1 4144.45  239.92
   2  -1   1 4307.97  203.02
  -2   1  -1 4453.55  271.65
  -2   1  -1 4189.98  270.60
  -2   1  -1 4301.70  147.29
  -2   1  -1 4289.65  191.58
  -2   1  -1 4443.67  205.24
   2  -1   213227.72  579.48
   2  -1   212721.47  607.58
   2  -1   212445.56  522.31
  -2   1  -213284.94  614.02
  -2   1  -213046.07  834.05
  -2   1  -213418.70  545.05
   2  -1   3  345.53   55.99
   2  -1   3  349.21   55.31
   2  -1   3  392.94   45.72
  -2   1  -3  417.71   68.06
  -2   1  -3  354.98   39.68
  -2   1  -3  396.20   43.84
   2  -1   4 7972.40  456.97
   2  -1   4 8480.83  431.49
  -2   1  -4 8491.65  544.15
  -2   1  -4 8300.59  401.39
  -2   1  -4 8317.96  495.93
   2  -1   5  106.29   50.74
   2  -1   5  122.40   36.68
  -2   1  -5   65.74   46.91
  -2   1  -5   58.13   21.22
  -2   1  -5   89.21   41.71
  -2   1  -5   53.39   35.92
   2  -1   6 2288.19  198.72
   2  -1   6 2416.01  148.84
  -2   1  -6 2316.10  192.03
  -2   1  -6 2474.17  207.75
   2  -1   7 4560.70  327.00
   2  -1   7 4167.93  311.75
  -2   1  -7 4125.58  300.76
  -2   1  -7 3969.42  375.05
  -2   1  -7 3737.03  268.20
   2  -1   8  624.22  120.42
  -2   1  -8  627.29   89.76
   2  -1   9  919.21  151.67
   2   0   010853.42  493.84
   2   0   012055.29  517.60
   2   0   011350.61  452.51
  -2   0   011925.32  543.44
  -2   0   012784.99  542.30
  -2   0   0 9975.10  465.91
  -2   0   011014.23  512.56
   2   0   1 4313.39  251.64
   2   0   1 4269.42  211.48
   2   0   1 4873.21  251.26
  -2   0  -1 4662.25  160.75
  -2   0  -1 4961.23  258.01
  -2   0  -1 4698.50  233.94
  -2   0  -1 4740.53  252.64
  -2   0  -1 4846.64  260.38
  -2   0  -1 4456.71  193.82
  -2   0  -1 4630.24  220.36
   2   0   2 8793.15  424.51
   2   0   2 8898.84  378.87
   2   0   2 8805.79  413.64
  -2   0  -2 8896.41  466.75
  -2   0  -2 8829.46  274.02
  -2   0  -2 8903.85  337.97
  -2   0  -2 8655.71  372.66
  -2   0  -2 8580.93  426.77
  -2   0  -2 9090.60  356.68
   2   0   3 4585.91  278.21
   2   0   3 4624.64  227.70
   2   0   3 4660.06  287.14
  -2   0  -3 4883.21  275.87
  -2   0  -3 4591.98  214.25
  -2   0  -3 4690.13  217.02
  -2   0  -3 4340.67  164.48
   2   0   4   77.19   38.60
   2   0   4   50.96   17.50
  -2   0  -4   39.44   42.79
  -2   0  -4   97.63   33.36
  -2   0  -4   65.99   32.13
   2   0   522296.80  983.06
   2   0   521890.68  801.99
  -2   0  -522098.66 1055.21
  -2   0  -521377.81  807.33
  -2   0  -521704.61  921.83
   2   0   6  333.46   71.64
   2   0   6  348.88   52.00
  -2   0  -6  331.67   77.99
  -2   0  -6  147.88   43.55
  -2   0  -6  231.98   54.34
   2   0   7 1356.75  164.80
   2   0   7 1348.73  108.61
  -2   0  -7 1424.47  159.31
   2   0   8  156.14   64.35
  -2   0  -8   78.22   75.14
  -2   0  -8  111.91   57.87
   2   0   9  531.14  120.45
  -2   0  -9  501.61  103.16
  -2   0  -9  472.17   82.03
  -2   0  -9  430.83  103.71
   2   1   0  338.00   41.97
   2   1   0  323.64   37.72
   2   1   0  344.58   48.04
   2   1   0  391.58   40.82
  -2  -1   0  313.96   34.96
  -2  -1   0  367.79   47.35
  -2  -1   0  327.61   49.84
  -2  -1   0  334.06   43.31
  -2  -1   0  336.32   28.48
   2   1   1 5015.56  264.21
   2   1   1 5312.59  275.42
   2   1   1 4986.70  238.43
  -2  -1  -1 5189.76  273.46
  -2  -1  -1 5427.16  242.73
  -2  -1  -1 5155.54  306.27
  -2  -1  -1 5460.65  220.33
   2   1   2 3266.26  195.69
   2   1   2 3364.05  228.22
   2   1   2 3233.35  190.01
   2   1   2 3444.88  207.59
  -2  -1  -2 3493.40  228.66
  -2  -1  -2 3400.91  228.62
  -2  -1  -2 3395.86  247.94
  -2  -1  -2 3643.92  194.73
   2   1   3  107.63   47.25
   2   1   3  149.70   39.56
  -2  -1  -3  130.22   30.77
   2   1   4 6602.22  443.34
   2   1   4 7347.83  239.30
  -2  -1  -4 6424.98  350.94
   2   1   5    0.73   39.47
   2   1   5   52.80   17.85
  -2  -1  -5   34.36   46.66
  -2  -1  -5  105.71   50.17
   2   1   610762.03  569.31
   2   1   610528.84  441.14
  -2  -1  -610891.56  611.59
  -2  -1  -610738.13  487.63
   2   1   7   23.93   58.79
  -2  -1  -7   92.93   52.17
  -2  -1  -7  -86.29   44.64
  -2  -1  -7   44.09   45.73
   2   1   8 1408.62  169.98
  -2  -1  -8 1165.55  159.20
  -2  -1  -8 1510.84  159.73
   2   1   9  554.48  109.91
  -2  -1  -9  408.63   83.06
  -2  -1  -9  484.39  101.43
   2   2   026454.66  904.55
   2   2   025364.21 1009.91
   2   2   024855.10  982.38
  -2  -2   026970.37 1112.93
  -2  -2   025887.79  914.40
  -2  -2   025078.46 1025.62
  -2  -2   023987.23  993.94
  -2  -2   026493.28 1191.89
  -2  -2   025117.76  956.88
   2   2   1 2615.98  169.55
   2   2   1 2961.13  164.82
   2   2   1 2687.36  163.18
   2   2   1 2680.83  146.13
  -2  -2  -1 2736.97  105.18
  -2  -2  -1 2558.63  167.53
  -2  -2  -1 2673.76  172.35
  -2  -2  -1 2579.70  162.83
  -2  -2  -1 2859.23  188.51
   2   2   2   29.81   25.37
   2   2   2   15.28   25.46
  -2  -2  -2  -20.15   25.42
  -2  -2  -2  -23.23   25.40
  -2  -2  -2   -5.90   25.40
   2   2   3 1638.55  138.40
   2   2   3 1500.38  128.20
   2   2   3 1657.17   65.64
   2   2   3 1580.70   65.19
   2   2   3 1509.22  104.59
  -2  -2  -3 1613.86  127.63
   2   2   4 4818.18  356.38
   2   2   4 5043.90  298.30
   2   2   4 5128.37  193.17
  -2  -2  -4 5402.92  355.18
   2   2   5 9915.08  451.40
   2   2   5 9111.19  374.85
  -2  -2  -5 9729.62  604.67
  -2  -2  -5 9324.32  591.68
  -2  -2  -5 9585.71  581.62
   2   2   6  830.44  102.57
  -2  -2  -6  846.76  110.44
  -2  -2  -6  625.30   83.09
   2   2   7 1555.34  191.71
  -2  -2  -7 1482.92  171.16
  -2  -2  -7 1484.54  150.49
   2   2   8  295.75   94.83
  -2  -2  -8  257.09   68.97
  -2  -2  -8  301.82   72.57
   2   2   9 1704.02  204.28
  -2  -2  -9 1424.32  125.90
  -2  -2  -9 1776.45  239.81
   2   3   0 6366.71  419.52
   2   3   0 6198.03  309.63
   2   3   0 6150.91  336.87
   2   3   0 6427.66  336.37
  -2  -3   0 6261.81  243.21
  -2  -3   0 6021.91  272.52
  -2  -3   0 6475.01  354.58
  -2  -3   0 6164.53  342.86
   2   3   128044.36 1139.60
   2   3   129149.51 1124.65
  -2  -3  -128280.74 1066.08
  -2  -3  -127894.28 1013.33
  -2  -3  -129400.82 1147.72
  -2  -3  -128555.46 1021.52
   2   3   2  147.52   43.28
   2   3   2  144.47   40.83
   2   3   2  144.49   22.83
   2   3   2  164.93   42.01
  -2  -3  -2  125.99   35.78
  -2  -3  -2  188.45   31.34
  -2  -3  -2  172.62   51.92
   2   3   316349.25  806.94
   2   3   315792.90  738.90
   2   3   315763.33  590.35
   2   3   4   81.27   38.23
   2   3   4   34.91   39.46
   2   3   4   37.68   17.52
   2   3   4   53.81   46.27
  -2  -3  -4   20.57   15.83
   2   3   5 7167.85  409.17
   2   3   5 6950.23  380.40
   2   3   5 7106.69  291.06
   2   3   5 6444.66  365.63
   2   3   5 7261.83  393.82
   2   3   6 1838.10  145.13
   2   3   6 1779.94  166.64
  -2  -3  -6 1685.76  149.83
  -2  -3  -6 1807.34  216.19
   2   3   7 3536.28  285.33
  -2  -3  -7 4000.28  317.50
   2   3   8    2.18   62.20
  -2  -3  -8  -26.38   62.10
  -2  -3  -8   34.25   62.40
   2   3   9 1246.02  173.91
   2   4   0 1929.10  155.09
   2   4   0 1976.63  154.59
   2   4   0 1970.89  162.10
  -2  -4   0 1835.14  150.99
  -2  -4   0 1924.43  188.48
  -2  -4   0 1955.00  137.50
   2   4   1  877.88  100.86
   2   4   1  745.44   80.32
   2   4   1  672.02   71.77
  -2  -4  -1  616.22   52.45
  -2  -4  -1  665.12   67.93
  -2  -4  -1  657.76   67.15
   2   4   2 4338.07  260.84
   2   4   2 4489.29  244.17
   2   4   2 4028.49  239.22
   2   4   2 4422.59  236.83
  -2  -4  -2 4515.24  226.17
  -2  -4  -2 4660.47  235.78
   2   4   3 2556.04  186.03
   2   4   3 2883.89  215.04
   2   4   3 2489.49  207.71
   2   4   3 2685.07  234.17
  -2  -4  -3 2917.10  174.09
   2   4   413713.66  789.13
   2   4   413962.42  747.71
   2   4   412861.93  658.50
   2   4   413743.84  595.58
  -2  -4  -413845.14  573.10
  -2  -4  -414021.84  621.14
   2   4   5  871.17  106.86
   2   4   5  742.06  113.14
   2   4   5 1115.34  119.57
  -2  -4  -5  943.90  102.39
   2   4   6 1414.94  144.51
   2   4   6 1657.59  168.66
   2   4   6 1343.34  104.21
  -2  -4  -6 1486.30  173.91
   2   4   7  128.59   73.73
  -2  -4  -7  106.02   43.77
  -2  -4  -7  218.44   72.27
   2   4   8 3224.74  285.05
  -2  -4  -8 2625.91  199.67
  -2  -4  -8 3213.81  333.93
  -2  -4  -8 2775.02  246.09
   2   5   0  218.67   54.40
   2   5   0  260.77   46.19
   2   5   0  168.75   29.70
   2   5   0  170.97   44.79
  -2  -5   0  226.11   51.08
  -2  -5   0  164.17   56.24
   2   5   1  923.36  102.95
   2   5   1  827.82   85.86
   2   5   1  817.64   78.46
  -2  -5  -1  681.55   69.72
  -2  -5  -1  805.64   87.71
  -2  -5  -1  765.17  114.70
   2   5   2 2690.07  157.96
   2   5   2 2614.15  214.71
  -2  -5  -2 2614.13  161.69
  -2  -5  -2 2634.25  179.98
   2   5   3  872.15   98.81
   2   5   3  970.59   99.89
  -2  -5  -3  800.13   76.07
   2   5   3  889.78   97.36
   2   5   4 1914.13  163.82
   2   5   4 2115.25  207.04
   2   5   4 2021.47  163.56
  -2  -5  -4 2054.07  174.20
   2   5   5 1565.32  162.72
   2   5   5 1561.08  180.18
   2   5   5 1554.52  153.74
  -2  -5  -5 1493.20  142.88
  -2  -5  -5 1674.07  161.27
   2   5   6  267.54   63.35
   2   5   6  189.00   75.33
  -2  -5  -6  459.09   99.56
   2   5   7  198.99   64.25
  -2  -5  -7   60.88   46.73
  -2  -5  -7  127.28   96.35
   2   5   8  219.30   87.91
  -2  -5  -8  213.38   73.19
  -2  -5  -8   92.58   60.12
   2   6   0  377.62   79.09
   2   6   0  262.31   41.40
   2   6   0  276.45   68.52
  -2  -6   0  296.33   73.88
  -2  -6   0  320.53   60.85
   2   6   1  838.29  124.29
   2   6   1  978.17   93.43
   2   6   1 1021.09  126.46
  -2  -6  -1  981.11  101.57
  -2  -6  -1 1091.15  123.67
   2   6   2  627.77   78.79
   2   6   2  588.46   80.94
   2   6   2  708.72   85.98
  -2  -6  -2  795.83   78.75
   2   6   3 7555.53  438.58
   2   6   3 6901.42  380.79
   2   6   3 7616.48  439.69
  -2  -6  -3 7575.47  468.84
   2   6   4 1231.06  135.29
   2   6   4 1179.35  165.77
  -2  -6  -4 1152.73  113.93
  -2  -6  -4 1090.94  129.09
   2   6   5 2267.40  248.72
   2   6   5 2087.38  226.77
  -2  -6  -5 1923.58  198.82
   2   6   6    8.72   33.42
   2   6   6  127.99   74.15
   2   6   6   24.89   54.41
  -2  -6  -6   60.87   64.50
   2   6   7  458.77  103.13
   2   6   7  412.28  109.94
   2   7   0 4703.21  342.89
   2   7   0 4472.56  292.34
   2   7   0 4818.83  331.85
  -2  -7   0 4124.86  326.63
  -2  -7   0 4537.98  286.75
   2   7   1  653.73  106.45
   2   7   1  818.78   81.01
   2   7   1  718.25  112.29
  -2  -7  -1  553.66   75.75
  -2  -7  -1  605.03   90.64
   2   7   2 3030.96  232.84
   2   7   2 3046.46  247.02
   2   7   2 3253.17  354.99
  -2  -7  -2 2867.64  263.45
   2   7   3   47.36   43.36
   2   7   3  -43.06   43.33
   2   7   3  -77.38   43.22
  -2  -7  -3  -31.83   43.26
   2   7   4 3985.36  302.39
   2   7   4 3662.70  288.00
   2   7   4 4345.59  359.01
   2   7   5  492.90   84.21
   2   7   5  346.77   85.93
   2   7   6 2626.06  256.53
   2   7   6 2875.07  267.33
   2   7   6 3227.29  264.50
  -2  -7  -6 3397.75  349.62
   2   8   0 1172.94  136.68
   2   8   0 1405.18  170.38
  -2  -8   0 1231.12  160.40
  -2  -8   0 1225.79  156.26
   2   8   1  423.38   88.43
   2   8   1  276.26   52.69
   2   8   1  540.10  100.48
  -2  -8  -1  330.86   82.59
   2   8   2 3025.00  259.62
   2   8   2 3045.47  327.06
  -2  -8  -2 2912.69  269.83
  -2  -8  -3 1244.29  152.71
   2   8   3  968.83  173.77
   2   8   3  966.70  143.45
   2   8   3 1192.43  169.25
  -2  -8  -3 1190.13  146.83
   2   8   4  578.92  107.86
   2   8   4  604.94  124.14
  -2  -8  -4  397.28   72.76
   2   8   5  234.67   79.56
   2   8   5  128.45   75.33
  -2  -8  -5  178.22   79.43
   2   9   0   21.34   58.20
   2   9   0   62.15   70.33
  -2  -9   0   -7.55   44.85
   2   9   1 2347.88  224.38
   2   9   1 3168.09  340.62
  -2  -9  -1 2594.72  269.12
  -2  -9  -1 2451.31  262.67
   2   9   2   48.82   55.37
  -2  -9  -2    2.18   52.69
   2   9   3 1459.34  183.88
   2   9   3 1553.15  223.88
  -2  -9  -3 1256.59  169.30
   3  -7   1 4671.25  377.30
  -3   7  -1 3735.59  254.66
  -3   7  -1 5548.31  452.12
  -3   7  -1 4512.78  279.10
   3  -7   2   27.00   46.91
  -3   7  -2  103.40   64.05
  -3   7  -2   70.33   64.34
  -3   7  -2   46.93   47.66
   3  -7   3 1788.70  243.18
  -3   7  -3 1787.72  199.63
  -3   7  -3 2043.52  219.50
  -3   7  -3 1375.59  208.36
   3  -6   1 1516.50  207.68
  -3   6  -1 1754.31  198.23
  -3   6  -1 1825.43  216.81
  -3   6  -1 1817.58  147.16
   3  -6   2 7421.03  555.17
  -3   6  -2 7432.48  511.99
  -3   6  -2 7115.48  385.44
   3  -6   3  717.70  115.24
  -3   6  -3  621.31   99.91
  -3   6  -3  452.32   94.36
   3  -6   4 2175.91  223.39
  -3   6  -4 2385.02  266.56
   3  -6   5  473.17   89.63
   3  -6   5  756.33  124.57
  -3   6  -5  691.82  141.45
  -3   6  -5  628.92  106.96
   3  -5   1 1741.91  182.13
  -3   5  -1 1675.12  154.14
  -3   5  -1 1628.69  148.40
  -3   5  -1 1723.09  168.12
   3  -5   2 3125.40  295.55
  -3   5  -2 3151.94  277.11
  -3   5  -2 3594.89  268.09
  -3   5  -2 3405.71  309.58
   3  -5   3 2403.36  188.58
   3  -5   3 2658.74  245.21
  -3   5  -3 2599.14  213.89
  -3   5  -3 2521.72  236.51
   3  -5   4  267.96   62.12
   3  -5   4  189.05   51.72
  -3   5  -4  122.60   54.44
   3  -5   5  623.25  112.19
   3  -5   5  621.67   97.87
  -3   5  -5  742.21  106.65
   3  -5   6  522.90  112.29
   3  -5   6  855.51  124.02
  -3   5  -6  684.84  168.63
  -3   5  -6  680.20  109.02
   3  -4   1 1700.81  161.52
  -3   4  -1 1765.05  164.10
  -3   4  -1 1701.38  130.07
   3  -4   2 1386.03  144.25
   3  -4   2 1418.68  145.29
  -3   4  -2 1717.06  138.88
  -3   4  -2 1566.05  146.17
   3  -4   3  107.47   53.14
   3  -4   3  184.79   49.71
  -3   4  -3  236.82   60.25
   3  -4   4  913.57  100.71
   3  -4   4  850.25  101.87
  -3   4  -4 1141.17  122.63
   3  -4   5  224.45   52.58
   3  -4   5  325.30   74.95
  -3   4  -5  382.42   88.02
   3  -4   6 1109.38  140.00
  -3   4  -6 1158.40  167.62
   3  -4   7    8.44   46.44
  -3   4  -7   17.82   51.82
   3  -3   1 5741.87  342.05
  -3   3  -1 5442.78  335.54
  -3   3  -1 5732.34  303.23
   3  -3   2 4544.92  301.22
   3  -3   2 4606.24  255.05
  -3   3  -2 4856.41  317.96
   3  -3   3  428.74   84.01
   3  -3   3  395.20   60.44
  -3   3  -3  437.20   76.73
   3  -3   4   -8.45   58.25
   3  -3   4  122.41   37.80
  -3   3  -4   54.66   54.75
  -3   3  -4   32.97   43.96
   3  -3   5 1064.30  122.50
   3  -3   5 1097.78  113.10
  -3   3  -5 1085.13  119.54
   3  -3   6 2977.61  271.61
   3  -3   6 3062.82  184.94
  -3   3  -6 3349.30  300.69
   3  -3   7 1673.69  196.38
  -3   3  -7 1698.73  223.06
   3  -3   8   21.02   50.82
  -3   3  -8   92.19   86.04
   3  -2   114951.19  731.28
   3  -2   114541.56  873.26
   3  -2   114444.76  622.71
  -3   2  -114623.15  709.93
  -3   2  -114310.71  559.52
  -3   2  -115139.32  546.36
   3  -2   2 2003.86  146.76
   3  -2   2 1944.74  128.02
   3  -2   2 1817.76  156.98
  -3   2  -2 2223.97  188.97
  -3   2  -2 1935.71  106.25
   3  -2   3 2916.04  264.87
   3  -2   3 3128.79  191.23
  -3   2  -3 2764.40  162.33
   3  -2   4  688.27   88.92
   3  -2   4  689.63   81.37
   3  -2   4  622.35   87.81
  -3   2  -4  789.33  108.18
  -3   2  -4  771.76   80.05
   3  -2   5 2869.19  275.48
   3  -2   5 2730.61  199.96
  -3   2  -5 2515.30  281.91
   3  -2   6  720.31  111.22
   3  -2   6  574.41   71.07
  -3   2  -6  476.89   95.21
   3  -2   7 5685.69  362.03
  -3   2  -7 5623.73  528.92
   3  -2   8  212.78   79.27
   3  -1   112196.09  595.97
   3  -1   112148.61  555.02
  -3   1  -112221.74  674.02
  -3   1  -111831.86  488.56
  -3   1  -111512.14  497.59
  -3   1  -112075.73  509.76
  -3   1  -112125.53  500.24
   3  -1   2  299.08   52.73
   3  -1   2  271.13   44.79
  -3   1  -2  307.56   56.87
  -3   1  -2  253.50   36.47
  -3   1  -2  342.56   32.25
   3  -1   3  -58.16   34.80
   3  -1   3   -0.27   34.75
   3  -1   3   -1.54   34.75
  -3   1  -3    1.00   34.67
  -3   1  -3   16.60   34.74
  -3   1  -3  -13.62   34.78
   3  -1   4  296.57   71.13
   3  -1   4  291.45   40.92
  -3   1  -4  305.06   65.45
  -3   1  -4  223.12   47.27
   3  -1   5  934.43  107.53
   3  -1   5 1093.94   95.40
  -3   1  -5 1174.25  116.92
  -3   1  -5 1037.57  105.52
  -3   1  -5 1103.42  106.26
   3  -1   6 5596.70  428.14
   3  -1   6 5583.40  288.59
  -3   1  -6 5520.94  340.31
  -3   1  -6 5843.70  358.24
   3  -1   7  190.58   70.90
  -3   1  -7   41.92   58.62
   3  -1   8 2264.26  264.81
  -3   1  -8 2644.51  270.59
   3   0   0 5182.21  287.33
   3   0   0 5231.85  313.92
   3   0   0 5195.96  299.62
  -3   0   0 5100.18  313.62
  -3   0   0 5178.59  239.46
  -3   0   0 5082.14  238.70
  -3   0   0 5272.93  284.03
   3   0   1   83.07   30.69
   3   0   1  145.55   28.62
  -3   0  -1  156.29   34.99
  -3   0  -1  150.67   41.76
  -3   0  -1  183.96   34.64
  -3   0  -1  140.25   16.91
   3   0   2 2162.47  151.08
   3   0   2 2393.51  125.90
   3   0   2 2195.56  155.57
  -3   0  -2 2177.92  163.11
  -3   0  -2 2363.49   91.94
  -3   0  -2 2249.46  166.56
  -3   0  -2 2342.89  154.69
  -3   0  -2 2397.49  148.70
   3   0   3  644.28   94.24
   3   0   3  706.91   46.13
  -3   0  -3  757.91  101.43
  -3   0  -3  707.62   51.87
  -3   0  -3  736.15   70.31
  -3   0  -3  675.58   78.51
   3   0   4  973.21  101.48
   3   0   4  970.50   50.57
  -3   0  -4  849.21   85.58
  -3   0  -4  905.11   54.08
  -3   0  -4  906.48   91.60
  -3   0  -4  976.74   94.49
   3   0   5  234.11   63.47
   3   0   5  189.13   15.02
  -3   0  -5  287.48   63.37
  -3   0  -5  293.01   56.51
  -3   0  -5  311.48   58.67
   3   0   6   18.79   53.91
  -3   0  -6  -25.71   53.76
  -3   0  -6  -58.55   54.00
   3   0   7 3897.05  321.20
  -3   0  -7 4011.49  348.10
  -3   0  -7 3738.93  292.71
  -3   0  -7 3978.29  288.28
   3   0   8  -26.08   46.25
  -3   0  -8  -41.64   46.07
  -3   0  -8  -18.90   46.26
   3   0   9 1164.31  185.95
  -3   0  -9  814.87  125.23
  -3   0  -9  815.69  135.09
  -3   0  -9  927.01  133.34
   3   1   0 7060.66  343.36
   3   1   0 7270.01  360.31
  -3  -1   0 6977.04  406.22
  -3  -1   0 6815.46  330.40
  -3  -1   0 6967.69  317.60
  -3  -1   0 6811.46  306.80
  -3  -1   0 6804.59  505.19
   3   1   1 2356.44  164.38
   3   1   1 2378.81  136.25
  -3  -1  -1 2464.88  135.16
  -3  -1  -1 2405.17  136.66
  -3  -1  -1 2442.14  137.49
  -3  -1  -1 2607.49  182.64
  -3  -1  -1 2375.56  126.48
   3   1   2 3303.13  219.09
   3   1   2 3453.83  214.03
   3   1   2 3279.84  219.87
  -3  -1  -2 3327.45  151.31
  -3  -1  -2 3394.19  151.63
  -3  -1  -2 3295.68  167.79
   3   1   3 2264.18  206.86
   3   1   3 2309.71  181.12
  -3  -1  -3 2380.12  190.97
  -3  -1  -3 2399.67  162.03
  -3  -1  -3 2153.06  154.18
   3   1   4   75.99   45.34
  -3  -1  -4    7.34   40.21
  -3  -1  -4   59.36   35.60
  -3  -1  -4   57.79   40.16
   3   1   510861.64  671.57
  -3  -1  -510218.79  503.32
  -3  -1  -510320.71  498.04
   3   1   6  435.10   73.43
  -3  -1  -6  464.12   89.69
  -3  -1  -6  540.80   90.74
  -3  -1  -6  462.51   70.73
   3   1   7  154.59   59.64
  -3  -1  -7  253.99   78.25
  -3  -1  -7  117.54   51.72
   3   1   8  544.21   94.97
  -3  -1  -8  473.45  111.00
  -3  -1  -8  400.48   96.99
   3   1   9  593.89  130.73
  -3  -1  -9  517.43   90.95
   3   2   0 3156.95  175.31
   3   2   0 3388.45  170.72
   3   2   0 3148.01  216.30
   3   2   0 3379.88  203.98
  -3  -2   0 3371.86  159.99
  -3  -2   0 3329.88  211.28
  -3  -2   0 3030.71  235.72
   3   2   1  214.58   37.10
   3   2   1  174.08   29.38
   3   2   1  191.19   35.93
  -3  -2  -1  189.74   21.33
  -3  -2  -1  211.36   32.98
  -3  -2  -1  207.95   52.67
  -3  -2  -1  221.66   34.07
   3   2   2  813.10   92.99
   3   2   2  820.65   72.85
  -3  -2  -2  760.01   88.29
  -3  -2  -2  775.02   50.09
  -3  -2  -2  821.68   49.92
  -3  -2  -2  759.37   67.70
   3   2   3  -16.71   34.43
   3   2   3   45.69   36.35
  -3  -2  -3   63.83   47.38
   3   2   4 6097.93  383.45
   3   2   4 6785.70  397.61
   3   2   4 6249.13  380.90
  -3  -2  -4 6381.99  370.78
   3   2   5  338.44   65.17
  -3  -2  -5  335.61   65.86
  -3  -2  -5  320.74   68.31
  -3  -2  -5  305.85   53.74
   3   2   612201.10  614.64
  -3  -2  -612183.63  740.64
  -3  -2  -611872.90  749.90
  -3  -2  -611447.10  588.54
   3   2   7   80.59   65.18
   3   2   8 2591.94  372.62
  -3  -2  -8 2964.69  262.87
   3   2   9  243.67   78.47
  -3  -2  -9  103.14   54.29
  -3  -2  -9   84.00   55.27
   3   3   014619.66  720.75
   3   3   014238.90  519.80
   3   3   013371.26  810.23
   3   3   014457.20  599.71
  -3  -3   013713.81  548.53
  -3  -3   013923.16  621.12
  -3  -3   013974.35  634.61
  -3  -3   013781.48  570.71
   3   3   1 1320.25  130.70
   3   3   1 1196.74   91.29
   3   3   1 1024.52   72.40
   3   3   1 1243.34  113.79
  -3  -3  -1 1137.41  102.11
  -3  -3  -1 1174.31  126.80
  -3  -3  -1 1219.99  118.66
   3   3   2   57.68   50.22
   3   3   2   55.36   27.73
   3   3   2   89.06   24.18
   3   3   2   95.40   34.01
  -3  -3  -2   41.65   30.04
  -3  -3  -2   59.77   21.56
   3   3   3  127.35   61.31
   3   3   3   50.19   41.03
  -3  -3  -3   69.91   60.47
   3   3   4 2565.52  186.80
   3   3   4 2516.40  206.90
   3   3   4 2410.64  195.25
   3   3   5 6233.26  431.81
   3   3   5 6033.80  406.92
   3   3   6  158.33   67.18
  -3  -3  -6  336.29   77.65
  -3  -3  -6  217.69   62.64
  -3  -3  -6  422.75   65.35
   3   3   7 1717.45  232.61
  -3  -3  -7 1893.20  205.30
  -3  -3  -7 2111.67  167.89
   3   3   8  874.46  183.94
  -3  -3  -8 1062.29  138.77
  -3  -3  -8 1013.36  132.22
  -3  -3  -8  923.88  147.02
   3   4   0  209.10   54.16
   3   4   0  177.58   23.19
   3   4   0  166.95   44.60
  -3  -4   0  170.16   19.81
  -3  -4   0  214.85   46.30
  -3  -4   0  153.58   46.94
   3   4   1 4052.33  256.01
   3   4   1 4416.96  226.89
   3   4   1 4548.13  341.20
  -3  -4  -1 4307.29  176.76
  -3  -4  -1 4361.69  296.76
  -3  -4  -1 4518.12  352.19
   3   4   2 2079.12  191.05
   3   4   2 2153.33  138.15
   3   4   2 1822.34  132.98
   3   4   2 2074.26  180.16
  -3  -4  -2 2125.22  132.04
  -3  -4  -2 1883.05  144.97
   3   4   3 2518.57  148.44
   3   4   3 2651.37  186.85
  -3  -4  -3 2348.53  140.51
  -3  -4  -3 2298.11  202.24
   3   4   4   -4.46   42.38
   3   4   4  -63.24   42.41
   3   4   4    0.18   42.38
   3   4   5 1282.23  109.44
   3   4   5 1142.73  132.47
   3   4   5 1283.80  160.11
  -3  -4  -5 1231.54  144.39
   3   4   6 1244.38  131.22
   3   4   6 1493.48  146.92
   3   4   6 1158.81  158.77
  -3  -4  -6 1094.36  153.40
   3   4   7 1513.29  210.92
  -3  -4  -7 1714.51  192.90
  -3  -4  -7 2057.22  209.30
  -3  -4  -7 1792.79  184.99
   3   4   8  -25.75   55.77
  -3  -4  -8  -14.42   55.60
  -3  -4  -8    8.02   55.86
   3   5   0  418.69   75.64
   3   5   0  362.72   34.71
   3   5   0  309.47   35.92
   3   5   0  298.02   59.23
  -3  -5   0  249.03   52.45
  -3  -5   0  377.69   66.43
   3   5   1 1462.93  120.82
   3   5   1 1393.68  156.74
  -3  -5  -1 1230.16   83.07
  -3  -5  -1 1572.68  124.27
  -3  -5  -1 1552.22  150.40
   3   5   2 2371.43  175.18
   3   5   2 2505.06  197.49
   3   5   2 2359.94  199.15
  -3  -5  -2 2593.15  165.59
  -3  -5  -2 2380.10  175.20
   3   5   3   65.96   45.31
   3   5   3   68.67   30.29
   3   5   3   60.55   60.28
  -3  -5  -3   47.46   25.82
  -3  -5  -3   75.31   49.94
   3   5   4 6027.38  383.38
   3   5   4 6349.39  442.30
  -3  -5  -4 6082.85  314.79
  -3  -5  -4 6405.25  411.86
   3   5   5   59.88   43.43
   3   5   5   95.58   56.38
   3   5   5   68.17   54.90
  -3  -5  -5  193.52   81.70
   3   5   6  553.88  106.49
   3   5   6  560.14  110.58
  -3  -5  -6  553.70  139.26
   3   5   7  168.43   73.99
  -3  -5  -7   61.60   65.87
   3   5   8 2691.93  288.29
  -3  -5  -8 2373.60  254.57
  -3  -5  -8 2468.64  260.52
   3   6   0  439.21   83.93
   3   6   0  434.01   47.83
   3   6   0  362.77   87.68
  -3  -6   0  468.75   74.31
  -3  -6   0  511.76   89.04
   3   6   1  383.02   92.81
   3   6   1  367.00   49.27
   3   6   1  397.74   86.09
  -3  -6  -1  423.40   64.50
   3   6   2  523.42   94.82
   3   6   2  603.83   63.84
   3   6   2  600.56  103.96
  -3  -6  -2  643.27  101.31
  -3  -6  -2  743.66  100.49
   3   6   3 2502.92  188.69
   3   6   3 2465.49  196.83
   3   6   3 2649.02  219.83
  -3  -6  -3 2531.88  194.01
  -3  -6  -3 2543.22  281.22
   3   6   4  192.21   67.44
   3   6   4  175.67   61.25
   3   6   5 3615.47  328.14
   3   6   5 3586.25  279.61
   3   6   5 3394.96  336.69
  -3  -6  -5 3848.84  373.15
   3   6   6   76.96   56.54
   3   6   6  173.62   69.38
   3   6   6  224.43   88.83
  -3  -6  -6    9.80   77.95
   3   6   7  717.56  103.84
   3   6   7  829.02  137.87
   3   6   7 1115.21  180.31
  -3  -6  -7 1038.46  141.16
   3   7   0   95.63   70.09
   3   7   0  188.19   69.34
  -3  -7   0   64.20   49.85
  -3  -7   0   73.59   63.97
   3   7   1  833.61  140.35
  -3  -7  -1  751.15  113.54
  -3  -7  -1 1023.43  150.91
   3   7   2  166.59   65.78
   3   7   2  151.92   48.40
   3   7   2  198.58   77.73
   3   7   3 4668.76  388.77
   3   7   3 4598.63  308.10
   3   7   3 4925.95  401.09
  -3  -7  -3 4281.42  325.38
  -3  -7  -3 4608.91  355.86
   3   7   4 1128.63  145.67
   3   7   4  849.57  119.20
  -3  -7  -4  908.46  132.93
   3   7   5 1542.78  184.69
   3   7   5 1793.43  210.81
   3   7   5 1599.56  182.07
   3   7   6   13.87   36.91
   3   7   6   17.87   45.19
  -3  -7  -6   55.98   70.05
   3   8   0  653.68  103.17
   3   8   0  785.85  135.80
  -3  -8   0  701.59  113.27
  -3  -8   0  620.94  100.49
   3   8   1  782.25  109.64
   3   8   1  922.66  164.51
  -3  -8  -1  824.36   99.44
  -3  -8  -1  834.80  148.46
   3   8   2  431.64  111.45
   3   8   2  653.47  117.88
  -3  -8  -2  575.76   94.82
  -3  -8  -2  634.12  131.03
   3   8   3   77.80   67.62
   3   8   3   28.34   56.14
   3   8   4 1511.77  162.45
   3   8   4 1967.85  184.46
  -3  -8  -4 1581.68  206.89
   3   9   1   57.38   52.83
   3   9   1  130.30   72.50
  -3  -9  -1  158.88   55.84
   4  -7   1  607.87  123.93
  -4   7  -1  556.12  112.33
  -4   7  -1  529.25  104.45
   4  -6   1 4286.84  358.03
  -4   6  -1 4331.20  393.01
  -4   6  -2   -5.19   53.05
  -4   6  -2   57.27   62.43
   4  -6   3 1975.54  238.97
  -4   6  -3 1502.29  158.53
  -4   6  -3 1654.80  241.61
   4  -6   4  266.74   79.93
  -4   6  -4  448.97   89.05
  -4   6  -4  249.01   78.63
   4  -5   1   39.59   58.02
  -4   5  -1   46.13   54.68
  -4   5  -1  133.46   67.59
  -4   5  -1   98.94   39.40
  -4   5  -2 6707.08  475.53
  -4   5  -2 7345.91  612.49
  -4   5  -2 6164.14  338.80
   4  -5   3   13.66   50.74
  -4   5  -3   50.34   28.86
   4  -5   4 1754.50  180.03
   4  -5   4 1358.36  173.54
  -4   5  -4 1624.63  195.51
   4  -5   5  636.39  123.99
   4  -5   5  623.77  103.72
  -4   5  -5  607.32  130.75
   4  -4   1 6359.23  417.41
  -4   4  -1 6377.95  443.99
  -4   4  -1 7100.10  496.34
  -4   4  -1 6669.12  404.83
   4  -4   2  743.55  101.67
  -4   4  -2  892.29  104.54
   4  -4   3 6732.00  559.06
   4  -4   3 6988.52  459.89
  -4   4  -3 7089.96  476.76
  -4   4  -3 6711.67  404.59
   4  -4   4  128.89   57.22
   4  -4   4  133.64   54.75
  -4   4  -4  -10.73   34.90
   4  -4   5 2142.62  240.16
   4  -4   5 1956.00  155.79
  -4   4  -5 2455.26  251.00
  -4   4  -5 1445.84  182.81
   4  -4   6 1223.96  154.47
  -4   4  -6  791.96  127.30
   4  -3   1 4365.04  261.59
  -4   3  -1 4196.87  320.42
  -4   3  -1 4437.59  343.72
  -4   3  -1 4481.48  239.26
   4  -3   2 6521.84  430.14
   4  -3   2 6560.04  406.00
  -4   3  -2 6829.84  381.25
  -4   3  -2 6865.64  379.44
   4  -3   3 2330.58  222.41
   4  -3   3 2109.31  209.49
  -4   3  -3 2345.86  146.77
  -4   3  -3 2401.44  189.95
   4  -3   4 1984.75  206.19
   4  -3   4 1992.76  146.20
  -4   3  -4 1891.22  173.72
   4  -3   5 2670.79  275.17
   4  -3   5 2065.61  179.70
  -4   3  -5 2136.86  207.94
   4  -3   6 2049.13  248.44
  -4   3  -6 2066.92  293.17
   4  -3   7  192.03   69.87
   4  -2   1 4515.60  256.48
   4  -2   1 4498.12  263.35
  -4   2  -1 4572.70  262.25
  -4   2  -1 4662.34  291.00
  -4   2  -1 4690.30  207.09
   4  -2   2 6014.02  344.92
   4  -2   2 5938.16  300.10
  -4   2  -2 5892.92  421.45
   4  -2   3   24.83   45.83
   4  -2   3   17.59   26.57
  -4   2  -3   10.60   44.68
   4  -2   4 1596.62  132.24
   4  -2   4 1469.73  111.63
  -4   2  -4 1446.89  160.95
   4  -2   5  -10.79   58.49
  -4   2  -5  -26.08   58.41
  -4   2  -5  -24.68   58.53
   4  -2   6 3950.07  354.28
  -4   2  -6 4040.35  347.36
  -4   2  -6 3873.12  300.09
   4  -2   7  438.05  104.97
  -4   2  -7  309.92   91.42
   4  -1   115758.71  720.34
   4  -1   115338.96  664.31
  -4   1  -115344.92  747.41
  -4   1  -115405.94  644.58
  -4   1  -114948.06  672.07
   4  -1   2 2736.00  206.16
   4  -1   2 2602.40  142.14
  -4   1  -2 2712.69  206.04
  -4   1  -2 2184.33  134.69
  -4   1  -2 2685.27  167.37
  -4   1  -2 2338.77  142.29
  -4   1  -2 2575.49  138.03
   4  -1   3 1367.11  127.77
   4  -1   3 1399.36  115.27
  -4   1  -3 1221.34  134.34
  -4   1  -3 1205.53   77.67
   4  -1   4 2623.33  193.54
   4  -1   4 2820.75  166.76
  -4   1  -4 2914.44  264.39
  -4   1  -4 2813.86  205.00
   4  -1   5  816.00  111.13
  -4   1  -5  842.83  131.41
   4  -1   6  107.26   77.48
  -4   1  -6  106.40   41.57
   4  -1   7 1515.81  204.65
   4  -1   8   37.53   76.14
  -4   1  -8  -33.94   76.03
   4   0   0 2632.13  179.94
   4   0   0 2615.88  158.94
  -4   0   0 2681.76  165.18
  -4   0   0 2607.54  153.71
   4   0   1 4476.71  272.71
  -4   0  -1 4284.64  255.23
  -4   0  -1 4410.66  311.52
  -4   0  -1 4397.74  265.84
  -4   0  -1 4310.64  253.72
   4   0   2 3071.78  252.66
  -4   0  -2 2856.22  220.41
  -4   0  -2 2985.05  194.63
  -4   0  -2 2740.56  122.40
  -4   0  -2 3002.83  203.99
  -4   0  -2 2963.39  147.86
   4   0   3  447.28   71.35
  -4   0  -3  511.98   78.68
  -4   0  -3  423.55   38.20
  -4   0  -3  387.79   38.03
  -4   0  -3  436.52   55.21
  -4   0  -3  383.67   41.67
   4   0   4  670.52   94.65
  -4   0  -4  925.30  132.82
  -4   0  -4  784.48  100.65
   4   0   5  885.34  109.60
  -4   0  -5  865.15  129.73
  -4   0  -5  820.16  122.22
   4   0   6 2776.02  252.27
  -4   0  -6 2453.49  258.37
  -4   0  -6 2458.98  222.73
   4   0   7  761.85  137.58
  -4   0  -7  650.39   90.52
   4   0   8  991.49  168.70
  -4   0  -8 1057.14  161.92
  -4   0  -8  864.82  124.52
   4   1   010734.00  546.79
   4   1   010839.19  444.86
  -4  -1   0 9979.32  505.82
  -4  -1   011057.54  576.57
  -4  -1   011483.95  591.38
   4   1   1 2075.99  127.23
  -4  -1  -1 2107.54  121.80
  -4  -1  -1 2016.30  139.16
  -4  -1  -1 1945.10  124.81
  -4  -1  -1 2035.43  103.34
   4   1   2 6407.32  304.14
   4   1   2 6405.23  306.01
  -4  -1  -2 6042.99  266.57
  -4  -1  -2 6391.75  350.33
  -4  -1  -2 6035.57  215.25
   4   1   3  259.48   56.60
   4   1   3  387.78   82.48
  -4  -1  -3  364.44   45.27
  -4  -1  -3  345.62   44.89
   4   1   4 2418.42  234.96
  -4  -1  -4 2734.07  239.41
  -4  -1  -4 2555.85  221.13
   4   1   5  815.31  124.61
  -4  -1  -5  653.06  115.45
  -4  -1  -5  855.81  125.82
  -4  -1  -5  803.22  111.58
   4   1   6    7.89   69.84
  -4  -1  -6    3.90   56.83
  -4  -1  -6   36.75   49.58
  -4  -1  -6   36.09   43.18
   4   1   7 3162.43  336.96
  -4  -1  -7 3020.53  283.39
  -4  -1  -7 3191.68  231.58
  -4  -1  -7 3491.85  269.59
   4   1   8   21.29   58.85
  -4  -1  -8  -11.41   51.35
  -4  -1  -8   -2.18   39.63
   4   2   0 7026.15  349.82
  -4  -2   0 6542.50  297.20
  -4  -2   0 6715.32  347.89
  -4  -2   0 7172.45  401.08
   4   2   1 6380.40  355.18
   4   2   1 6200.45  310.93
   4   2   1 6739.33  292.58
  -4  -2  -1 5969.43  361.64
  -4  -2  -1 6505.80  296.29
  -4  -2  -1 6031.58  322.59
  -4  -2  -1 6624.68  372.74
  -4  -2  -1 5601.97  260.96
   4   2   2  101.72   37.48
   4   2   2  119.78   44.28
  -4  -2  -2   82.40   17.88
  -4  -2  -2  120.91   19.08
  -4  -2  -2   40.77   20.48
   4   2   3 5100.73  319.89
   4   2   3 5567.41  363.73
   4   2   3 5396.75  278.05
   4   2   4 1122.19  132.85
   4   2   4 1091.40   94.37
  -4  -2  -4 1024.65  127.77
  -4  -2  -4 1069.51  117.58
   4   2   5 7000.83  452.37
  -4  -2  -5 6683.99  444.70
  -4  -2  -5 6781.53  422.82
  -4  -2  -5 6628.93  398.95
   4   2   6    9.27   51.01
  -4  -2  -6   -8.25   50.87
  -4  -2  -6   33.82   51.13
  -4  -2  -6  -34.92   51.02
   4   2   7  -10.75   48.18
  -4  -2  -7   43.78   56.01
  -4  -2  -7   -6.28   40.68
   4   2   8  367.41   94.87
  -4  -2  -8  390.65   93.71
  -4  -2  -8  250.53   74.39
  -4  -2  -8  354.58   79.30
   4   3   0 2572.13  188.93
   4   3   0 2660.01  135.62
   4   3   0 2652.07  167.89
  -4  -3   0 2695.76  135.32
  -4  -3   0 2720.40  207.19
  -4  -3   0 2883.32  256.50
   4   3   1 2933.15  179.27
   4   3   1 2664.79  154.79
   4   3   1 2820.78  148.22
  -4  -3  -1 2903.87  159.36
  -4  -3  -1 2974.99  215.70
   4   3   2  -32.68   49.93
   4   3   2   55.63   30.31
   4   3   2   65.67   39.15
  -4  -3  -2   35.98   18.85
   4   3   3 1227.33  129.57
   4   3   3 1484.59  131.42
   4   3   3 1370.00  154.39
  -4  -3  -3 1380.42  119.39
   4   3   4 2044.02  194.97
   4   3   4 2433.99  167.06
   4   3   4 1914.30  165.95
  -4  -3  -4 2694.46  239.39
   4   3   5  -33.78   45.68
   4   3   5   34.65   45.47
  -4  -3  -5    3.72   39.78
   4   3   6 3590.63  331.14
  -4  -3  -6 3942.25  339.21
  -4  -3  -6 3482.36  309.75
   4   3   7  140.46   78.44
  -4  -3  -7  241.88   76.91
  -4  -3  -7  280.23   77.04
  -4  -3  -7  247.21   58.90
   4   3   8  603.89  131.91
  -4  -3  -8  736.31  117.09
   4   4   0 4829.82  328.62
   4   4   0 5227.54  173.23
   4   4   0 4765.14  285.56
  -4  -4   0 4544.25  252.61
  -4  -4   0 5364.92  348.39
   4   4   1  423.09   43.35
  -4  -4  -1  322.81   58.18
  -4  -4  -1  339.95   63.25
   4   4   2  184.08   35.35
  -4  -4  -2  153.70   42.57
  -4  -4  -2  229.92   79.84
   4   4   3   34.89   24.80
   4   4   3   42.79   41.43
  -4  -4  -3   36.01   46.35
   4   4   4  444.25   73.07
   4   4   4  418.92   68.35
   4   4   4  375.75   78.87
  -4  -4  -4  496.06   86.13
   4   4   5 1646.67  156.28
   4   4   5 1569.25  213.60
   4   4   5 1561.83  157.44
   4   4   6  229.43   70.00
   4   4   6  211.52   69.78
   4   4   6  151.17   57.27
  -4  -4  -6  208.93   85.98
   4   4   7  920.52  186.09
  -4  -4  -7 1135.64  157.03
  -4  -4  -7 1032.68  180.19
  -4  -4  -7  962.26  144.17
   4   5   0   95.54   62.82
   4   5   0   79.49   43.61
  -4  -5   0  198.43   52.47
  -4  -5   0   71.31   57.63
   4   5   1 5419.16  384.90
   4   5   1 4905.33  254.53
   4   5   1 5076.56  322.96
  -4  -5  -1 4948.16  282.40
  -4  -5  -1 5049.06  307.81
   4   5   2 1303.95  111.39
   4   5   2 1453.84  115.43
  -4  -5  -2 1317.64  118.21
  -4  -5  -2 1455.56  149.66
   4   5   3 1329.05  123.97
   4   5   3 1484.59  150.54
  -4  -5  -3 1324.50  159.52
   4   5   4  316.07   72.87
   4   5   4  197.26   53.67
   4   5   5  115.90   59.13
   4   5   5   80.87   54.07
   4   5   5  211.32   66.05
  -4  -5  -5  133.81   91.11
   4   5   6 1381.50  178.20
   4   5   6 1041.88  174.44
   4   5   6 1308.27  196.99
   4   5   7  349.70   85.55
  -4  -5  -7  321.18   94.66
  -4  -5  -7  391.37  102.56
  -4  -5  -7  341.76   78.49
   4   6   0 1276.43  169.33
   4   6   0 1370.07  125.24
  -4  -6   0 1231.59  124.77
  -4  -6   0 1346.90  151.80
   4   6   1   58.57   59.30
   4   6   1   54.70   52.70
  -4  -6  -1   64.89   41.23
  -4  -6  -1   29.54   66.15
   4   6   2 3170.03  264.12
   4   6   2 3384.13  200.91
   4   6   2 3511.30  266.78
  -4  -6  -2 3033.27  236.23
  -4  -6  -2 3747.12  265.52
   4   6   3  954.20  109.26
   4   6   3  913.47   98.56
   4   6   3  818.45  106.88
  -4  -6  -3  766.54  130.38
   4   6   4 3445.72  301.80
   4   6   4 3341.19  261.57
   4   6   4 3606.36  340.37
  -4  -6  -4 3697.56  343.65
   4   6   5   13.52   62.27
   4   6   5   70.55   50.23
   4   6   5  -24.97   44.58
   4   6   6  454.64   94.82
   4   6   6  374.37   85.50
   4   7   0 1479.08  164.29
   4   7   0 1247.76  164.36
  -4  -7   0 1142.26  167.30
   4   7   1   92.90   57.50
   4   7   1   27.48   56.77
  -4  -7  -1  124.09   51.76
  -4  -7  -1   68.98   57.56
   4   7   2  744.01  115.90
   4   7   2  598.53  120.63
  -4  -7  -2  765.12  124.70
   4   7   3  497.66   96.07
   4   7   3  830.11  118.47
   4   7   4   95.14   73.08
   4   7   4   72.44   55.21
  -4  -7  -4  157.32   81.20
   4   7   5 1043.37  149.59
   4   7   5 1156.01  134.30
   4   7   5 1095.98  162.93
  -4  -7  -5 1207.17  191.72
   4   8   0  406.83   96.51
   4   8   0  267.21   92.19
  -4  -8   0  435.89   77.70
  -4  -8   0  363.50   99.99
   4   8   1   53.04   57.96
  -4  -8  -1  194.42   50.87
  -4  -8  -1  252.71   92.70
   4   8   2  -16.83   48.67
   4   8   2   -5.16   48.47
  -4  -8  -2   -5.45   48.55
   4   8   3  537.82  116.88
  -4  -8  -3  594.53  133.49
   5  -6   1  119.53   59.13
  -5   6  -1  148.38   70.42
   5  -5   1 1089.74  174.24
  -5   5  -1 1193.57  185.28
  -5   5  -1 1276.11  148.57
   5  -5   2  311.72   75.12
  -5   5  -2  403.65   82.79
  -5   5  -2  444.40  128.90
  -5   5  -3  140.45   66.28
  -5   5  -3  185.69   70.10
   5  -4   1   56.02   44.76
  -5   4  -1  179.22   51.71
  -5   4  -1  143.56   62.67
   5  -4   2 7116.43  516.60
  -5   4  -2 7294.06  511.65
  -5   4  -2 7746.28  546.29
   5  -4   3  336.69   86.40
   5  -4   3  375.41   76.43
  -5   4  -3  191.90   67.51
   5  -4   4 1998.36  237.89
  -5   4  -4 1921.29  205.41
   5  -4   5  -12.98   44.93
   5  -3   1 4534.29  378.96
  -5   3  -1 4718.65  386.32
  -5   3  -1 4762.80  359.24
   5  -3   2  583.86   87.10
   5  -3   2  381.81   69.64
  -5   3  -2  535.44   94.07
   5  -3   3 7398.21  525.77
   5  -3   3 7066.53  451.93
  -5   3  -3 7563.34  481.68
   5  -3   4  355.06   91.50
  -5   3  -4  385.42   87.21
   5  -3   5 3914.20  383.15
  -5   3  -5 4578.67  415.70
  -5   3  -6 1741.61  205.88
   5  -3   6 2056.00  259.34
   5  -2   1  917.53  110.99
  -5   2  -1  790.43  114.70
   5  -2   2 4818.30  366.05
   5  -2   2 4661.75  348.18
  -5   2  -2 4558.20  393.97
   5  -2   3  824.74  117.58
   5  -2   3  952.75   87.87
  -5   2  -3  644.89  118.01
   5  -2   4 1542.83  196.58
  -5   2  -4 1528.81  181.41
   5  -2   5 3181.50  300.45
  -5   2  -5 2699.91  262.79
   5  -2   6 1923.43  218.71
  -5   2  -6 2054.12  225.53
   5  -1   1  248.85   60.25
   5  -1   1  225.47   41.97
  -5   1  -1  229.13   51.94
  -5   1  -1  223.91   51.08
   5  -1   2  815.52  107.57
   5  -1   2  690.56   80.16
  -5   1  -2  895.47  110.35
  -5   1  -2  716.49   91.20
   5  -1   3 1200.07  132.91
  -5   1  -3 1193.54  143.58
  -5   1  -3  966.50  114.20
   5  -1   4 1178.08  143.72
  -5   1  -4 1133.95  133.10
   5  -1   5  437.79   89.71
  -5   1  -5  446.67  100.07
   5  -1   6 2048.45  179.19
  -5   1  -6 2743.30  248.43
   5  -1   7  297.61   87.87
  -5   1  -7  332.46   70.11
  -5   0   0   58.45   46.15
  -5   0   0  106.65   44.36
  -5   0   0   65.85   36.14
  -5   0   0   37.40   39.30
   5   0   115480.11  670.09
  -5   0  -116223.19  781.96
  -5   0  -116375.22  749.07
  -5   0  -115737.71  862.67
   5   0   2  307.18   63.39
  -5   0  -2  129.35   56.25
  -5   0  -2  200.41   39.53
  -5   0  -2  149.67   45.87
   5   0   3 3295.41  269.18
  -5   0  -3 3477.49  291.93
   5   0   4  531.70  102.26
  -5   0  -4  502.53   94.62
   5   0   5 2804.81  210.68
  -5   0  -5 2835.36  274.14
  -5   0  -5 2712.46  191.92
   5   0   6  681.06  108.86
  -5   0  -6  524.31  104.11
  -5   0  -6  569.98  106.43
   5   0   7 1686.30  214.80
  -5   0  -7 1805.46  228.18
   5   1   0 4939.84  295.19
  -5  -1   0 5375.62  335.18
  -5  -1   0 5022.73  270.64
  -5  -1   0 5293.24  346.89
   5   1   1 1918.18  172.45
   5   1   1 1952.04  132.54
  -5  -1  -1 2049.67  157.53
  -5  -1  -1 1979.07  148.01
   5   1   2 7328.91  440.19
   5   1   2 7238.47  416.15
  -5  -1  -2 7483.88  406.91
  -5  -1  -2 7260.34  371.50
   5   1   3 1789.31  165.76
  -5  -1  -3 2343.47  214.91
   5   1   4 3838.53  283.01
  -5  -1  -4 3623.68  301.37
  -5  -1  -4 3575.57  293.89
  -5  -1  -4 3869.20  214.68
   5   1   5 2912.05  298.51
  -5  -1  -5 2841.66  310.42
  -5  -1  -5 2297.29  194.33
   5   1   6 3042.61  296.66
  -5  -1  -6 3122.70  322.84
   5   1   7  -66.34   42.78
  -5  -1  -7   38.85   42.85
   5   2   0 4603.06  328.17
  -5  -2   0 4720.07  262.67
  -5  -2   0 4649.19  338.35
  -5  -2   0 5247.61  351.73
   5   2   1 1552.61  138.10
   5   2   1 1495.29  103.40
  -5  -2  -1 1475.26  126.72
  -5  -2  -1 1598.63  151.94
   5   2   2 4490.15  349.01
   5   2   2 4949.88  295.24
  -5  -2  -2 4795.63  248.31
  -5  -2  -2 4674.70  259.46
  -5  -2  -2 4758.50  318.93
   5   2   3  101.46   48.69
   5   2   3   22.56   31.26
  -5  -2  -3   40.05   46.68
   5   2   4 4024.17  260.19
  -5  -2  -4 4280.46  269.16
  -5  -2  -4 4118.09  335.73
   5   2   5  543.72   96.45
  -5  -2  -5  456.37  108.79
   5   2   6  593.66  116.19
  -5  -2  -6  446.83   87.20
  -5  -2  -6  431.03   77.05
  -5  -2  -6  318.95   71.38
   5   2   7  395.20   87.56
  -5  -2  -7  432.24  101.90
  -5  -2  -7  611.28   96.32
   5   3   0  909.36   89.25
  -5  -3   0  813.29   65.24
  -5  -3   0  990.18  130.91
   5   3   1 1883.49  133.00
   5   3   1 1881.69  145.46
  -5  -3  -1 2066.37  181.53
  -5  -3  -1 2060.11  194.03
   5   3   2  -61.89   41.14
   5   3   2  -36.19   41.17
   5   3   2  -19.02   41.13
  -5  -3  -2  -45.49   41.14
   5   3   3 4302.47  288.31
   5   3   3 4119.94  295.50
   5   3   3 4201.53  281.60
   5   3   4  876.88  135.80
   5   3   4  749.92   99.89
  -5  -3  -4  963.06  110.33
  -5  -3  -4  618.94   91.33
   5   3   5 2665.83  260.62
   5   3   5 2570.87  307.75
  -5  -3  -5 2662.10  252.06
   5   3   6   89.11   64.13
  -5  -3  -6  106.64   63.77
  -5  -3  -6   53.98   67.20
   5   3   7   60.97   53.69
  -5  -3  -7   67.58   59.95
  -5  -3  -7   73.46   46.55
  -5  -4   0 5239.27  365.95
  -5  -4   0 5430.84  384.89
   5   4   1  511.67   62.87
  -5  -4  -1  498.91   69.12
  -5  -4  -1  457.01   77.93
   5   4   2  972.02  130.38
   5   4   2  986.49  101.79
   5   4   2  947.50  113.82
  -5  -4  -2 1218.10  140.30
   5   4   3  352.75   83.34
   5   4   3  382.81   59.33
   5   4   3  457.19   63.10
  -5  -4  -3  467.89   93.32
   5   4   4 3366.19  305.01
   5   4   4 3189.10  238.51
   5   4   5    2.18   53.21
   5   4   5   16.00   47.28
   5   4   5    2.45   38.27
   5   4   6 1585.49  191.78
  -5  -4  -6 1747.72  234.66
  -5  -4  -6 1772.08  199.89
   5   5   0 3104.79  243.02
   5   5   0 3230.58  268.95
  -5  -5   0 3176.49  266.16
  -5  -5   0 3444.83  196.09
   5   5   1  441.79   88.13
   5   5   1  418.45   69.06
  -5  -5  -1  477.14   70.42
  -5  -5  -1  516.69   92.44
  -5  -5  -2 1738.05  224.31
   5   5   3  638.36   94.89
   5   5   3  609.13   83.08
   5   5   3  405.29   66.59
  -5  -5  -3  409.09   89.75
   5   5   4  877.36  133.85
   5   5   4  893.90  109.76
   5   5   4  892.85  116.66
   5   5   5 1399.73  185.67
   5   5   5 1342.27  129.22
   5   5   5 1480.80  162.05
   5   5   6  -24.51   51.47
   5   5   6   23.35   52.90
   5   5   6   31.76   51.18
   5   6   0  -11.91   52.91
   5   6   0   23.61   39.50
  -5  -6   0   27.55   37.70
  -5  -6   0   26.38   68.88
   5   6   1 4919.51  477.50
   5   6   1 4739.09  386.64
  -5  -6  -1 5402.33  445.80
   5   6   2 1730.98  199.07
   5   6   2 1364.99  132.33
  -5  -6  -2 1464.43  190.61
   5   6   3 2144.68  196.60
  -5  -6  -3 2291.91  252.46
   5   6   4  -19.23   47.27
   5   6   4  -27.67   47.27
   5   6   5  273.32   82.28
   5   6   5  301.36   78.66
   5   7   0  488.20  110.79
   5   7   0  547.57   96.90
  -5  -7   0  466.59   70.75
  -5  -7   0  517.44  108.37
   5   7   1  168.55   66.28
   5   7   1   39.19   54.52
   5   7   2 1724.20  201.60
   5   7   2 1756.61  190.98
  -5  -7  -2 1767.55  212.67
   5   7   3 1275.42  166.20
  -6   4  -1 2705.47  243.16
   6  -4   1 2322.15  249.82
  -6   4  -2  171.87   63.83
  -6   4  -2  157.70   77.67
   6  -3   1  200.39   61.14
  -6   3  -1  155.85   55.86
  -6   3  -1  218.80   84.15
  -6   3  -2 2759.23  324.19
   6  -3   2 2211.35  162.49
  -6   3  -2 2913.64  300.18
  -6   3  -3  -27.03   65.68
   6  -3   3   85.94   66.95
  -6   3  -4  403.31   95.67
   6  -3   4  303.25   80.79
   6  -2   1  530.38   66.44
  -6   2  -1  574.17   96.41
  -6   2  -1  702.34  123.14
   6  -2   2  -20.33   52.81
  -6   2  -2  -36.65   52.80
   6  -2   3 1993.69  252.38
  -6   2  -3 1952.30  224.11
   6  -2   4   24.13   47.09
  -6   2  -4   19.41   56.14
  -6   1  -1  136.12   62.90
  -6   1  -1   85.44   64.99
  -6   1  -1   15.58   31.17
  -6   1  -1   96.73   42.83
   6  -1   2 4056.16  320.49
  -6   1  -2 3934.27  368.26
   6  -1   3   69.36   62.55
  -6   1  -3   60.92   57.38
  -6   1  -4 2314.93  246.19
   6  -1   4 2211.28  248.98
   6  -1   5  405.10   95.11
  -6   0   0 3507.46  306.32
  -6   0   0 3801.56  292.66
  -6   0   0 3797.80  331.37
   6   0   1   88.39   46.05
  -6   0  -1   64.82   33.68
  -6   0  -1   22.74   44.58
   6   0   2  352.21   83.69
   6   0   3 2120.65  217.07
  -6   0  -3 2200.34  226.29
   6   0   4 1199.39  182.52
  -6   0  -4 1186.20  149.60
  -6   0  -4 1147.64  138.74
  -6   0  -5 2448.21  305.74
   6   0   5 2028.87  218.47
   6   1   0  771.31  102.41
  -6  -1   0  843.82  105.95
  -6  -1   0  688.40   98.13
  -6  -1   0  733.67  111.79
   6   1   1 6295.51  450.60
   6   1   1 6463.06  438.58
  -6  -1  -1 6143.97  382.52
  -6  -1  -1 6377.68  477.07
   6   1   2  620.18   90.74
  -6  -1  -2  570.54   99.02
   6   1   3 1186.11  130.95
  -6  -1  -3 1087.20  160.36
  -6  -1  -3 1095.89  137.36
   6   1   4   94.92   68.83
  -6  -1  -4  129.93   60.12
   6   1   5 2779.61  257.58
  -6  -1  -5 3202.09  293.58
  -6  -1  -5 2204.75  196.11
   6   1   6  346.75   86.14
  -6  -1  -6  357.67  100.03
   6   2   0  636.55   96.25
  -6  -2   0  608.50   84.81
   6   2   1   75.00   53.20
   6   2   1   71.93   32.39
  -6  -2  -1  143.32   52.06
   6   2   2 2524.64  249.10
   6   2   2 2397.60  174.50
  -6  -2  -2 2356.29  215.95
   6   2   3  633.25  117.56
   6   2   3  691.39  100.26
  -6  -2  -3  817.02  137.72
   6   2   4 1793.57  189.17
  -6  -2  -4 1975.37  240.33
   6   2   5  881.58  129.60
  -6  -2  -5  842.97  164.12
   6   2   6  976.63  159.66
  -6  -2  -6  947.28  128.31
  -6  -2  -6 1269.58  126.53
   6   3   0  302.28   83.39
  -6  -3   0  259.63   53.94
  -6  -3   0  336.41   70.88
   6   3   1 1452.64  185.10
  -6  -3  -1 1444.36  157.27
   6   3   2  282.08   78.38
  -6  -3  -2  374.53   83.68
   6   3   3  466.45  102.05
   6   3   3  416.23   83.59
  -6  -3  -3  372.08   90.10
   6   3   4  846.04  165.06
   6   3   4  898.31  129.73
   6   3   5 1465.54  176.45
  -6  -3  -5 1713.18  235.44
  -6  -3  -5 1742.38  190.22
  -6  -4   0   -2.45   31.16
  -6  -4   0  -46.97   31.10
   6   4   1 1079.86  194.69
  -6  -4  -1  985.38  169.90
   6   4   2  594.36  123.57
   6   4   3 3847.13  350.48
  -6  -4  -3 3750.35  281.20
   6   4   4   63.42   60.71
  -6  -4  -4   79.93   64.41
   6   4   5 1907.71  203.27
   6   4   5 1730.48  152.25
   6   5   0 2731.10  252.29
  -6  -5   0 2675.27  256.80
   6   5   1  361.50   85.22
  -6  -5  -1  359.46   82.94
   6   5   2 1323.95  181.72
  -6  -5  -2 1165.26  143.10
   6   5   3  280.99   80.05
  -6  -5  -3  253.47   86.73
   6   5   4 4010.02  386.30
  -6  -5  -4 3552.19  353.70
   6   6   0  403.00   99.56
  -6  -6   0  626.50  114.94
   6   6   1   87.09   67.23
  -6  -6  -1   86.03   54.48
   6   6   2  726.07  147.59
  -6  -6  -2  839.24  121.92
   6   6   3  206.59   86.53
  -6  -6  -3  371.62  112.13
  -7   2  -1  -15.49   46.65
  -7   2  -1   18.05   44.09
  -7   1  -1  936.53  141.85
  -7   1  -1 1098.27  163.12
  -7   1  -2    0.91   47.38
  -7   1  -2   42.22   36.60
  -7   0   0   22.54   40.28
  -7   0   0   83.58   46.23
  -7   0  -1 1360.26  141.54
  -7   0  -1 1435.72  177.81
  -7   0  -1 1263.65  125.46
   7   0   2  889.54  119.56
  -7   0  -2 1006.07  145.32
   7   0   3  163.38   54.77
  -7   0  -3   59.59   52.61
  -7  -1   0 1734.64  219.38
  -7  -1   0 1821.95  207.77
  -7  -1  -1  519.21  102.96
  -7  -1  -1  509.46   87.34
   7   1   2  -30.87   39.83
  -7  -1  -2  -21.17   39.81
   7   1   3  100.57   38.45
  -7  -1  -3   71.36   47.21
   7   2   0  455.20   93.80
  -7  -2   0  490.38  107.02
   7   2   1 1590.18  201.94
  -7  -2  -1 1321.64  157.70
  -7  -2  -2  442.52   89.21
  -7  -2  -3   74.74   65.24
   7   3   0  623.88   99.09
  -7  -3   0  676.71  137.77
   7   3   1   16.11   55.95
  -7  -3  -1  -20.92   55.97
   7   3   2 1121.46  198.24
  -7  -3  -3  127.18   74.01
   7   4   0  662.61  114.51
  -7  -4   0  580.59  120.50
   7   4   1  395.53   87.86
  -7  -4  -1  664.18  112.18
   7   4   2  270.70   86.23
  -7  -4  -2  213.35   68.55

;
_shelx_hkl_checksum              9959
loop_
_space_group_symop_operation_xyz
'x, y, z'
'-x, -y, -z'
loop_
_atom_site_label
_atom_site_type_symbol
_atom_site_fract_x
_atom_site_fract_y
_atom_site_fract_z
_atom_site_U_iso_or_equiv
_atom_site_adp_type
_atom_site_occupancy
_atom_site_site_symmetry_order
_atom_site_calc_flag
_atom_site_refinement_flags_posn
_atom_site_refinement_flags_adp
_atom_site_refinement_flags_occupancy
_atom_site_disorder_assembly
_atom_site_disorder_group
S1 S 0.16761(6) 0.82357(5) 0.22938(5) 0.01381(11) Uani 1 1 d . . . . .
O1 O 0.1896(2) 0.75568(17) 0.03627(15) 0.0206(2) Uani 1 1 d . . . . .
O2 O -0.08141(19) 0.86038(16) 0.31479(16) 0.0180(2) Uani 1 1 d . . . . .
C1 C 0.3541(3) 0.6397(2) 0.3820(2) 0.0134(3) Uani 1 1 d . . . . .
C2 C 0.5509(3) 0.5143(2) 0.3020(2) 0.0160(3) Uani 1 1 d . . . . .
H2 H 0.583(4) 0.523(3) 0.166(3) 0.023(5) Uiso 1 1 d . . . . .
C3 C 0.6992(3) 0.3717(2) 0.4212(2) 0.0161(3) Uani 1 1 d . . . . .
H3 H 0.836(4) 0.278(3) 0.369(3) 0.028(5) Uiso 1 1 d . . . . .
C4 C 0.3168(3) 1.0464(2) 0.2371(2) 0.0172(3) Uani 1 1 d . . . . .
H4A H 0.223(4) 1.145(3) 0.149(3) 0.025(5) Uiso 1 1 d . . . . .
H4B H 0.497(4) 1.016(3) 0.199(3) 0.027(5) Uiso 1 1 d . . . . .
H4C H 0.298(4) 1.090(3) 0.364(3) 0.026(5) Uiso 1 1 d . . . . .
loop_
_atom_site_aniso_label
_atom_site_aniso_U_11
_atom_site_aniso_U_22
_atom_site_aniso_U_33
_atom_site_aniso_U_23
_atom_site_aniso_U_13
_atom_site_aniso_U_12
S1 0.01290(18) 0.01416(17) 0.01352(18) 0.00018(12) -0.00245(12) 0.00132(12)
O1 0.0239(6) 0.0222(5) 0.0141(5) -0.0028(4) -0.0045(4) 0.0043(4)
O2 0.0116(5) 0.0202(5) 0.0210(6) 0.0021(4) -0.0008(4) 0.0008(4)
C1 0.0119(6) 0.0125(6) 0.0152(7) 0.0006(5) -0.0022(5) 0.0001(5)
C2 0.0174(7) 0.0170(6) 0.0126(7) -0.0006(5) -0.0007(5) 0.0014(5)
C3 0.0157(7) 0.0164(6) 0.0151(7) -0.0009(5) 0.0003(5) 0.0023(5)
C4 0.0151(7) 0.0163(6) 0.0194(7) 0.0024(6) -0.0010(6) -0.0004(5)
loop_
_atom_type_symbol
_atom_type_description
_atom_type_scat_dispersion_real
_atom_type_scat_dispersion_imag
_atom_type_scat_source
C C 0.0033 0.0016 'International Tables Vol C Tables 4.2.6.8 and 6.1.1.4'
H H 0.0000 0.0000 'International Tables Vol C Tables 4.2.6.8 and 6.1.1.4'
O O 0.0106 0.0060 'International Tables Vol C Tables 4.2.6.8 and 6.1.1.4'
S S 0.1246 0.1234 'International Tables Vol C Tables 4.2.6.8 and 6.1.1.4'
loop_
_geom_angle_atom_site_label_1
_geom_angle_atom_site_label_2
_geom_angle_atom_site_label_3
_geom_angle
_geom_angle_site_symmetry_1
_geom_angle_site_symmetry_3
_geom_angle_publ_flag
O2 S1 O1 118.39(7) . . ?
O2 S1 C4 108.71(7) . . ?
O1 S1 C4 108.80(7) . . ?
O2 S1 C1 107.99(6) . . ?
O1 S1 C1 107.79(6) . . ?
C4 S1 C1 104.26(7) . . ?
C2 C1 C3 121.96(13) . 2_666 ?
C2 C1 S1 118.93(11) . . ?
C3 C1 S1 119.10(11) 2_666 . ?
C1 C2 C3 119.13(13) . . ?
C1 C2 H2 120.7(12) . . ?
C3 C2 H2 120.2(12) . . ?
C2 C3 C1 118.91(13) . 2_666 ?
C2 C3 H3 121.4(12) . . ?
C1 C3 H3 119.6(12) 2_666 . ?
S1 C4 H4A 105.0(11) . . ?
S1 C4 H4B 109.4(11) . . ?
H4A C4 H4B 112.5(16) . . ?
S1 C4 H4C 107.6(12) . . ?
H4A C4 H4C 110.1(16) . . ?
H4B C4 H4C 111.9(16) . . ?
loop_
_geom_bond_atom_site_label_1
_geom_bond_atom_site_label_2
_geom_bond_distance
_geom_bond_site_symmetry_2
_geom_bond_publ_flag
S1 O2 1.4475(11) . ?
S1 O1 1.4500(11) . ?
S1 C4 1.7757(15) . ?
S1 C1 1.7845(14) . ?
C1 C2 1.3911(19) . ?
C1 C3 1.398(2) 2_666 ?
C2 C3 1.397(2) . ?
C2 H2 0.959(19) . ?
C3 C1 1.398(2) 2_666 ?
C3 H3 0.98(2) . ?
C4 H4A 0.96(2) . ?
C4 H4B 0.99(2) . ?
C4 H4C 0.95(2) . ?
loop_
_geom_torsion_atom_site_label_1
_geom_torsion_atom_site_label_2
_geom_torsion_atom_site_label_3
_geom_torsion_atom_site_label_4
_geom_torsion
_geom_torsion_site_symmetry_1
_geom_torsion_site_symmetry_2
_geom_torsion_site_symmetry_3
_geom_torsion_site_symmetry_4
_geom_torsion_publ_flag
O2 S1 C1 C2 152.09(11) . . . . ?
O1 S1 C1 C2 23.10(13) . . . . ?
C4 S1 C1 C2 -92.41(13) . . . . ?
O2 S1 C1 C3 -28.96(13) . . . 2_666 ?
O1 S1 C1 C3 -157.95(12) . . . 2_666 ?
C4 S1 C1 C3 86.54(13) . . . 2_666 ?
C3 C1 C2 C3 0.4(2) 2_666 . . . ?
S1 C1 C2 C3 179.28(11) . . . . ?
C1 C2 C3 C1 -0.4(2) . . . 2_666 ?
