#------------------------------------------------------------------------------
#$Date: 2021-04-05 18:19:57 +0300 (Mon, 05 Apr 2021) $
#$Revision: 263854 $
#$URL: file:///home/coder/svn-repositories/cod/cif/7/15/79/7157943.cif $
#------------------------------------------------------------------------------
#
# This file is available in the Crystallography Open Database (COD),
# http://www.crystallography.net/
#
# All data on this site have been placed in the public domain by the
# contributors.
#
data_7157943
loop_
_publ_author_name
'Goodwin, Rosemary J.'
'Blyth, Mitchell T.'
'Fung, Alfred K. K.'
'Smith, Leesa M.'
'Norcott, Philip L.'
'Tanovic, Sara'
'Coote, Michelle L.'
'White, Nicholas G.'
_publ_section_title
;
 Simple acyclic molecules containing a single charge-assisted O-H group
 can recognize anions in acetonitrile&#x2009;:&#x2009;water mixtures.
;
_journal_issue                   12
_journal_name_full               'Organic &amp; biomolecular chemistry'
_journal_page_first              2794
_journal_page_last               2803
_journal_paper_doi               10.1039/d1ob00282a
_journal_volume                  19
_journal_year                    2021
_chemical_compound_source        synthesized
_chemical_formula_moiety         'C26 H22 N2 O2, 2(Br)'
_chemical_formula_sum            'C26 H22 Br2 N2 O2'
_chemical_formula_weight         554.28
_space_group_IT_number           2
_space_group_name_Hall           '-P 1'
_space_group_name_H-M_alt        'P -1'
_symmetry_cell_setting           triclinic
_symmetry_space_group_name_Hall  '-P 1'
_symmetry_space_group_name_H-M   'P -1'
_atom_sites_solution_hydrogens   difmap
_atom_sites_solution_primary     other
_audit_update_record
;
2020-12-16 deposited with the CCDC.	2021-03-08 downloaded from the CCDC.
;
_cell_angle_alpha                118.013(4)
_cell_angle_beta                 97.791(3)
_cell_angle_gamma                104.191(4)
_cell_formula_units_Z            1
_cell_length_a                   7.5194(4)
_cell_length_b                   9.4830(4)
_cell_length_c                   9.4934(3)
_cell_measurement_reflns_used    5624
_cell_measurement_temperature    150
_cell_measurement_theta_max      73.59
_cell_measurement_theta_min      5.44
_cell_volume                     553.98(5)
_computing_cell_refinement       'CrysAlisPro, (Agilent, 2011)'
_computing_data_collection       'CrysAlisPro, (Agilent, 2011'
_computing_data_reduction        'CrysAlisPro, (Agilent, 2011)'
_computing_publication_material  'CRYSTALS (Betteridge et al., 2003)'
_computing_structure_refinement  'CRYSTALS (Betteridge et al., 2003)'
_computing_structure_solution    'Superflip (Palatinus & Chapuis, 2007)'
_diffrn_ambient_temperature      150
_diffrn_measured_fraction_theta_full 0.996
_diffrn_measured_fraction_theta_max 0.996
_diffrn_measurement_device       Area
_diffrn_measurement_device_type  'Oxford Diffraction Supernova'
_diffrn_measurement_method       \w
_diffrn_radiation_monochromator  mirror
_diffrn_radiation_type           'Cu K\a'
_diffrn_radiation_wavelength     1.54184
_diffrn_reflns_av_R_equivalents  0.013
_diffrn_reflns_av_unetI/netI     0.015
_diffrn_reflns_limit_h_max       9
_diffrn_reflns_limit_h_min       -9
_diffrn_reflns_limit_k_max       11
_diffrn_reflns_limit_k_min       -11
_diffrn_reflns_limit_l_max       11
_diffrn_reflns_limit_l_min       -9
_diffrn_reflns_number            6507
_diffrn_reflns_theta_full        73.843
_diffrn_reflns_theta_max         73.843
_diffrn_reflns_theta_min         5.452
_diffrn_standards_number         0
_exptl_absorpt_coefficient_mu    4.857
_exptl_absorpt_correction_T_max  1.00
_exptl_absorpt_correction_T_min  0.55
_exptl_absorpt_correction_type   multi-scan
_exptl_absorpt_process_details   'CrysAlisPro, (Agilent, 2011)'
_exptl_crystal_colour            yellow
_exptl_crystal_density_diffrn    1.661
_exptl_crystal_density_meas      ?
_exptl_crystal_density_method    'not measured'
_exptl_crystal_description       block
_exptl_crystal_F_000             278
_exptl_crystal_size_max          0.35
_exptl_crystal_size_mid          0.20
_exptl_crystal_size_min          0.16
_refine_diff_density_max         0.38
_refine_diff_density_min         -0.38
_refine_ls_extinction_method     None
_refine_ls_goodness_of_fit_ref   1.0434
_refine_ls_hydrogen_treatment    mixed
_refine_ls_matrix_type           full
_refine_ls_number_parameters     149
_refine_ls_number_reflns         2231
_refine_ls_number_restraints     2
_refine_ls_R_factor_all          0.0210
_refine_ls_R_factor_gt           0.0209
_refine_ls_shift/su_max          0.0023026
_refine_ls_shift/su_mean         0.0000569
_refine_ls_structure_factor_coef Fsqd
_refine_ls_weighting_details
;
 Method= Modified Sheldrick 
 w=1/[\s^2^(F^2^) + ( 0.03P)^2^ + 0.60P] 
 ,where P=(max(Fo^2^,0) + 2Fc^2^)/3 
;
_refine_ls_weighting_scheme      calc
_refine_ls_wR_factor_all         0.0549
_refine_ls_wR_factor_gt          0.0548
_refine_ls_wR_factor_ref         0.0549
_reflns_limit_h_max              9
_reflns_limit_h_min              -9
_reflns_limit_k_max              10
_reflns_limit_k_min              -11
_reflns_limit_l_max              11
_reflns_limit_l_min              0
_reflns_number_gt                2223
_reflns_number_total             2231
_reflns_threshold_expression     I>2.0\s(I)
_oxford_diffrn_Wilson_B_factor   1.71
_oxford_diffrn_Wilson_scale      0.01
_oxford_refine_ls_r_factor_ref   0.0210
_oxford_refine_ls_scale          10.8(3)
_oxford_reflns_number_all        2231
_iucr_refine_instructions_details
;
#
# Punched on 03/09/20 at 17:06:12
#
#LIST     12                                                                    
BLOCK 
CONT SCALE 
CONT O    (     1 ,X'S,U'S)  UNTIL BR   (     1 ) 
CONT H    (    11 ,X'S,U[ISO]) 
RIDE C   (   3,X'S) H   (  31,X'S) 
RIDE C   (   4,X'S) H   (  41,X'S) 
RIDE C   (   5,X'S) H   (  51,X'S) 
RIDE C   (   8,X'S) H   (  81,X'S) 
RIDE C   (   9,X'S) H   (  91,X'S) 
RIDE C   (  10,X'S) H   ( 101,X'S) 
RIDE C   (  12,X'S) H   ( 121,X'S) H   ( 122,X'S) 
RIDE C   (  14,X'S) H   ( 141,X'S) 
RIDE C   (  15,X'S) H   ( 151,X'S) 
END                                                                             
#
# Punched on 03/09/20 at 17:06:12
#
#LIST     16                                                                    
NO 
REM   HREST   START (DO NOT REMOVE THIS LINE) 
REM NO H  NO #H U MULT   DIST 
REM C-H 
REM >4           1.5    .96 DISORDER 
REM 1      1     1.2    .93 C C-H (ACETYLENE) 
REM 1      2     1.2    .93 C-C(H)-C 
REM 1      3     1.2    .98 (C)3-C-H 
REM 2      1     1.2    .93 C=C-H(2) 
REM 2      2     1.2    .97 (C)2-C-(H)2 
REM 3      1     1.5    .96 C-C-(H)3 
REM N-H 
REM >4           1.5    .89 DISORDER 
REM 1      1     1.2    .86 N-N/H 
REM 1      2     1.2    .86 (C)2-N-H 
REM 1      3     1.2    .89 (C)3-N-H 
REM 2      1     1.2    .86 C-N-(H)2 
REM 2      2     1.2    .89 (C)2-N-(H)2 
REM 3      1     1.2    .89 C-H-(H)3 
REM O-H 
REM 1      1     1.5    .82 O-H 
REM 
REM DIST      ESD = 0.02 
REM VIB       ESD = 0.002 
REM ANGLE     ESD = 2.0 
REM 
REM TO ACTIVATE THE VIB RESTRAINTS, REMOVE LEADING REM 
REM       H ON O-HETRO ATOM 
DIST 0.82, 0.02 = 
CONT O ( 1) TO H(11) 
REST 0.029, 0.002 = H(11,U[ISO]) 
REM   HREST   END (DO NOT REMOVE THIS LINE) 
END                                                                             
;
_cod_data_source_file            d1ob00282a2.cif
_cod_data_source_block           3Br2
_cod_depositor_comments
;
The following automatic conversions were performed:

data item '_exptl_crystal_density_meas' value 'not measured' was
changed to '?' -- the value is perceived as not measured.

Automatic conversion script
Id: cif_fix_values 7556 2019-12-06 15:28:31Z antanas 

 Adding full bibliography for 7157935--7157948.cif.
;
_cod_original_sg_symbol_H-M      'P -1 '
_cod_database_code               7157943
_oxford_refine_reflns_threshold_expression I>-3.0\s(I)
_oxford_refine_ls_r_factor_all   0.0210
_oxford_refine_ls_wr_factor_all  0.0549
_iucr_refine_reflections_details
; 
 
# Data was input as F-squared 
# This file can be directly input to CRYSTALS 
# without any editing by issuing: 
# #USE ARCHIVE-HKL.CIF 
# punching LIST  6 as LIST  6 with all keys set 
# NBGNXT=    42 
#LIST   6 
READ NCOEF= 9 TYPE=FIX, F'S = FSQ UNIT=DATA, CHECK=NO L30=NO ARCH=NO 
STORE  NCOEF= 7 
OUTPUT INDICES     /FO/        SIGMA(/FO/) RATIO/JCODE CORRECTIONS SERIAL 
CONT   /FC/ 
INPUT  H           K           L           /FO/        SIGMA(/FO/) JCODE 
CONT   CORRECTIONS SERIAL      /FC/ 
FOR (3I4,F10.2,F8.2,F4.0,F7.4,F7.0,F10.2) 
END 
   0   0   1 123098.00  568.00  0. 1.0000     1.      0.00 
   0   0   2 275095.00 1244.40  0. 1.0000     2.      0.00 
   0   0   2 274262.97 1144.50  0. 1.0000     3.      0.00 
   0   0  -2 271671.03 1205.60  0. 1.0000     4.      0.00 
   0   0   3   8943.96  304.68  0. 1.0000     5.      0.00 
   0   0   3   9190.03  294.19  0. 1.0000     6.      0.00 
   0   0  -3   8566.02  276.66  0. 1.0000     7.      0.00 
   0   0   3   8613.53  285.39  0. 1.0000     8.      0.00 
   0   0  -4  46709.30  778.57  0. 1.0000     9.      0.00 
   0   0   4  46412.30  809.44  0. 1.0000    10.      0.00 
   0   0   4  47155.70  815.19  0. 1.0000    11.      0.00 
   0   0  -5 104730.00 1354.20  0. 1.0000    12.      0.00 
   0   0   5 101586.00 1412.40  0. 1.0000    13.      0.00 
   0   0   6  22209.30  786.27  0. 1.0000    14.      0.00 
   0   0   7  55250.20 1295.15  0. 1.0000    15.      0.00 
   0   0   7  57015.50 1202.42  0. 1.0000    16.      0.00 
   0   0   7  58707.00 1425.20  0. 1.0000    17.      0.00 
   0   0   7  59277.90 1292.27  0. 1.0000    18.      0.00 
   0   0   7  56574.60 1370.46  0. 1.0000    19.      0.00 
   0   0   7  59116.00 1334.15  0. 1.0000    20.      0.00 
   0   0   8    799.16  163.55  0. 1.0000    21.      0.00 
   0   0   8    868.47  169.92  0. 1.0000    22.      0.00 
   0   0   8    984.67  193.22  0. 1.0000    23.      0.00 
   0   0   8    706.87  164.80  0. 1.0000    24.      0.00 
   0   0   8    929.27  201.76  0. 1.0000    25.      0.00 
   0   0   9  39243.00  865.96  0. 1.0000    26.      0.00 
   0   0   9  38992.70  802.77  0. 1.0000    27.      0.00 
   0   0   9  41687.10  959.23  0. 1.0000    28.      0.00 
   0   0   9  41273.20  898.97  0. 1.0000    29.      0.00 
   0  -1  10  13160.70  416.38  0. 1.0000    30.      0.00 
   0  -1  10  14301.20  458.46  0. 1.0000    31.      0.00 
   0  -1  10  14284.80  469.39  0. 1.0000    32.      0.00 
   0  -1   9  23514.00  757.06  0. 1.0000    33.      0.00 
   0  -1   9  22679.30  786.94  0. 1.0000    34.      0.00 
   0  -1   9  23251.40  737.22  0. 1.0000    35.      0.00 
   0  -1   9  23528.40  808.57  0. 1.0000    36.      0.00 
   0  -1   8  11089.70  611.08  0. 1.0000    37.      0.00 
   0  -1   8  11824.80  606.92  0. 1.0000    38.      0.00 
   0  -1   8  10895.70  619.84  0. 1.0000    39.      0.00 
   0  -1   8  11635.80  553.84  0. 1.0000    40.      0.00 
   0  -1   8  11074.60  539.64  0. 1.0000    41.      0.00 
   0  -1   8  11604.60  579.49  0. 1.0000    42.      0.00 
   0  -1   7 108218.99 1849.00  0. 1.0000    43.      0.00 
   0  -1   7 106680.00 1708.20  0. 1.0000    44.      0.00 
   0  -1   7 101703.01 1834.00  0. 1.0000    45.      0.00 
   0  -1   7 103425.99 1585.40  0. 1.0000    46.      0.00 
   0  -1   7 109239.01 1700.70  0. 1.0000    47.      0.00 
   0  -1   7 101955.00 1754.90  0. 1.0000    48.      0.00 
   0  -1   6  12162.10  542.92  0. 1.0000    49.      0.00 
   0  -1   5 275670.00 2002.80  0. 1.0000    50.      0.00 
   0  -1   5 279141.00 2217.90  0. 1.0000    51.      0.00 
   0  -1   4  68451.70  815.02  0. 1.0000    52.      0.00 
   0  -1   4  66249.60  798.83  0. 1.0000    53.      0.00 
   0   1  -4  65567.70  703.57  0. 1.0000    54.      0.00 
   0  -1   4  63424.60  854.95  0. 1.0000    55.      0.00 
   0   1  -4  64084.60  766.11  0. 1.0000    56.      0.00 
   0  -1   4  68059.60  929.21  0. 1.0000    57.      0.00 
   0  -1   3 104185.00  949.30  0. 1.0000    58.      0.00 
   0  -1   3 106162.00  845.90  0. 1.0000    59.      0.00 
   0  -1   3 105148.00  791.50  0. 1.0000    60.      0.00 
   0   1  -3 105546.01  702.00  0. 1.0000    61.      0.00 
   0  -1   2 460923.97 1142.80  0. 1.0000    62.      0.00 
   0  -1   2 459008.00 1202.60  0. 1.0000    63.      0.00 
   0   1  -2 461348.97 1047.60  0. 1.0000    64.      0.00 
   0  -1   2 462343.97 1126.10  0. 1.0000    65.      0.00 
   0   1  -1    875.17   45.85  0. 1.0000    66.      0.00 
   0  -1   1    920.68   27.23  0. 1.0000    67.      0.00 
   0   1   0  35997.00  323.62  0. 1.0000    68.      0.00 
   0   1   0  35338.10  284.60  0. 1.0000    69.      0.00 
   0   1   1    440.46   49.17  0. 1.0000    70.      0.00 
   0   1   2 343410.03 1755.80  0. 1.0000    71.      0.00 
   0  -1  -2 344258.00 1729.80  0. 1.0000    72.      0.00 
   0   1   2 339158.00 1677.10  0. 1.0000    73.      0.00 
   0   1   3  32747.80  668.82  0. 1.0000    74.      0.00 
   0   1   3  31442.90  632.68  0. 1.0000    75.      0.00 
   0   1   3  31734.70  609.28  0. 1.0000    76.      0.00 
   0   1   3  30959.20  643.69  0. 1.0000    77.      0.00 
   0  -1  -3  31363.50  630.33  0. 1.0000    78.      0.00 
   0  -1  -4 188523.00 1800.90  0. 1.0000    79.      0.00 
   0   1   4 185162.98 1873.20  0. 1.0000    80.      0.00 
   0   1   5    649.54  142.10  0. 1.0000    81.      0.00 
   0   1   5    734.93  154.22  0. 1.0000    82.      0.00 
   0  -1  -5    670.59  134.04  0. 1.0000    83.      0.00 
   0   1   6  66318.40 1490.15  0. 1.0000    84.      0.00 
   0   1   6  67189.71 1416.66  0. 1.0000    85.      0.00 
   0   1   6  68833.90 1267.20  0. 1.0000    86.      0.00 
   0   1   6  65606.59 1242.60  0. 1.0000    87.      0.00 
   0   1   6  69267.80 1442.30  0. 1.0000    88.      0.00 
   0   1   6  65688.90 1332.13  0. 1.0000    89.      0.00 
   0   1   6  63320.90 1412.49  0. 1.0000    90.      0.00 
   0   1   7  42231.50 1117.53  0. 1.0000    91.      0.00 
   0   1   7  39964.40 1110.06  0. 1.0000    92.      0.00 
   0   1   7  41156.30  987.50  0. 1.0000    93.      0.00 
   0   1   7  40270.50 1165.12  0. 1.0000    94.      0.00 
   0   1   7  41485.70 1127.20  0. 1.0000    95.      0.00 
   0   1   8  14879.60  601.25  0. 1.0000    96.      0.00 
   0   1   8  15988.50  590.88  0. 1.0000    97.      0.00 
   0   1   8  15949.90  648.98  0. 1.0000    98.      0.00 
   0   1   8  15542.80  602.57  0. 1.0000    99.      0.00 
   0   1   9  11045.90  378.72  0. 1.0000   100.      0.00 
   0   1   9  11317.80  401.27  0. 1.0000   101.      0.00 
   0   1   9  10999.20  353.88  0. 1.0000   102.      0.00 
   0  -2  10  71090.80 1224.27  0. 1.0000   103.      0.00 
   0  -2  10  68896.70 1082.74  0. 1.0000   104.      0.00 
   0  -2   9  58845.20 1366.84  0. 1.0000   105.      0.00 
   0  -2   9  58531.70 1212.08  0. 1.0000   106.      0.00 
   0  -2   9  58712.00 1301.79  0. 1.0000   107.      0.00 
   0  -2   9  57915.30 1316.51  0. 1.0000   108.      0.00 
   0  -2   8  23185.30  855.23  0. 1.0000   109.      0.00 
   0  -2   8  21784.70  752.39  0. 1.0000   110.      0.00 
   0  -2   8  22534.80  789.74  0. 1.0000   111.      0.00 
   0  -2   8  23403.60  681.50  0. 1.0000   112.      0.00 
   0  -2   8  22417.50  864.13  0. 1.0000   113.      0.00 
   0  -2   8  22740.60  888.19  0. 1.0000   114.      0.00 
   0   2  -7  88247.20 1478.18  0. 1.0000   115.      0.00 
   0  -2   7  95675.20 1621.03  0. 1.0000   116.      0.00 
   0  -2   6  11686.80  444.00  0. 1.0000   117.      0.00 
   0  -2   6  11830.10  499.82  0. 1.0000   118.      0.00 
   0  -2   5 249074.02 1978.10  0. 1.0000   119.      0.00 
   0  -2   5 254187.98 1823.70  0. 1.0000   120.      0.00 
   0   2  -4   8338.63  191.73  0. 1.0000   121.      0.00 
   0   2  -4   8029.86  213.46  0. 1.0000   122.      0.00 
   0  -2   4   7837.09  206.34  0. 1.0000   123.      0.00 
   0  -2   4   8268.13  313.32  0. 1.0000   124.      0.00 
   0  -2   3 745826.00 2322.60  0. 1.0000   125.      0.00 
   0  -2   3 746523.94 2452.30  0. 1.0000   126.      0.00 
   0   2  -2  41887.70  301.03  0. 1.0000   127.      0.00 
   0   2  -2  43749.80  420.56  0. 1.0000   128.      0.00 
   0   2  -2  41497.30  437.25  0. 1.0000   129.      0.00 
   0  -2   2  42959.80  443.17  0. 1.0000   130.      0.00 
   0   2  -1 116751.99  476.20  0. 1.0000   131.      0.00 
   0   2  -1 117441.00  617.80  0. 1.0000   132.      0.00 
   0   2   0 115399.00  795.70  0. 1.0000   133.      0.00 
   0   2   0 113574.00  724.10  0. 1.0000   134.      0.00 
   0   2   1 260337.00 1486.90  0. 1.0000   135.      0.00 
   0  -2  -1 262982.97 1555.70  0. 1.0000   136.      0.00 
   0   2   1 262320.03 1298.30  0. 1.0000   137.      0.00 
   0   2   1 259547.00 1383.60  0. 1.0000   138.      0.00 
   0   2   2 527019.00 2417.20  0. 1.0000   139.      0.00 
   0   2   2 528401.06 2259.40  0. 1.0000   140.      0.00 
   0   2   3  47973.00  923.21  0. 1.0000   141.      0.00 
   0   2   3  47757.80  866.72  0. 1.0000   142.      0.00 
   0   2   3  45711.00  895.20  0. 1.0000   143.      0.00 
   0  -2  -3  45211.00  866.19  0. 1.0000   144.      0.00 
   0   2   4 104773.01 1575.70  0. 1.0000   145.      0.00 
   0  -2  -4 100760.00 1478.30  0. 1.0000   146.      0.00 
   0   2   5   1785.25  207.32  0. 1.0000   147.      0.00 
   0   2   5   2062.96  257.24  0. 1.0000   148.      0.00 
   0  -2  -5   1867.23  236.93  0. 1.0000   149.      0.00 
   0   2   6  49194.11 1244.75  0. 1.0000   150.      0.00 
   0   2   6  50305.11 1199.17  0. 1.0000   151.      0.00 
   0   2   6  52071.80 1181.49  0. 1.0000   152.      0.00 
   0   2   6  50034.80 1281.01  0. 1.0000   153.      0.00 
   0   2   6  50109.50 1253.42  0. 1.0000   154.      0.00 
   0   2   7   3098.26  297.18  0. 1.0000   155.      0.00 
   0   2   7   3171.58  307.11  0. 1.0000   156.      0.00 
   0   2   7   3063.37  267.73  0. 1.0000   157.      0.00 
   0   2   7   3175.55  306.66  0. 1.0000   158.      0.00 
   0   2   8  15151.60  515.29  0. 1.0000   159.      0.00 
   0   2   8  15109.10  511.25  0. 1.0000   160.      0.00 
   0   2   8  14968.10  497.27  0. 1.0000   161.      0.00 
   0  -3  11   1109.97  108.73  0. 1.0000   162.      0.00 
   0  -3  10   9092.30  482.55  0. 1.0000   163.      0.00 
   0  -3  10   8948.58  419.38  0. 1.0000   164.      0.00 
   0  -3  10   8972.01  443.41  0. 1.0000   165.      0.00 
   0  -3   9    125.26   94.98  0. 1.0000   166.      0.00 
   0  -3   9     64.15  104.85  0. 1.0000   167.      0.00 
   0  -3   9    264.71  111.60  0. 1.0000   168.      0.00 
   0  -3   9    287.31  134.97  0. 1.0000   169.      0.00 
   0  -3   9    246.09   97.11  0. 1.0000   170.      0.00 
   0  -3   9    163.69   88.52  0. 1.0000   171.      0.00 
   0  -3   8  92462.59 1466.85  0. 1.0000   172.      0.00 
   0  -3   8  96228.20 1434.01  0. 1.0000   173.      0.00 
   0  -3   8  92565.80 1554.28  0. 1.0000   174.      0.00 
   0  -3   8  91099.80 1720.91  0. 1.0000   175.      0.00 
   0  -3   8  91330.49 1617.46  0. 1.0000   176.      0.00 
   0  -3   8  89311.51 1714.69  0. 1.0000   177.      0.00 
   0  -3   7  53647.10 1053.05  0. 1.0000   178.      0.00 
   0   3  -7  50226.30 1049.57  0. 1.0000   179.      0.00 
   0  -3   7  52229.40 1142.23  0. 1.0000   180.      0.00 
   0   3  -6  61277.40 1005.32  0. 1.0000   181.      0.00 
   0  -3   6  63392.70 1107.24  0. 1.0000   182.      0.00 
   0  -3   6  64713.80 1041.89  0. 1.0000   183.      0.00 
   0  -3   5  47154.20  800.60  0. 1.0000   184.      0.00 
   0   3  -5  46886.00  698.99  0. 1.0000   185.      0.00 
   0   3  -5  46899.90  759.91  0. 1.0000   186.      0.00 
   0   3  -4  57213.70  690.40  0. 1.0000   187.      0.00 
   0  -3   4  53337.80  753.76  0. 1.0000   188.      0.00 
   0  -3   4  54631.20  627.12  0. 1.0000   189.      0.00 
   0   3  -4  56127.50  703.89  0. 1.0000   190.      0.00 
   0  -3   3 174745.00 1242.90  0. 1.0000   191.      0.00 
   0   3  -3 173817.00 1135.70  0. 1.0000   192.      0.00 
   0  -3   3 174482.98 1123.80  0. 1.0000   193.      0.00 
   0   3  -2  32991.70  495.22  0. 1.0000   194.      0.00 
   0   3  -2  33001.10  355.61  0. 1.0000   195.      0.00 
   0   3  -1 292846.97 1611.70  0. 1.0000   196.      0.00 
   0  -3   1 287453.00 1470.30  0. 1.0000   197.      0.00 
   0   3  -1 286079.00 1267.40  0. 1.0000   198.      0.00 
   0   3  -1 292483.97 1099.50  0. 1.0000   199.      0.00 
   0  -3   0  44629.80  674.88  0. 1.0000   200.      0.00 
   0   3   0  45494.90  562.18  0. 1.0000   201.      0.00 
   0   3   0  46072.90  611.10  0. 1.0000   202.      0.00 
   0  -3  -1  12509.60  407.55  0. 1.0000   203.      0.00 
   0   3   1  12569.00  381.04  0. 1.0000   204.      0.00 
   0   3   1  12636.00  358.40  0. 1.0000   205.      0.00 
   0   3   2   2533.18  205.35  0. 1.0000   206.      0.00 
   0   3   2   2627.13  196.60  0. 1.0000   207.      0.00 
   0  -3  -2   2851.73  224.87  0. 1.0000   208.      0.00 
   0   3   3  98205.59 1496.23  0. 1.0000   209.      0.00 
   0  -3  -3  99143.40 1483.58  0. 1.0000   210.      0.00 
   0   3   4 120171.99 1867.20  0. 1.0000   211.      0.00 
   0  -3  -4 123525.99 1859.50  0. 1.0000   212.      0.00 
   0   3   4 124419.00 1842.80  0. 1.0000   213.      0.00 
   0   3   5  33918.50 1007.85  0. 1.0000   214.      0.00 
   0   3   5  33709.50 1018.07  0. 1.0000   215.      0.00 
   0   3   6 120462.00 1766.50  0. 1.0000   216.      0.00 
   0   3   6 122599.99 1874.60  0. 1.0000   217.      0.00 
   0   3   6 124165.99 1846.20  0. 1.0000   218.      0.00 
   0   3   6 124457.00 1841.90  0. 1.0000   219.      0.00 
   0   3   7   5113.80  313.03  0. 1.0000   220.      0.00 
   0   3   7   4841.70  318.36  0. 1.0000   221.      0.00 
   0   3   7   5074.69  319.86  0. 1.0000   222.      0.00 
   0   3   7   4961.32  286.99  0. 1.0000   223.      0.00 
   0   3   8  58059.40  709.53  0. 1.0000   224.      0.00 
   0   3   8  58570.90  696.10  0. 1.0000   225.      0.00 
   0  -4  11   3366.40  205.23  0. 1.0000   226.      0.00 
   0  -4  10  32367.30  762.30  0. 1.0000   227.      0.00 
   0  -4  10  35315.60  775.77  0. 1.0000   228.      0.00 
   0  -4  10  34484.50  851.24  0. 1.0000   229.      0.00 
   0  -4  10  34627.00  945.95  0. 1.0000   230.      0.00 
   0  -4  10  33793.50  825.96  0. 1.0000   231.      0.00 
   0  -4   9    215.01  125.03  0. 1.0000   232.      0.00 
   0  -4   9    176.73  121.59  0. 1.0000   233.      0.00 
   0  -4   9    475.42  122.02  0. 1.0000   234.      0.00 
   0  -4   9    220.10  100.57  0. 1.0000   235.      0.00 
   0  -4   9    213.35  111.84  0. 1.0000   236.      0.00 
   0  -4   9    368.51  121.90  0. 1.0000   237.      0.00 
   0  -4   8 196104.98 2202.80  0. 1.0000   238.      0.00 
   0  -4   8 192952.02 2398.40  0. 1.0000   239.      0.00 
   0  -4   8 196709.00 2179.30  0. 1.0000   240.      0.00 
   0  -4   8 198584.00 2115.10  0. 1.0000   241.      0.00 
   0  -4   8 200235.00 2130.70  0. 1.0000   242.      0.00 
   0  -4   8 193137.00 2206.30  0. 1.0000   243.      0.00 
   0  -4   8 195380.00 2391.40  0. 1.0000   244.      0.00 
   0   4  -7  25059.20  694.05  0. 1.0000   245.      0.00 
   0  -4   7  25110.90  733.70  0. 1.0000   246.      0.00 
   0   4  -6 183932.02 1654.10  0. 1.0000   247.      0.00 
   0  -4   6 184424.02 1829.20  0. 1.0000   248.      0.00 
   0   4  -5  95048.90 1069.56  0. 1.0000   249.      0.00 
   0  -4   5  89601.49 1164.33  0. 1.0000   250.      0.00 
   0  -4   4 268198.00 1638.20  0. 1.0000   251.      0.00 
   0  -4   4 266793.00 1858.80  0. 1.0000   252.      0.00 
   0   4  -4 264117.00 1660.50  0. 1.0000   253.      0.00 
   0  -4   3   7343.57  285.64  0. 1.0000   254.      0.00 
   0   4  -3   7109.05  273.05  0. 1.0000   255.      0.00 
   0   4  -2 132334.00  866.60  0. 1.0000   256.      0.00 
   0  -4   2 131544.98 1064.80  0. 1.0000   257.      0.00 
   0   4  -2 132640.00 1224.30  0. 1.0000   258.      0.00 
   0   4  -1 282747.03 1375.30  0. 1.0000   259.      0.00 
   0   4  -1 280789.00 1860.10  0. 1.0000   260.      0.00 
   0  -4   1 278772.97 1803.90  0. 1.0000   261.      0.00 
   0   4   0  66898.91  844.45  0. 1.0000   262.      0.00 
   0   4   0  67704.51  809.79  0. 1.0000   263.      0.00 
   0  -4   0  65868.61  990.14  0. 1.0000   264.      0.00 
   0   4   0  67650.60  971.52  0. 1.0000   265.      0.00 
   0  -4  -1 386221.97 2678.20  0. 1.0000   266.      0.00 
   0   4   1 389455.00 2381.70  0. 1.0000   267.      0.00 
   0   4   1 384611.03 2246.00  0. 1.0000   268.      0.00 
   0  -4  -2   3647.12  298.37  0. 1.0000   269.      0.00 
   0   4   2   2993.13  246.84  0. 1.0000   270.      0.00 
   0   4   3  94771.10 1536.39  0. 1.0000   271.      0.00 
   0  -4  -3  93232.49 1628.74  0. 1.0000   272.      0.00 
   0   4   3  89851.51 1591.47  0. 1.0000   273.      0.00 
   0   4   4  13917.30  623.69  0. 1.0000   274.      0.00 
   0   4   4  13216.30  607.01  0. 1.0000   275.      0.00 
   0   4   5  22424.90  766.68  0. 1.0000   276.      0.00 
   0   4   5  22932.50  780.48  0. 1.0000   277.      0.00 
   0   4   5  22367.90  755.99  0. 1.0000   278.      0.00 
   0   4   6  25461.20  707.86  0. 1.0000   279.      0.00 
   0   4   6  24746.30  671.34  0. 1.0000   280.      0.00 
   0   4   6  25355.70  693.25  0. 1.0000   281.      0.00 
   0   4   6  25311.70  738.15  0. 1.0000   282.      0.00 
   0   4   7   2379.74  159.92  0. 1.0000   283.      0.00 
   0   4   7   2483.27  169.14  0. 1.0000   284.      0.00 
   0   4   7   2278.60  139.50  0. 1.0000   285.      0.00 
   0  -5  11  41335.80  677.67  0. 1.0000   286.      0.00 
   0  -5  10  28153.70  725.15  0. 1.0000   287.      0.00 
   0  -5  10  27020.60  747.50  0. 1.0000   288.      0.00 
   0  -5  10  26059.20  712.96  0. 1.0000   289.      0.00 
   0  -5  10  27409.00  691.32  0. 1.0000   290.      0.00 
   0  -5   9   9245.85  477.88  0. 1.0000   291.      0.00 
   0  -5   9   9556.13  474.25  0. 1.0000   292.      0.00 
   0  -5   9   9306.43  498.51  0. 1.0000   293.      0.00 
   0  -5   9   9095.00  505.67  0. 1.0000   294.      0.00 
   0  -5   9   9635.39  487.03  0. 1.0000   295.      0.00 
   0  -5   9   8701.10  451.93  0. 1.0000   296.      0.00 
   0  -5   8  28703.30  813.66  0. 1.0000   297.      0.00 
   0  -5   8  28588.30  835.66  0. 1.0000   298.      0.00 
   0  -5   8  28589.20  853.42  0. 1.0000   299.      0.00 
   0  -5   8  29044.60  876.29  0. 1.0000   300.      0.00 
   0  -5   8  28506.30  835.82  0. 1.0000   301.      0.00 
   0  -5   7  76403.79 1332.70  0. 1.0000   302.      0.00 
   0  -5   6 126739.00 1587.50  0. 1.0000   303.      0.00 
   0   5  -6 135017.00 1468.30  0. 1.0000   304.      0.00 
   0  -5   5    264.13   77.69  0. 1.0000   305.      0.00 
   0   5  -5    246.29   73.28  0. 1.0000   306.      0.00 
   0  -5   4 134630.98 1476.10  0. 1.0000   307.      0.00 
   0  -5   4 136106.00 1397.20  0. 1.0000   308.      0.00 
   0   5  -4 138315.02 1382.90  0. 1.0000   309.      0.00 
   0  -5   3  92102.10 1207.13  0. 1.0000   310.      0.00 
   0   5  -3  93039.80 1153.21  0. 1.0000   311.      0.00 
   0   5  -2 288668.97 2071.40  0. 1.0000   312.      0.00 
   0  -5   2 289294.03 1925.50  0. 1.0000   313.      0.00 
   0   5  -1  57349.70  776.43  0. 1.0000   314.      0.00 
   0   5  -1  56985.11  958.26  0. 1.0000   315.      0.00 
   0  -5   1  55209.50  953.62  0. 1.0000   316.      0.00 
   0   5   0 138760.00 1394.70  0. 1.0000   317.      0.00 
   0   5   0 139394.02 1587.50  0. 1.0000   318.      0.00 
   0  -5   0 141700.00 1708.00  0. 1.0000   319.      0.00 
   0   5   1  77131.30 1181.77  0. 1.0000   320.      0.00 
   0  -5  -1  76627.61 1392.84  0. 1.0000   321.      0.00 
   0   5   2    384.72  114.52  0. 1.0000   322.      0.00 
   0  -5  -2    565.66  143.68  0. 1.0000   323.      0.00 
   0   5   2    563.64  130.30  0. 1.0000   324.      0.00 
   0  -5  -3 124020.00 1847.40  0. 1.0000   325.      0.00 
   0   5   3 128236.99 1761.20  0. 1.0000   326.      0.00 
   0   5   4     71.54   82.62  0. 1.0000   327.      0.00 
   0   5   4    148.33   88.18  0. 1.0000   328.      0.00 
   0   5   5  55707.40  939.26  0. 1.0000   329.      0.00 
   0   5   5  56317.20 1016.13  0. 1.0000   330.      0.00 
   0   5   5  58239.30 1060.68  0. 1.0000   331.      0.00 
   0   5   6   1877.85  142.80  0. 1.0000   332.      0.00 
   0   5   6   1726.08  149.04  0. 1.0000   333.      0.00 
   0   5   6   1917.70  145.51  0. 1.0000   334.      0.00 
   0  -6  11  46981.70  767.18  0. 1.0000   335.      0.00 
   0  -6  11  49182.50  717.02  0. 1.0000   336.      0.00 
   0  -6  10   2764.62  239.10  0. 1.0000   337.      0.00 
   0  -6  10   2258.50  217.83  0. 1.0000   338.      0.00 
   0  -6  10   2640.97  237.80  0. 1.0000   339.      0.00 
   0  -6   9 182023.00 2027.00  0. 1.0000   340.      0.00 
   0  -6   9 180439.00 2099.50  0. 1.0000   341.      0.00 
   0  -6   8 124680.99 1811.50  0. 1.0000   342.      0.00 
   0  -6   8 126235.00 1712.40  0. 1.0000   343.      0.00 
   0  -6   7  48843.70 1075.77  0. 1.0000   344.      0.00 
   0  -6   7  50330.80 1035.59  0. 1.0000   345.      0.00 
   0  -6   7  46807.60  999.68  0. 1.0000   346.      0.00 
   0  -6   7  48600.90 1110.38  0. 1.0000   347.      0.00 
   0  -6   6  52104.60 1109.31  0. 1.0000   348.      0.00 
   0   6  -6  55257.80 1033.45  0. 1.0000   349.      0.00 
   0  -6   5  31425.10  832.31  0. 1.0000   350.      0.00 
   0   6  -5  31587.20  762.38  0. 1.0000   351.      0.00 
   0  -6   4 298688.00 2420.40  0. 1.0000   352.      0.00 
   0   6  -4 293713.97 2293.70  0. 1.0000   353.      0.00 
   0  -6   4 302378.03 2521.00  0. 1.0000   354.      0.00 
   0   6  -3   1886.52  190.46  0. 1.0000   355.      0.00 
   0  -6   3   1657.91  195.94  0. 1.0000   356.      0.00 
   0   6  -2 177027.00 1830.90  0. 1.0000   357.      0.00 
   0   6  -1    375.95   98.87  0. 1.0000   358.      0.00 
   0  -6   1    663.46  133.63  0. 1.0000   359.      0.00 
   0  -6   0  65325.30 1314.15  0. 1.0000   360.      0.00 
   0   6   1  68474.60 1222.90  0. 1.0000   361.      0.00 
   0  -6  -1  71311.39 1415.34  0. 1.0000   362.      0.00 
   0   6   1  72342.50 1320.83  0. 1.0000   363.      0.00 
   0   6   2  51102.40 1040.30  0. 1.0000   364.      0.00 
   0  -6  -2  52977.30 1224.87  0. 1.0000   365.      0.00 
   0   6   2  52818.30 1126.82  0. 1.0000   366.      0.00 
   0  -6  -3   7243.22  426.71  0. 1.0000   367.      0.00 
   0   6   3   8037.78  402.53  0. 1.0000   368.      0.00 
   0   6   3   7056.90  379.14  0. 1.0000   369.      0.00 
   0   6   4  24032.40  659.65  0. 1.0000   370.      0.00 
   0   6   4  23669.90  609.40  0. 1.0000   371.      0.00 
   0   6   5  12102.90  372.16  0. 1.0000   372.      0.00 
   0   6   5  11992.00  319.31  0. 1.0000   373.      0.00 
   0   6   5  11793.70  351.43  0. 1.0000   374.      0.00 
   0  -7  11   9355.32  331.84  0. 1.0000   375.      0.00 
   0  -7  11   9500.54  350.29  0. 1.0000   376.      0.00 
   0  -7  11   9759.22  346.49  0. 1.0000   377.      0.00 
   0  -7  10   1678.36  193.23  0. 1.0000   378.      0.00 
   0  -7  10   2094.70  211.40  0. 1.0000   379.      0.00 
   0  -7  10   1952.07  202.71  0. 1.0000   380.      0.00 
   0  -7   9  74774.61 1282.09  0. 1.0000   381.      0.00 
   0  -7   9  76666.10 1350.47  0. 1.0000   382.      0.00 
   0  -7   9  72831.71 1351.88  0. 1.0000   383.      0.00 
   0  -7   8    937.83  166.68  0. 1.0000   384.      0.00 
   0  -7   8    658.34  134.62  0. 1.0000   385.      0.00 
   0  -7   8    968.67  177.09  0. 1.0000   386.      0.00 
   0  -7   8    607.26  149.92  0. 1.0000   387.      0.00 
   0  -7   7  83410.90 1395.96  0. 1.0000   388.      0.00 
   0  -7   7  80845.30 1401.80  0. 1.0000   389.      0.00 
   0  -7   7  82664.90 1503.60  0. 1.0000   390.      0.00 
   0  -7   7  79345.70 1321.40  0. 1.0000   391.      0.00 
   0  -7   6   5052.81  332.03  0. 1.0000   392.      0.00 
   0  -7   6   4925.13  339.17  0. 1.0000   393.      0.00 
   0  -7   6   5252.69  345.90  0. 1.0000   394.      0.00 
   0  -7   5 104939.00 1674.60  0. 1.0000   395.      0.00 
   0   7  -5 103246.00 1511.50  0. 1.0000   396.      0.00 
   0  -7   4  24804.10  811.04  0. 1.0000   397.      0.00 
   0  -7   4  23107.20  772.57  0. 1.0000   398.      0.00 
   0   7  -4  24021.10  725.38  0. 1.0000   399.      0.00 
   0  -7   3  16850.20  686.86  0. 1.0000   400.      0.00 
   0   7  -3  14901.90  575.43  0. 1.0000   401.      0.00 
   0   7  -2  94693.20 1409.21  0. 1.0000   402.      0.00 
   0  -7   2  93205.49 1455.93  0. 1.0000   403.      0.00 
   0  -7   2  97078.00 1582.89  0. 1.0000   404.      0.00 
   0  -7   1   8633.49  479.59  0. 1.0000   405.      0.00 
   0   7  -1   9269.50  463.76  0. 1.0000   406.      0.00 
   0  -7   1   9369.38  517.97  0. 1.0000   407.      0.00 
   0  -7   1   8691.81  448.05  0. 1.0000   408.      0.00 
   0   7   0 179312.00 1881.60  0. 1.0000   409.      0.00 
   0   7   0 181846.98 2077.20  0. 1.0000   410.      0.00 
   0  -7   0 184888.00 2321.20  0. 1.0000   411.      0.00 
   0  -7  -1  12323.00  594.81  0. 1.0000   412.      0.00 
   0   7   1  12967.20  552.41  0. 1.0000   413.      0.00 
   0  -7  -2 118120.01 1682.80  0. 1.0000   414.      0.00 
   0   7   2 116282.00 1507.70  0. 1.0000   415.      0.00 
   0   7   2 114674.99 1500.10  0. 1.0000   416.      0.00 
   0   7   3   8151.35  355.39  0. 1.0000   417.      0.00 
   0  -7  -3   8153.61  365.82  0. 1.0000   418.      0.00 
   0   7   4  10289.00  316.89  0. 1.0000   419.      0.00 
   0   7   4   9803.28  292.66  0. 1.0000   420.      0.00 
   0  -8  11  23555.00  500.98  0. 1.0000   421.      0.00 
   0  -8  11  21999.00  501.05  0. 1.0000   422.      0.00 
   0  -8  10   6038.64  313.57  0. 1.0000   423.      0.00 
   0  -8  10   6599.86  341.01  0. 1.0000   424.      0.00 
   0  -8  10   5855.82  333.28  0. 1.0000   425.      0.00 
   0  -8   9  38971.70  833.03  0. 1.0000   426.      0.00 
   0  -8   9  37906.11  950.69  0. 1.0000   427.      0.00 
   0  -8   9  38679.10  870.45  0. 1.0000   428.      0.00 
   0  -8   9  39907.60  923.02  0. 1.0000   429.      0.00 
   0  -8   8  21768.40  771.70  0. 1.0000   430.      0.00 
   0  -8   8  22537.10  691.28  0. 1.0000   431.      0.00 
   0  -8   8  23272.90  717.36  0. 1.0000   432.      0.00 
   0  -8   8  23543.40  742.14  0. 1.0000   433.      0.00 
   0  -8   7 185859.00 2295.40  0. 1.0000   434.      0.00 
   0  -8   7 187992.00 2119.90  0. 1.0000   435.      0.00 
   0  -8   7 188919.00 2067.40  0. 1.0000   436.      0.00 
   0  -8   6   6925.31  406.19  0. 1.0000   437.      0.00 
   0  -8   6   7355.91  397.16  0. 1.0000   438.      0.00 
   0  -8   6   7562.24  433.90  0. 1.0000   439.      0.00 
   0  -8   6   7142.92  437.04  0. 1.0000   440.      0.00 
   0  -8   5  82512.70 1509.97  0. 1.0000   441.      0.00 
   0  -8   5  83173.61 1428.14  0. 1.0000   442.      0.00 
   0  -8   5  84914.30 1411.60  0. 1.0000   443.      0.00 
   0   8  -4     96.90   75.62  0. 1.0000   444.      0.00 
   0  -8   4     75.18   78.18  0. 1.0000   445.      0.00 
   0  -8   4    216.91   97.03  0. 1.0000   446.      0.00 
   0  -8   4     81.67   83.82  0. 1.0000   447.      0.00 
   0  -8   3  79211.89 1290.53  0. 1.0000   448.      0.00 
   0   8  -3  84029.60 1344.01  0. 1.0000   449.      0.00 
   0  -8   3  80679.30 1524.10  0. 1.0000   450.      0.00 
   0  -8   3  84017.70 1430.79  0. 1.0000   451.      0.00 
   0  -8   3  80509.80 1436.57  0. 1.0000   452.      0.00 
   0  -8   2  11180.80  561.94  0. 1.0000   453.      0.00 
   0  -8   2  10612.50  506.96  0. 1.0000   454.      0.00 
   0  -8   2  11295.40  567.12  0. 1.0000   455.      0.00 
   0   8  -2  10874.80  500.71  0. 1.0000   456.      0.00 
   0   8  -1  42274.90  985.97  0. 1.0000   457.      0.00 
   0  -8   1  42112.20 1085.30  0. 1.0000   458.      0.00 
   0  -8   1  44492.50 1075.73  0. 1.0000   459.      0.00 
   0  -8   1  40778.50  949.64  0. 1.0000   460.      0.00 
   0  -8   0  10524.90  477.33  0. 1.0000   461.      0.00 
   0  -8   0  10838.20  538.91  0. 1.0000   462.      0.00 
   0   8   0  10147.60  471.94  0. 1.0000   463.      0.00 
   0   8   1   1177.29  141.06  0. 1.0000   464.      0.00 
   0   8   1   1223.52  156.24  0. 1.0000   465.      0.00 
   0  -8  -1   1312.70  186.96  0. 1.0000   466.      0.00 
   0   8   2  27396.90  555.63  0. 1.0000   467.      0.00 
   0   8   2  27287.30  553.28  0. 1.0000   468.      0.00 
   0  -8  -2  28112.60  643.07  0. 1.0000   469.      0.00 
   0  -9  10  35445.20  745.76  0. 1.0000   470.      0.00 
   0  -9  10  37762.00  708.20  0. 1.0000   471.      0.00 
   0  -9   9  12963.30  470.30  0. 1.0000   472.      0.00 
   0  -9   9  12304.90  506.78  0. 1.0000   473.      0.00 
   0  -9   9  12150.60  447.86  0. 1.0000   474.      0.00 
   0  -9   8  14818.00  600.74  0. 1.0000   475.      0.00 
   0  -9   8  15076.60  531.59  0. 1.0000   476.      0.00 
   0  -9   8  15697.40  565.53  0. 1.0000   477.      0.00 
   0  -9   7  10335.60  482.88  0. 1.0000   478.      0.00 
   0  -9   7  10295.80  482.78  0. 1.0000   479.      0.00 
   0  -9   7  10020.30  515.46  0. 1.0000   480.      0.00 
   0  -9   7  10001.90  433.84  0. 1.0000   481.      0.00 
   0  -9   7   9853.10  450.65  0. 1.0000   482.      0.00 
   0  -9   6  23751.60  738.15  0. 1.0000   483.      0.00 
   0  -9   6  23283.50  778.08  0. 1.0000   484.      0.00 
   0  -9   6  24703.00  754.64  0. 1.0000   485.      0.00 
   0  -9   5  79570.79 1329.01  0. 1.0000   486.      0.00 
   0  -9   5  78998.50 1472.20  0. 1.0000   487.      0.00 
   0   9  -5  79410.49 1210.47  0. 1.0000   488.      0.00 
   0  -9   5  80574.70 1389.04  0. 1.0000   489.      0.00 
   0  -9   4   2096.76  233.58  0. 1.0000   490.      0.00 
   0   9  -4   2088.13  211.02  0. 1.0000   491.      0.00 
   0  -9   4   1979.95  249.01  0. 1.0000   492.      0.00 
   0  -9   3 120633.01 1791.60  0. 1.0000   493.      0.00 
   0  -9   3 120376.01 1662.10  0. 1.0000   494.      0.00 
   0   9  -3 118032.99 1548.30  0. 1.0000   495.      0.00 
   0  -9   2    175.10   87.57  0. 1.0000   496.      0.00 
   0   9  -2     67.39   76.49  0. 1.0000   497.      0.00 
   0  -9   2    118.76   92.07  0. 1.0000   498.      0.00 
   0  -9   1  93311.79 1431.05  0. 1.0000   499.      0.00 
   0  -9   1  92540.80 1335.95  0. 1.0000   500.      0.00 
   0  -9   1  92806.60 1222.60  0. 1.0000   501.      0.00 
   0   9  -1  92438.01 1302.69  0. 1.0000   502.      0.00 
   0   9   0  14015.20  455.91  0. 1.0000   503.      0.00 
   0  -9   0  14497.20  507.65  0. 1.0000   504.      0.00 
   0   9   1  13618.00  347.19  0. 1.0000   505.      0.00 
   0  -9  -1  13873.40  401.18  0. 1.0000   506.      0.00 
   0 -10  10  23213.10  497.10  0. 1.0000   507.      0.00 
   0 -10   9     65.75   57.70  0. 1.0000   508.      0.00 
   0 -10   9     58.71   57.32  0. 1.0000   509.      0.00 
   0 -10   9    110.94   55.59  0. 1.0000   510.      0.00 
   0 -10   8  32114.20  772.78  0. 1.0000   511.      0.00 
   0 -10   8  32658.00  719.71  0. 1.0000   512.      0.00 
   0 -10   7   7970.26  377.88  0. 1.0000   513.      0.00 
   0 -10   7   7248.09  350.74  0. 1.0000   514.      0.00 
   0 -10   7   6817.66  356.41  0. 1.0000   515.      0.00 
   0 -10   7   7858.75  404.22  0. 1.0000   516.      0.00 
   0 -10   6  54760.30 1075.04  0. 1.0000   517.      0.00 
   0 -10   6  56810.10 1043.85  0. 1.0000   518.      0.00 
   0 -10   6  58663.50 1019.27  0. 1.0000   519.      0.00 
   0 -10   6  56932.00 1088.21  0. 1.0000   520.      0.00 
   0 -10   5  23835.90  638.00  0. 1.0000   521.      0.00 
   0  10  -5  23228.80  588.07  0. 1.0000   522.      0.00 
   0 -10   5  23124.10  719.16  0. 1.0000   523.      0.00 
   0 -10   5  23063.40  677.25  0. 1.0000   524.      0.00 
   0  10  -4  23587.70  607.73  0. 1.0000   525.      0.00 
   0 -10   4  24558.20  588.16  0. 1.0000   526.      0.00 
   0 -10   4  25350.50  739.57  0. 1.0000   527.      0.00 
   0 -10   4  24438.00  683.00  0. 1.0000   528.      0.00 
   0  10  -3  56388.50  922.42  0. 1.0000   529.      0.00 
   0 -10   3  56261.80  950.46  0. 1.0000   530.      0.00 
   0 -10   3  59256.00 1058.03  0. 1.0000   531.      0.00 
   0 -10   3  58482.11  987.00  0. 1.0000   532.      0.00 
   0 -10   2  13185.60  441.69  0. 1.0000   533.      0.00 
   0 -10   2  12978.90  440.44  0. 1.0000   534.      0.00 
   0 -10   2  12729.10  396.25  0. 1.0000   535.      0.00 
   0  10  -2  12820.80  415.91  0. 1.0000   536.      0.00 
   0 -10   1  34083.20  627.65  0. 1.0000   537.      0.00 
   0  10  -1  32507.10  579.82  0. 1.0000   538.      0.00 
   0 -11   8  60175.50  756.87  0. 1.0000   539.      0.00 
   0 -11   8  59943.30  802.70  0. 1.0000   540.      0.00 
   0 -11   7    600.17   89.42  0. 1.0000   541.      0.00 
   0 -11   7    504.40   90.04  0. 1.0000   542.      0.00 
   0 -11   7    667.67   93.31  0. 1.0000   543.      0.00 
   0 -11   6  66421.00  884.59  0. 1.0000   544.      0.00 
   0 -11   6  65569.30  894.78  0. 1.0000   545.      0.00 
   0 -11   6  68718.70  838.48  0. 1.0000   546.      0.00 
   0 -11   6  66221.90  932.76  0. 1.0000   547.      0.00 
   0 -11   5  22909.00  529.72  0. 1.0000   548.      0.00 
   0 -11   5  22919.10  555.51  0. 1.0000   549.      0.00 
   0 -11   5  22560.30  478.43  0. 1.0000   550.      0.00 
   0  11  -4  35306.70  538.25  0. 1.0000   551.      0.00 
   0 -11   4  34820.20  600.79  0. 1.0000   552.      0.00 
   0 -11   4  36059.11  652.83  0. 1.0000   553.      0.00 
   1 -11   3   4550.82  230.09  0. 1.0000   554.      0.00 
   1 -11   3   4757.14  228.00  0. 1.0000   555.      0.00 
  -1  11  -3   4265.98  198.58  0. 1.0000   556.      0.00 
  -1  11  -4  17702.20  407.92  0. 1.0000   557.      0.00 
   1 -11   4  17764.00  511.36  0. 1.0000   558.      0.00 
   1 -11   4  17918.50  494.17  0. 1.0000   559.      0.00 
   1 -11   5  33349.30  734.00  0. 1.0000   560.      0.00 
   1 -11   5  32780.11  692.91  0. 1.0000   561.      0.00 
   1 -11   5  32885.80  624.71  0. 1.0000   562.      0.00 
   1 -11   6  13947.10  427.76  0. 1.0000   563.      0.00 
   1 -11   6  13388.90  433.97  0. 1.0000   564.      0.00 
   1 -11   6  14094.50  419.06  0. 1.0000   565.      0.00 
   1 -11   7  20236.10  506.44  0. 1.0000   566.      0.00 
   1 -11   7  21154.00  517.61  0. 1.0000   567.      0.00 
   1 -11   7  20111.00  476.78  0. 1.0000   568.      0.00 
   1 -11   8    799.26  103.38  0. 1.0000   569.      0.00 
   1 -11   8    698.60   96.59  0. 1.0000   570.      0.00 
   1 -10   0  26719.20  525.06  0. 1.0000   571.      0.00 
  -1  10   0  26102.50  482.55  0. 1.0000   572.      0.00 
  -1  10  -1  37392.40  700.32  0. 1.0000   573.      0.00 
   1 -10   1  38409.70  761.91  0. 1.0000   574.      0.00 
   1 -10   2  60669.20 1039.26  0. 1.0000   575.      0.00 
  -1  10  -2  60298.50  965.72  0. 1.0000   576.      0.00 
   1 -10   2  59537.80  982.56  0. 1.0000   577.      0.00 
   1 -10   2  62223.00 1035.77  0. 1.0000   578.      0.00 
   1 -10   3   2178.14  208.96  0. 1.0000   579.      0.00 
   1 -10   3   2861.27  255.36  0. 1.0000   580.      0.00 
   1 -10   3   2950.85  247.34  0. 1.0000   581.      0.00 
  -1  10  -3   2631.62  213.68  0. 1.0000   582.      0.00 
   1 -10   4  50479.90 1038.61  0. 1.0000   583.      0.00 
   1 -10   4  49918.00  940.04  0. 1.0000   584.      0.00 
   1 -10   4  52285.70 1112.45  0. 1.0000   585.      0.00 
  -1  10  -4  50905.90  904.44  0. 1.0000   586.      0.00 
   1 -10   5    694.05  138.41  0. 1.0000   587.      0.00 
   1 -10   5    130.58   97.65  0. 1.0000   588.      0.00 
   1 -10   5    587.08  122.10  0. 1.0000   589.      0.00 
   1 -10   5    123.76   82.50  0. 1.0000   590.      0.00 
   1 -10   6  55804.00 1045.97  0. 1.0000   591.      0.00 
   1 -10   6  53663.70 1036.88  0. 1.0000   592.      0.00 
   1 -10   6  56463.20 1086.71  0. 1.0000   593.      0.00 
   1 -10   7  37396.30  877.39  0. 1.0000   594.      0.00 
   1 -10   7  34866.50  771.60  0. 1.0000   595.      0.00 
   1 -10   7  36501.30  827.80  0. 1.0000   596.      0.00 
   1 -10   7  36683.20  728.86  0. 1.0000   597.      0.00 
   1 -10   8  26412.60  619.43  0. 1.0000   598.      0.00 
   1 -10   8  26403.30  648.94  0. 1.0000   599.      0.00 
   1 -10   8  26817.10  713.05  0. 1.0000   600.      0.00 
   1 -10   9  62140.50  882.97  0. 1.0000   601.      0.00 
   1 -10   9  63478.30  988.94  0. 1.0000   602.      0.00 
   1 -10  10  17947.50  403.42  0. 1.0000   603.      0.00 
   1 -10  10  17750.30  438.00  0. 1.0000   604.      0.00 
   1  -9  -1  45879.90  838.52  0. 1.0000   605.      0.00 
  -1   9   1  44150.61  761.90  0. 1.0000   606.      0.00 
   1  -9   0  15239.10  569.51  0. 1.0000   607.      0.00 
  -1   9   0  15104.00  522.40  0. 1.0000   608.      0.00 
  -1   9  -1  37752.90  880.47  0. 1.0000   609.      0.00 
   1  -9   1  38213.50  901.29  0. 1.0000   610.      0.00 
   1  -9   1  37347.10  871.84  0. 1.0000   611.      0.00 
   1  -9   1  38196.89  964.18  0. 1.0000   612.      0.00 
   1  -9   2  53105.20 1159.22  0. 1.0000   613.      0.00 
   1  -9   2  50474.90 1085.71  0. 1.0000   614.      0.00 
   1  -9   2  51906.20 1145.95  0. 1.0000   615.      0.00 
  -1   9  -2  50147.60 1031.74  0. 1.0000   616.      0.00 
   1  -9   3   2844.66  251.14  0. 1.0000   617.      0.00 
  -1   9  -3   2315.71  224.88  0. 1.0000   618.      0.00 
   1  -9   3   2541.88  273.45  0. 1.0000   619.      0.00 
   1  -9   3   2513.61  257.15  0. 1.0000   620.      0.00 
   1  -9   3   2705.57  266.83  0. 1.0000   621.      0.00 
   1  -9   4  30926.10  873.83  0. 1.0000   622.      0.00 
   1  -9   4  31759.80  948.95  0. 1.0000   623.      0.00 
   1  -9   4  30900.70  836.82  0. 1.0000   624.      0.00 
  -1   9  -4  31103.40  777.74  0. 1.0000   625.      0.00 
   1  -9   5   2679.88  258.51  0. 1.0000   626.      0.00 
   1  -9   5   2831.50  269.09  0. 1.0000   627.      0.00 
   1  -9   5   2673.71  286.98  0. 1.0000   628.      0.00 
   1  -9   6  69930.79 1367.49  0. 1.0000   629.      0.00 
   1  -9   6  72989.71 1304.80  0. 1.0000   630.      0.00 
   1  -9   6  74206.00 1208.72  0. 1.0000   631.      0.00 
   1  -9   6  73461.71 1389.10  0. 1.0000   632.      0.00 
   1  -9   6  72430.30 1290.89  0. 1.0000   633.      0.00 
   1  -9   7   3689.61  278.73  0. 1.0000   634.      0.00 
   1  -9   7   3165.10  278.96  0. 1.0000   635.      0.00 
   1  -9   7   4099.20  332.26  0. 1.0000   636.      0.00 
   1  -9   7   3419.98  283.01  0. 1.0000   637.      0.00 
   1  -9   8 105327.01 1447.50  0. 1.0000   638.      0.00 
   1  -9   8 101982.01 1416.70  0. 1.0000   639.      0.00 
   1  -9   8 102998.00 1578.20  0. 1.0000   640.      0.00 
   1  -9   9   9230.80  439.23  0. 1.0000   641.      0.00 
   1  -9   9   8721.18  357.93  0. 1.0000   642.      0.00 
   1  -9   9   9168.28  403.59  0. 1.0000   643.      0.00 
   1  -9  10   2201.77  177.72  0. 1.0000   644.      0.00 
   1  -9  10   2142.49  188.52  0. 1.0000   645.      0.00 
  -1   8   3  19975.30  409.53  0. 1.0000   646.      0.00 
   1  -8  -3  20090.60  436.69  0. 1.0000   647.      0.00 
  -1   8   3  19822.90  433.44  0. 1.0000   648.      0.00 
  -1   8   2    502.05   91.42  0. 1.0000   649.      0.00 
   1  -8  -2    614.28  120.68  0. 1.0000   650.      0.00 
  -1   8   2    480.87  102.63  0. 1.0000   651.      0.00 
  -1   8   1  68800.10 1216.96  0. 1.0000   652.      0.00 
  -1   8   1  67248.80 1051.32  0. 1.0000   653.      0.00 
   1  -8  -1  69542.49 1317.44  0. 1.0000   654.      0.00 
   1  -8   0  10564.80  480.44  0. 1.0000   655.      0.00 
   1  -8   0  10759.70  551.86  0. 1.0000   656.      0.00 
  -1   8   0  10821.80  510.66  0. 1.0000   657.      0.00 
  -1   8  -1  66880.61 1259.44  0. 1.0000   658.      0.00 
   1  -8   1  66575.91 1374.58  0. 1.0000   659.      0.00 
   1  -8   1  64229.90 1251.68  0. 1.0000   660.      0.00 
   1  -8   1  65723.70 1309.18  0. 1.0000   661.      0.00 
  -1   8  -2    503.00  123.29  0. 1.0000   662.      0.00 
   1  -8   2    231.39  106.98  0. 1.0000   663.      0.00 
   1  -8   2    180.58   87.08  0. 1.0000   664.      0.00 
   1  -8   2    155.21  102.88  0. 1.0000   665.      0.00 
  -1   8  -3 388680.03 2826.80  0. 1.0000   666.      0.00 
   1  -8   3 382916.97 3096.40  0. 1.0000   667.      0.00 
   1  -8   3 389428.03 3306.60  0. 1.0000   668.      0.00 
   1  -8   3 389575.00 2955.30  0. 1.0000   669.      0.00 
   1  -8   3 383951.03 3141.30  0. 1.0000   670.      0.00 
   1  -8   4 147565.98 2038.20  0. 1.0000   671.      0.00 
   1  -8   4 145868.00 1882.60  0. 1.0000   672.      0.00 
   1  -8   4 145628.00 1836.30  0. 1.0000   673.      0.00 
   1  -8   5  46081.00  967.26  0. 1.0000   674.      0.00 
   1  -8   5  46200.90 1043.86  0. 1.0000   675.      0.00 
   1  -8   5  46269.60 1134.10  0. 1.0000   676.      0.00 
   1  -8   5  44198.70 1020.38  0. 1.0000   677.      0.00 
   1  -8   6  62417.40 1289.01  0. 1.0000   678.      0.00 
   1  -8   6  64572.00 1330.45  0. 1.0000   679.      0.00 
   1  -8   6  64382.20 1188.34  0. 1.0000   680.      0.00 
   1  -8   6  63924.00 1226.70  0. 1.0000   681.      0.00 
   1  -8   6  63827.80 1190.58  0. 1.0000   682.      0.00 
   1  -8   7   2397.65  245.36  0. 1.0000   683.      0.00 
   1  -8   7   2368.57  268.51  0. 1.0000   684.      0.00 
   1  -8   7   2138.57  237.95  0. 1.0000   685.      0.00 
   1  -8   8  32672.30  879.22  0. 1.0000   686.      0.00 
   1  -8   8  30702.00  803.06  0. 1.0000   687.      0.00 
   1  -8   8  30950.30  917.71  0. 1.0000   688.      0.00 
   1  -8   9  16647.40  632.31  0. 1.0000   689.      0.00 
   1  -8   9  16922.00  602.15  0. 1.0000   690.      0.00 
   1  -8  10  51872.70  976.62  0. 1.0000   691.      0.00 
   1  -8  10  55404.20  937.17  0. 1.0000   692.      0.00 
   1  -8  11   3112.56  168.08  0. 1.0000   693.      0.00 
   1  -8  11   2914.23  183.49  0. 1.0000   694.      0.00 
  -1   7   4  31946.80  617.43  0. 1.0000   695.      0.00 
  -1   7   4  31403.90  633.28  0. 1.0000   696.      0.00 
   1  -7  -3  17870.60  599.80  0. 1.0000   697.      0.00 
  -1   7   3  17601.50  560.04  0. 1.0000   698.      0.00 
  -1   7   3  17467.80  557.10  0. 1.0000   699.      0.00 
   1  -7  -2  88964.20 1537.39  0. 1.0000   700.      0.00 
  -1   7   2  88175.50 1441.54  0. 1.0000   701.      0.00 
  -1   7   2  89346.61 1361.59  0. 1.0000   702.      0.00 
  -1   7   1  41368.30  932.29  0. 1.0000   703.      0.00 
   1  -7  -1  41822.89 1108.83  0. 1.0000   704.      0.00 
  -1   7   1  42088.40 1037.06  0. 1.0000   705.      0.00 
   1  -7   0   1629.67  207.72  0. 1.0000   706.      0.00 
   1  -7   0   2087.84  251.85  0. 1.0000   707.      0.00 
   1  -7   0   1574.42  206.96  0. 1.0000   708.      0.00 
  -1   7   0   1689.12  215.07  0. 1.0000   709.      0.00 
  -1   7  -1 203269.00 2137.60  0. 1.0000   710.      0.00 
   1  -7   1 203672.02 2333.10  0. 1.0000   711.      0.00 
   1  -7   1 204046.98 2190.10  0. 1.0000   712.      0.00 
   1  -7   1 204962.00 2265.90  0. 1.0000   713.      0.00 
  -1   7  -2 116337.99 1613.40  0. 1.0000   714.      0.00 
   1  -7   2 116870.00 1817.90  0. 1.0000   715.      0.00 
   1  -7   3  42476.10 1014.43  0. 1.0000   716.      0.00 
  -1   7  -3  40632.11  912.02  0. 1.0000   717.      0.00 
   1  -7   3  40547.30 1042.58  0. 1.0000   718.      0.00 
  -1   7  -4  19241.60  618.27  0. 1.0000   719.      0.00 
   1  -7   4  18163.90  684.85  0. 1.0000   720.      0.00 
   1  -7   4  18212.60  679.20  0. 1.0000   721.      0.00 
   1  -7   5 119716.99 1773.00  0. 1.0000   722.      0.00 
   1  -7   5 115821.01 1685.50  0. 1.0000   723.      0.00 
  -1   7  -5 121750.01 1538.50  0. 1.0000   724.      0.00 
   1  -7   6  79004.00 1319.53  0. 1.0000   725.      0.00 
   1  -7   6  77671.09 1326.33  0. 1.0000   726.      0.00 
   1  -7   6  76146.30 1259.71  0. 1.0000   727.      0.00 
   1  -7   6  81588.49 1454.01  0. 1.0000   728.      0.00 
   1  -7   6  79389.80 1380.11  0. 1.0000   729.      0.00 
   1  -7   7  16551.50  604.13  0. 1.0000   730.      0.00 
   1  -7   7  15949.00  627.91  0. 1.0000   731.      0.00 
   1  -7   7  16063.20  669.00  0. 1.0000   732.      0.00 
   1  -7   7  15903.40  600.90  0. 1.0000   733.      0.00 
   1  -7   8  35625.30  947.28  0. 1.0000   734.      0.00 
   1  -7   8  33575.10  880.86  0. 1.0000   735.      0.00 
   1  -7   8  35138.00  988.09  0. 1.0000   736.      0.00 
   1  -7   9  12222.00  532.20  0. 1.0000   737.      0.00 
   1  -7   9  12897.50  573.85  0. 1.0000   738.      0.00 
   1  -7   9  11563.70  502.27  0. 1.0000   739.      0.00 
   1  -7  10  36012.80  778.86  0. 1.0000   740.      0.00 
   1  -7  10  35413.10  770.02  0. 1.0000   741.      0.00 
   1  -7  10  33827.70  820.01  0. 1.0000   742.      0.00 
   1  -7  11     91.62   52.51  0. 1.0000   743.      0.00 
   1  -7  11    140.90   48.68  0. 1.0000   744.      0.00 
  -1   6   5    109.54   50.39  0. 1.0000   745.      0.00 
  -1   6   5    197.13   79.04  0. 1.0000   746.      0.00 
  -1   6   5     19.73   50.02  0. 1.0000   747.      0.00 
  -1   6   4  96343.21 1297.73  0. 1.0000   748.      0.00 
  -1   6   4 101492.99 1451.90  0. 1.0000   749.      0.00 
   1  -6  -3   2073.15  247.44  0. 1.0000   750.      0.00 
  -1   6   3   2679.08  262.10  0. 1.0000   751.      0.00 
  -1   6   3   2138.57  237.48  0. 1.0000   752.      0.00 
  -1   6   3   2250.24  219.58  0. 1.0000   753.      0.00 
  -1   6   2  31115.30  913.58  0. 1.0000   754.      0.00 
   1  -6  -2  31388.30  952.40  0. 1.0000   755.      0.00 
   1  -6  -1  68305.99 1369.45  0. 1.0000   756.      0.00 
  -1   6   1  71687.50 1330.84  0. 1.0000   757.      0.00 
   1  -6   0 127421.00 1792.60  0. 1.0000   758.      0.00 
  -1   6  -1 105951.01 1455.20  0. 1.0000   759.      0.00 
   1  -6   1 105453.01 1580.50  0. 1.0000   760.      0.00 
   1  -6   1 103812.00 1488.00  0. 1.0000   761.      0.00 
   1  -6   2  62899.40 1181.48  0. 1.0000   762.      0.00 
   1  -6   2  65021.60 1072.16  0. 1.0000   763.      0.00 
  -1   6  -2  65843.80 1078.81  0. 1.0000   764.      0.00 
  -1   6  -3  92921.30 1236.47  0. 1.0000   765.      0.00 
   1  -6   3  89269.30 1312.88  0. 1.0000   766.      0.00 
   1  -6   3  90524.09 1368.96  0. 1.0000   767.      0.00 
  -1   6  -4   8738.27  378.84  0. 1.0000   768.      0.00 
   1  -6   4   7642.58  393.18  0. 1.0000   769.      0.00 
   1  -6   4   7913.86  404.09  0. 1.0000   770.      0.00 
  -1   6  -5 230945.02 1938.30  0. 1.0000   771.      0.00 
   1  -6   5 228587.98 2241.70  0. 1.0000   772.      0.00 
   1  -6   5 229682.98 2118.30  0. 1.0000   773.      0.00 
   1  -6   6   3652.01  301.39  0. 1.0000   774.      0.00 
   1  -6   7 110337.99 1537.30  0. 1.0000   775.      0.00 
   1  -6   7 111936.01 1630.50  0. 1.0000   776.      0.00 
   1  -6   7 112653.99 1711.60  0. 1.0000   777.      0.00 
   1  -6   8  26524.70  813.99  0. 1.0000   778.      0.00 
   1  -6   8  26910.10  788.52  0. 1.0000   779.      0.00 
   1  -6   8  27971.70  874.48  0. 1.0000   780.      0.00 
   1  -6   9  27033.00  782.20  0. 1.0000   781.      0.00 
   1  -6   9  28022.70  784.42  0. 1.0000   782.      0.00 
   1  -6   9  25899.80  815.33  0. 1.0000   783.      0.00 
   1  -6  10   8602.25  420.61  0. 1.0000   784.      0.00 
   1  -6  10   8712.57  373.82  0. 1.0000   785.      0.00 
   1  -6  11   4879.08  246.42  0. 1.0000   786.      0.00 
  -1   5   6   9238.88  382.42  0. 1.0000   787.      0.00 
  -1   5   6   8900.51  360.48  0. 1.0000   788.      0.00 
  -1   5   6   8555.86  340.42  0. 1.0000   789.      0.00 
  -1   5   5  29410.10  821.29  0. 1.0000   790.      0.00 
  -1   5   5  28612.00  773.53  0. 1.0000   791.      0.00 
  -1   5   4  44170.60 1040.85  0. 1.0000   792.      0.00 
  -1   5   4  44745.00 1104.32  0. 1.0000   793.      0.00 
  -1   5   3  12472.30  578.48  0. 1.0000   794.      0.00 
   1  -5  -3  12691.70  596.75  0. 1.0000   795.      0.00 
  -1   5   3  11676.50  525.92  0. 1.0000   796.      0.00 
   1  -5  -2 139721.00 1962.80  0. 1.0000   797.      0.00 
  -1   5   2 138074.00 1715.40  0. 1.0000   798.      0.00 
   1  -5  -1   4720.83  333.67  0. 1.0000   799.      0.00 
  -1   5   1   4781.99  283.78  0. 1.0000   800.      0.00 
   1  -5   0 103540.99 1412.30  0. 1.0000   801.      0.00 
  -1   5   0 104953.00 1115.00  0. 1.0000   802.      0.00 
  -1   5  -1   6097.86  313.67  0. 1.0000   803.      0.00 
   1  -5   1   5456.48  298.31  0. 1.0000   804.      0.00 
   1  -5   2  93038.80 1099.88  0. 1.0000   805.      0.00 
   1  -5   2  92271.00 1233.71  0. 1.0000   806.      0.00 
  -1   5  -3 248285.00 1805.50  0. 1.0000   807.      0.00 
   1  -5   3 246433.02 1960.20  0. 1.0000   808.      0.00 
   1  -5   3 244167.00 1895.90  0. 1.0000   809.      0.00 
   1  -5   4  13158.40  465.76  0. 1.0000   810.      0.00 
  -1   5  -4  13435.50  412.97  0. 1.0000   811.      0.00 
   1  -5   4  12893.90  448.46  0. 1.0000   812.      0.00 
   1  -5   5  37066.80  827.67  0. 1.0000   813.      0.00 
  -1   5  -5  36756.60  689.59  0. 1.0000   814.      0.00 
   1  -5   5  36618.50  758.99  0. 1.0000   815.      0.00 
   1  -5   6    495.05  117.41  0. 1.0000   816.      0.00 
   1  -5   7 231931.02 2442.00  0. 1.0000   817.      0.00 
   1  -5   8   1634.71  200.68  0. 1.0000   818.      0.00 
   1  -5   8   2018.45  238.01  0. 1.0000   819.      0.00 
   1  -5   8   1436.14  205.62  0. 1.0000   820.      0.00 
   1  -5   8   1861.11  232.67  0. 1.0000   821.      0.00 
   1  -5   8   1795.59  215.12  0. 1.0000   822.      0.00 
   1  -5   8   2083.29  225.03  0. 1.0000   823.      0.00 
   1  -5   9 109807.01 1708.90  0. 1.0000   824.      0.00 
   1  -5   9 117992.00 1574.80  0. 1.0000   825.      0.00 
   1  -5   9 114026.01 1692.10  0. 1.0000   826.      0.00 
   1  -5   9 112025.00 1704.80  0. 1.0000   827.      0.00 
   1  -5   9 118245.00 1549.50  0. 1.0000   828.      0.00 
   1  -5   9 120003.99 1571.70  0. 1.0000   829.      0.00 
   1  -5  10    727.30  141.03  0. 1.0000   830.      0.00 
   1  -5  10   1041.16  152.83  0. 1.0000   831.      0.00 
   1  -5  10    662.48  136.35  0. 1.0000   832.      0.00 
   1  -5  10    714.32  118.95  0. 1.0000   833.      0.00 
  -1   4   7  25789.20  623.04  0. 1.0000   834.      0.00 
  -1   4   7  25417.80  578.56  0. 1.0000   835.      0.00 
  -1   4   7  26229.40  604.25  0. 1.0000   836.      0.00 
  -1   4   6  16215.00  566.56  0. 1.0000   837.      0.00 
  -1   4   6  17084.80  628.37  0. 1.0000   838.      0.00 
  -1   4   6  16600.40  652.94  0. 1.0000   839.      0.00 
  -1   4   6  16823.30  627.60  0. 1.0000   840.      0.00 
  -1   4   5  49538.10 1163.09  0. 1.0000   841.      0.00 
  -1   4   5  49224.90 1116.77  0. 1.0000   842.      0.00 
  -1   4   5  49092.00 1192.51  0. 1.0000   843.      0.00 
  -1   4   4 127263.01 1923.00  0. 1.0000   844.      0.00 
  -1   4   4 125054.01 1831.80  0. 1.0000   845.      0.00 
  -1   4   3 161035.00 1951.80  0. 1.0000   846.      0.00 
   1  -4  -3 160960.00 2065.30  0. 1.0000   847.      0.00 
  -1   4   3 158873.02 2047.50  0. 1.0000   848.      0.00 
  -1   4   2 149234.98 1634.50  0. 1.0000   849.      0.00 
   1  -4  -2 146769.00 1781.00  0. 1.0000   850.      0.00 
  -1   4   1  56543.40  851.87  0. 1.0000   851.      0.00 
   1  -4  -1  56419.90  992.00  0. 1.0000   852.      0.00 
  -1   4   0 116799.01 1293.00  0. 1.0000   853.      0.00 
  -1   4   0 113143.99 1005.00  0. 1.0000   854.      0.00 
  -1   4  -1   2290.58  114.79  0. 1.0000   855.      0.00 
   1  -4   1   2406.84  170.72  0. 1.0000   856.      0.00 
  -1   4  -1   2313.05  170.43  0. 1.0000   857.      0.00 
   1  -4   2 436295.97 2274.80  0. 1.0000   858.      0.00 
   1  -4   2 431753.03 1999.60  0. 1.0000   859.      0.00 
  -1   4  -3   9419.57  301.38  0. 1.0000   860.      0.00 
   1  -4   3   9792.98  338.87  0. 1.0000   861.      0.00 
   1  -4   3   9839.83  343.53  0. 1.0000   862.      0.00 
  -1   4  -4 415469.00 1940.70  0. 1.0000   863.      0.00 
   1  -4   4 409679.00 2218.20  0. 1.0000   864.      0.00 
   1  -4   5  91558.30 1095.66  0. 1.0000   865.      0.00 
   1  -4   5  88870.40 1221.23  0. 1.0000   866.      0.00 
   1  -4   6 106582.01 1477.40  0. 1.0000   867.      0.00 
   1  -4   7  49854.70 1109.46  0. 1.0000   868.      0.00 
   1  -4   8   1934.35  222.32  0. 1.0000   869.      0.00 
   1  -4   8   1729.04  245.51  0. 1.0000   870.      0.00 
   1  -4   8   1629.68  231.44  0. 1.0000   871.      0.00 
   1  -4   8   1489.60  207.67  0. 1.0000   872.      0.00 
   1  -4   8   1641.06  196.99  0. 1.0000   873.      0.00 
   1  -4   9  49767.00 1065.86  0. 1.0000   874.      0.00 
   1  -4   9  50135.30 1039.46  0. 1.0000   875.      0.00 
   1  -4   9  53132.39 1002.91  0. 1.0000   876.      0.00 
   1  -4   9  48406.20 1085.78  0. 1.0000   877.      0.00 
   1  -4   9  50298.80 1202.00  0. 1.0000   878.      0.00 
   1  -4   9  46857.70 1175.43  0. 1.0000   879.      0.00 
   1  -4  10  24290.40  613.29  0. 1.0000   880.      0.00 
   1  -4  10  22853.60  643.48  0. 1.0000   881.      0.00 
   1  -4  10  23863.40  726.55  0. 1.0000   882.      0.00 
   1  -4  10  23235.20  622.25  0. 1.0000   883.      0.00 
   1  -4  10  23577.10  717.30  0. 1.0000   884.      0.00 
  -1   3   8  12124.40  347.58  0. 1.0000   885.      0.00 
  -1   3   8  12052.80  328.64  0. 1.0000   886.      0.00 
  -1   3   8  12693.10  399.94  0. 1.0000   887.      0.00 
  -1   3   8  12734.00  409.64  0. 1.0000   888.      0.00 
  -1   3   7  50488.89 1031.47  0. 1.0000   889.      0.00 
  -1   3   7  51781.40 1045.34  0. 1.0000   890.      0.00 
  -1   3   7  51663.70 1099.03  0. 1.0000   891.      0.00 
  -1   3   7  52235.40 1129.66  0. 1.0000   892.      0.00 
  -1   3   6  14030.20  634.90  0. 1.0000   893.      0.00 
  -1   3   6  13515.20  662.22  0. 1.0000   894.      0.00 
  -1   3   6  13333.20  634.37  0. 1.0000   895.      0.00 
  -1   3   6  13024.90  624.42  0. 1.0000   896.      0.00 
  -1   3   5   2743.93  296.69  0. 1.0000   897.      0.00 
  -1   3   5   2662.45  294.78  0. 1.0000   898.      0.00 
  -1   3   5   1991.63  251.70  0. 1.0000   899.      0.00 
   1  -3  -4    526.59  130.45  0. 1.0000   900.      0.00 
  -1   3   4    561.96  142.99  0. 1.0000   901.      0.00 
  -1   3   4    511.89  133.20  0. 1.0000   902.      0.00 
   1  -3  -3  88155.01 1358.36  0. 1.0000   903.      0.00 
  -1   3   3  88725.01 1352.60  0. 1.0000   904.      0.00 
  -1   3   3  86065.20 1298.05  0. 1.0000   905.      0.00 
   1  -3  -2 106839.01 1316.30  0. 1.0000   906.      0.00 
  -1   3   2 100183.99 1193.00  0. 1.0000   907.      0.00 
  -1   3   1 142752.00 1176.70  0. 1.0000   908.      0.00 
   1  -3  -1 146900.00 1369.30  0. 1.0000   909.      0.00 
  -1   3   0 529620.00 1802.60  0. 1.0000   910.      0.00 
  -1   3   0 524569.00 2326.90  0. 1.0000   911.      0.00 
   1  -3   1 141056.00 1043.70  0. 1.0000   912.      0.00 
  -1   3  -1 140671.02  655.90  0. 1.0000   913.      0.00 
   1  -3   2 317351.03  607.60  0. 1.0000   914.      0.00 
  -1   3  -2 318132.00 1508.60  0. 1.0000   915.      0.00 
   1  -3   2 320800.00 1650.10  0. 1.0000   916.      0.00 
  -1   3  -3    551.53   62.47  0. 1.0000   917.      0.00 
   1  -3   3    400.66   51.39  0. 1.0000   918.      0.00 
   1  -3   3    322.94   66.06  0. 1.0000   919.      0.00 
  -1   3  -3    394.82   47.68  0. 1.0000   920.      0.00 
   1  -3   3    348.26   65.06  0. 1.0000   921.      0.00 
   1  -3   4 363970.00 2127.80  0. 1.0000   922.      0.00 
   1  -3   4 359852.00 1923.60  0. 1.0000   923.      0.00 
   1  -3   4 350257.00 2076.50  0. 1.0000   924.      0.00 
  -1   3  -4 355012.03 1559.30  0. 1.0000   925.      0.00 
   1  -3   4 363506.03 1809.20  0. 1.0000   926.      0.00 
   1  -3   5  16945.90  482.30  0. 1.0000   927.      0.00 
   1  -3   5  17701.00  528.95  0. 1.0000   928.      0.00 
   1  -3   5  17881.50  452.69  0. 1.0000   929.      0.00 
   1  -3   5  16808.90  527.93  0. 1.0000   930.      0.00 
   1  -3   6  70496.80 1194.78  0. 1.0000   931.      0.00 
  -1   3  -6  67311.40 1037.12  0. 1.0000   932.      0.00 
   1  -3   6  68965.80 1209.77  0. 1.0000   933.      0.00 
  -1   3  -7  37832.70  902.85  0. 1.0000   934.      0.00 
   1  -3   8  38600.80 1021.73  0. 1.0000   935.      0.00 
   1  -3   8  38625.50  963.09  0. 1.0000   936.      0.00 
   1  -3   8  37814.40 1103.97  0. 1.0000   937.      0.00 
   1  -3   8  36903.00  986.41  0. 1.0000   938.      0.00 
   1  -3   8  37290.60 1107.27  0. 1.0000   939.      0.00 
   1  -3   8  38416.70  967.88  0. 1.0000   940.      0.00 
   1  -3   8  38492.20  996.56  0. 1.0000   941.      0.00 
   1  -3   9  59910.40 1141.15  0. 1.0000   942.      0.00 
   1  -3   9  60202.40 1190.09  0. 1.0000   943.      0.00 
   1  -3   9  59977.30 1175.64  0. 1.0000   944.      0.00 
   1  -3   9  60913.00 1338.42  0. 1.0000   945.      0.00 
   1  -3   9  62432.00 1357.60  0. 1.0000   946.      0.00 
   1  -3   9  60249.80 1213.72  0. 1.0000   947.      0.00 
   1  -3  10  27115.20  666.29  0. 1.0000   948.      0.00 
   1  -3  10  28515.40  750.81  0. 1.0000   949.      0.00 
   1  -3  10  27560.90  619.31  0. 1.0000   950.      0.00 
   1  -3  10  28357.50  763.47  0. 1.0000   951.      0.00 
  -1   2   9   9285.38  286.21  0. 1.0000   952.      0.00 
  -1   2   9   9304.93  301.60  0. 1.0000   953.      0.00 
  -1   2   8  25741.70  737.60  0. 1.0000   954.      0.00 
  -1   2   8  25631.50  731.85  0. 1.0000   955.      0.00 
  -1   2   8  25027.10  628.08  0. 1.0000   956.      0.00 
  -1   2   8  25937.20  751.21  0. 1.0000   957.      0.00 
  -1   2   7   8776.55  486.25  0. 1.0000   958.      0.00 
  -1   2   7   9447.73  544.88  0. 1.0000   959.      0.00 
  -1   2   7   9385.76  535.86  0. 1.0000   960.      0.00 
  -1   2   7   8994.55  526.55  0. 1.0000   961.      0.00 
  -1   2   6 168712.00 2355.10  0. 1.0000   962.      0.00 
  -1   2   6 165843.00 2323.20  0. 1.0000   963.      0.00 
  -1   2   6 170150.00 2366.30  0. 1.0000   964.      0.00 
   1  -2  -5 304836.03 2806.90  0. 1.0000   965.      0.00 
  -1   2   5 305870.03 2961.30  0. 1.0000   966.      0.00 
  -1   2   4   5940.85  363.45  0. 1.0000   967.      0.00 
  -1   2   4   6136.97  370.18  0. 1.0000   968.      0.00 
   1  -2  -4   5995.50  355.21  0. 1.0000   969.      0.00 
   1  -2  -3 146264.00 1498.60  0. 1.0000   970.      0.00 
  -1   2   3 149122.98 1524.20  0. 1.0000   971.      0.00 
  -1   2   3 146267.98 1512.00  0. 1.0000   972.      0.00 
  -1   2   2   2284.17  161.07  0. 1.0000   973.      0.00 
   1  -2  -2   2285.26  167.49  0. 1.0000   974.      0.00 
  -1   2   1 516841.03 1879.50  0. 1.0000   975.      0.00 
   1  -2  -1 512313.00 2108.10  0. 1.0000   976.      0.00 
  -1   2   0 267911.00  993.10  0. 1.0000   977.      0.00 
  -1   2  -1 321806.97 1297.70  0. 1.0000   978.      0.00 
   1  -2   1 336822.03 1252.60  0. 1.0000   979.      0.00 
   1  -2   2 280568.97 1346.50  0. 1.0000   980.      0.00 
   1  -2   2 275704.03 1289.80  0. 1.0000   981.      0.00 
   1  -2   2 260660.02  928.20  0. 1.0000   982.      0.00 
  -1   2  -2 265623.03 1003.10  0. 1.0000   983.      0.00 
   1  -2   3  90935.80  910.17  0. 1.0000   984.      0.00 
   1  -2   3  89159.10  570.22  0. 1.0000   985.      0.00 
  -1   2  -3  86823.49  591.40  0. 1.0000   986.      0.00 
   1  -2   3  90101.40  841.14  0. 1.0000   987.      0.00 
   1  -2   3  92665.09  918.67  0. 1.0000   988.      0.00 
   1  -2   3  89244.80  716.11  0. 1.0000   989.      0.00 
   1  -2   4 193801.02 1533.00  0. 1.0000   990.      0.00 
   1  -2   4 193129.00 1341.90  0. 1.0000   991.      0.00 
   1  -2   4 197728.00 1328.10  0. 1.0000   992.      0.00 
   1  -2   4 194546.02 1148.90  0. 1.0000   993.      0.00 
   1  -2   5   7938.44  372.77  0. 1.0000   994.      0.00 
   1  -2   5   6997.09  340.70  0. 1.0000   995.      0.00 
   1  -2   6  46550.61 1035.53  0. 1.0000   996.      0.00 
   1  -2   6  47397.00 1048.43  0. 1.0000   997.      0.00 
   1  -2   7   1020.62  164.82  0. 1.0000   998.      0.00 
   1  -2   7   1048.62  184.41  0. 1.0000   999.      0.00 
   1  -2   7   1331.19  189.35  0. 1.0000  1000.      0.00 
   1  -2   7   1069.65  196.33  0. 1.0000  1001.      0.00 
   1  -2   7   1242.69  187.81  0. 1.0000  1002.      0.00 
   1  -2   7   1084.00  200.63  0. 1.0000  1003.      0.00 
   1  -2   7   1367.42  193.76  0. 1.0000  1004.      0.00 
   1  -2   8  58437.90 1402.64  0. 1.0000  1005.      0.00 
   1  -2   8  55329.30 1193.63  0. 1.0000  1006.      0.00 
   1  -2   8  59170.30 1198.27  0. 1.0000  1007.      0.00 
   1  -2   8  57669.70 1210.34  0. 1.0000  1008.      0.00 
   1  -2   8  58353.70 1359.65  0. 1.0000  1009.      0.00 
   1  -2   8  57563.20 1304.62  0. 1.0000  1010.      0.00 
   1  -2   8  58360.39 1211.37  0. 1.0000  1011.      0.00 
   1  -2   9    795.77  168.64  0. 1.0000  1012.      0.00 
   1  -2   9    157.56   99.29  0. 1.0000  1013.      0.00 
   1  -2   9    937.88  149.40  0. 1.0000  1014.      0.00 
   1  -2   9    113.60   85.67  0. 1.0000  1015.      0.00 
   1  -2   9    258.56  125.68  0. 1.0000  1016.      0.00 
   1  -2  10   1273.39  140.90  0. 1.0000  1017.      0.00 
   1  -2  10   1220.56  123.66  0. 1.0000  1018.      0.00 
   1  -2  10   1265.57  154.52  0. 1.0000  1019.      0.00 
  -1   1   9   1559.98  165.68  0. 1.0000  1020.      0.00 
  -1   1   9   1587.20  176.65  0. 1.0000  1021.      0.00 
  -1   1   9   1594.30  179.25  0. 1.0000  1022.      0.00 
  -1   1   8  37347.50 1013.23  0. 1.0000  1023.      0.00 
  -1   1   8  37714.10 1028.00  0. 1.0000  1024.      0.00 
  -1   1   8  40053.20  962.64  0. 1.0000  1025.      0.00 
  -1   1   8  38053.30 1059.85  0. 1.0000  1026.      0.00 
  -1   1   7  43273.20 1093.00  0. 1.0000  1027.      0.00 
  -1   1   7  44899.39 1046.00  0. 1.0000  1028.      0.00 
  -1   1   7  41743.20 1175.16  0. 1.0000  1029.      0.00 
  -1   1   7  42169.20 1212.04  0. 1.0000  1030.      0.00 
  -1   1   7  45892.70 1151.49  0. 1.0000  1031.      0.00 
  -1   1   7  45473.70 1225.20  0. 1.0000  1032.      0.00 
  -1   1   6  87385.30 1620.98  0. 1.0000  1033.      0.00 
  -1   1   6  87919.51 1643.63  0. 1.0000  1034.      0.00 
  -1   1   6  87574.00 1616.87  0. 1.0000  1035.      0.00 
  -1   1   5  39905.61  969.10  0. 1.0000  1036.      0.00 
   1  -1  -5  38850.00  895.83  0. 1.0000  1037.      0.00 
  -1   1   5  36931.20  944.93  0. 1.0000  1038.      0.00 
   1  -1  -5  37099.00  900.49  0. 1.0000  1039.      0.00 
  -1   1   4  37592.30  806.17  0. 1.0000  1040.      0.00 
  -1   1   4  38368.80  803.93  0. 1.0000  1041.      0.00 
   1  -1  -4  37062.90  749.75  0. 1.0000  1042.      0.00 
   1  -1  -3 161279.02 1325.40  0. 1.0000  1043.      0.00 
  -1   1   3 161971.00 1380.40  0. 1.0000  1044.      0.00 
   1  -1  -2   4751.62  192.04  0. 1.0000  1045.      0.00 
   1  -1  -1 261749.00 1151.90  0. 1.0000  1046.      0.00 
   1  -1   0  25981.30  299.46  0. 1.0000  1047.      0.00 
   1  -1   0  26412.30  274.00  0. 1.0000  1048.      0.00 
   1  -1   1 257544.02  989.30  0. 1.0000  1049.      0.00 
   1  -1   1 257217.00 1004.70  0. 1.0000  1050.      0.00 
  -1   1  -1 262142.00  603.70  0. 1.0000  1051.      0.00 
   1  -1   1 258995.02  888.40  0. 1.0000  1052.      0.00 
   1  -1   1 260727.02  645.10  0. 1.0000  1053.      0.00 
   1  -1   1 259502.00  784.30  0. 1.0000  1054.      0.00 
   1  -1   1 264204.97  920.50  0. 1.0000  1055.      0.00 
   1  -1   2 196419.00 1121.30  0. 1.0000  1056.      0.00 
   1  -1   2 186366.00 1040.70  0. 1.0000  1057.      0.00 
   1  -1   2 195161.00  939.60  0. 1.0000  1058.      0.00 
   1  -1   2 187706.02 1103.60  0. 1.0000  1059.      0.00 
   1  -1   2 197197.00 1084.70  0. 1.0000  1060.      0.00 
   1  -1   3 201150.00 1416.10  0. 1.0000  1061.      0.00 
   1  -1   3 195245.00 1331.90  0. 1.0000  1062.      0.00 
   1  -1   3 206131.98 1236.20  0. 1.0000  1063.      0.00 
   1  -1   3 215274.98 1422.50  0. 1.0000  1064.      0.00 
   1  -1   3 213833.98 1471.70  0. 1.0000  1065.      0.00 
   1  -1   4   8763.67  341.08  0. 1.0000  1066.      0.00 
   1  -1   4   9288.17  322.18  0. 1.0000  1067.      0.00 
   1  -1   4  10160.70  385.46  0. 1.0000  1068.      0.00 
   1  -1   4   9336.07  372.56  0. 1.0000  1069.      0.00 
   1  -1   5 313210.00 2489.00  0. 1.0000  1070.      0.00 
  -1   1  -5 311172.97 2306.40  0. 1.0000  1071.      0.00 
   1  -1   5 310951.03 2193.20  0. 1.0000  1072.      0.00 
   1  -1   5 306912.00 2482.40  0. 1.0000  1073.      0.00 
   1  -1   6 146188.00 1959.90  0. 1.0000  1074.      0.00 
   1  -1   7  11087.50  535.06  0. 1.0000  1075.      0.00 
   1  -1   7  10920.20  609.51  0. 1.0000  1076.      0.00 
   1  -1   7  11157.90  582.41  0. 1.0000  1077.      0.00 
   1  -1   7  10405.70  520.67  0. 1.0000  1078.      0.00 
   1  -1   7  10831.20  589.29  0. 1.0000  1079.      0.00 
   1  -1   7  10845.50  516.70  0. 1.0000  1080.      0.00 
   1  -1   7  10545.00  535.07  0. 1.0000  1081.      0.00 
   1  -1   8  33430.00  968.50  0. 1.0000  1082.      0.00 
   1  -1   8  32620.90  897.30  0. 1.0000  1083.      0.00 
   1  -1   8  32400.90  899.90  0. 1.0000  1084.      0.00 
   1  -1   8  32825.80 1019.77  0. 1.0000  1085.      0.00 
   1  -1   8  33224.90 1000.94  0. 1.0000  1086.      0.00 
   1  -1   9    570.18  128.53  0. 1.0000  1087.      0.00 
   1  -1   9    668.76  145.69  0. 1.0000  1088.      0.00 
   1  -1   9    639.89  119.49  0. 1.0000  1089.      0.00 
   1  -1  10  44095.20  659.58  0. 1.0000  1090.      0.00 
   1  -1  10  40893.60  630.82  0. 1.0000  1091.      0.00 
  -1   0  10  18929.30  492.43  0. 1.0000  1092.      0.00 
  -1   0  10  18970.50  478.51  0. 1.0000  1093.      0.00 
  -1   0   9  14871.90  561.32  0. 1.0000  1094.      0.00 
  -1   0   9  15936.00  614.87  0. 1.0000  1095.      0.00 
  -1   0   9  16223.00  597.72  0. 1.0000  1096.      0.00 
  -1   0   9  15782.20  641.65  0. 1.0000  1097.      0.00 
  -1   0   8 100313.01 1725.10  0. 1.0000  1098.      0.00 
  -1   0   8 104741.00 1890.00  0. 1.0000  1099.      0.00 
  -1   0   8 106352.00 1694.20  0. 1.0000  1100.      0.00 
  -1   0   8 107160.01 1811.70  0. 1.0000  1101.      0.00 
  -1   0   8 104316.01 1793.50  0. 1.0000  1102.      0.00 
  -1   0   7    706.28  160.12  0. 1.0000  1103.      0.00 
  -1   0   7   1133.08  200.66  0. 1.0000  1104.      0.00 
  -1   0   7    658.11  174.15  0. 1.0000  1105.      0.00 
  -1   0   7    793.25  139.57  0. 1.0000  1106.      0.00 
  -1   0   7    724.21  165.71  0. 1.0000  1107.      0.00 
  -1   0   7    414.18  142.18  0. 1.0000  1108.      0.00 
  -1   0   6  62900.90 1268.23  0. 1.0000  1109.      0.00 
   1   0  -5  12492.80  444.04  0. 1.0000  1110.      0.00 
  -1   0   5  13260.30  504.40  0. 1.0000  1111.      0.00 
  -1   0   4 620041.94 2857.20  0. 1.0000  1112.      0.00 
   1   0  -4 617885.06 2522.50  0. 1.0000  1113.      0.00 
   1   0  -4 615811.00 2654.50  0. 1.0000  1114.      0.00 
   1   0  -3 532887.00 1902.60  0. 1.0000  1115.      0.00 
   1   0  -3 534762.00 2087.20  0. 1.0000  1116.      0.00 
  -1   0   2 749072.00 1935.60  0. 1.0000  1117.      0.00 
   1   0  -2 752573.00 2020.50  0. 1.0000  1118.      0.00 
  -1   0   1   8262.64  122.00  0. 1.0000  1119.      0.00 
   1   0  -1   8148.93  109.39  0. 1.0000  1120.      0.00 
   1   0   0  38482.10  321.18  0. 1.0000  1121.      0.00 
   1   0   0  39475.11  350.24  0. 1.0000  1122.      0.00 
   1   0   1  92532.00  643.99  0. 1.0000  1123.      0.00 
   1   0   1  84342.59  682.91  0. 1.0000  1124.      0.00 
   1   0   2  34452.10  530.11  0. 1.0000  1125.      0.00 
   1   0   2  34678.00  524.01  0. 1.0000  1126.      0.00 
   1   0   2  33269.10  523.40  0. 1.0000  1127.      0.00 
   1   0   3 236000.00 1670.40  0. 1.0000  1128.      0.00 
   1   0   3 233214.02 1698.40  0. 1.0000  1129.      0.00 
   1   0   3 230779.00 1659.90  0. 1.0000  1130.      0.00 
   1   0   4  58726.50  990.20  0. 1.0000  1131.      0.00 
   1   0   4  59085.10 1021.10  0. 1.0000  1132.      0.00 
   1   0   4  56659.00  964.58  0. 1.0000  1133.      0.00 
  -1   0  -4  56472.40  953.15  0. 1.0000  1134.      0.00 
   1   0   5  73408.70 1316.90  0. 1.0000  1135.      0.00 
   1   0   5  71458.89 1260.75  0. 1.0000  1136.      0.00 
  -1   0  -5  73108.80 1261.82  0. 1.0000  1137.      0.00 
   1   0   5  70744.10 1222.96  0. 1.0000  1138.      0.00 
   1   0   5  74845.39 1287.96  0. 1.0000  1139.      0.00 
   1   0   6  31182.00  895.59  0. 1.0000  1140.      0.00 
   1   0   6  31755.50  940.17  0. 1.0000  1141.      0.00 
   1   0   6  31893.30  917.79  0. 1.0000  1142.      0.00 
   1   0   6  31124.00  857.91  0. 1.0000  1143.      0.00 
   1   0   6  30039.80  834.98  0. 1.0000  1144.      0.00 
   1   0   6  30087.30  972.36  0. 1.0000  1145.      0.00 
   1   0   7  42747.40 1176.61  0. 1.0000  1146.      0.00 
   1   0   7  42038.00 1061.72  0. 1.0000  1147.      0.00 
   1   0   7  42828.50 1095.56  0. 1.0000  1148.      0.00 
   1   0   7  41322.80 1068.37  0. 1.0000  1149.      0.00 
   1   0   7  42414.70 1172.72  0. 1.0000  1150.      0.00 
   1   0   7  41750.60 1029.10  0. 1.0000  1151.      0.00 
   1   0   8  23461.50  712.67  0. 1.0000  1152.      0.00 
   1   0   8  24779.80  819.86  0. 1.0000  1153.      0.00 
   1   0   8  24618.30  735.07  0. 1.0000  1154.      0.00 
   1   0   8  24522.40  807.47  0. 1.0000  1155.      0.00 
   1   0   8  23557.00  731.70  0. 1.0000  1156.      0.00 
   1   0   9   1257.68  135.32  0. 1.0000  1157.      0.00 
   1   0   9   1201.23  149.34  0. 1.0000  1158.      0.00 
   1   0   9    856.77  125.13  0. 1.0000  1159.      0.00 
  -1  -1  10   9130.86  423.57  0. 1.0000  1160.      0.00 
  -1  -1  10   8721.16  392.63  0. 1.0000  1161.      0.00 
  -1  -1   9  17242.80  730.13  0. 1.0000  1162.      0.00 
  -1  -1   9  18847.60  564.08  0. 1.0000  1163.      0.00 
  -1  -1   9  17367.50  721.57  0. 1.0000  1164.      0.00 
  -1  -1   9  17812.70  696.14  0. 1.0000  1165.      0.00 
  -1  -1   9  17352.90  629.34  0. 1.0000  1166.      0.00 
  -1  -1   8  36920.10 1016.46  0. 1.0000  1167.      0.00 
  -1  -1   8  35626.40 1111.40  0. 1.0000  1168.      0.00 
  -1  -1   8  38865.40 1084.80  0. 1.0000  1169.      0.00 
  -1  -1   8  37578.60 1140.36  0. 1.0000  1170.      0.00 
  -1  -1   8  37335.70 1084.20  0. 1.0000  1171.      0.00 
  -1  -1   8  39125.70  903.57  0. 1.0000  1172.      0.00 
  -1  -1   7   5718.81  425.76  0. 1.0000  1173.      0.00 
  -1  -1   7   5044.27  389.24  0. 1.0000  1174.      0.00 
  -1  -1   7   5362.23  388.45  0. 1.0000  1175.      0.00 
  -1  -1   7   5996.54  416.51  0. 1.0000  1176.      0.00 
   1   1  -6 183112.02 1971.00  0. 1.0000  1177.      0.00 
  -1  -1   6 186351.98 2007.50  0. 1.0000  1178.      0.00 
   1   1  -5  29322.60  578.21  0. 1.0000  1179.      0.00 
  -1  -1   5  29350.80  679.76  0. 1.0000  1180.      0.00 
  -1  -1   5  30381.90  551.29  0. 1.0000  1181.      0.00 
   1   1  -4 102192.99  931.50  0. 1.0000  1182.      0.00 
  -1  -1   4 101774.01 1055.70  0. 1.0000  1183.      0.00 
  -1  -1   4 103741.00  858.50  0. 1.0000  1184.      0.00 
   1   1  -3  72066.09  421.06  0. 1.0000  1185.      0.00 
   1   1  -3  70033.71  735.58  0. 1.0000  1186.      0.00 
  -1  -1   3  72155.09  721.55  0. 1.0000  1187.      0.00 
   1   1  -3  70708.89  661.84  0. 1.0000  1188.      0.00 
  -1  -1   3  69650.50  584.92  0. 1.0000  1189.      0.00 
   1   1  -2  72042.29  571.28  0. 1.0000  1190.      0.00 
  -1  -1   2  74729.80  573.70  0. 1.0000  1191.      0.00 
   1   1  -1 337395.97 1092.10  0. 1.0000  1192.      0.00 
   1   1   0 581745.00 1674.10  0. 1.0000  1193.      0.00 
   1   1   1 129598.99  922.70  0. 1.0000  1194.      0.00 
   1   1   1 131102.00  812.50  0. 1.0000  1195.      0.00 
  -1  -1  -2 412085.00 2168.10  0. 1.0000  1196.      0.00 
   1   1   2 411952.03 2006.60  0. 1.0000  1197.      0.00 
   1   1   3 146016.00 1467.30  0. 1.0000  1198.      0.00 
   1   1   3 137685.00 1445.70  0. 1.0000  1199.      0.00 
   1   1   3 146345.00 1419.20  0. 1.0000  1200.      0.00 
  -1  -1  -3 140598.00 1475.90  0. 1.0000  1201.      0.00 
   1   1   3 142625.00 1502.20  0. 1.0000  1202.      0.00 
   1   1   4    136.88   76.05  0. 1.0000  1203.      0.00 
   1   1   4    228.18   83.62  0. 1.0000  1204.      0.00 
   1   1   4    265.30   89.62  0. 1.0000  1205.      0.00 
   1   1   5  96746.61 1644.78  0. 1.0000  1206.      0.00 
   1   1   5  90975.59 1533.10  0. 1.0000  1207.      0.00 
  -1  -1  -5  94169.91 1552.85  0. 1.0000  1208.      0.00 
   1   1   6   7388.70  420.47  0. 1.0000  1209.      0.00 
   1   1   6   7021.95  418.36  0. 1.0000  1210.      0.00 
   1   1   6   7356.12  475.85  0. 1.0000  1211.      0.00 
   1   1   6   8082.44  502.79  0. 1.0000  1212.      0.00 
   1   1   6   6983.69  455.83  0. 1.0000  1213.      0.00 
   1   1   6   7857.11  512.61  0. 1.0000  1214.      0.00 
   1   1   7 132072.00 1871.10  0. 1.0000  1215.      0.00 
   1   1   7 132716.00 1669.70  0. 1.0000  1216.      0.00 
   1   1   7 135335.98 2008.50  0. 1.0000  1217.      0.00 
   1   1   7 138337.00 1947.70  0. 1.0000  1218.      0.00 
   1   1   7 127192.99 1816.40  0. 1.0000  1219.      0.00 
   1   1   8  34097.90  776.56  0. 1.0000  1220.      0.00 
   1   1   8  34630.50  775.49  0. 1.0000  1221.      0.00 
   1   1   8  36595.30  870.49  0. 1.0000  1222.      0.00 
   1   1   8  36659.80  806.73  0. 1.0000  1223.      0.00 
   1   1   8  36898.90  703.18  0. 1.0000  1224.      0.00 
  -1  -2  11  33988.90  590.32  0. 1.0000  1225.      0.00 
  -1  -2  10    343.62  110.86  0. 1.0000  1226.      0.00 
  -1  -2  10    219.45  106.17  0. 1.0000  1227.      0.00 
  -1  -2  10    215.59   75.51  0. 1.0000  1228.      0.00 
  -1  -2   9  55012.30 1313.05  0. 1.0000  1229.      0.00 
  -1  -2   9  53132.00 1327.65  0. 1.0000  1230.      0.00 
  -1  -2   9  52206.70 1204.82  0. 1.0000  1231.      0.00 
  -1  -2   9  54634.90 1047.26  0. 1.0000  1232.      0.00 
  -1  -2   8   7715.21  501.60  0. 1.0000  1233.      0.00 
  -1  -2   8   6656.27  473.66  0. 1.0000  1234.      0.00 
  -1  -2   8   8140.97  533.33  0. 1.0000  1235.      0.00 
  -1  -2   8   8366.18  433.00  0. 1.0000  1236.      0.00 
  -1  -2   8   7922.06  480.08  0. 1.0000  1237.      0.00 
   1   2  -7 126624.99 1779.30  0. 1.0000  1238.      0.00 
  -1  -2   7 124700.00 1769.50  0. 1.0000  1239.      0.00 
  -1  -2   6  44652.20  929.16  0. 1.0000  1240.      0.00 
   1   2  -6  45255.30  928.00  0. 1.0000  1241.      0.00 
  -1  -2   5 139883.98 1213.00  0. 1.0000  1242.      0.00 
   1   2  -5 142471.98 1415.00  0. 1.0000  1243.      0.00 
   1   2  -5 143177.00 1116.90  0. 1.0000  1244.      0.00 
  -1  -2   5 141830.98 1415.80  0. 1.0000  1245.      0.00 
  -1  -2   4  48950.80  704.72  0. 1.0000  1246.      0.00 
  -1  -2   4  48871.80  625.26  0. 1.0000  1247.      0.00 
   1   2  -4  49242.40  577.63  0. 1.0000  1248.      0.00 
   1   2  -4  49653.00  721.76  0. 1.0000  1249.      0.00 
  -1  -2   3    380.52   38.28  0. 1.0000  1250.      0.00 
   1   2  -3    423.44   63.57  0. 1.0000  1251.      0.00 
  -1  -2   2 683185.00 1185.80  0. 1.0000  1252.      0.00 
   1   2  -2 666391.00 1852.00  0. 1.0000  1253.      0.00 
   1   2  -1    439.77   50.28  0. 1.0000  1254.      0.00 
   1   2  -1    407.63   40.48  0. 1.0000  1255.      0.00 
  -1  -2   1    565.20   59.95  0. 1.0000  1256.      0.00 
   1   2   0 510025.00 2051.90  0. 1.0000  1257.      0.00 
   1   2   0 507201.03 1640.30  0. 1.0000  1258.      0.00 
   1   2   0 509579.00 1866.50  0. 1.0000  1259.      0.00 
   1   2   1   2446.06  157.05  0. 1.0000  1260.      0.00 
   1   2   1   1898.24  128.10  0. 1.0000  1261.      0.00 
  -1  -2  -1   2137.58  162.08  0. 1.0000  1262.      0.00 
   1   2   1   1884.52  148.87  0. 1.0000  1263.      0.00 
   1   2   1   2180.17  139.09  0. 1.0000  1264.      0.00 
   1   2   2 102256.01 1212.40  0. 1.0000  1265.      0.00 
  -1  -2  -2 100839.99 1252.50  0. 1.0000  1266.      0.00 
   1   2   2 102915.00 1167.50  0. 1.0000  1267.      0.00 
   1   2   2 100546.99 1089.00  0. 1.0000  1268.      0.00 
   1   2   3  86411.51 1183.60  0. 1.0000  1269.      0.00 
   1   2   3  89522.29 1258.61  0. 1.0000  1270.      0.00 
   1   2   3  89421.20 1300.83  0. 1.0000  1271.      0.00 
  -1  -2  -3  85288.30 1308.80  0. 1.0000  1272.      0.00 
   1   2   4  53704.50 1123.32  0. 1.0000  1273.      0.00 
  -1  -2  -4  50125.20 1126.83  0. 1.0000  1274.      0.00 
   1   2   4  51804.70 1140.61  0. 1.0000  1275.      0.00 
   1   2   4  50549.80 1150.54  0. 1.0000  1276.      0.00 
   1   2   5 123180.99 1968.30  0. 1.0000  1277.      0.00 
   1   2   5 122086.01 1833.40  0. 1.0000  1278.      0.00 
   1   2   5 116812.00 1648.10  0. 1.0000  1279.      0.00 
   1   2   6  50639.20 1201.42  0. 1.0000  1280.      0.00 
   1   2   6  51888.80 1252.32  0. 1.0000  1281.      0.00 
   1   2   6  48770.80 1128.86  0. 1.0000  1282.      0.00 
   1   2   6  50539.90 1124.04  0. 1.0000  1283.      0.00 
   1   2   6  48120.70 1165.33  0. 1.0000  1284.      0.00 
   1   2   7  10400.80  495.75  0. 1.0000  1285.      0.00 
   1   2   7   9700.36  459.99  0. 1.0000  1286.      0.00 
   1   2   7   9771.47  459.30  0. 1.0000  1287.      0.00 
   1   2   7  10158.00  436.64  0. 1.0000  1288.      0.00 
   1   2   8   2250.89  171.42  0. 1.0000  1289.      0.00 
   1   2   8   2250.63  159.51  0. 1.0000  1290.      0.00 
   1   2   8   2216.70  157.68  0. 1.0000  1291.      0.00 
  -1  -3  11  29340.90  498.96  0. 1.0000  1292.      0.00 
  -1  -3  11  29431.60  630.67  0. 1.0000  1293.      0.00 
  -1  -3  10   3700.73  312.31  0. 1.0000  1294.      0.00 
  -1  -3  10   3695.93  296.93  0. 1.0000  1295.      0.00 
  -1  -3  10   3564.78  256.94  0. 1.0000  1296.      0.00 
  -1  -3   9  41558.20  964.14  0. 1.0000  1297.      0.00 
  -1  -3   9  40383.40 1102.29  0. 1.0000  1298.      0.00 
  -1  -3   9  42067.00 1184.89  0. 1.0000  1299.      0.00 
  -1  -3   9  41266.60 1059.66  0. 1.0000  1300.      0.00 
  -1  -3   8   2571.26  282.33  0. 1.0000  1301.      0.00 
  -1  -3   8   2675.69  255.05  0. 1.0000  1302.      0.00 
  -1  -3   8   2558.20  298.03  0. 1.0000  1303.      0.00 
  -1  -3   8   2574.51  293.52  0. 1.0000  1304.      0.00 
  -1  -3   8   2542.73  250.85  0. 1.0000  1305.      0.00 
  -1  -3   8   2832.00  284.97  0. 1.0000  1306.      0.00 
   1   3  -7  82360.80 1232.82  0. 1.0000  1307.      0.00 
   1   3  -7  75793.11 1298.20  0. 1.0000  1308.      0.00 
   1   3  -6   6376.73  333.37  0. 1.0000  1309.      0.00 
   1   3  -6   6162.81  305.02  0. 1.0000  1310.      0.00 
  -1  -3   6   6433.61  307.02  0. 1.0000  1311.      0.00 
   1   3  -5 161961.00 1411.70  0. 1.0000  1312.      0.00 
  -1  -3   5 159898.98 1375.20  0. 1.0000  1313.      0.00 
   1   3  -4 206979.02 1456.20  0. 1.0000  1314.      0.00 
  -1  -3   4 204146.00 1432.50  0. 1.0000  1315.      0.00 
   1   3  -3 389220.00 1883.60  0. 1.0000  1316.      0.00 
   1   3  -3 386256.03 1145.90  0. 1.0000  1317.      0.00 
   1   3  -2 392524.97 1348.90  0. 1.0000  1318.      0.00 
   1   3  -2 393191.00 1839.30  0. 1.0000  1319.      0.00 
   1   3  -2 393966.00  887.20  0. 1.0000  1320.      0.00 
  -1  -3   1  82344.80  849.98  0. 1.0000  1321.      0.00 
   1   3  -1  86787.01  876.41  0. 1.0000  1322.      0.00 
   1   3  -1  80037.60  730.35  0. 1.0000  1323.      0.00 
   1   3  -1  82906.49  601.68  0. 1.0000  1324.      0.00 
   1   3  -1  84384.20  909.16  0. 1.0000  1325.      0.00 
   1   3   0 298042.03 1462.30  0. 1.0000  1326.      0.00 
   1   3   0 300095.00 1789.80  0. 1.0000  1327.      0.00 
   1   3   0 296412.00 1636.90  0. 1.0000  1328.      0.00 
   1   3   0 302075.03 1807.90  0. 1.0000  1329.      0.00 
   1   3   1  28818.60  628.95  0. 1.0000  1330.      0.00 
  -1  -3  -1  27612.20  663.02  0. 1.0000  1331.      0.00 
   1   3   1  27354.30  579.43  0. 1.0000  1332.      0.00 
   1   3   1  27079.90  574.08  0. 1.0000  1333.      0.00 
   1   3   1  28276.90  542.40  0. 1.0000  1334.      0.00 
   1   3   2 253980.02 2034.70  0. 1.0000  1335.      0.00 
   1   3   2 256808.00 1908.40  0. 1.0000  1336.      0.00 
  -1  -3  -2 254145.98 2263.90  0. 1.0000  1337.      0.00 
   1   3   3    413.35  113.18  0. 1.0000  1338.      0.00 
  -1  -3  -3    437.35  123.61  0. 1.0000  1339.      0.00 
   1   3   3    477.39  116.64  0. 1.0000  1340.      0.00 
   1   3   4 113426.01 1725.70  0. 1.0000  1341.      0.00 
   1   3   5   1018.50  188.28  0. 1.0000  1342.      0.00 
   1   3   5   1155.53  198.11  0. 1.0000  1343.      0.00 
   1   3   6  79341.30 1274.47  0. 1.0000  1344.      0.00 
   1   3   6  79934.20 1377.08  0. 1.0000  1345.      0.00 
   1   3   6  80742.40 1361.58  0. 1.0000  1346.      0.00 
   1   3   6  76072.70 1336.39  0. 1.0000  1347.      0.00 
   1   3   7   6332.86  301.19  0. 1.0000  1348.      0.00 
   1   3   7   5905.97  286.12  0. 1.0000  1349.      0.00 
   1   3   7   5947.88  246.71  0. 1.0000  1350.      0.00 
   1   3   7   6284.48  296.54  0. 1.0000  1351.      0.00 
  -1  -4  11  16628.30  507.88  0. 1.0000  1352.      0.00 
  -1  -4  11  16233.60  439.36  0. 1.0000  1353.      0.00 
  -1  -4  10  72159.00 1122.42  0. 1.0000  1354.      0.00 
  -1  -4  10  73983.01 1306.85  0. 1.0000  1355.      0.00 
  -1  -4  10  74550.59 1203.31  0. 1.0000  1356.      0.00 
  -1  -4  10  72372.49 1318.09  0. 1.0000  1357.      0.00 
  -1  -4   9  72916.80 1293.74  0. 1.0000  1358.      0.00 
  -1  -4   9  69587.50 1353.23  0. 1.0000  1359.      0.00 
  -1  -4   9  69770.99 1382.86  0. 1.0000  1360.      0.00 
  -1  -4   9  73098.70 1308.25  0. 1.0000  1361.      0.00 
  -1  -4   8  65551.50 1381.20  0. 1.0000  1362.      0.00 
  -1  -4   8  66605.50 1321.16  0. 1.0000  1363.      0.00 
  -1  -4   8  64865.20 1344.94  0. 1.0000  1364.      0.00 
  -1  -4   8  66773.70 1312.90  0. 1.0000  1365.      0.00 
  -1  -4   8  65913.70 1219.05  0. 1.0000  1366.      0.00 
  -1  -4   8  66573.49 1253.51  0. 1.0000  1367.      0.00 
   1   4  -7 159710.00 1754.80  0. 1.0000  1368.      0.00 
   1   4  -6  32238.90  724.52  0. 1.0000  1369.      0.00 
  -1  -4   6  31264.70  713.79  0. 1.0000  1370.      0.00 
   1   4  -5 167170.00 1532.50  0. 1.0000  1371.      0.00 
  -1  -4   5 158645.98 1534.00  0. 1.0000  1372.      0.00 
   1   4  -4  98683.01 1117.04  0. 1.0000  1373.      0.00 
  -1  -4   4  96614.80 1152.89  0. 1.0000  1374.      0.00 
  -1  -4   4  97482.00  973.80  0. 1.0000  1375.      0.00 
   1   4  -3   4158.74  226.76  0. 1.0000  1376.      0.00 
   1   4  -2  13847.80  419.81  0. 1.0000  1377.      0.00 
   1   4  -2  14140.20  367.36  0. 1.0000  1378.      0.00 
  -1  -4   2  14508.10  374.08  0. 1.0000  1379.      0.00 
   1   4  -1 121517.01 1277.80  0. 1.0000  1380.      0.00 
   1   4  -1 119299.01 1145.80  0. 1.0000  1381.      0.00 
   1   4  -1 122860.01 1036.70  0. 1.0000  1382.      0.00 
   1   4   0 121339.01 1327.70  0. 1.0000  1383.      0.00 
   1   4   0 116580.01 1246.40  0. 1.0000  1384.      0.00 
   1   4   0 119636.00 1187.10  0. 1.0000  1385.      0.00 
  -1  -4   0 115983.00 1373.50  0. 1.0000  1386.      0.00 
   1   4   1  17559.40  551.40  0. 1.0000  1387.      0.00 
   1   4   1  16909.30  514.05  0. 1.0000  1388.      0.00 
  -1  -4  -1  16696.10  589.93  0. 1.0000  1389.      0.00 
  -1  -4  -2  77204.00 1421.09  0. 1.0000  1390.      0.00 
   1   4   2  78299.70 1258.01  0. 1.0000  1391.      0.00 
   1   4   2  78704.59 1308.93  0. 1.0000  1392.      0.00 
   1   4   3   1067.49  178.43  0. 1.0000  1393.      0.00 
   1   4   4  53809.70 1209.74  0. 1.0000  1394.      0.00 
   1   4   5    258.10  105.79  0. 1.0000  1395.      0.00 
   1   4   5    240.68  103.35  0. 1.0000  1396.      0.00 
   1   4   5    402.64  115.96  0. 1.0000  1397.      0.00 
   1   4   6  37316.20  726.47  0. 1.0000  1398.      0.00 
   1   4   6  39218.50  759.74  0. 1.0000  1399.      0.00 
   1   4   6  38041.70  764.55  0. 1.0000  1400.      0.00 
   1   4   6  37926.40  711.35  0. 1.0000  1401.      0.00 
  -1  -5  11   3639.88  206.07  0. 1.0000  1402.      0.00 
  -1  -5  11   3795.57  232.82  0. 1.0000  1403.      0.00 
  -1  -5  10  21036.70  697.52  0. 1.0000  1404.      0.00 
  -1  -5  10  20235.00  643.14  0. 1.0000  1405.      0.00 
  -1  -5  10  22168.70  669.87  0. 1.0000  1406.      0.00 
  -1  -5   9  55339.70 1160.49  0. 1.0000  1407.      0.00 
  -1  -5   9  56122.20 1146.88  0. 1.0000  1408.      0.00 
  -1  -5   9  54255.00 1184.93  0. 1.0000  1409.      0.00 
  -1  -5   9  52535.61 1097.28  0. 1.0000  1410.      0.00 
  -1  -5   8  36127.20  946.85  0. 1.0000  1411.      0.00 
  -1  -5   8  35405.90  908.46  0. 1.0000  1412.      0.00 
  -1  -5   8  34576.00  914.95  0. 1.0000  1413.      0.00 
  -1  -5   8  36333.70  965.83  0. 1.0000  1414.      0.00 
   1   5  -7  83597.09 1327.65  0. 1.0000  1415.      0.00 
   1   5  -6  43845.40  901.92  0. 1.0000  1416.      0.00 
  -1  -5   6  40962.90  894.55  0. 1.0000  1417.      0.00 
   1   5  -5 185031.02 1756.20  0. 1.0000  1418.      0.00 
  -1  -5   5 180339.00 1815.80  0. 1.0000  1419.      0.00 
   1   5  -4 188927.02 1741.40  0. 1.0000  1420.      0.00 
  -1  -5   4 186467.98 1671.50  0. 1.0000  1421.      0.00 
   1   5  -3 283121.03 2154.80  0. 1.0000  1422.      0.00 
   1   5  -2    738.35   98.61  0. 1.0000  1423.      0.00 
   1   5  -2    645.68  112.79  0. 1.0000  1424.      0.00 
   1   5  -1  94541.80 1125.20  0. 1.0000  1425.      0.00 
   1   5  -1  92063.59 1258.13  0. 1.0000  1426.      0.00 
  -1  -5   1  94701.10 1319.31  0. 1.0000  1427.      0.00 
   1   5   0  20983.00  592.55  0. 1.0000  1428.      0.00 
   1   5   0  21955.10  576.49  0. 1.0000  1429.      0.00 
   1   5   0  21337.20  631.10  0. 1.0000  1430.      0.00 
  -1  -5   0  21865.60  706.48  0. 1.0000  1431.      0.00 
  -1  -5  -1 168289.98 2140.50  0. 1.0000  1432.      0.00 
   1   5   1 166253.00 1769.90  0. 1.0000  1433.      0.00 
   1   5   2  37964.39  965.12  0. 1.0000  1434.      0.00 
  -1  -5  -3  39847.70 1018.43  0. 1.0000  1435.      0.00 
   1   5   3  38597.60  976.94  0. 1.0000  1436.      0.00 
   1   5   4  31582.30  802.93  0. 1.0000  1437.      0.00 
   1   5   4  31319.40  808.46  0. 1.0000  1438.      0.00 
   1   5   5   4843.51  266.05  0. 1.0000  1439.      0.00 
   1   5   5   4985.12  257.86  0. 1.0000  1440.      0.00 
   1   5   5   4882.42  282.73  0. 1.0000  1441.      0.00 
   1   5   5   4938.46  269.89  0. 1.0000  1442.      0.00 
  -1  -6  11    230.18   77.77  0. 1.0000  1443.      0.00 
  -1  -6  11    330.03   90.37  0. 1.0000  1444.      0.00 
  -1  -6  10  54146.61 1061.46  0. 1.0000  1445.      0.00 
  -1  -6  10  54139.10 1023.79  0. 1.0000  1446.      0.00 
  -1  -6   9   4853.11  356.02  0. 1.0000  1447.      0.00 
  -1  -6   9   4005.25  309.86  0. 1.0000  1448.      0.00 
  -1  -6   9   4007.61  315.15  0. 1.0000  1449.      0.00 
  -1  -6   8  78330.39 1336.42  0. 1.0000  1450.      0.00 
  -1  -6   8  78674.60 1412.15  0. 1.0000  1451.      0.00 
  -1  -6   8  75512.91 1389.59  0. 1.0000  1452.      0.00 
  -1  -6   8  77135.09 1324.48  0. 1.0000  1453.      0.00 
  -1  -6   7  45346.70 1067.51  0. 1.0000  1454.      0.00 
  -1  -6   7  45005.20 1026.72  0. 1.0000  1455.      0.00 
  -1  -6   7  44650.10 1000.54  0. 1.0000  1456.      0.00 
  -1  -6   7  44846.40  974.79  0. 1.0000  1457.      0.00 
  -1  -6   6  90668.10 1483.57  0. 1.0000  1458.      0.00 
   1   6  -6  94296.90 1436.17  0. 1.0000  1459.      0.00 
   1   6  -5   8826.55  433.16  0. 1.0000  1460.      0.00 
  -1  -6   5   9317.41  466.34  0. 1.0000  1461.      0.00 
  -1  -6   4  62353.39 1138.78  0. 1.0000  1462.      0.00 
   1   6  -4  61912.20 1136.28  0. 1.0000  1463.      0.00 
   1   6  -3  81047.41 1292.78  0. 1.0000  1464.      0.00 
   1   6  -2   1324.85  171.32  0. 1.0000  1465.      0.00 
   1   6  -1  57029.00 1110.29  0. 1.0000  1466.      0.00 
   1   6   0  28338.80  798.33  0. 1.0000  1467.      0.00 
  -1  -6   0  29200.50  860.37  0. 1.0000  1468.      0.00 
   1   6   0  27320.00  756.16  0. 1.0000  1469.      0.00 
   1   6   1  54423.00 1116.91  0. 1.0000  1470.      0.00 
  -1  -6  -1  55625.90 1265.31  0. 1.0000  1471.      0.00 
  -1  -6  -1  56515.80 1168.19  0. 1.0000  1472.      0.00 
   1   6   1  55794.30 1122.67  0. 1.0000  1473.      0.00 
   1   6   2   2688.44  237.71  0. 1.0000  1474.      0.00 
   1   6   2   2591.53  250.21  0. 1.0000  1475.      0.00 
  -1  -6  -2   2924.29  288.81  0. 1.0000  1476.      0.00 
   1   6   3  58378.20  995.62  0. 1.0000  1477.      0.00 
   1   6   3  58026.80 1019.27  0. 1.0000  1478.      0.00 
  -1  -6  -3  59888.10 1107.61  0. 1.0000  1479.      0.00 
   1   6   4  31383.30  617.67  0. 1.0000  1480.      0.00 
   1   6   4  32731.10  665.52  0. 1.0000  1481.      0.00 
  -1  -7  11  29994.90  623.65  0. 1.0000  1482.      0.00 
  -1  -7  11  29254.10  604.04  0. 1.0000  1483.      0.00 
  -1  -7  10  19691.70  624.04  0. 1.0000  1484.      0.00 
  -1  -7  10  20475.70  604.85  0. 1.0000  1485.      0.00 
  -1  -7   9  20498.30  656.16  0. 1.0000  1486.      0.00 
  -1  -7   9  20556.20  645.23  0. 1.0000  1487.      0.00 
  -1  -7   9  20334.80  694.46  0. 1.0000  1488.      0.00 
  -1  -7   9  19188.90  685.41  0. 1.0000  1489.      0.00 
  -1  -7   8  55751.70 1151.41  0. 1.0000  1490.      0.00 
  -1  -7   8  53545.90 1198.39  0. 1.0000  1491.      0.00 
  -1  -7   8  55078.89 1090.27  0. 1.0000  1492.      0.00 
  -1  -7   8  56183.70 1182.80  0. 1.0000  1493.      0.00 
  -1  -7   7  14287.00  545.56  0. 1.0000  1494.      0.00 
  -1  -7   7  14624.60  586.89  0. 1.0000  1495.      0.00 
  -1  -7   7  15047.80  609.66  0. 1.0000  1496.      0.00 
  -1  -7   6  77359.70 1317.15  0. 1.0000  1497.      0.00 
  -1  -7   6  73919.00 1333.80  0. 1.0000  1498.      0.00 
  -1  -7   6  73503.11 1247.80  0. 1.0000  1499.      0.00 
  -1  -7   5  24344.60  743.95  0. 1.0000  1500.      0.00 
   1   7  -5  24083.20  682.13  0. 1.0000  1501.      0.00 
  -1  -7   5  24295.40  785.75  0. 1.0000  1502.      0.00 
  -1  -7   5  24791.30  755.57  0. 1.0000  1503.      0.00 
  -1  -7   4 113350.99 1544.20  0. 1.0000  1504.      0.00 
  -1  -7   4 114036.00 1631.10  0. 1.0000  1505.      0.00 
  -1  -7   4 113954.99 1735.20  0. 1.0000  1506.      0.00 
   1   7  -4 111628.99 1503.40  0. 1.0000  1507.      0.00 
  -1  -7   3  16655.20  572.44  0. 1.0000  1508.      0.00 
   1   7  -3  13973.20  547.69  0. 1.0000  1509.      0.00 
  -1  -7   3  14996.60  644.29  0. 1.0000  1510.      0.00 
  -1  -7   3  16144.80  630.08  0. 1.0000  1511.      0.00 
  -1  -7   3  14864.70  590.11  0. 1.0000  1512.      0.00 
  -1  -7   2 552653.06 3834.00  0. 1.0000  1513.      0.00 
   1   7  -2 539225.94 3479.70  0. 1.0000  1514.      0.00 
  -1  -7   2 537158.00 3509.90  0. 1.0000  1515.      0.00 
  -1  -7   2 553303.00 3908.80  0. 1.0000  1516.      0.00 
  -1  -7   1 108314.01 1722.20  0. 1.0000  1517.      0.00 
  -1  -7   1 105501.99 1737.80  0. 1.0000  1518.      0.00 
   1   7  -1 104854.00 1556.20  0. 1.0000  1519.      0.00 
  -1  -7   1 108414.00 1523.70  0. 1.0000  1520.      0.00 
  -1  -7   0   6517.95  437.49  0. 1.0000  1521.      0.00 
   1   7   0   6433.45  384.63  0. 1.0000  1522.      0.00 
  -1  -7   0   6347.43  404.99  0. 1.0000  1523.      0.00 
  -1  -7  -1  35601.20  964.83  0. 1.0000  1524.      0.00 
   1   7   1  34150.50  823.41  0. 1.0000  1525.      0.00 
   1   7   1  32888.60  801.71  0. 1.0000  1526.      0.00 
  -1  -7  -2    134.41   85.86  0. 1.0000  1527.      0.00 
  -1  -7  -3  29464.50  568.30  0. 1.0000  1528.      0.00 
   1   7   3  29213.40  576.16  0. 1.0000  1529.      0.00 
  -1  -8  11  18439.80  447.93  0. 1.0000  1530.      0.00 
  -1  -8  10   1551.52  147.00  0. 1.0000  1531.      0.00 
  -1  -8  10   1873.41  183.86  0. 1.0000  1532.      0.00 
  -1  -8  10   1349.38  161.35  0. 1.0000  1533.      0.00 
  -1  -8  10   1681.95  164.69  0. 1.0000  1534.      0.00 
  -1  -8   9  44659.20  921.57  0. 1.0000  1535.      0.00 
  -1  -8   9  43433.89  871.69  0. 1.0000  1536.      0.00 
  -1  -8   9  46238.00  963.73  0. 1.0000  1537.      0.00 
  -1  -8   8  12241.10  515.91  0. 1.0000  1538.      0.00 
  -1  -8   8  12439.80  532.60  0. 1.0000  1539.      0.00 
  -1  -8   8  11563.20  554.71  0. 1.0000  1540.      0.00 
  -1  -8   8  11671.90  467.74  0. 1.0000  1541.      0.00 
  -1  -8   7  52431.70 1074.90  0. 1.0000  1542.      0.00 
  -1  -8   7  54026.90 1142.26  0. 1.0000  1543.      0.00 
  -1  -8   7  52081.00 1046.59  0. 1.0000  1544.      0.00 
  -1  -8   6  96165.61 1531.51  0. 1.0000  1545.      0.00 
  -1  -8   6  94236.50 1554.87  0. 1.0000  1546.      0.00 
  -1  -8   6  97684.71 1536.12  0. 1.0000  1547.      0.00 
  -1  -8   5   4330.24  336.42  0. 1.0000  1548.      0.00 
  -1  -8   5   3980.50  310.07  0. 1.0000  1549.      0.00 
   1   8  -5   3785.11  283.11  0. 1.0000  1550.      0.00 
  -1  -8   5   3968.14  336.70  0. 1.0000  1551.      0.00 
  -1  -8   4 106378.00 1616.30  0. 1.0000  1552.      0.00 
   1   8  -4 103118.99 1486.90  0. 1.0000  1553.      0.00 
  -1  -8   4 104305.99 1494.10  0. 1.0000  1554.      0.00 
  -1  -8   4 105884.01 1736.60  0. 1.0000  1555.      0.00 
  -1  -8   3  13058.10  562.19  0. 1.0000  1556.      0.00 
  -1  -8   3  13903.60  636.94  0. 1.0000  1557.      0.00 
  -1  -8   3  14419.70  610.54  0. 1.0000  1558.      0.00 
   1   8  -3  13720.50  554.83  0. 1.0000  1559.      0.00 
  -1  -8   2   1085.60  182.38  0. 1.0000  1560.      0.00 
  -1  -8   2   1761.04  206.10  0. 1.0000  1561.      0.00 
  -1  -8   2   1423.74  211.04  0. 1.0000  1562.      0.00 
  -1  -8   1  25951.10  796.01  0. 1.0000  1563.      0.00 
  -1  -8   1  24603.50  803.93  0. 1.0000  1564.      0.00 
   1   8  -1  25193.70  729.33  0. 1.0000  1565.      0.00 
  -1  -8   0  64320.20 1099.48  0. 1.0000  1566.      0.00 
  -1  -8   0  64531.20 1222.69  0. 1.0000  1567.      0.00 
   1   8   0  61965.90 1056.58  0. 1.0000  1568.      0.00 
   1   8   1  33826.60  645.89  0. 1.0000  1569.      0.00 
  -1  -8  -1  34454.00  773.46  0. 1.0000  1570.      0.00 
   1   8   1  32751.80  648.22  0. 1.0000  1571.      0.00 
  -1  -8  -2  26464.10  499.06  0. 1.0000  1572.      0.00 
  -1  -9  10    545.44   86.94  0. 1.0000  1573.      0.00 
  -1  -9  10    540.73   89.65  0. 1.0000  1574.      0.00 
  -1  -9  10    591.26  102.59  0. 1.0000  1575.      0.00 
  -1  -9   9  56970.10  905.18  0. 1.0000  1576.      0.00 
  -1  -9   9  57318.10  950.77  0. 1.0000  1577.      0.00 
  -1  -9   8   8347.99  404.70  0. 1.0000  1578.      0.00 
  -1  -9   8   8433.15  365.18  0. 1.0000  1579.      0.00 
  -1  -9   8   7949.92  428.35  0. 1.0000  1580.      0.00 
  -1  -9   7  67836.41 1186.16  0. 1.0000  1581.      0.00 
  -1  -9   7  65002.61 1141.44  0. 1.0000  1582.      0.00 
  -1  -9   6  21458.90  671.40  0. 1.0000  1583.      0.00 
  -1  -9   6  19351.70  678.73  0. 1.0000  1584.      0.00 
   1   9  -6  20824.10  596.62  0. 1.0000  1585.      0.00 
  -1  -9   6  20917.30  678.51  0. 1.0000  1586.      0.00 
  -1  -9   5  80982.71 1355.06  0. 1.0000  1587.      0.00 
  -1  -9   5  79780.70 1260.23  0. 1.0000  1588.      0.00 
   1   9  -5  79178.30 1219.93  0. 1.0000  1589.      0.00 
  -1  -9   5  77621.79 1410.70  0. 1.0000  1590.      0.00 
  -1  -9   4  48184.20 1107.02  0. 1.0000  1591.      0.00 
   1   9  -4  46556.50  950.93  0. 1.0000  1592.      0.00 
  -1  -9   4  48249.30 1036.86  0. 1.0000  1593.      0.00 
  -1  -9   3   3968.33  317.32  0. 1.0000  1594.      0.00 
  -1  -9   3   4039.44  299.28  0. 1.0000  1595.      0.00 
   1   9  -3   3771.01  274.90  0. 1.0000  1596.      0.00 
  -1  -9   3   3840.98  283.44  0. 1.0000  1597.      0.00 
  -1  -9   2  52399.20 1043.96  0. 1.0000  1598.      0.00 
  -1  -9   2  50381.00 1013.54  0. 1.0000  1599.      0.00 
  -1  -9   2  51711.20  925.06  0. 1.0000  1600.      0.00 
   1   9  -2  50078.80  942.69  0. 1.0000  1601.      0.00 
   1   9  -1   2586.84  202.29  0. 1.0000  1602.      0.00 
  -1  -9   1   2572.42  219.75  0. 1.0000  1603.      0.00 
  -1  -9   0  64606.60  911.91  0. 1.0000  1604.      0.00 
   1   9   0  63570.60  793.76  0. 1.0000  1605.      0.00 
  -1 -10   9  46272.00  784.74  0. 1.0000  1606.      0.00 
  -1 -10   9  47026.20  721.61  0. 1.0000  1607.      0.00 
  -1 -10   8    204.84   62.37  0. 1.0000  1608.      0.00 
  -1 -10   8    294.85   83.64  0. 1.0000  1609.      0.00 
  -1 -10   8    240.93   83.88  0. 1.0000  1610.      0.00 
  -1 -10   7  32105.30  693.08  0. 1.0000  1611.      0.00 
  -1 -10   7  29137.10  659.60  0. 1.0000  1612.      0.00 
  -1 -10   7  30805.20  752.21  0. 1.0000  1613.      0.00 
  -1 -10   7  30964.70  685.85  0. 1.0000  1614.      0.00 
  -1 -10   6   2077.45  180.68  0. 1.0000  1615.      0.00 
  -1 -10   6   2060.21  198.22  0. 1.0000  1616.      0.00 
   1  10  -6   1892.31  155.60  0. 1.0000  1617.      0.00 
  -1 -10   6   2079.97  196.32  0. 1.0000  1618.      0.00 
  -1 -10   5  26777.10  573.62  0. 1.0000  1619.      0.00 
  -1 -10   5  25742.10  692.96  0. 1.0000  1620.      0.00 
   1  10  -5  26147.50  600.10  0. 1.0000  1621.      0.00 
  -1 -10   5  26477.10  667.93  0. 1.0000  1622.      0.00 
  -1 -10   4   5001.25  302.87  0. 1.0000  1623.      0.00 
   1  10  -4   4913.45  262.99  0. 1.0000  1624.      0.00 
  -1 -10   4   4983.06  278.69  0. 1.0000  1625.      0.00 
   1  10  -3  28366.40  593.47  0. 1.0000  1626.      0.00 
  -1 -10   3  28901.30  656.47  0. 1.0000  1627.      0.00 
  -1 -10   3  27283.80  564.61  0. 1.0000  1628.      0.00 
  -1 -10   3  27866.40  579.42  0. 1.0000  1629.      0.00 
  -1 -10   2  27706.50  531.89  0. 1.0000  1630.      0.00 
   1  10  -2  27760.10  525.57  0. 1.0000  1631.      0.00 
  -1 -10   2  26312.50  510.49  0. 1.0000  1632.      0.00 
  -1 -11   7  34075.30  560.41  0. 1.0000  1633.      0.00 
  -1 -11   6   7782.63  266.53  0. 1.0000  1634.      0.00 
  -1 -11   6   8115.15  273.72  0. 1.0000  1635.      0.00 
  -2  11  -2    767.04   82.52  0. 1.0000  1636.      0.00 
  -2  11  -3  73308.01  824.06  0. 1.0000  1637.      0.00 
   2 -11   3  72245.49  961.78  0. 1.0000  1638.      0.00 
   2 -11   4    880.35  111.24  0. 1.0000  1639.      0.00 
   2 -11   4    944.97  129.96  0. 1.0000  1640.      0.00 
   2 -11   5  44368.90  781.32  0. 1.0000  1641.      0.00 
   2 -11   5  43745.10  813.98  0. 1.0000  1642.      0.00 
   2 -11   6  35444.40  700.52  0. 1.0000  1643.      0.00 
   2 -11   6  37634.90  729.17  0. 1.0000  1644.      0.00 
   2 -11   7  27897.40  601.80  0. 1.0000  1645.      0.00 
   2 -11   7  28711.60  557.14  0. 1.0000  1646.      0.00 
   2 -11   8  40181.30  572.76  0. 1.0000  1647.      0.00 
   2 -11   8  41226.60  629.99  0. 1.0000  1648.      0.00 
   2 -11   8  39764.40  634.30  0. 1.0000  1649.      0.00 
  -2  10   0  11222.40  355.10  0. 1.0000  1650.      0.00 
   2 -10   0  11712.20  390.32  0. 1.0000  1651.      0.00 
   2 -10   1  26501.00  675.72  0. 1.0000  1652.      0.00 
  -2  10  -1  25688.90  610.62  0. 1.0000  1653.      0.00 
   2 -10   1  26250.20  610.91  0. 1.0000  1654.      0.00 
   2 -10   2  29795.30  749.18  0. 1.0000  1655.      0.00 
  -2  10  -2  29321.80  691.51  0. 1.0000  1656.      0.00 
   2 -10   2  29218.40  754.85  0. 1.0000  1657.      0.00 
   2 -10   2  29471.00  747.50  0. 1.0000  1658.      0.00 
   2 -10   3  57319.00 1004.03  0. 1.0000  1659.      0.00 
   2 -10   3  59481.50 1155.55  0. 1.0000  1660.      0.00 
   2 -10   3  57026.60 1064.12  0. 1.0000  1661.      0.00 
  -2  10  -3  60925.30 1003.81  0. 1.0000  1662.      0.00 
   2 -10   3  60029.00 1137.48  0. 1.0000  1663.      0.00 
   2 -10   4    458.44  121.96  0. 1.0000  1664.      0.00 
   2 -10   4    338.19  100.14  0. 1.0000  1665.      0.00 
   2 -10   4    499.16  135.54  0. 1.0000  1666.      0.00 
   2 -10   5  91439.09 1372.89  0. 1.0000  1667.      0.00 
   2 -10   5  89548.70 1395.10  0. 1.0000  1668.      0.00 
   2 -10   5  92815.30 1521.07  0. 1.0000  1669.      0.00 
   2 -10   6    332.78   98.21  0. 1.0000  1670.      0.00 
   2 -10   6    693.37  136.86  0. 1.0000  1671.      0.00 
   2 -10   6    541.60  115.38  0. 1.0000  1672.      0.00 
   2 -10   6    789.53  124.93  0. 1.0000  1673.      0.00 
   2 -10   7  60565.40 1048.44  0. 1.0000  1674.      0.00 
   2 -10   7  58272.00 1036.74  0. 1.0000  1675.      0.00 
   2 -10   7  61222.90  999.61  0. 1.0000  1676.      0.00 
   2 -10   8   5857.32  299.34  0. 1.0000  1677.      0.00 
   2 -10   8   6253.27  312.26  0. 1.0000  1678.      0.00 
   2 -10   8   6273.63  333.36  0. 1.0000  1679.      0.00 
   2 -10   9   1990.20  173.67  0. 1.0000  1680.      0.00 
   2 -10   9   2310.47  175.85  0. 1.0000  1681.      0.00 
   2 -10  10  21450.00  418.02  0. 1.0000  1682.      0.00 
  -2   9   2  24756.30  487.58  0. 1.0000  1683.      0.00 
   2  -9  -2  24732.60  509.78  0. 1.0000  1684.      0.00 
   2  -9  -1   1420.71  169.03  0. 1.0000  1685.      0.00 
  -2   9   1   1641.56  167.29  0. 1.0000  1686.      0.00 
  -2   9   0  61422.70 1098.14  0. 1.0000  1687.      0.00 
   2  -9   0  62293.40 1200.17  0. 1.0000  1688.      0.00 
   2  -9   0  62579.50 1060.89  0. 1.0000  1689.      0.00 
   2  -9   1  26971.30  771.96  0. 1.0000  1690.      0.00 
   2  -9   1  26974.20  832.24  0. 1.0000  1691.      0.00 
  -2   9  -1  26555.20  752.70  0. 1.0000  1692.      0.00 
   2  -9   1  25981.70  773.76  0. 1.0000  1693.      0.00 
   2  -9   2  20738.00  659.27  0. 1.0000  1694.      0.00 
   2  -9   2  20011.60  729.53  0. 1.0000  1695.      0.00 
  -2   9  -2  22055.20  691.48  0. 1.0000  1696.      0.00 
   2  -9   2  20512.70  729.34  0. 1.0000  1697.      0.00 
   2  -9   2  20969.60  730.05  0. 1.0000  1698.      0.00 
   2  -9   3  95498.50 1485.78  0. 1.0000  1699.      0.00 
   2  -9   3  95337.40 1546.36  0. 1.0000  1700.      0.00 
   2  -9   3  99796.01 1661.90  0. 1.0000  1701.      0.00 
  -2   9  -3  95738.61 1391.50  0. 1.0000  1702.      0.00 
   2  -9   3  96038.41 1587.36  0. 1.0000  1703.      0.00 
   2  -9   4  42346.50 1002.02  0. 1.0000  1704.      0.00 
   2  -9   4  44163.50 1124.73  0. 1.0000  1705.      0.00 
   2  -9   4  43003.60 1048.43  0. 1.0000  1706.      0.00 
   2  -9   5  81747.39 1391.22  0. 1.0000  1707.      0.00 
   2  -9   5  85935.79 1424.31  0. 1.0000  1708.      0.00 
   2  -9   5  80734.41 1276.57  0. 1.0000  1709.      0.00 
   2  -9   5  81068.61 1526.71  0. 1.0000  1710.      0.00 
   2  -9   5  80131.50 1394.06  0. 1.0000  1711.      0.00 
   2  -9   6   7674.64  426.14  0. 1.0000  1712.      0.00 
   2  -9   6   7323.16  451.81  0. 1.0000  1713.      0.00 
   2  -9   6   7443.26  432.00  0. 1.0000  1714.      0.00 
   2  -9   6   7663.48  408.78  0. 1.0000  1715.      0.00 
   2  -9   6   7515.79  408.45  0. 1.0000  1716.      0.00 
   2  -9   7   4453.46  310.88  0. 1.0000  1717.      0.00 
   2  -9   7   4915.72  328.98  0. 1.0000  1718.      0.00 
   2  -9   7   5226.95  362.77  0. 1.0000  1719.      0.00 
   2  -9   8    935.37  140.29  0. 1.0000  1720.      0.00 
   2  -9   8    911.83  157.99  0. 1.0000  1721.      0.00 
   2  -9   9 107316.01 1428.80  0. 1.0000  1722.      0.00 
   2  -9   9 110769.99 1363.30  0. 1.0000  1723.      0.00 
   2  -9  10   1239.98  127.70  0. 1.0000  1724.      0.00 
   2  -9  10   1369.19  144.82  0. 1.0000  1725.      0.00 
  -2   8   3   9816.77  312.45  0. 1.0000  1726.      0.00 
   2  -8  -3   9572.71  349.20  0. 1.0000  1727.      0.00 
  -2   8   3   9943.41  349.26  0. 1.0000  1728.      0.00 
  -2   8   2  36676.50  720.92  0. 1.0000  1729.      0.00 
   2  -8  -2  37385.30  885.67  0. 1.0000  1730.      0.00 
  -2   8   2  36762.10  844.72  0. 1.0000  1731.      0.00 
  -2   8   1  51474.90 1103.04  0. 1.0000  1732.      0.00 
   2  -8  -1  51096.39 1162.70  0. 1.0000  1733.      0.00 
  -2   8   0  99661.20 1575.51  0. 1.0000  1734.      0.00 
   2  -8   0 100408.01 1581.30  0. 1.0000  1735.      0.00 
   2  -8   0 102700.01 1713.50  0. 1.0000  1736.      0.00 
   2  -8   1   6798.29  446.63  0. 1.0000  1737.      0.00 
   2  -8   1   7485.40  446.53  0. 1.0000  1738.      0.00 
  -2   8  -1   7083.72  417.88  0. 1.0000  1739.      0.00 
   2  -8   1   6935.10  395.55  0. 1.0000  1740.      0.00 
   2  -8   2  51099.61 1099.35  0. 1.0000  1741.      0.00 
   2  -8   2  52623.89 1199.28  0. 1.0000  1742.      0.00 
  -2   8  -2  51008.90 1067.37  0. 1.0000  1743.      0.00 
   2  -8   2  50604.30 1161.88  0. 1.0000  1744.      0.00 
   2  -8   2  52497.89 1198.94  0. 1.0000  1745.      0.00 
   2  -8   3    182.61  100.53  0. 1.0000  1746.      0.00 
   2  -8   3    230.37  103.41  0. 1.0000  1747.      0.00 
   2  -8   3    146.49   96.43  0. 1.0000  1748.      0.00 
   2  -8   3    122.40  101.89  0. 1.0000  1749.      0.00 
   2  -8   4  30312.30  853.04  0. 1.0000  1750.      0.00 
   2  -8   4  30581.80  800.45  0. 1.0000  1751.      0.00 
   2  -8   4  30764.00  870.62  0. 1.0000  1752.      0.00 
   2  -8   4  31334.40  943.18  0. 1.0000  1753.      0.00 
   2  -8   5  31530.00  868.02  0. 1.0000  1754.      0.00 
   2  -8   5  32088.60  954.14  0. 1.0000  1755.      0.00 
   2  -8   5  31930.30  841.18  0. 1.0000  1756.      0.00 
   2  -8   5  34431.70  925.62  0. 1.0000  1757.      0.00 
   2  -8   5  32722.40  882.40  0. 1.0000  1758.      0.00 
   2  -8   6  28484.20  817.31  0. 1.0000  1759.      0.00 
   2  -8   6  29672.70  831.96  0. 1.0000  1760.      0.00 
   2  -8   6  27553.90  869.46  0. 1.0000  1761.      0.00 
   2  -8   6  30298.90  893.40  0. 1.0000  1762.      0.00 
   2  -8   7 195030.00 2060.10  0. 1.0000  1763.      0.00 
   2  -8   7 200157.00 2188.50  0. 1.0000  1764.      0.00 
   2  -8   7 188413.98 2205.20  0. 1.0000  1765.      0.00 
   2  -8   7 206254.98 2352.60  0. 1.0000  1766.      0.00 
   2  -8   8  25525.80  769.09  0. 1.0000  1767.      0.00 
   2  -8   8  28290.10  800.28  0. 1.0000  1768.      0.00 
   2  -8   8  26711.00  830.82  0. 1.0000  1769.      0.00 
   2  -8   9  23823.40  677.34  0. 1.0000  1770.      0.00 
   2  -8   9  23773.90  730.03  0. 1.0000  1771.      0.00 
   2  -8  10   3496.15  218.77  0. 1.0000  1772.      0.00 
   2  -8  10   3332.20  241.62  0. 1.0000  1773.      0.00 
  -2   7   4   1103.46  131.56  0. 1.0000  1774.      0.00 
  -2   7   4   1126.50  129.40  0. 1.0000  1775.      0.00 
   2  -7  -3  51969.20 1083.79  0. 1.0000  1776.      0.00 
  -2   7   3  52075.60 1063.99  0. 1.0000  1777.      0.00 
  -2   7   3  52200.70  988.95  0. 1.0000  1778.      0.00 
  -2   7   2  66176.29 1180.52  0. 1.0000  1779.      0.00 
  -2   7   2  68505.70 1349.81  0. 1.0000  1780.      0.00 
   2  -7  -2  67819.60 1380.95  0. 1.0000  1781.      0.00 
   2  -7  -1  28233.20  917.77  0. 1.0000  1782.      0.00 
  -2   7   1  28806.40  890.99  0. 1.0000  1783.      0.00 
   2  -7  -1  28106.90  838.77  0. 1.0000  1784.      0.00 
   2  -7   0  64141.20 1352.33  0. 1.0000  1785.      0.00 
   2  -7   0  63851.00 1301.09  0. 1.0000  1786.      0.00 
  -2   7   0  62557.60 1263.26  0. 1.0000  1787.      0.00 
   2  -7   1  61942.80 1295.82  0. 1.0000  1788.      0.00 
   2  -7   1  62614.30 1287.49  0. 1.0000  1789.      0.00 
   2  -7   2 143016.98 1995.40  0. 1.0000  1790.      0.00 
   2  -7   2 151661.00 1817.80  0. 1.0000  1791.      0.00 
  -2   7  -3  16203.00  565.69  0. 1.0000  1792.      0.00 
   2  -7   3  16347.10  669.99  0. 1.0000  1793.      0.00 
   2  -7   3  15918.80  611.25  0. 1.0000  1794.      0.00 
   2  -7   4  96578.29 1609.97  0. 1.0000  1795.      0.00 
   2  -7   4  98456.51 1547.30  0. 1.0000  1796.      0.00 
   2  -7   5   1255.03  192.92  0. 1.0000  1797.      0.00 
   2  -7   5   1035.94  169.64  0. 1.0000  1798.      0.00 
   2  -7   6 140906.00 1737.90  0. 1.0000  1799.      0.00 
   2  -7   6 137991.00 1799.90  0. 1.0000  1800.      0.00 
   2  -7   7   4225.67  337.12  0. 1.0000  1801.      0.00 
   2  -7   7   4512.72  358.15  0. 1.0000  1802.      0.00 
   2  -7   7   4673.80  346.64  0. 1.0000  1803.      0.00 
   2  -7   7   4145.36  314.64  0. 1.0000  1804.      0.00 
   2  -7   8  14661.90  637.20  0. 1.0000  1805.      0.00 
   2  -7   8  14012.00  580.45  0. 1.0000  1806.      0.00 
   2  -7   8  13749.50  583.10  0. 1.0000  1807.      0.00 
   2  -7   8  13927.20  560.62  0. 1.0000  1808.      0.00 
   2  -7   9   8540.74  458.96  0. 1.0000  1809.      0.00 
   2  -7   9   8172.74  405.75  0. 1.0000  1810.      0.00 
   2  -7  10  30822.70  634.35  0. 1.0000  1811.      0.00 
   2  -7  10  31623.20  759.45  0. 1.0000  1812.      0.00 
   2  -7  11  38570.70  618.53  0. 1.0000  1813.      0.00 
  -2   6   6  12406.10  312.75  0. 1.0000  1814.      0.00 
  -2   6   5  13363.40  408.22  0. 1.0000  1815.      0.00 
  -2   6   5  13403.40  469.34  0. 1.0000  1816.      0.00 
  -2   6   5  13264.30  461.20  0. 1.0000  1817.      0.00 
  -2   6   4   1022.99  165.70  0. 1.0000  1818.      0.00 
  -2   6   4   1289.46  179.85  0. 1.0000  1819.      0.00 
  -2   6   3  94627.40 1529.97  0. 1.0000  1820.      0.00 
  -2   6   3  94325.00 1634.83  0. 1.0000  1821.      0.00 
   2  -6  -3  95224.91 1630.70  0. 1.0000  1822.      0.00 
  -2   6   2   5868.14  374.96  0. 1.0000  1823.      0.00 
  -2   6   2   6094.14  421.41  0. 1.0000  1824.      0.00 
   2  -6  -2   6220.55  432.83  0. 1.0000  1825.      0.00 
   2  -6  -1 103963.99 1729.40  0. 1.0000  1826.      0.00 
   2  -6  -1 102229.00 1646.50  0. 1.0000  1827.      0.00 
   2  -6   0   7753.88  442.88  0. 1.0000  1828.      0.00 
   2  -6   0   6811.04  416.28  0. 1.0000  1829.      0.00 
   2  -6   1 120965.00 1617.40  0. 1.0000  1830.      0.00 
   2  -6   1 117152.01 1651.30  0. 1.0000  1831.      0.00 
  -2   6  -2 129775.01 1511.80  0. 1.0000  1832.      0.00 
   2  -6   2 124912.01 1667.00  0. 1.0000  1833.      0.00 
   2  -6   2 127471.01 1501.70  0. 1.0000  1834.      0.00 
  -2   6  -3 105516.01 1277.10  0. 1.0000  1835.      0.00 
   2  -6   3 102955.01 1500.10  0. 1.0000  1836.      0.00 
   2  -6   3 107387.00 1422.40  0. 1.0000  1837.      0.00 
   2  -6   4 143251.00 1764.80  0. 1.0000  1838.      0.00 
   2  -6   4 143533.00 1704.80  0. 1.0000  1839.      0.00 
   2  -6   5  16946.20  623.89  0. 1.0000  1840.      0.00 
   2  -6   5  17667.90  633.27  0. 1.0000  1841.      0.00 
   2  -6   6  72274.99 1389.47  0. 1.0000  1842.      0.00 
   2  -6   7    107.21   87.79  0. 1.0000  1843.      0.00 
   2  -6   7     95.69   86.52  0. 1.0000  1844.      0.00 
   2  -6   7     75.57   83.38  0. 1.0000  1845.      0.00 
   2  -6   7     28.88   83.35  0. 1.0000  1846.      0.00 
   2  -6   8 159569.98 2100.20  0. 1.0000  1847.      0.00 
   2  -6   8 154314.98 1827.40  0. 1.0000  1848.      0.00 
   2  -6   8 156727.00 1891.90  0. 1.0000  1849.      0.00 
   2  -6   9 145353.00 1644.90  0. 1.0000  1850.      0.00 
   2  -6   9 141145.00 1751.90  0. 1.0000  1851.      0.00 
   2  -6   9 146889.00 1898.70  0. 1.0000  1852.      0.00 
   2  -6   9 146811.00 1637.00  0. 1.0000  1853.      0.00 
   2  -6  10   2582.27  226.18  0. 1.0000  1854.      0.00 
  -2   5   6  13672.30  486.79  0. 1.0000  1855.      0.00 
  -2   5   6  13671.20  454.92  0. 1.0000  1856.      0.00 
  -2   5   6  13407.30  482.12  0. 1.0000  1857.      0.00 
  -2   5   5  47873.20 1015.20  0. 1.0000  1858.      0.00 
  -2   5   5  49123.10 1104.29  0. 1.0000  1859.      0.00 
  -2   5   5  48944.60 1126.04  0. 1.0000  1860.      0.00 
  -2   5   4  73745.71 1439.97  0. 1.0000  1861.      0.00 
  -2   5   4  73433.39 1321.89  0. 1.0000  1862.      0.00 
  -2   5   3  46922.10 1103.08  0. 1.0000  1863.      0.00 
   2  -5  -3  47748.70 1160.90  0. 1.0000  1864.      0.00 
  -2   5   3  45136.50 1155.80  0. 1.0000  1865.      0.00 
  -2   5   3  46578.30 1014.37  0. 1.0000  1866.      0.00 
  -2   5   2  22941.00  680.43  0. 1.0000  1867.      0.00 
   2  -5  -2  22663.80  784.60  0. 1.0000  1868.      0.00 
  -2   5   1 174959.00 1615.20  0. 1.0000  1869.      0.00 
   2  -5  -1 172628.98 1985.40  0. 1.0000  1870.      0.00 
   2  -5  -1 171937.00 1902.60  0. 1.0000  1871.      0.00 
   2  -5   0    633.03  118.28  0. 1.0000  1872.      0.00 
   2  -5   0    658.91  120.14  0. 1.0000  1873.      0.00 
  -2   5  -1 312287.03 2223.50  0. 1.0000  1874.      0.00 
   2  -5   1 312910.03 2024.50  0. 1.0000  1875.      0.00 
   2  -5   2   7255.15  318.81  0. 1.0000  1876.      0.00 
  -2   5  -2   7302.49  318.52  0. 1.0000  1877.      0.00 
   2  -5   2   6951.63  347.50  0. 1.0000  1878.      0.00 
   2  -5   3 241618.98 2048.60  0. 1.0000  1879.      0.00 
   2  -5   3 245625.00 1933.10  0. 1.0000  1880.      0.00 
   2  -5   4 162562.98 1712.60  0. 1.0000  1881.      0.00 
   2  -5   4 160865.02 1662.70  0. 1.0000  1882.      0.00 
   2  -5   5 127888.00 1576.80  0. 1.0000  1883.      0.00 
   2  -5   5 130133.01 1649.80  0. 1.0000  1884.      0.00 
   2  -5   6  36368.10  945.34  0. 1.0000  1885.      0.00 
   2  -5   7  14888.60  609.78  0. 1.0000  1886.      0.00 
   2  -5   7  14971.20  581.81  0. 1.0000  1887.      0.00 
   2  -5   7  15232.50  561.83  0. 1.0000  1888.      0.00 
   2  -5   7  14996.80  636.79  0. 1.0000  1889.      0.00 
   2  -5   8   1040.36  177.88  0. 1.0000  1890.      0.00 
   2  -5   8    969.99  175.81  0. 1.0000  1891.      0.00 
   2  -5   8   1096.21  183.22  0. 1.0000  1892.      0.00 
   2  -5   8   1673.62  195.78  0. 1.0000  1893.      0.00 
   2  -5   8   1003.15  173.35  0. 1.0000  1894.      0.00 
   2  -5   8   1031.73  159.70  0. 1.0000  1895.      0.00 
   2  -5   9  26982.60  784.57  0. 1.0000  1896.      0.00 
   2  -5   9  27237.60  776.06  0. 1.0000  1897.      0.00 
   2  -5   9  26679.50  807.61  0. 1.0000  1898.      0.00 
   2  -5   9  28881.50  844.90  0. 1.0000  1899.      0.00 
   2  -5  10  25102.00  638.43  0. 1.0000  1900.      0.00 
   2  -5  10  24982.10  648.12  0. 1.0000  1901.      0.00 
   2  -5  10  26219.30  682.33  0. 1.0000  1902.      0.00 
  -2   4   7   7464.45  353.08  0. 1.0000  1903.      0.00 
  -2   4   7   7408.27  347.56  0. 1.0000  1904.      0.00 
  -2   4   7   7259.08  355.02  0. 1.0000  1905.      0.00 
  -2   4   6 157992.02 1952.10  0. 1.0000  1906.      0.00 
  -2   4   6 156331.00 2005.20  0. 1.0000  1907.      0.00 
  -2   4   6 153599.00 2047.80  0. 1.0000  1908.      0.00 
  -2   4   5  22126.90  819.00  0. 1.0000  1909.      0.00 
  -2   4   5  22242.90  787.13  0. 1.0000  1910.      0.00 
  -2   4   4  73277.80 1443.87  0. 1.0000  1911.      0.00 
  -2   4   4  71417.30 1424.74  0. 1.0000  1912.      0.00 
  -2   4   4  75268.70 1388.25  0. 1.0000  1913.      0.00 
   2  -4  -3  17203.20  700.33  0. 1.0000  1914.      0.00 
   2  -4  -3  18661.50  697.43  0. 1.0000  1915.      0.00 
  -2   4   2  96573.40 1261.97  0. 1.0000  1916.      0.00 
   2  -4  -2 100956.01 1326.10  0. 1.0000  1917.      0.00 
   2  -4  -2  99272.80 1450.14  0. 1.0000  1918.      0.00 
   2  -4  -1 418319.03 2690.70  0. 1.0000  1919.      0.00 
  -2   4   1 424740.03 2235.60  0. 1.0000  1920.      0.00 
   2  -4  -1 418226.03 2549.20  0. 1.0000  1921.      0.00 
   2  -4   0    872.62  121.72  0. 1.0000  1922.      0.00 
   2  -4   0    993.91  125.71  0. 1.0000  1923.      0.00 
   2  -4   1 121837.00 1009.40  0. 1.0000  1924.      0.00 
  -2   4  -1 118430.00 1176.20  0. 1.0000  1925.      0.00 
   2  -4   1 118756.00 1217.10  0. 1.0000  1926.      0.00 
   2  -4   1 118029.99 1258.20  0. 1.0000  1927.      0.00 
   2  -4   1 118595.99 1060.90  0. 1.0000  1928.      0.00 
   2  -4   2   3208.95  146.36  0. 1.0000  1929.      0.00 
   2  -4   2   2840.99  199.35  0. 1.0000  1930.      0.00 
   2  -4   2   2982.58  183.31  0. 1.0000  1931.      0.00 
   2  -4   3 190654.00 1629.00  0. 1.0000  1932.      0.00 
   2  -4   3 189804.00 1547.40  0. 1.0000  1933.      0.00 
   2  -4   4   2170.09  189.41  0. 1.0000  1934.      0.00 
   2  -4   4    245.04   76.15  0. 1.0000  1935.      0.00 
   2  -4   5  74617.51 1201.55  0. 1.0000  1936.      0.00 
   2  -4   5  75582.71 1132.66  0. 1.0000  1937.      0.00 
   2  -4   6 111353.01 1639.30  0. 1.0000  1938.      0.00 
   2  -4   7  60661.70 1221.05  0. 1.0000  1939.      0.00 
   2  -4   7  58360.00 1200.18  0. 1.0000  1940.      0.00 
   2  -4   7  58352.30 1287.52  0. 1.0000  1941.      0.00 
   2  -4   7  61749.30 1272.86  0. 1.0000  1942.      0.00 
   2  -4   7  58054.70 1225.11  0. 1.0000  1943.      0.00 
   2  -4   8  61674.10 1258.75  0. 1.0000  1944.      0.00 
   2  -4   8  64002.00 1325.21  0. 1.0000  1945.      0.00 
   2  -4   8  62369.50 1359.35  0. 1.0000  1946.      0.00 
   2  -4   8  62717.30 1319.22  0. 1.0000  1947.      0.00 
   2  -4   8  63265.60 1273.45  0. 1.0000  1948.      0.00 
   2  -4   9  48744.50 1022.48  0. 1.0000  1949.      0.00 
   2  -4   9  50324.50 1099.59  0. 1.0000  1950.      0.00 
   2  -4   9  50269.70 1048.39  0. 1.0000  1951.      0.00 
   2  -4   9  50020.80 1137.88  0. 1.0000  1952.      0.00 
   2  -4   9  49280.20 1101.86  0. 1.0000  1953.      0.00 
   2  -4  10  20307.60  583.01  0. 1.0000  1954.      0.00 
   2  -4  10  20645.60  516.58  0. 1.0000  1955.      0.00 
   2  -4  10  20299.30  578.94  0. 1.0000  1956.      0.00 
  -2   3   8  20123.90  552.30  0. 1.0000  1957.      0.00 
  -2   3   8  19109.50  492.58  0. 1.0000  1958.      0.00 
  -2   3   8  19509.70  545.89  0. 1.0000  1959.      0.00 
  -2   3   7  14733.10  602.60  0. 1.0000  1960.      0.00 
  -2   3   7  15024.00  562.94  0. 1.0000  1961.      0.00 
  -2   3   7  15400.10  628.54  0. 1.0000  1962.      0.00 
  -2   3   7  14104.60  615.26  0. 1.0000  1963.      0.00 
  -2   3   6  91271.60 1674.25  0. 1.0000  1964.      0.00 
  -2   3   6  96532.91 1714.83  0. 1.0000  1965.      0.00 
  -2   3   6  95605.70 1593.56  0. 1.0000  1966.      0.00 
  -2   3   6  91345.21 1739.83  0. 1.0000  1967.      0.00 
  -2   3   5   4162.00  354.20  0. 1.0000  1968.      0.00 
  -2   3   5   4032.57  357.95  0. 1.0000  1969.      0.00 
  -2   3   4 225920.00 2405.60  0. 1.0000  1970.      0.00 
   2  -3  -4 219236.00 2342.10  0. 1.0000  1971.      0.00 
   2  -3  -3   3343.26  278.31  0. 1.0000  1972.      0.00 
   2  -3  -3   3051.03  251.68  0. 1.0000  1973.      0.00 
  -2   3   2 200492.00 1633.30  0. 1.0000  1974.      0.00 
   2  -3  -2 197230.00 1771.90  0. 1.0000  1975.      0.00 
   2  -3  -1 102747.99 1153.50  0. 1.0000  1976.      0.00 
   2  -3  -1 103752.99 1066.80  0. 1.0000  1977.      0.00 
   2  -3   0 351053.00 1455.40  0. 1.0000  1978.      0.00 
   2  -3   0 353339.97 1731.50  0. 1.0000  1979.      0.00 
   2  -3   0 353654.03 1947.90  0. 1.0000  1980.      0.00 
  -2   3  -1 184575.00 1183.70  0. 1.0000  1981.      0.00 
   2  -3   1 181324.98 1372.20  0. 1.0000  1982.      0.00 
   2  -3   1 185260.00  991.80  0. 1.0000  1983.      0.00 
   2  -3   1 182456.00 1155.00  0. 1.0000  1984.      0.00 
   2  -3   2  68745.01  600.11  0. 1.0000  1985.      0.00 
  -2   3  -2  70364.20  630.30  0. 1.0000  1986.      0.00 
   2  -3   2  68629.80  712.83  0. 1.0000  1987.      0.00 
   2  -3   3  27299.80  440.19  0. 1.0000  1988.      0.00 
   2  -3   3  26323.10  567.23  0. 1.0000  1989.      0.00 
   2  -3   3  26598.90  516.69  0. 1.0000  1990.      0.00 
   2  -3   3  26241.90  558.97  0. 1.0000  1991.      0.00 
   2  -3   4  29598.20  649.91  0. 1.0000  1992.      0.00 
   2  -3   4  28256.90  616.95  0. 1.0000  1993.      0.00 
   2  -3   4  30345.20  645.12  0. 1.0000  1994.      0.00 
   2  -3   4  29194.80  666.33  0. 1.0000  1995.      0.00 
   2  -3   5 223313.02 2009.40  0. 1.0000  1996.      0.00 
   2  -3   5 235290.02 2139.40  0. 1.0000  1997.      0.00 
   2  -3   5 225954.98 2019.20  0. 1.0000  1998.      0.00 
   2  -3   5 233589.00 1948.10  0. 1.0000  1999.      0.00 
   2  -3   6   5356.05  358.32  0. 1.0000  2000.      0.00 
   2  -3   7 117738.99 1716.20  0. 1.0000  2001.      0.00 
   2  -3   7 118048.99 1737.10  0. 1.0000  2002.      0.00 
   2  -3   7 114303.01 1858.50  0. 1.0000  2003.      0.00 
   2  -3   7 122116.99 1798.00  0. 1.0000  2004.      0.00 
   2  -3   7 119641.99 1855.40  0. 1.0000  2005.      0.00 
   2  -3   8    529.58  132.76  0. 1.0000  2006.      0.00 
   2  -3   8    155.91  105.45  0. 1.0000  2007.      0.00 
   2  -3   8    297.29  127.32  0. 1.0000  2008.      0.00 
   2  -3   8     99.38   81.75  0. 1.0000  2009.      0.00 
   2  -3   8    167.71  106.20  0. 1.0000  2010.      0.00 
   2  -3   9   2378.08  219.83  0. 1.0000  2011.      0.00 
   2  -3   9   2180.97  222.17  0. 1.0000  2012.      0.00 
   2  -3   9   2415.03  227.33  0. 1.0000  2013.      0.00 
   2  -3   9   2311.36  249.81  0. 1.0000  2014.      0.00 
   2  -3   9   2559.63  260.57  0. 1.0000  2015.      0.00 
   2  -3  10   4248.01  247.34  0. 1.0000  2016.      0.00 
   2  -3  10   4148.37  249.56  0. 1.0000  2017.      0.00 
  -2   2   9  56992.70  812.21  0. 1.0000  2018.      0.00 
  -2   2   9  56570.80  717.32  0. 1.0000  2019.      0.00 
  -2   2   9  57128.39  823.43  0. 1.0000  2020.      0.00 
  -2   2   8   2839.12  254.89  0. 1.0000  2021.      0.00 
  -2   2   8   2939.69  274.58  0. 1.0000  2022.      0.00 
  -2   2   8   2624.03  231.57  0. 1.0000  2023.      0.00 
  -2   2   8   2813.37  271.71  0. 1.0000  2024.      0.00 
  -2   2   7  28838.60  921.44  0. 1.0000  2025.      0.00 
  -2   2   7  27087.60  924.90  0. 1.0000  2026.      0.00 
  -2   2   7  27285.60  939.68  0. 1.0000  2027.      0.00 
  -2   2   6  13611.30  664.97  0. 1.0000  2028.      0.00 
  -2   2   6  14130.00  657.54  0. 1.0000  2029.      0.00 
  -2   2   6  14295.90  670.62  0. 1.0000  2030.      0.00 
  -2   2   6  14181.40  694.02  0. 1.0000  2031.      0.00 
  -2   2   5  72084.70 1388.41  0. 1.0000  2032.      0.00 
   2  -2  -5  65340.10 1350.05  0. 1.0000  2033.      0.00 
   2  -2  -4 172989.98 1823.10  0. 1.0000  2034.      0.00 
   2  -2  -4 172194.00 1942.70  0. 1.0000  2035.      0.00 
   2  -2  -3  22687.00  581.41  0. 1.0000  2036.      0.00 
  -2   2   3  22777.30  565.79  0. 1.0000  2037.      0.00 
   2  -2  -3  21727.00  603.41  0. 1.0000  2038.      0.00 
   2  -2  -2 203654.98 1574.30  0. 1.0000  2039.      0.00 
   2  -2  -2 204728.00 1530.80  0. 1.0000  2040.      0.00 
   2  -2  -2 206288.00 1279.90  0. 1.0000  2041.      0.00 
   2  -2  -1   1419.34   81.01  0. 1.0000  2042.      0.00 
   2  -2  -1   1378.00  116.59  0. 1.0000  2043.      0.00 
   2  -2  -1   1693.83   65.50  0. 1.0000  2044.      0.00 
   2  -2  -1   1390.28  112.47  0. 1.0000  2045.      0.00 
   2  -2   0 361158.00 1646.00  0. 1.0000  2046.      0.00 
   2  -2   0 359627.00 1480.30  0. 1.0000  2047.      0.00 
   2  -2   0 359169.03 1169.20  0. 1.0000  2048.      0.00 
   2  -2   1  73540.79  535.63  0. 1.0000  2049.      0.00 
   2  -2   1  74558.40  672.78  0. 1.0000  2050.      0.00 
   2  -2   2  56256.90  695.01  0. 1.0000  2051.      0.00 
   2  -2   2  59500.20  516.16  0. 1.0000  2052.      0.00 
   2  -2   2  58585.90  693.07  0. 1.0000  2053.      0.00 
   2  -2   2  54201.50  602.22  0. 1.0000  2054.      0.00 
   2  -2   2  57473.89  621.75  0. 1.0000  2055.      0.00 
   2  -2   2  57196.60  751.35  0. 1.0000  2056.      0.00 
   2  -2   3 203955.00 1097.00  0. 1.0000  2057.      0.00 
   2  -2   3 201373.98 1404.10  0. 1.0000  2058.      0.00 
   2  -2   3 202941.02 1560.50  0. 1.0000  2059.      0.00 
   2  -2   3 206415.98 1524.50  0. 1.0000  2060.      0.00 
   2  -2   3 202225.00 1532.50  0. 1.0000  2061.      0.00 
   2  -2   3 198797.00 1420.30  0. 1.0000  2062.      0.00 
   2  -2   4  81794.09 1126.76  0. 1.0000  2063.      0.00 
   2  -2   4  81424.40 1071.91  0. 1.0000  2064.      0.00 
   2  -2   4  81256.10 1084.35  0. 1.0000  2065.      0.00 
   2  -2   4  80493.80 1019.34  0. 1.0000  2066.      0.00 
   2  -2   5  74568.20 1241.28  0. 1.0000  2067.      0.00 
   2  -2   5  72008.89 1188.97  0. 1.0000  2068.      0.00 
   2  -2   6  61126.80 1264.49  0. 1.0000  2069.      0.00 
   2  -2   6  59388.00 1232.15  0. 1.0000  2070.      0.00 
   2  -2   7  59652.30 1230.75  0. 1.0000  2071.      0.00 
   2  -2   7  59185.50 1276.52  0. 1.0000  2072.      0.00 
   2  -2   7  59503.80 1239.32  0. 1.0000  2073.      0.00 
   2  -2   7  60151.89 1344.05  0. 1.0000  2074.      0.00 
   2  -2   7  61245.30 1290.49  0. 1.0000  2075.      0.00 
   2  -2   7  58582.40 1357.06  0. 1.0000  2076.      0.00 
   2  -2   8   6146.01  390.99  0. 1.0000  2077.      0.00 
   2  -2   8   6476.09  433.14  0. 1.0000  2078.      0.00 
   2  -2   8   6219.13  394.84  0. 1.0000  2079.      0.00 
   2  -2   8   6459.42  410.28  0. 1.0000  2080.      0.00 
   2  -2   8   7545.58  480.47  0. 1.0000  2081.      0.00 
   2  -2   9  95678.51 1314.47  0. 1.0000  2082.      0.00 
   2  -2   9  95012.10 1428.03  0. 1.0000  2083.      0.00 
   2  -2   9  98465.11 1399.91  0. 1.0000  2084.      0.00 
   2  -2  10   5167.11  230.61  0. 1.0000  2085.      0.00 
  -2   1   9  41939.50  899.04  0. 1.0000  2086.      0.00 
  -2   1   9  40183.70  867.62  0. 1.0000  2087.      0.00 
  -2   1   9  42544.80  919.56  0. 1.0000  2088.      0.00 
  -2   1   8   4111.03  359.60  0. 1.0000  2089.      0.00 
  -2   1   8   3714.75  340.87  0. 1.0000  2090.      0.00 
  -2   1   8   3881.67  303.30  0. 1.0000  2091.      0.00 
  -2   1   8   3945.27  268.61  0. 1.0000  2092.      0.00 
  -2   1   8   3583.26  336.83  0. 1.0000  2093.      0.00 
  -2   1   7  62073.20 1439.64  0. 1.0000  2094.      0.00 
  -2   1   7  61371.10 1328.00  0. 1.0000  2095.      0.00 
  -2   1   7  62066.70 1433.08  0. 1.0000  2096.      0.00 
  -2   1   7  63720.00 1450.49  0. 1.0000  2097.      0.00 
  -2   1   6   7425.75  461.53  0. 1.0000  2098.      0.00 
   2  -1  -6   6867.10  435.15  0. 1.0000  2099.      0.00 
   2  -1  -6   6865.05  441.55  0. 1.0000  2100.      0.00 
  -2   1   5 101544.00 1462.90  0. 1.0000  2101.      0.00 
   2  -1  -5  96566.30 1449.97  0. 1.0000  2102.      0.00 
  -2   1   4  28533.80  653.03  0. 1.0000  2103.      0.00 
   2  -1  -4  28489.60  623.95  0. 1.0000  2104.      0.00 
   2  -1  -4  28384.80  684.42  0. 1.0000  2105.      0.00 
  -2   1   3 181121.98 1318.10  0. 1.0000  2106.      0.00 
   2  -1  -3 182109.00 1364.80  0. 1.0000  2107.      0.00 
   2  -1  -2 299257.00 1434.40  0. 1.0000  2108.      0.00 
  -2   1   2 296611.00 1280.30  0. 1.0000  2109.      0.00 
   2  -1  -2 300975.00 1133.00  0. 1.0000  2110.      0.00 
   2  -1  -2 300980.00 1518.70  0. 1.0000  2111.      0.00 
   2  -1  -2 299323.00 1646.90  0. 1.0000  2112.      0.00 
  -2   1   1  79312.30  390.69  0. 1.0000  2113.      0.00 
   2  -1  -1  78183.60  726.67  0. 1.0000  2114.      0.00 
   2  -1   0  49799.80  554.04  0. 1.0000  2115.      0.00 
   2  -1   0  48811.89  496.44  0. 1.0000  2116.      0.00 
   2  -1   2 929633.06 2691.40  0. 1.0000  2117.      0.00 
   2  -1   2 934272.00 2729.50  0. 1.0000  2118.      0.00 
   2  -1   2 945720.06 3060.00  0. 1.0000  2119.      0.00 
   2  -1   2 942000.00 2881.60  0. 1.0000  2120.      0.00 
   2  -1   2 940460.06 2958.20  0. 1.0000  2121.      0.00 
   2  -1   3    450.77   75.81  0. 1.0000  2122.      0.00 
   2  -1   3    485.25   87.84  0. 1.0000  2123.      0.00 
   2  -1   3    249.42   63.62  0. 1.0000  2124.      0.00 
   2  -1   4 108175.01 1349.90  0. 1.0000  2125.      0.00 
   2  -1   4 109192.01 1202.70  0. 1.0000  2126.      0.00 
   2  -1   4 110845.00 1385.90  0. 1.0000  2127.      0.00 
   2  -1   4 112810.01 1354.80  0. 1.0000  2128.      0.00 
   2  -1   5  36205.80  917.31  0. 1.0000  2129.      0.00 
  -2   1  -5  34111.30  867.69  0. 1.0000  2130.      0.00 
   2  -1   5  35448.00  860.16  0. 1.0000  2131.      0.00 
   2  -1   5  36199.11  904.03  0. 1.0000  2132.      0.00 
   2  -1   6  12099.40  538.41  0. 1.0000  2133.      0.00 
   2  -1   6  12055.10  550.30  0. 1.0000  2134.      0.00 
   2  -1   6  12405.80  590.66  0. 1.0000  2135.      0.00 
   2  -1   6  11746.70  567.74  0. 1.0000  2136.      0.00 
   2  -1   6  12758.20  579.28  0. 1.0000  2137.      0.00 
   2  -1   6  11660.50  596.38  0. 1.0000  2138.      0.00 
   2  -1   7  69914.60 1431.91  0. 1.0000  2139.      0.00 
   2  -1   7  76193.99 1454.55  0. 1.0000  2140.      0.00 
   2  -1   7  73867.50 1389.21  0. 1.0000  2141.      0.00 
   2  -1   7  73810.10 1365.43  0. 1.0000  2142.      0.00 
   2  -1   7  72746.80 1518.42  0. 1.0000  2143.      0.00 
   2  -1   8  22066.90  733.31  0. 1.0000  2144.      0.00 
   2  -1   8  24217.30  753.42  0. 1.0000  2145.      0.00 
   2  -1   8  23306.80  788.98  0. 1.0000  2146.      0.00 
   2  -1   8  24221.10  730.35  0. 1.0000  2147.      0.00 
   2  -1   9   9821.46  379.79  0. 1.0000  2148.      0.00 
   2  -1   9  10473.60  383.93  0. 1.0000  2149.      0.00 
   2  -1   9  10429.40  411.32  0. 1.0000  2150.      0.00 
  -2   0  10  22549.90  503.66  0. 1.0000  2151.      0.00 
  -2   0  10  24426.40  596.91  0. 1.0000  2152.      0.00 
  -2   0  10  23416.30  580.81  0. 1.0000  2153.      0.00 
  -2   0   9   8238.45  481.68  0. 1.0000  2154.      0.00 
  -2   0   9   8051.37  440.01  0. 1.0000  2155.      0.00 
  -2   0   9   8215.39  362.71  0. 1.0000  2156.      0.00 
  -2   0   9   8266.91  462.40  0. 1.0000  2157.      0.00 
  -2   0   8  10574.10  605.28  0. 1.0000  2158.      0.00 
  -2   0   8  10526.10  570.74  0. 1.0000  2159.      0.00 
  -2   0   8  10651.30  564.96  0. 1.0000  2160.      0.00 
  -2   0   8  10674.40  478.32  0. 1.0000  2161.      0.00 
  -2   0   8  10764.50  595.64  0. 1.0000  2162.      0.00 
  -2   0   7 111210.99 1907.00  0. 1.0000  2163.      0.00 
  -2   0   7 111361.99 1830.50  0. 1.0000  2164.      0.00 
  -2   0   7 107285.00 1766.50  0. 1.0000  2165.      0.00 
  -2   0   7 113042.00 1858.70  0. 1.0000  2166.      0.00 
   2   0  -6  32658.30  908.03  0. 1.0000  2167.      0.00 
  -2   0   6  34822.00  896.98  0. 1.0000  2168.      0.00 
   2   0  -6  33640.10  845.01  0. 1.0000  2169.      0.00 
   2   0  -5 113956.99 1455.10  0. 1.0000  2170.      0.00 
   2   0  -5 115954.01 1393.70  0. 1.0000  2171.      0.00 
   2   0  -4  78565.30 1030.01  0. 1.0000  2172.      0.00 
   2   0  -4  80018.01 1016.58  0. 1.0000  2173.      0.00 
   2   0  -3 159903.00 1255.20  0. 1.0000  2174.      0.00 
   2   0  -3 158220.00 1236.40  0. 1.0000  2175.      0.00 
   2   0  -3 159532.00  987.30  0. 1.0000  2176.      0.00 
  -2   0   3 158997.02 1048.10  0. 1.0000  2177.      0.00 
   2   0  -2 175987.02 1094.40  0. 1.0000  2178.      0.00 
  -2   0   2 176009.00  771.00  0. 1.0000  2179.      0.00 
   2   0  -2 174438.00 1155.00  0. 1.0000  2180.      0.00 
   2   0  -1 406172.97 1380.60  0. 1.0000  2181.      0.00 
   2   0   1  68199.40  748.35  0. 1.0000  2182.      0.00 
   2   0   1  68902.41  751.52  0. 1.0000  2183.      0.00 
   2   0   1  67365.30  744.73  0. 1.0000  2184.      0.00 
   2   0   1  66786.59  642.45  0. 1.0000  2185.      0.00 
   2   0   2 203652.02 1492.60  0. 1.0000  2186.      0.00 
   2   0   2 204475.00 1506.10  0. 1.0000  2187.      0.00 
   2   0   2 201480.00 1428.70  0. 1.0000  2188.      0.00 
   2   0   3  47563.70  808.75  0. 1.0000  2189.      0.00 
   2   0   3  49047.70  845.61  0. 1.0000  2190.      0.00 
   2   0   3  46766.80  827.65  0. 1.0000  2191.      0.00 
   2   0   3  49430.90  851.89  0. 1.0000  2192.      0.00 
   2   0   4 176120.00 1856.80  0. 1.0000  2193.      0.00 
   2   0   4 173755.98 1830.60  0. 1.0000  2194.      0.00 
   2   0   4 166736.98 1846.70  0. 1.0000  2195.      0.00 
   2   0   4 167220.00 1734.60  0. 1.0000  2196.      0.00 
  -2   0  -4 166210.00 1840.90  0. 1.0000  2197.      0.00 
   2   0   5    256.17   96.99  0. 1.0000  2198.      0.00 
   2   0   5    348.22  104.94  0. 1.0000  2199.      0.00 
   2   0   5    179.21   94.29  0. 1.0000  2200.      0.00 
  -2   0  -5    593.02  142.58  0. 1.0000  2201.      0.00 
   2   0   5    551.05  126.03  0. 1.0000  2202.      0.00 
   2   0   6  44041.20 1154.23  0. 1.0000  2203.      0.00 
   2   0   6  45081.60 1076.26  0. 1.0000  2204.      0.00 
   2   0   6  45009.80 1088.92  0. 1.0000  2205.      0.00 
   2   0   6  45846.30 1113.73  0. 1.0000  2206.      0.00 
   2   0   6  44701.00 1045.45  0. 1.0000  2207.      0.00 
   2   0   6  45708.40 1191.68  0. 1.0000  2208.      0.00 
   2   0   6  45029.80 1067.65  0. 1.0000  2209.      0.00 
   2   0   7    198.95  109.78  0. 1.0000  2210.      0.00 
   2   0   7    160.16   94.82  0. 1.0000  2211.      0.00 
   2   0   7    421.88  129.05  0. 1.0000  2212.      0.00 
   2   0   7    416.98  138.32  0. 1.0000  2213.      0.00 
   2   0   7    270.60  104.72  0. 1.0000  2214.      0.00 
   2   0   8  19129.80  623.59  0. 1.0000  2215.      0.00 
   2   0   8  19023.90  536.56  0. 1.0000  2216.      0.00 
   2   0   8  20045.90  576.91  0. 1.0000  2217.      0.00 
   2   0   8  19838.00  635.31  0. 1.0000  2218.      0.00 
   2   0   8  18644.40  529.56  0. 1.0000  2219.      0.00 
   2   0   9   8242.84  273.31  0. 1.0000  2220.      0.00 
  -2  -1  10  32951.10  804.88  0. 1.0000  2221.      0.00 
  -2  -1  10  31489.90  673.81  0. 1.0000  2222.      0.00 
  -2  -1  10  32167.20  826.43  0. 1.0000  2223.      0.00 
  -2  -1  10  33395.60  645.76  0. 1.0000  2224.      0.00 
  -2  -1   9   2250.21  221.82  0. 1.0000  2225.      0.00 
  -2  -1   9   2131.43  259.81  0. 1.0000  2226.      0.00 
  -2  -1   9   2902.37  274.16  0. 1.0000  2227.      0.00 
  -2  -1   8 179633.00 2467.80  0. 1.0000  2228.      0.00 
  -2  -1   8 174427.00 2312.40  0. 1.0000  2229.      0.00 
  -2  -1   8 171728.02 2203.80  0. 1.0000  2230.      0.00 
  -2  -1   8 170199.00 2355.80  0. 1.0000  2231.      0.00 
  -2  -1   8 172367.00 1990.20  0. 1.0000  2232.      0.00 
  -2  -1   7  33881.30 1004.49  0. 1.0000  2233.      0.00 
  -2  -1   7  32914.80  946.81  0. 1.0000  2234.      0.00 
  -2  -1   7  32131.20  825.50  0. 1.0000  2235.      0.00 
   2   1  -6 118646.00 1628.20  0. 1.0000  2236.      0.00 
   2   1  -6 121324.00 1416.10  0. 1.0000  2237.      0.00 
   2   1  -5 129018.99 1467.60  0. 1.0000  2238.      0.00 
   2   1  -5 127316.01 1303.60  0. 1.0000  2239.      0.00 
   2   1  -4   1859.03  156.30  0. 1.0000  2240.      0.00 
   2   1  -4   1484.41  128.58  0. 1.0000  2241.      0.00 
   2   1  -3 469238.97 2026.60  0. 1.0000  2242.      0.00 
  -2  -1   3 465522.03 1390.70  0. 1.0000  2243.      0.00 
   2   1  -2 172559.00 1130.50  0. 1.0000  2244.      0.00 
   2   1  -1 296066.97 1251.90  0. 1.0000  2245.      0.00 
   2   1   0   2404.21  142.34  0. 1.0000  2246.      0.00 
   2   1   0   2226.20  109.69  0. 1.0000  2247.      0.00 
   2   1   1  91704.70  690.81  0. 1.0000  2248.      0.00 
   2   1   1  91997.90  934.48  0. 1.0000  2249.      0.00 
   2   1   1  91855.20  976.79  0. 1.0000  2250.      0.00 
   2   1   2  49690.80  819.25  0. 1.0000  2251.      0.00 
   2   1   2  47349.20  779.19  0. 1.0000  2252.      0.00 
   2   1   2  48329.50  809.58  0. 1.0000  2253.      0.00 
   2   1   3 135315.00 1508.20  0. 1.0000  2254.      0.00 
  -2  -1  -3 132534.00 1619.80  0. 1.0000  2255.      0.00 
   2   1   3 136301.02 1534.40  0. 1.0000  2256.      0.00 
   2   1   3 136284.00 1550.20  0. 1.0000  2257.      0.00 
   2   1   4  76346.20 1307.54  0. 1.0000  2258.      0.00 
   2   1   4  75951.59 1293.51  0. 1.0000  2259.      0.00 
   2   1   4  73678.70 1351.73  0. 1.0000  2260.      0.00 
  -2  -1  -4  72028.70 1350.14  0. 1.0000  2261.      0.00 
   2   1   4  75181.30 1305.55  0. 1.0000  2262.      0.00 
   2   1   5  29343.60  918.15  0. 1.0000  2263.      0.00 
   2   1   5  28217.40  795.07  0. 1.0000  2264.      0.00 
   2   1   5  27934.00  854.32  0. 1.0000  2265.      0.00 
   2   1   5  26877.30  791.07  0. 1.0000  2266.      0.00 
   2   1   6  62352.10 1365.52  0. 1.0000  2267.      0.00 
   2   1   6  60271.20 1149.49  0. 1.0000  2268.      0.00 
   2   1   6  63993.90 1308.87  0. 1.0000  2269.      0.00 
   2   1   6  62314.80 1217.71  0. 1.0000  2270.      0.00 
   2   1   6  63112.80 1348.16  0. 1.0000  2271.      0.00 
   2   1   6  59339.11 1235.05  0. 1.0000  2272.      0.00 
   2   1   7    740.57  156.27  0. 1.0000  2273.      0.00 
   2   1   7    684.80  139.54  0. 1.0000  2274.      0.00 
   2   1   7    826.84  131.92  0. 1.0000  2275.      0.00 
   2   1   7   1196.38  179.68  0. 1.0000  2276.      0.00 
   2   1   7    737.19  137.74  0. 1.0000  2277.      0.00 
   2   1   8   7396.62  319.93  0. 1.0000  2278.      0.00 
   2   1   8   7501.81  276.64  0. 1.0000  2279.      0.00 
   2   1   8   7712.35  308.54  0. 1.0000  2280.      0.00 
  -2  -2  11   8137.52  321.26  0. 1.0000  2281.      0.00 
  -2  -2  10  77018.11 1393.92  0. 1.0000  2282.      0.00 
  -2  -2  10  76353.71 1315.26  0. 1.0000  2283.      0.00 
  -2  -2  10  75873.40 1116.05  0. 1.0000  2284.      0.00 
  -2  -2   9   1266.33  221.78  0. 1.0000  2285.      0.00 
  -2  -2   9   1368.85  187.87  0. 1.0000  2286.      0.00 
  -2  -2   9   1416.25  216.52  0. 1.0000  2287.      0.00 
  -2  -2   9   1558.43  197.64  0. 1.0000  2288.      0.00 
  -2  -2   8  34903.40 1056.72  0. 1.0000  2289.      0.00 
  -2  -2   8  34747.30  850.75  0. 1.0000  2290.      0.00 
  -2  -2   8  34332.60 1061.15  0. 1.0000  2291.      0.00 
  -2  -2   8  35032.40  918.50  0. 1.0000  2292.      0.00 
  -2  -2   8  35636.10  909.59  0. 1.0000  2293.      0.00 
  -2  -2   8  34154.11  986.24  0. 1.0000  2294.      0.00 
   2   2  -7    741.52  147.08  0. 1.0000  2295.      0.00 
   2   2  -6  97138.90 1385.74  0. 1.0000  2296.      0.00 
   2   2  -5 261068.02 2007.80  0. 1.0000  2297.      0.00 
   2   2  -5 260621.00 1708.90  0. 1.0000  2298.      0.00 
   2   2  -4 281113.03 1663.60  0. 1.0000  2299.      0.00 
  -2  -2   4 284811.00 1478.00  0. 1.0000  2300.      0.00 
   2   2  -3 106019.00  955.90  0. 1.0000  2301.      0.00 
   2   2  -2  20870.60  411.06  0. 1.0000  2302.      0.00 
   2   2  -2  20434.40  385.05  0. 1.0000  2303.      0.00 
   2   2  -1  76059.79  713.04  0. 1.0000  2304.      0.00 
   2   2  -1  75306.39  784.50  0. 1.0000  2305.      0.00 
   2   2  -1  75805.71  762.38  0. 1.0000  2306.      0.00 
   2   2   0   4258.80  226.25  0. 1.0000  2307.      0.00 
   2   2   0   3930.43  201.28  0. 1.0000  2308.      0.00 
   2   2   0   4223.76  190.62  0. 1.0000  2309.      0.00 
   2   2   0   4382.37  193.49  0. 1.0000  2310.      0.00 
   2   2   1 389753.97 2309.50  0. 1.0000  2311.      0.00 
   2   2   1 384363.97 2076.40  0. 1.0000  2312.      0.00 
   2   2   1 381821.03 1809.00  0. 1.0000  2313.      0.00 
  -2  -2  -1 388063.00 2430.40  0. 1.0000  2314.      0.00 
   2   2   2  60248.90 1037.84  0. 1.0000  2315.      0.00 
   2   2   2  61465.40  958.77  0. 1.0000  2316.      0.00 
   2   2   2  64169.39 1039.06  0. 1.0000  2317.      0.00 
  -2  -2  -2  61140.80 1103.05  0. 1.0000  2318.      0.00 
   2   2   2  62511.70 1008.96  0. 1.0000  2319.      0.00 
   2   2   3  26954.50  725.38  0. 1.0000  2320.      0.00 
   2   2   3  25785.10  745.13  0. 1.0000  2321.      0.00 
  -2  -2  -3  24930.30  785.79  0. 1.0000  2322.      0.00 
   2   2   3  24711.60  718.12  0. 1.0000  2323.      0.00 
   2   2   3  24105.10  753.26  0. 1.0000  2324.      0.00 
   2   2   4  19453.50  719.56  0. 1.0000  2325.      0.00 
   2   2   4  18076.90  623.70  0. 1.0000  2326.      0.00 
   2   2   4  20084.80  699.92  0. 1.0000  2327.      0.00 
   2   2   5  97146.49 1704.60  0. 1.0000  2328.      0.00 
   2   2   5  92783.71 1469.13  0. 1.0000  2329.      0.00 
   2   2   5  95824.41 1610.86  0. 1.0000  2330.      0.00 
   2   2   6  10374.00  450.67  0. 1.0000  2331.      0.00 
   2   2   6  10389.20  521.96  0. 1.0000  2332.      0.00 
   2   2   6  10945.50  508.93  0. 1.0000  2333.      0.00 
   2   2   6  10398.20  489.42  0. 1.0000  2334.      0.00 
   2   2   6   9805.56  474.25  0. 1.0000  2335.      0.00 
   2   2   7  31199.50  718.36  0. 1.0000  2336.      0.00 
   2   2   7  31230.70  676.08  0. 1.0000  2337.      0.00 
   2   2   7  30578.40  646.69  0. 1.0000  2338.      0.00 
   2   2   7  29696.10  627.60  0. 1.0000  2339.      0.00 
  -2  -3  11  25351.60  532.59  0. 1.0000  2340.      0.00 
  -2  -3  11  26049.50  632.26  0. 1.0000  2341.      0.00 
  -2  -3  10  11243.40  547.27  0. 1.0000  2342.      0.00 
  -2  -3  10  10905.30  460.52  0. 1.0000  2343.      0.00 
  -2  -3  10  10733.20  508.52  0. 1.0000  2344.      0.00 
  -2  -3   9  27019.20  906.60  0. 1.0000  2345.      0.00 
  -2  -3   9  25724.30  853.44  0. 1.0000  2346.      0.00 
  -2  -3   9  26456.30  761.92  0. 1.0000  2347.      0.00 
  -2  -3   9  27092.50  790.17  0. 1.0000  2348.      0.00 
  -2  -3   8 102763.99 1726.20  0. 1.0000  2349.      0.00 
  -2  -3   8 103882.00 1526.10  0. 1.0000  2350.      0.00 
  -2  -3   8 104573.99 1538.20  0. 1.0000  2351.      0.00 
  -2  -3   8 102981.00 1538.00  0. 1.0000  2352.      0.00 
  -2  -3   8 103174.99 1669.10  0. 1.0000  2353.      0.00 
   2   3  -7  16255.80  582.32  0. 1.0000  2354.      0.00 
   2   3  -6 291982.97 2246.20  0. 1.0000  2355.      0.00 
   2   3  -5  60408.60  810.81  0. 1.0000  2356.      0.00 
   2   3  -5  58878.61  927.85  0. 1.0000  2357.      0.00 
  -2  -3   5  59884.80  827.96  0. 1.0000  2358.      0.00 
  -2  -3   4 220767.00 1563.80  0. 1.0000  2359.      0.00 
   2   3  -4 225488.98 1687.60  0. 1.0000  2360.      0.00 
   2   3  -3  16156.50  406.90  0. 1.0000  2361.      0.00 
   2   3  -3  16385.80  436.40  0. 1.0000  2362.      0.00 
   2   3  -3  16266.20  348.62  0. 1.0000  2363.      0.00 
   2   3  -2  75133.99  669.12  0. 1.0000  2364.      0.00 
   2   3  -2  75190.50  792.37  0. 1.0000  2365.      0.00 
   2   3  -1 100146.00 1109.90  0. 1.0000  2366.      0.00 
  -2  -3   1 102462.00 1093.40  0. 1.0000  2367.      0.00 
   2   3  -1  99555.91 1057.23  0. 1.0000  2368.      0.00 
   2   3  -1 100428.99 1005.00  0. 1.0000  2369.      0.00 
   2   3   0 160877.00 1366.70  0. 1.0000  2370.      0.00 
   2   3   0 176951.98 1327.70  0. 1.0000  2371.      0.00 
   2   3   0 172686.00 1580.50  0. 1.0000  2372.      0.00 
  -2  -3   0 172193.02 1645.30  0. 1.0000  2373.      0.00 
   2   3   0 165524.00 1440.60  0. 1.0000  2374.      0.00 
   2   3   1  20289.70  522.32  0. 1.0000  2375.      0.00 
   2   3   1  19349.00  565.50  0. 1.0000  2376.      0.00 
  -2  -3  -1  20109.90  637.08  0. 1.0000  2377.      0.00 
   2   3   1  19223.50  549.02  0. 1.0000  2378.      0.00 
   2   3   2  88573.99 1348.52  0. 1.0000  2379.      0.00 
   2   3   2  87369.80 1313.42  0. 1.0000  2380.      0.00 
   2   3   2  85607.41 1403.93  0. 1.0000  2381.      0.00 
  -2  -3  -2  87792.40 1484.54  0. 1.0000  2382.      0.00 
   2   3   3 113906.00 1654.70  0. 1.0000  2383.      0.00 
   2   3   4    400.39  120.57  0. 1.0000  2384.      0.00 
   2   3   4    329.97  112.00  0. 1.0000  2385.      0.00 
   2   3   5  24575.40  797.78  0. 1.0000  2386.      0.00 
   2   3   5  25364.30  785.13  0. 1.0000  2387.      0.00 
   2   3   5  23602.70  710.23  0. 1.0000  2388.      0.00 
   2   3   6  30823.60  745.42  0. 1.0000  2389.      0.00 
   2   3   6  29460.90  639.70  0. 1.0000  2390.      0.00 
   2   3   6  30268.80  636.84  0. 1.0000  2391.      0.00 
   2   3   6  29325.50  684.83  0. 1.0000  2392.      0.00 
   2   3   6  31370.20  725.64  0. 1.0000  2393.      0.00 
  -2  -4  11  39791.00  730.22  0. 1.0000  2394.      0.00 
  -2  -4  10   1066.82  155.81  0. 1.0000  2395.      0.00 
  -2  -4  10    951.69  173.03  0. 1.0000  2396.      0.00 
  -2  -4  10    882.83  156.27  0. 1.0000  2397.      0.00 
  -2  -4   9  64898.40 1223.38  0. 1.0000  2398.      0.00 
  -2  -4   9  65391.11 1244.77  0. 1.0000  2399.      0.00 
  -2  -4   9  63321.30 1311.70  0. 1.0000  2400.      0.00 
  -2  -4   8  83061.60 1420.87  0. 1.0000  2401.      0.00 
  -2  -4   8  84161.50 1420.50  0. 1.0000  2402.      0.00 
  -2  -4   8  80085.99 1353.50  0. 1.0000  2403.      0.00 
  -2  -4   8  81088.30 1456.49  0. 1.0000  2404.      0.00 
   2   4  -7   4115.53  303.05  0. 1.0000  2405.      0.00 
   2   4  -6  13791.90  512.63  0. 1.0000  2406.      0.00 
   2   4  -5   6229.63  326.86  0. 1.0000  2407.      0.00 
  -2  -4   5   5697.37  295.52  0. 1.0000  2408.      0.00 
   2   4  -4 235208.02 1907.10  0. 1.0000  2409.      0.00 
   2   4  -3   1802.34  168.61  0. 1.0000  2410.      0.00 
   2   4  -2 380804.03 2293.00  0. 1.0000  2411.      0.00 
   2   4  -2 384811.00 2398.10  0. 1.0000  2412.      0.00 
  -2  -4   1    838.49  122.90  0. 1.0000  2413.      0.00 
   2   4  -1    896.92  125.68  0. 1.0000  2414.      0.00 
   2   4  -1    751.13  113.03  0. 1.0000  2415.      0.00 
   2   4  -1    721.26   98.72  0. 1.0000  2416.      0.00 
  -2  -4   0 103791.00 1451.00  0. 1.0000  2417.      0.00 
   2   4   0 100422.01 1228.90  0. 1.0000  2418.      0.00 
   2   4   0 102805.01 1253.20  0. 1.0000  2419.      0.00 
  -2  -4  -1  56414.10 1187.28  0. 1.0000  2420.      0.00 
   2   4   1  55677.40 1060.79  0. 1.0000  2421.      0.00 
   2   4   1  56210.00 1033.12  0. 1.0000  2422.      0.00 
   2   4   2  69323.40 1280.46  0. 1.0000  2423.      0.00 
   2   4   3  55299.60 1103.54  0. 1.0000  2424.      0.00 
   2   4   3  56515.10 1180.13  0. 1.0000  2425.      0.00 
   2   4   4   9010.60  473.95  0. 1.0000  2426.      0.00 
   2   4   5  37852.40  820.44  0. 1.0000  2427.      0.00 
   2   4   5  37829.70  782.11  0. 1.0000  2428.      0.00 
   2   4   5  38066.20  809.93  0. 1.0000  2429.      0.00 
   2   4   5  37829.60  805.95  0. 1.0000  2430.      0.00 
   2   4   6   1510.58  119.25  0. 1.0000  2431.      0.00 
  -2  -5  11  36866.20  719.36  0. 1.0000  2432.      0.00 
  -2  -5  11  34463.00  673.54  0. 1.0000  2433.      0.00 
  -2  -5  10   4326.73  304.86  0. 1.0000  2434.      0.00 
  -2  -5  10   4286.19  301.09  0. 1.0000  2435.      0.00 
  -2  -5   9  43130.70 1028.57  0. 1.0000  2436.      0.00 
  -2  -5   9  42212.61  976.89  0. 1.0000  2437.      0.00 
  -2  -5   9  43170.90 1074.80  0. 1.0000  2438.      0.00 
  -2  -5   8  66060.41 1209.60  0. 1.0000  2439.      0.00 
  -2  -5   8  67612.51 1291.16  0. 1.0000  2440.      0.00 
  -2  -5   8  68890.60 1327.26  0. 1.0000  2441.      0.00 
  -2  -5   8  65039.30 1207.36  0. 1.0000  2442.      0.00 
  -2  -5   8  65565.09 1325.13  0. 1.0000  2443.      0.00 
  -2  -5   7 385463.03 2987.70  0. 1.0000  2444.      0.00 
  -2  -5   7 380871.00 2915.20  0. 1.0000  2445.      0.00 
  -2  -5   7 375288.00 2920.50  0. 1.0000  2446.      0.00 
  -2  -5   7 369880.97 2741.80  0. 1.0000  2447.      0.00 
   2   5  -6  34002.30  854.42  0. 1.0000  2448.      0.00 
  -2  -5   5  50036.30 1003.42  0. 1.0000  2449.      0.00 
   2   5  -5  54446.10 1041.27  0. 1.0000  2450.      0.00 
   2   5  -4  58935.40 1065.10  0. 1.0000  2451.      0.00 
   2   5  -3  58674.60  942.84  0. 1.0000  2452.      0.00 
   2   5  -3  57704.00 1048.99  0. 1.0000  2453.      0.00 
   2   5  -2 194226.00 1912.10  0. 1.0000  2454.      0.00 
   2   5  -2 186067.98 1748.40  0. 1.0000  2455.      0.00 
   2   5  -1   5042.58  301.91  0. 1.0000  2456.      0.00 
   2   5  -1   5264.17  315.15  0. 1.0000  2457.      0.00 
  -2  -5   0 133599.00 1861.10  0. 1.0000  2458.      0.00 
   2   5   0 125505.00 1593.20  0. 1.0000  2459.      0.00 
  -2  -5  -1   2473.38  258.23  0. 1.0000  2460.      0.00 
   2   5   1   2317.48  226.06  0. 1.0000  2461.      0.00 
   2   5   1   2335.70  241.09  0. 1.0000  2462.      0.00 
   2   5   2  55149.80 1146.66  0. 1.0000  2463.      0.00 
  -2  -5  -3  25393.30  768.25  0. 1.0000  2464.      0.00 
   2   5   3  24155.40  719.62  0. 1.0000  2465.      0.00 
   2   5   4  11002.10  423.97  0. 1.0000  2466.      0.00 
   2   5   4  11572.80  434.03  0. 1.0000  2467.      0.00 
   2   5   5   7530.55  245.72  0. 1.0000  2468.      0.00 
   2   5   5   8057.20  263.52  0. 1.0000  2469.      0.00 
  -2  -6  11  24245.40  580.59  0. 1.0000  2470.      0.00 
  -2  -6  11  24745.40  570.19  0. 1.0000  2471.      0.00 
  -2  -6  10   7778.25  406.30  0. 1.0000  2472.      0.00 
  -2  -6  10   7676.50  378.01  0. 1.0000  2473.      0.00 
  -2  -6   9 105301.99 1487.20  0. 1.0000  2474.      0.00 
  -2  -6   9 108194.00 1606.80  0. 1.0000  2475.      0.00 
  -2  -6   9 103865.99 1474.80  0. 1.0000  2476.      0.00 
  -2  -6   8   3817.68  306.74  0. 1.0000  2477.      0.00 
  -2  -6   8   4184.81  330.96  0. 1.0000  2478.      0.00 
  -2  -6   8   3708.37  310.44  0. 1.0000  2479.      0.00 
  -2  -6   8   4905.38  330.04  0. 1.0000  2480.      0.00 
  -2  -6   7  60857.70 1203.60  0. 1.0000  2481.      0.00 
  -2  -6   7  61536.20 1188.88  0. 1.0000  2482.      0.00 
  -2  -6   7  61003.10 1092.74  0. 1.0000  2483.      0.00 
  -2  -6   6   3318.63  282.33  0. 1.0000  2484.      0.00 
  -2  -6   6   3512.10  284.86  0. 1.0000  2485.      0.00 
  -2  -6   6   3499.28  276.61  0. 1.0000  2486.      0.00 
  -2  -6   5  97734.91 1583.77  0. 1.0000  2487.      0.00 
   2   6  -5 105295.99 1599.90  0. 1.0000  2488.      0.00 
   2   6  -4  35885.30  921.83  0. 1.0000  2489.      0.00 
   2   6  -3  75599.61 1311.97  0. 1.0000  2490.      0.00 
  -2  -6   2  42851.00 1070.70  0. 1.0000  2491.      0.00 
   2   6  -2  41078.10  949.28  0. 1.0000  2492.      0.00 
  -2  -6   2  43067.60  961.77  0. 1.0000  2493.      0.00 
   2   6  -2  42060.90  891.62  0. 1.0000  2494.      0.00 
   2   6  -1  25231.10  725.29  0. 1.0000  2495.      0.00 
  -2  -6   1  26059.70  853.16  0. 1.0000  2496.      0.00 
   2   6  -1  25585.50  753.73  0. 1.0000  2497.      0.00 
  -2  -6   0 107738.01 1694.80  0. 1.0000  2498.      0.00 
   2   6   0 104240.99 1511.10  0. 1.0000  2499.      0.00 
  -2  -6  -1   7216.90  415.94  0. 1.0000  2500.      0.00 
   2   6   1   7126.44  376.50  0. 1.0000  2501.      0.00 
   2   6   1   6851.38  393.43  0. 1.0000  2502.      0.00 
  -2  -6  -2  34078.30  888.77  0. 1.0000  2503.      0.00 
   2   6   2  33213.90  811.07  0. 1.0000  2504.      0.00 
   2   6   3  14513.40  443.86  0. 1.0000  2505.      0.00 
  -2  -6  -3  15023.70  472.92  0. 1.0000  2506.      0.00 
   2   6   3  14103.00  439.98  0. 1.0000  2507.      0.00 
  -2  -7  11     72.91   57.81  0. 1.0000  2508.      0.00 
  -2  -7  11     56.90   55.00  0. 1.0000  2509.      0.00 
  -2  -7  10  75660.50 1055.52  0. 1.0000  2510.      0.00 
  -2  -7  10  77874.11 1193.43  0. 1.0000  2511.      0.00 
  -2  -7  10  76523.91 1080.81  0. 1.0000  2512.      0.00 
  -2  -7   9  25599.30  730.53  0. 1.0000  2513.      0.00 
  -2  -7   9  24255.60  734.38  0. 1.0000  2514.      0.00 
  -2  -7   9  25790.20  750.37  0. 1.0000  2515.      0.00 
  -2  -7   9  25149.60  674.92  0. 1.0000  2516.      0.00 
  -2  -7   8   8942.81  456.87  0. 1.0000  2517.      0.00 
  -2  -7   8   8731.01  406.24  0. 1.0000  2518.      0.00 
  -2  -7   8   8015.13  456.22  0. 1.0000  2519.      0.00 
  -2  -7   7  71472.80 1266.40  0. 1.0000  2520.      0.00 
  -2  -7   7  72553.29 1341.09  0. 1.0000  2521.      0.00 
  -2  -7   7  70261.61 1237.72  0. 1.0000  2522.      0.00 
  -2  -7   6  78098.40 1371.17  0. 1.0000  2523.      0.00 
  -2  -7   6  78892.79 1388.68  0. 1.0000  2524.      0.00 
   2   7  -6  76033.80 1272.77  0. 1.0000  2525.      0.00 
  -2  -7   5 195886.02 2201.80  0. 1.0000  2526.      0.00 
  -2  -7   5 191204.00 2117.70  0. 1.0000  2527.      0.00 
   2   7  -5 192018.00 2050.70  0. 1.0000  2528.      0.00 
  -2  -7   5 190855.00 2247.30  0. 1.0000  2529.      0.00 
  -2  -7   4  16495.50  636.05  0. 1.0000  2530.      0.00 
  -2  -7   4  17326.50  608.96  0. 1.0000  2531.      0.00 
  -2  -7   4  16525.90  683.02  0. 1.0000  2532.      0.00 
   2   7  -4  16584.70  611.16  0. 1.0000  2533.      0.00 
  -2  -7   3  16756.20  636.27  0. 1.0000  2534.      0.00 
   2   7  -3  16048.50  613.99  0. 1.0000  2535.      0.00 
  -2  -7   3  16741.40  696.97  0. 1.0000  2536.      0.00 
  -2  -7   2   9614.84  470.90  0. 1.0000  2537.      0.00 
   2   7  -2   8618.09  450.93  0. 1.0000  2538.      0.00 
   2   7  -2   8490.10  414.27  0. 1.0000  2539.      0.00 
  -2  -7   2   9016.86  515.21  0. 1.0000  2540.      0.00 
  -2  -7   1  27962.00  887.02  0. 1.0000  2541.      0.00 
   2   7  -1  27726.40  781.96  0. 1.0000  2542.      0.00 
  -2  -7   1  28362.30  878.31  0. 1.0000  2543.      0.00 
   2   7  -1  26814.70  736.91  0. 1.0000  2544.      0.00 
  -2  -7   0  25560.80  819.69  0. 1.0000  2545.      0.00 
  -2  -7   0  26098.80  777.71  0. 1.0000  2546.      0.00 
   2   7   0  24843.90  690.57  0. 1.0000  2547.      0.00 
   2   7   0  23848.60  680.73  0. 1.0000  2548.      0.00 
   2   7   1  18265.70  509.85  0. 1.0000  2549.      0.00 
  -2  -7  -1  19196.80  639.21  0. 1.0000  2550.      0.00 
   2   7   1  17991.30  506.03  0. 1.0000  2551.      0.00 
   2   7   1  17977.70  548.78  0. 1.0000  2552.      0.00 
   2   7   2  37630.90  677.51  0. 1.0000  2553.      0.00 
  -2  -7  -2  36907.30  714.61  0. 1.0000  2554.      0.00 
   2   7   2  36898.50  588.47  0. 1.0000  2555.      0.00 
  -2  -8  11    299.53   65.61  0. 1.0000  2556.      0.00 
  -2  -8  10  30147.20  629.06  0. 1.0000  2557.      0.00 
  -2  -8  10  30942.80  660.63  0. 1.0000  2558.      0.00 
  -2  -8   9   6727.37  343.17  0. 1.0000  2559.      0.00 
  -2  -8   9   7233.79  368.71  0. 1.0000  2560.      0.00 
  -2  -8   9   6371.94  362.88  0. 1.0000  2561.      0.00 
  -2  -8   8  89578.71 1276.93  0. 1.0000  2562.      0.00 
  -2  -8   8  87154.51 1259.30  0. 1.0000  2563.      0.00 
  -2  -8   7  35713.70  886.92  0. 1.0000  2564.      0.00 
  -2  -8   7  35495.11  900.97  0. 1.0000  2565.      0.00 
  -2  -8   6  13926.40  577.45  0. 1.0000  2566.      0.00 
  -2  -8   6  14011.40  564.94  0. 1.0000  2567.      0.00 
  -2  -8   6  13732.20  577.03  0. 1.0000  2568.      0.00 
   2   8  -6  13635.00  525.89  0. 1.0000  2569.      0.00 
  -2  -8   5   8851.48  485.49  0. 1.0000  2570.      0.00 
  -2  -8   5   9294.52  480.42  0. 1.0000  2571.      0.00 
  -2  -8   5   9306.06  447.45  0. 1.0000  2572.      0.00 
   2   8  -5   9053.20  441.58  0. 1.0000  2573.      0.00 
  -2  -8   4   7875.67  436.11  0. 1.0000  2574.      0.00 
  -2  -8   4   6900.05  441.60  0. 1.0000  2575.      0.00 
   2   8  -4   7087.30  399.73  0. 1.0000  2576.      0.00 
  -2  -8   3 136148.00 1717.60  0. 1.0000  2577.      0.00 
  -2  -8   3 137188.00 1915.50  0. 1.0000  2578.      0.00 
   2   8  -3 133389.00 1683.90  0. 1.0000  2579.      0.00 
  -2  -8   3 132677.00 1780.10  0. 1.0000  2580.      0.00 
  -2  -8   2  34703.30  927.99  0. 1.0000  2581.      0.00 
  -2  -8   2  33447.80  896.91  0. 1.0000  2582.      0.00 
   2   8  -2  34152.80  829.71  0. 1.0000  2583.      0.00 
   2   8  -2  32782.30  721.88  0. 1.0000  2584.      0.00 
  -2  -8   2  34019.20  792.15  0. 1.0000  2585.      0.00 
   2   8  -1  51646.30  948.42  0. 1.0000  2586.      0.00 
  -2  -8   1  52543.30 1037.66  0. 1.0000  2587.      0.00 
  -2  -8   1  52737.80 1075.73  0. 1.0000  2588.      0.00 
   2   8  -1  50092.40  860.70  0. 1.0000  2589.      0.00 
  -2  -8   0  12450.40  418.13  0. 1.0000  2590.      0.00 
  -2  -8   0  12028.70  460.53  0. 1.0000  2591.      0.00 
   2   8   0  11707.40  383.92  0. 1.0000  2592.      0.00 
  -2  -8  -1  21687.30  488.32  0. 1.0000  2593.      0.00 
  -2  -9  10  15914.80  388.09  0. 1.0000  2594.      0.00 
  -2  -9   9  10370.60  384.63  0. 1.0000  2595.      0.00 
  -2  -9   9   9654.85  392.30  0. 1.0000  2596.      0.00 
  -2  -9   8  31740.90  728.21  0. 1.0000  2597.      0.00 
  -2  -9   8  29953.90  765.99  0. 1.0000  2598.      0.00 
  -2  -9   8  30112.70  666.44  0. 1.0000  2599.      0.00 
  -2  -9   7   1473.62  174.10  0. 1.0000  2600.      0.00 
  -2  -9   7   1463.62  172.44  0. 1.0000  2601.      0.00 
  -2  -9   6  38133.00  870.40  0. 1.0000  2602.      0.00 
  -2  -9   6  37097.90  798.19  0. 1.0000  2603.      0.00 
   2   9  -6  37609.50  781.32  0. 1.0000  2604.      0.00 
  -2  -9   5  19126.20  619.66  0. 1.0000  2605.      0.00 
  -2  -9   5  18649.30  529.03  0. 1.0000  2606.      0.00 
   2   9  -5  18167.60  557.87  0. 1.0000  2607.      0.00 
  -2  -9   5  17202.90  616.51  0. 1.0000  2608.      0.00 
   2   9  -4  78085.51 1152.26  0. 1.0000  2609.      0.00 
  -2  -9   4  78624.50 1303.00  0. 1.0000  2610.      0.00 
  -2  -9   4  77622.79 1189.36  0. 1.0000  2611.      0.00 
  -2  -9   3  13842.30  523.92  0. 1.0000  2612.      0.00 
  -2  -9   3  13207.60  468.38  0. 1.0000  2613.      0.00 
   2   9  -3  14036.40  472.14  0. 1.0000  2614.      0.00 
  -2  -9   3  13856.00  461.93  0. 1.0000  2615.      0.00 
  -2  -9   2  20045.60  562.45  0. 1.0000  2616.      0.00 
   2   9  -2  19158.50  508.57  0. 1.0000  2617.      0.00 
  -2  -9   2  19527.90  542.90  0. 1.0000  2618.      0.00 
   2   9  -1  20299.20  431.34  0. 1.0000  2619.      0.00 
  -2  -9   1  20905.60  492.73  0. 1.0000  2620.      0.00 
  -2 -10   9  11378.10  305.83  0. 1.0000  2621.      0.00 
  -2 -10   8  16422.50  407.41  0. 1.0000  2622.      0.00 
  -2 -10   8  15779.30  445.00  0. 1.0000  2623.      0.00 
  -2 -10   8  16112.10  389.51  0. 1.0000  2624.      0.00 
  -2 -10   7  11761.70  352.12  0. 1.0000  2625.      0.00 
  -2 -10   7  10901.90  395.95  0. 1.0000  2626.      0.00 
  -2 -10   7  11354.90  369.99  0. 1.0000  2627.      0.00 
   2  10  -6  58773.00  760.17  0. 1.0000  2628.      0.00 
  -2 -10   6  59657.60  874.06  0. 1.0000  2629.      0.00 
  -2 -10   5   8762.29  347.18  0. 1.0000  2630.      0.00 
   2  10  -5   8683.27  305.96  0. 1.0000  2631.      0.00 
  -2 -10   5   8872.49  329.99  0. 1.0000  2632.      0.00 
  -2 -10   4  49765.00  781.14  0. 1.0000  2633.      0.00 
   2  10  -4  49721.80  704.31  0. 1.0000  2634.      0.00 
  -2 -10   4  50163.20  695.81  0. 1.0000  2635.      0.00 
   2  10  -3   3251.09  161.40  0. 1.0000  2636.      0.00 
   3 -11   2   2965.01  172.13  0. 1.0000  2637.      0.00 
   3 -11   2   2787.64  172.92  0. 1.0000  2638.      0.00 
   3 -11   3  13844.30  433.35  0. 1.0000  2639.      0.00 
   3 -11   4  49084.50  805.29  0. 1.0000  2640.      0.00 
   3 -11   4  47779.90  839.73  0. 1.0000  2641.      0.00 
   3 -11   5    406.44   89.96  0. 1.0000  2642.      0.00 
   3 -11   5    389.73   93.10  0. 1.0000  2643.      0.00 
   3 -11   6  16881.40  480.07  0. 1.0000  2644.      0.00 
   3 -11   6  16022.00  434.52  0. 1.0000  2645.      0.00 
   3 -11   7    810.17  105.07  0. 1.0000  2646.      0.00 
   3 -11   7    841.73  105.06  0. 1.0000  2647.      0.00 
   3 -11   7    821.65   97.31  0. 1.0000  2648.      0.00 
   3 -11   8  24831.30  459.29  0. 1.0000  2649.      0.00 
   3 -10   0   2181.72  149.96  0. 1.0000  2650.      0.00 
   3 -10   0   1972.70  172.78  0. 1.0000  2651.      0.00 
  -3  10   0   2168.66  162.35  0. 1.0000  2652.      0.00 
  -3  10  -1  53556.30  875.80  0. 1.0000  2653.      0.00 
   3 -10   1  54516.40  981.58  0. 1.0000  2654.      0.00 
   3 -10   1  54543.50  935.86  0. 1.0000  2655.      0.00 
   3 -10   2  29247.00  687.32  0. 1.0000  2656.      0.00 
   3 -10   2  29550.40  760.85  0. 1.0000  2657.      0.00 
  -3  10  -2  29105.30  678.86  0. 1.0000  2658.      0.00 
   3 -10   2  30198.00  771.75  0. 1.0000  2659.      0.00 
   3 -10   3  46515.10  944.08  0. 1.0000  2660.      0.00 
   3 -10   3  43963.39  930.93  0. 1.0000  2661.      0.00 
   3 -10   3  45331.40  996.96  0. 1.0000  2662.      0.00 
   3 -10   4  32610.30  818.14  0. 1.0000  2663.      0.00 
   3 -10   4  32089.10  844.28  0. 1.0000  2664.      0.00 
   3 -10   5   9915.84  411.29  0. 1.0000  2665.      0.00 
   3 -10   5  10330.10  462.48  0. 1.0000  2666.      0.00 
   3 -10   5   9479.64  445.24  0. 1.0000  2667.      0.00 
   3 -10   6  68521.90 1142.14  0. 1.0000  2668.      0.00 
   3 -10   6  69603.20 1099.06  0. 1.0000  2669.      0.00 
   3 -10   6  67281.11 1073.06  0. 1.0000  2670.      0.00 
   3 -10   7   1411.30  161.44  0. 1.0000  2671.      0.00 
   3 -10   7   1308.88  160.46  0. 1.0000  2672.      0.00 
   3 -10   7   1363.57  169.92  0. 1.0000  2673.      0.00 
   3 -10   7   1595.85  164.78  0. 1.0000  2674.      0.00 
   3 -10   8  49060.00  746.76  0. 1.0000  2675.      0.00 
   3 -10   8  51648.50  866.67  0. 1.0000  2676.      0.00 
   3 -10   8  48613.40  836.30  0. 1.0000  2677.      0.00 
   3 -10   8  51409.30  844.36  0. 1.0000  2678.      0.00 
   3 -10   9    207.41   64.89  0. 1.0000  2679.      0.00 
   3 -10   9    334.17   70.45  0. 1.0000  2680.      0.00 
   3  -9  -2   7400.00  300.14  0. 1.0000  2681.      0.00 
  -3   9   2   7676.90  298.16  0. 1.0000  2682.      0.00 
   3  -9  -2   7628.46  262.68  0. 1.0000  2683.      0.00 
  -3   9   1  33619.60  751.47  0. 1.0000  2684.      0.00 
   3  -9  -1  33272.39  791.59  0. 1.0000  2685.      0.00 
   3  -9  -1  33519.10  681.46  0. 1.0000  2686.      0.00 
   3  -9   0   1539.57  169.10  0. 1.0000  2687.      0.00 
  -3   9   0   1424.70  178.04  0. 1.0000  2688.      0.00 
   3  -9   0   1656.42  207.99  0. 1.0000  2689.      0.00 
   3  -9   0   1700.83  194.49  0. 1.0000  2690.      0.00 
   3  -9   1 137153.00 1742.50  0. 1.0000  2691.      0.00 
  -3   9  -1 136329.98 1692.30  0. 1.0000  2692.      0.00 
   3  -9   1 136867.02 1870.90  0. 1.0000  2693.      0.00 
   3  -9   1 133949.02 1637.20  0. 1.0000  2694.      0.00 
   3  -9   1 138655.00 1850.10  0. 1.0000  2695.      0.00 
   3  -9   2    218.71  106.03  0. 1.0000  2696.      0.00 
   3  -9   2    379.11  113.34  0. 1.0000  2697.      0.00 
   3  -9   2    323.73  114.73  0. 1.0000  2698.      0.00 
   3  -9   2    649.30  142.30  0. 1.0000  2699.      0.00 
   3  -9   3  16338.80  631.71  0. 1.0000  2700.      0.00 
   3  -9   3  16612.40  684.45  0. 1.0000  2701.      0.00 
   3  -9   3  16183.90  635.63  0. 1.0000  2702.      0.00 
   3  -9   3  16795.50  667.53  0. 1.0000  2703.      0.00 
   3  -9   4  14899.30  608.97  0. 1.0000  2704.      0.00 
   3  -9   4  14490.20  552.57  0. 1.0000  2705.      0.00 
   3  -9   4  15423.80  671.96  0. 1.0000  2706.      0.00 
   3  -9   4  14909.10  621.30  0. 1.0000  2707.      0.00 
   3  -9   5  69189.90 1280.56  0. 1.0000  2708.      0.00 
   3  -9   5  68952.09 1231.35  0. 1.0000  2709.      0.00 
   3  -9   5  67596.00 1268.26  0. 1.0000  2710.      0.00 
   3  -9   6  52390.50 1072.92  0. 1.0000  2711.      0.00 
   3  -9   6  54463.80 1083.86  0. 1.0000  2712.      0.00 
   3  -9   6  51899.80 1071.05  0. 1.0000  2713.      0.00 
   3  -9   7  36955.50  833.07  0. 1.0000  2714.      0.00 
   3  -9   7  38153.70  896.21  0. 1.0000  2715.      0.00 
   3  -9   7  35769.60  922.30  0. 1.0000  2716.      0.00 
   3  -9   7  38060.60  902.18  0. 1.0000  2717.      0.00 
   3  -9   8  35550.70  816.94  0. 1.0000  2718.      0.00 
   3  -9   8  35061.70  824.66  0. 1.0000  2719.      0.00 
   3  -9   8  34207.20  816.27  0. 1.0000  2720.      0.00 
   3  -9   9    347.04   85.85  0. 1.0000  2721.      0.00 
   3  -9   9    288.05   86.81  0. 1.0000  2722.      0.00 
   3  -9   9    273.13   83.49  0. 1.0000  2723.      0.00 
   3  -9  10  20993.00  454.21  0. 1.0000  2724.      0.00 
  -3   8   3   1057.36  108.10  0. 1.0000  2725.      0.00 
  -3   8   3   1058.96  133.15  0. 1.0000  2726.      0.00 
   3  -8  -3    875.81  118.86  0. 1.0000  2727.      0.00 
   3  -8  -2  29898.80  812.28  0. 1.0000  2728.      0.00 
  -3   8   2  30027.40  795.71  0. 1.0000  2729.      0.00 
   3  -8  -1  12734.50  593.11  0. 1.0000  2730.      0.00 
  -3   8   1  12743.10  563.32  0. 1.0000  2731.      0.00 
   3  -8  -1  12665.00  541.41  0. 1.0000  2732.      0.00 
   3  -8   0  34220.80  870.34  0. 1.0000  2733.      0.00 
   3  -8   0  34013.60 1000.97  0. 1.0000  2734.      0.00 
  -3   8   0  34347.90  938.90  0. 1.0000  2735.      0.00 
   3  -8   0  33948.80  965.54  0. 1.0000  2736.      0.00 
   3  -8   1  49463.50 1108.07  0. 1.0000  2737.      0.00 
   3  -8   1  48371.00 1131.68  0. 1.0000  2738.      0.00 
   3  -8   1  48752.70 1191.38  0. 1.0000  2739.      0.00 
  -3   8  -1  47361.00 1068.65  0. 1.0000  2740.      0.00 
   3  -8   1  47476.40 1053.28  0. 1.0000  2741.      0.00 
   3  -8   1  47586.40 1173.42  0. 1.0000  2742.      0.00 
   3  -8   2  20650.40  733.57  0. 1.0000  2743.      0.00 
   3  -8   2  20747.00  754.83  0. 1.0000  2744.      0.00 
  -3   8  -2  20733.60  676.84  0. 1.0000  2745.      0.00 
   3  -8   2  21204.90  779.47  0. 1.0000  2746.      0.00 
   3  -8   2  20586.30  763.64  0. 1.0000  2747.      0.00 
   3  -8   3 422995.97 3289.60  0. 1.0000  2748.      0.00 
   3  -8   3 428321.03 3525.40  0. 1.0000  2749.      0.00 
   3  -8   3 431843.03 3304.10  0. 1.0000  2750.      0.00 
   3  -8   3 426772.97 3393.50  0. 1.0000  2751.      0.00 
   3  -8   4  67461.10 1301.67  0. 1.0000  2752.      0.00 
   3  -8   4  66995.79 1411.44  0. 1.0000  2753.      0.00 
   3  -8   4  67950.61 1251.00  0. 1.0000  2754.      0.00 
   3  -8   4  68596.80 1319.38  0. 1.0000  2755.      0.00 
   3  -8   5 159351.00 1952.90  0. 1.0000  2756.      0.00 
   3  -8   5 165792.00 1991.30  0. 1.0000  2757.      0.00 
   3  -8   6   3574.37  302.98  0. 1.0000  2758.      0.00 
   3  -8   6   3434.94  285.20  0. 1.0000  2759.      0.00 
   3  -8   6   3545.75  303.06  0. 1.0000  2760.      0.00 
   3  -8   7  30458.30  840.40  0. 1.0000  2761.      0.00 
   3  -8   7  31991.80  892.06  0. 1.0000  2762.      0.00 
   3  -8   8  25823.20  732.25  0. 1.0000  2763.      0.00 
   3  -8   8  24052.50  740.27  0. 1.0000  2764.      0.00 
   3  -8   8  25927.60  776.22  0. 1.0000  2765.      0.00 
   3  -8   9   2601.64  218.13  0. 1.0000  2766.      0.00 
   3  -8   9   2816.34  215.66  0. 1.0000  2767.      0.00 
   3  -8   9   2938.90  244.24  0. 1.0000  2768.      0.00 
   3  -8  10  20016.00  413.51  0. 1.0000  2769.      0.00 
   3  -8  10  21506.10  529.10  0. 1.0000  2770.      0.00 
  -3   7   5  23291.10  418.96  0. 1.0000  2771.      0.00 
  -3   7   4  48485.90  825.79  0. 1.0000  2772.      0.00 
  -3   7   3   5755.41  378.54  0. 1.0000  2773.      0.00 
  -3   7   3   5562.85  324.03  0. 1.0000  2774.      0.00 
   3  -7  -3   5594.05  370.58  0. 1.0000  2775.      0.00 
  -3   7   2 133449.02 1632.20  0. 1.0000  2776.      0.00 
  -3   7   2 138954.00 1972.60  0. 1.0000  2777.      0.00 
   3  -7  -2 133788.00 1958.90  0. 1.0000  2778.      0.00 
  -3   7   1  10399.30  550.30  0. 1.0000  2779.      0.00 
   3  -7  -1   9825.93  550.95  0. 1.0000  2780.      0.00 
   3  -7  -1  10428.90  543.11  0. 1.0000  2781.      0.00 
   3  -7   0  70257.71 1313.02  0. 1.0000  2782.      0.00 
   3  -7   0  71341.50 1441.93  0. 1.0000  2783.      0.00 
  -3   7   0  70935.50 1360.57  0. 1.0000  2784.      0.00 
   3  -7   0  70312.00 1428.84  0. 1.0000  2785.      0.00 
   3  -7   1  31279.90  880.14  0. 1.0000  2786.      0.00 
   3  -7   1  30571.70  890.12  0. 1.0000  2787.      0.00 
   3  -7   1  30417.30  911.05  0. 1.0000  2788.      0.00 
  -3   7  -1  30099.50  830.26  0. 1.0000  2789.      0.00 
   3  -7   1  29511.70  906.75  0. 1.0000  2790.      0.00 
   3  -7   2  25505.60  867.40  0. 1.0000  2791.      0.00 
   3  -7   3  30897.80  946.78  0. 1.0000  2792.      0.00 
   3  -7   4  39478.39 1033.20  0. 1.0000  2793.      0.00 
   3  -7   4  42157.10 1015.04  0. 1.0000  2794.      0.00 
   3  -7   5  25064.60  748.13  0. 1.0000  2795.      0.00 
   3  -7   5  24191.10  761.47  0. 1.0000  2796.      0.00 
   3  -7   5  25676.70  775.30  0. 1.0000  2797.      0.00 
   3  -7   6   2703.16  266.35  0. 1.0000  2798.      0.00 
   3  -7   6   3391.76  299.18  0. 1.0000  2799.      0.00 
   3  -7   7  73587.39 1323.13  0. 1.0000  2800.      0.00 
   3  -7   7  73776.39 1404.70  0. 1.0000  2801.      0.00 
   3  -7   7  75855.21 1421.57  0. 1.0000  2802.      0.00 
   3  -7   8    109.74   85.25  0. 1.0000  2803.      0.00 
   3  -7   8    252.35  108.41  0. 1.0000  2804.      0.00 
   3  -7   8    135.95   93.70  0. 1.0000  2805.      0.00 
   3  -7   9  52969.50  909.91  0. 1.0000  2806.      0.00 
   3  -7   9  53205.80 1015.70  0. 1.0000  2807.      0.00 
   3  -7  10   1771.00  143.19  0. 1.0000  2808.      0.00 
   3  -7  10   1675.49  164.11  0. 1.0000  2809.      0.00 
  -3   6   6  42379.30  622.04  0. 1.0000  2810.      0.00 
  -3   6   5  20371.80  587.98  0. 1.0000  2811.      0.00 
  -3   6   4  28091.70  791.81  0. 1.0000  2812.      0.00 
  -3   6   4  28518.20  858.30  0. 1.0000  2813.      0.00 
   3  -6  -3  19740.50  762.01  0. 1.0000  2814.      0.00 
  -3   6   3  20135.90  695.02  0. 1.0000  2815.      0.00 
  -3   6   3  20483.10  793.58  0. 1.0000  2816.      0.00 
  -3   6   2 117027.01 1618.50  0. 1.0000  2817.      0.00 
   3  -6  -2 112408.99 1838.50  0. 1.0000  2818.      0.00 
  -3   6   2 116343.01 1882.40  0. 1.0000  2819.      0.00 
   3  -6  -2 115244.01 1755.70  0. 1.0000  2820.      0.00 
   3  -6  -1   1156.66  191.94  0. 1.0000  2821.      0.00 
  -3   6   1    893.91  170.26  0. 1.0000  2822.      0.00 
   3  -6  -1   2171.74  245.03  0. 1.0000  2823.      0.00 
   3  -6  -1   2286.70  244.49  0. 1.0000  2824.      0.00 
   3  -6   0 194434.00 2243.50  0. 1.0000  2825.      0.00 
   3  -6   0 188123.00 2193.30  0. 1.0000  2826.      0.00 
   3  -6   1  10172.00  503.49  0. 1.0000  2827.      0.00 
   3  -6   2 114091.00 1659.90  0. 1.0000  2828.      0.00 
   3  -6   3   5061.25  351.89  0. 1.0000  2829.      0.00 
   3  -6   3   5218.76  317.69  0. 1.0000  2830.      0.00 
   3  -6   4  84211.30 1462.46  0. 1.0000  2831.      0.00 
   3  -6   4  87243.20 1396.94  0. 1.0000  2832.      0.00 
   3  -6   5 242509.00 2529.70  0. 1.0000  2833.      0.00 
   3  -6   5 248934.00 2505.70  0. 1.0000  2834.      0.00 
   3  -6   6  12009.00  533.65  0. 1.0000  2835.      0.00 
   3  -6   6  12063.80  535.13  0. 1.0000  2836.      0.00 
   3  -6   6  12055.70  567.90  0. 1.0000  2837.      0.00 
   3  -6   6  12602.20  569.13  0. 1.0000  2838.      0.00 
   3  -6   7  75525.30 1325.93  0. 1.0000  2839.      0.00 
   3  -6   7  77595.70 1444.22  0. 1.0000  2840.      0.00 
   3  -6   7  80900.59 1399.78  0. 1.0000  2841.      0.00 
   3  -6   7  80591.20 1470.80  0. 1.0000  2842.      0.00 
   3  -6   8  20021.50  716.20  0. 1.0000  2843.      0.00 
   3  -6   8  20465.40  640.39  0. 1.0000  2844.      0.00 
   3  -6   8  19996.90  676.16  0. 1.0000  2845.      0.00 
   3  -6   8  20668.60  745.93  0. 1.0000  2846.      0.00 
   3  -6   9  20639.10  645.29  0. 1.0000  2847.      0.00 
   3  -6   9  20921.00  681.94  0. 1.0000  2848.      0.00 
   3  -6  10   1353.79  130.04  0. 1.0000  2849.      0.00 
   3  -6  10   1570.28  160.92  0. 1.0000  2850.      0.00 
  -3   5   7  30720.00  522.00  0. 1.0000  2851.      0.00 
  -3   5   6   5486.16  322.05  0. 1.0000  2852.      0.00 
  -3   5   6   5659.48  294.33  0. 1.0000  2853.      0.00 
  -3   5   5  55780.30 1185.50  0. 1.0000  2854.      0.00 
  -3   5   5  54059.10 1052.85  0. 1.0000  2855.      0.00 
  -3   5   4  22562.80  785.23  0. 1.0000  2856.      0.00 
  -3   5   4  20831.40  810.12  0. 1.0000  2857.      0.00 
  -3   5   4  21526.80  691.48  0. 1.0000  2858.      0.00 
  -3   5   3  74040.70 1360.22  0. 1.0000  2859.      0.00 
   3  -5  -3  72280.80 1449.36  0. 1.0000  2860.      0.00 
  -3   5   3  71029.99 1497.68  0. 1.0000  2861.      0.00 
   3  -5  -2  20648.30  754.64  0. 1.0000  2862.      0.00 
   3  -5  -2  20039.40  728.44  0. 1.0000  2863.      0.00 
   3  -5  -1 121578.99 1695.80  0. 1.0000  2864.      0.00 
   3  -5  -1 123695.00 1626.50  0. 1.0000  2865.      0.00 
   3  -5   0  60381.00 1121.22  0. 1.0000  2866.      0.00 
   3  -5   0  57921.80 1084.44  0. 1.0000  2867.      0.00 
   3  -5   0  60685.00  979.42  0. 1.0000  2868.      0.00 
   3  -5   1  22936.80  673.77  0. 1.0000  2869.      0.00 
   3  -5   2 150645.98 1721.60  0. 1.0000  2870.      0.00 
   3  -5   2 153706.00 1468.40  0. 1.0000  2871.      0.00 
   3  -5   3    326.87   87.43  0. 1.0000  2872.      0.00 
   3  -5   3    499.77  113.22  0. 1.0000  2873.      0.00 
   3  -5   4  41550.80  957.59  0. 1.0000  2874.      0.00 
   3  -5   4  40411.30  898.17  0. 1.0000  2875.      0.00 
   3  -5   5  13395.80  566.34  0. 1.0000  2876.      0.00 
   3  -5   5  13387.90  565.15  0. 1.0000  2877.      0.00 
   3  -5   6  71944.60 1247.31  0. 1.0000  2878.      0.00 
   3  -5   6  72813.80 1363.52  0. 1.0000  2879.      0.00 
   3  -5   6  73682.61 1309.30  0. 1.0000  2880.      0.00 
   3  -5   6  76174.20 1383.81  0. 1.0000  2881.      0.00 
   3  -5   7  25281.70  802.54  0. 1.0000  2882.      0.00 
   3  -5   7  25615.10  804.42  0. 1.0000  2883.      0.00 
   3  -5   7  25982.20  844.01  0. 1.0000  2884.      0.00 
   3  -5   7  25651.70  833.40  0. 1.0000  2885.      0.00 
   3  -5   8  11470.70  535.48  0. 1.0000  2886.      0.00 
   3  -5   8  11575.20  531.52  0. 1.0000  2887.      0.00 
   3  -5   8  11985.30  574.37  0. 1.0000  2888.      0.00 
   3  -5   8  11722.50  552.33  0. 1.0000  2889.      0.00 
   3  -5   9  79150.59 1208.81  0. 1.0000  2890.      0.00 
   3  -5   9  78107.20 1243.77  0. 1.0000  2891.      0.00 
   3  -5   9  77335.10 1244.38  0. 1.0000  2892.      0.00 
   3  -5   9  82331.40 1345.88  0. 1.0000  2893.      0.00 
   3  -5   9  78862.30 1172.41  0. 1.0000  2894.      0.00 
   3  -5  10   3279.47  192.32  0. 1.0000  2895.      0.00 
   3  -5  10   3280.04  194.93  0. 1.0000  2896.      0.00 
   3  -5  10   3389.01  182.45  0. 1.0000  2897.      0.00 
  -3   4   7   2100.19  201.26  0. 1.0000  2898.      0.00 
  -3   4   7   2014.14  188.15  0. 1.0000  2899.      0.00 
  -3   4   7   2244.76  192.99  0. 1.0000  2900.      0.00 
  -3   4   6   1592.70  224.54  0. 1.0000  2901.      0.00 
  -3   4   6   1480.08  203.68  0. 1.0000  2902.      0.00 
  -3   4   6   1886.34  229.91  0. 1.0000  2903.      0.00 
  -3   4   5 157251.00 2157.40  0. 1.0000  2904.      0.00 
  -3   4   5 154205.98 2000.80  0. 1.0000  2905.      0.00 
  -3   4   4  30321.80  918.17  0. 1.0000  2906.      0.00 
  -3   4   4  30054.40  850.38  0. 1.0000  2907.      0.00 
  -3   4   4  28391.10  944.92  0. 1.0000  2908.      0.00 
   3  -4  -3 133568.98 1859.30  0. 1.0000  2909.      0.00 
   3  -4  -3 128777.99 1885.60  0. 1.0000  2910.      0.00 
   3  -4  -2  12420.90  521.81  0. 1.0000  2911.      0.00 
   3  -4  -2  11825.40  508.45  0. 1.0000  2912.      0.00 
   3  -4  -1 169469.98 1661.80  0. 1.0000  2913.      0.00 
   3  -4  -1 170621.98 1784.00  0. 1.0000  2914.      0.00 
   3  -4  -1 164921.00 1647.90  0. 1.0000  2915.      0.00 
   3  -4   0  55637.60  938.85  0. 1.0000  2916.      0.00 
   3  -4   0  56042.40  834.32  0. 1.0000  2917.      0.00 
   3  -4   1 255381.98 2005.50  0. 1.0000  2918.      0.00 
   3  -4   1 259918.98 1595.80  0. 1.0000  2919.      0.00 
   3  -4   2 135749.98 1500.90  0. 1.0000  2920.      0.00 
   3  -4   2 135378.98 1305.90  0. 1.0000  2921.      0.00 
   3  -4   3  37294.70  819.25  0. 1.0000  2922.      0.00 
   3  -4   3  36802.90  751.01  0. 1.0000  2923.      0.00 
   3  -4   4 304044.00 2461.20  0. 1.0000  2924.      0.00 
   3  -4   4 299489.97 2382.90  0. 1.0000  2925.      0.00 
   3  -4   5   8257.54  432.00  0. 1.0000  2926.      0.00 
   3  -4   5   8127.07  440.92  0. 1.0000  2927.      0.00 
   3  -4   6 134241.00 1836.40  0. 1.0000  2928.      0.00 
   3  -4   6 133234.00 1748.20  0. 1.0000  2929.      0.00 
   3  -4   6 136486.00 1859.80  0. 1.0000  2930.      0.00 
   3  -4   6 133190.00 1762.70  0. 1.0000  2931.      0.00 
   3  -4   6 136217.00 1852.10  0. 1.0000  2932.      0.00 
   3  -4   7   2202.38  256.92  0. 1.0000  2933.      0.00 
   3  -4   7   2382.83  267.07  0. 1.0000  2934.      0.00 
   3  -4   7   2104.26  251.57  0. 1.0000  2935.      0.00 
   3  -4   7   2186.43  243.82  0. 1.0000  2936.      0.00 
   3  -4   7   2064.78  240.54  0. 1.0000  2937.      0.00 
   3  -4   8  18416.70  699.45  0. 1.0000  2938.      0.00 
   3  -4   8  18555.90  702.71  0. 1.0000  2939.      0.00 
   3  -4   8  17645.70  657.99  0. 1.0000  2940.      0.00 
   3  -4   8  17990.70  678.30  0. 1.0000  2941.      0.00 
   3  -4   8  18096.60  660.28  0. 1.0000  2942.      0.00 
   3  -4   9   5414.62  321.93  0. 1.0000  2943.      0.00 
   3  -4   9   5352.36  330.24  0. 1.0000  2944.      0.00 
   3  -4   9   5298.08  312.94  0. 1.0000  2945.      0.00 
   3  -4   9   5157.03  314.51  0. 1.0000  2946.      0.00 
   3  -4  10   5128.59  218.96  0. 1.0000  2947.      0.00 
   3  -4  10   5241.99  235.70  0. 1.0000  2948.      0.00 
  -3   3   8  20381.90  545.59  0. 1.0000  2949.      0.00 
  -3   3   8  21303.50  578.42  0. 1.0000  2950.      0.00 
  -3   3   8  20286.70  538.60  0. 1.0000  2951.      0.00 
  -3   3   7  43480.90 1055.65  0. 1.0000  2952.      0.00 
  -3   3   7  44834.60 1061.17  0. 1.0000  2953.      0.00 
  -3   3   7  43765.70 1046.46  0. 1.0000  2954.      0.00 
  -3   3   6  37349.00 1078.01  0. 1.0000  2955.      0.00 
  -3   3   6  38705.20 1055.56  0. 1.0000  2956.      0.00 
  -3   3   6  37992.80 1080.95  0. 1.0000  2957.      0.00 
  -3   3   5   9822.42  548.32  0. 1.0000  2958.      0.00 
  -3   3   5   9089.79  501.71  0. 1.0000  2959.      0.00 
   3  -3  -4 247997.02 2461.80  0. 1.0000  2960.      0.00 
   3  -3  -4 236231.00 2600.10  0. 1.0000  2961.      0.00 
   3  -3  -3  87044.10 1330.78  0. 1.0000  2962.      0.00 
   3  -3  -3  86278.20 1379.29  0. 1.0000  2963.      0.00 
   3  -3  -2   1598.27  170.54  0. 1.0000  2964.      0.00 
   3  -3  -2   1676.09  149.08  0. 1.0000  2965.      0.00 
   3  -3  -1 225172.00 1663.80  0. 1.0000  2966.      0.00 
   3  -3  -1 226617.00 1707.10  0. 1.0000  2967.      0.00 
   3  -3   0   3831.50  220.24  0. 1.0000  2968.      0.00 
   3  -3   0   4257.79  206.30  0. 1.0000  2969.      0.00 
   3  -3   1 259650.98 1495.20  0. 1.0000  2970.      0.00 
   3  -3   1 254913.00 1844.90  0. 1.0000  2971.      0.00 
   3  -3   1 256563.00 1342.00  0. 1.0000  2972.      0.00 
   3  -3   2 140886.00 1249.70  0. 1.0000  2973.      0.00 
   3  -3   2 140586.00 1140.30  0. 1.0000  2974.      0.00 
   3  -3   2 141027.00 1452.20  0. 1.0000  2975.      0.00 
   3  -3   3 262818.00 1706.70  0. 1.0000  2976.      0.00 
   3  -3   3 266037.97 1915.30  0. 1.0000  2977.      0.00 
   3  -3   3 243313.98 2031.70  0. 1.0000  2978.      0.00 
   3  -3   4  62876.80 1034.94  0. 1.0000  2979.      0.00 
   3  -3   4  60881.60 1081.13  0. 1.0000  2980.      0.00 
   3  -3   5  36817.00  888.92  0. 1.0000  2981.      0.00 
   3  -3   5  31473.60  782.74  0. 1.0000  2982.      0.00 
   3  -3   6  64787.40 1236.46  0. 1.0000  2983.      0.00 
   3  -3   6  62250.30 1274.79  0. 1.0000  2984.      0.00 
   3  -3   6  64278.39 1318.27  0. 1.0000  2985.      0.00 
   3  -3   6  61960.90 1220.44  0. 1.0000  2986.      0.00 
   3  -3   6  61868.30 1280.26  0. 1.0000  2987.      0.00 
   3  -3   6  63912.20 1280.65  0. 1.0000  2988.      0.00 
   3  -3   7   4953.37  360.47  0. 1.0000  2989.      0.00 
   3  -3   7   4859.32  380.96  0. 1.0000  2990.      0.00 
   3  -3   7   5061.28  381.09  0. 1.0000  2991.      0.00 
   3  -3   7   4797.34  373.04  0. 1.0000  2992.      0.00 
   3  -3   7   4839.80  377.88  0. 1.0000  2993.      0.00 
   3  -3   8  61235.10 1213.64  0. 1.0000  2994.      0.00 
   3  -3   8  62052.60 1257.27  0. 1.0000  2995.      0.00 
   3  -3   8  61772.20 1189.66  0. 1.0000  2996.      0.00 
   3  -3   8  58960.89 1222.22  0. 1.0000  2997.      0.00 
   3  -3   9    196.06   81.46  0. 1.0000  2998.      0.00 
   3  -3   9    329.61   95.21  0. 1.0000  2999.      0.00 
   3  -3   9    228.72   81.44  0. 1.0000  3000.      0.00 
   3  -3   9    152.98   75.81  0. 1.0000  3001.      0.00 
  -3   2   9   3422.04  200.61  0. 1.0000  3002.      0.00 
  -3   2   9   3285.35  209.25  0. 1.0000  3003.      0.00 
  -3   2   8  86461.50 1435.74  0. 1.0000  3004.      0.00 
  -3   2   8  86421.39 1147.24  0. 1.0000  3005.      0.00 
  -3   2   8  85455.89 1402.52  0. 1.0000  3006.      0.00 
  -3   2   7   1060.31  180.70  0. 1.0000  3007.      0.00 
  -3   2   7   1157.48  205.11  0. 1.0000  3008.      0.00 
  -3   2   7   1091.18  194.08  0. 1.0000  3009.      0.00 
  -3   2   7   1221.13  211.04  0. 1.0000  3010.      0.00 
  -3   2   6 186239.00 2384.50  0. 1.0000  3011.      0.00 
  -3   2   6 186152.02 2364.80  0. 1.0000  3012.      0.00 
   3  -2  -5  57107.30 1153.04  0. 1.0000  3013.      0.00 
   3  -2  -5  59895.80 1314.37  0. 1.0000  3014.      0.00 
   3  -2  -4  68707.59 1090.25  0. 1.0000  3015.      0.00 
   3  -2  -4  72409.49 1168.85  0. 1.0000  3016.      0.00 
   3  -2  -4  68722.51 1256.35  0. 1.0000  3017.      0.00 
   3  -2  -3 151866.00 1526.10  0. 1.0000  3018.      0.00 
   3  -2  -3 149973.02 1616.70  0. 1.0000  3019.      0.00 
   3  -2  -3 153171.00 1355.20  0. 1.0000  3020.      0.00 
   3  -2  -2 164832.02 1207.60  0. 1.0000  3021.      0.00 
   3  -2  -2 159854.98 1472.40  0. 1.0000  3022.      0.00 
   3  -2  -1 311305.97 1724.00  0. 1.0000  3023.      0.00 
   3  -2  -1 309465.00 1810.30  0. 1.0000  3024.      0.00 
   3  -2   0   9923.34  322.01  0. 1.0000  3025.      0.00 
   3  -2   0   9713.30  285.54  0. 1.0000  3026.      0.00 
   3  -2   0   9686.81  235.34  0. 1.0000  3027.      0.00 
   3  -2   1 467548.03 2173.30  0. 1.0000  3028.      0.00 
   3  -2   1 468407.00 2369.60  0. 1.0000  3029.      0.00 
   3  -2   1 464255.00 1740.50  0. 1.0000  3030.      0.00 
   3  -2   1 463946.97 2010.50  0. 1.0000  3031.      0.00 
   3  -2   2   6269.38  214.65  0. 1.0000  3032.      0.00 
   3  -2   2   7036.62  241.83  0. 1.0000  3033.      0.00 
   3  -2   2   6989.67  292.10  0. 1.0000  3034.      0.00 
   3  -2   2   6703.64  309.38  0. 1.0000  3035.      0.00 
   3  -2   2   6576.30  266.08  0. 1.0000  3036.      0.00 
   3  -2   2   6670.28  284.99  0. 1.0000  3037.      0.00 
   3  -2   3 160121.00 1633.80  0. 1.0000  3038.      0.00 
   3  -2   3 170401.98 1511.90  0. 1.0000  3039.      0.00 
   3  -2   3 153704.00 1338.10  0. 1.0000  3040.      0.00 
   3  -2   3 166307.00 1574.20  0. 1.0000  3041.      0.00 
   3  -2   4  20175.00  617.88  0. 1.0000  3042.      0.00 
   3  -2   4  20394.00  585.04  0. 1.0000  3043.      0.00 
   3  -2   5   8327.93  448.27  0. 1.0000  3044.      0.00 
   3  -2   5   6859.42  387.48  0. 1.0000  3045.      0.00 
   3  -2   6   7225.03  448.32  0. 1.0000  3046.      0.00 
   3  -2   6   7418.13  458.10  0. 1.0000  3047.      0.00 
   3  -2   6   7413.00  431.68  0. 1.0000  3048.      0.00 
   3  -2   6   7373.79  458.59  0. 1.0000  3049.      0.00 
   3  -2   6   7690.84  474.84  0. 1.0000  3050.      0.00 
   3  -2   7 103850.00 1592.80  0. 1.0000  3051.      0.00 
   3  -2   7 109078.99 1711.60  0. 1.0000  3052.      0.00 
   3  -2   7 111615.01 1742.30  0. 1.0000  3053.      0.00 
   3  -2   7 109776.99 1655.10  0. 1.0000  3054.      0.00 
   3  -2   7 106338.01 1748.10  0. 1.0000  3055.      0.00 
   3  -2   8  10228.70  444.27  0. 1.0000  3056.      0.00 
   3  -2   8  10192.90  475.28  0. 1.0000  3057.      0.00 
   3  -2   8  10704.80  492.51  0. 1.0000  3058.      0.00 
   3  -2   8  10187.00  493.49  0. 1.0000  3059.      0.00 
   3  -2   8  10826.40  477.16  0. 1.0000  3060.      0.00 
   3  -2   9   3019.19  200.64  0. 1.0000  3061.      0.00 
   3  -2   9   3289.82  214.04  0. 1.0000  3062.      0.00 
   3  -2   9   2918.90  209.69  0. 1.0000  3063.      0.00 
  -3   1   9  21483.30  621.59  0. 1.0000  3064.      0.00 
  -3   1   9  19897.10  626.33  0. 1.0000  3065.      0.00 
  -3   1   9  21747.50  532.23  0. 1.0000  3066.      0.00 
  -3   1   9  20203.60  625.17  0. 1.0000  3067.      0.00 
  -3   1   8  18606.00  717.86  0. 1.0000  3068.      0.00 
  -3   1   8  17663.10  601.18  0. 1.0000  3069.      0.00 
  -3   1   8  18036.20  660.10  0. 1.0000  3070.      0.00 
  -3   1   8  17615.00  721.00  0. 1.0000  3071.      0.00 
  -3   1   8  18100.10  720.66  0. 1.0000  3072.      0.00 
  -3   1   7  20977.50  795.22  0. 1.0000  3073.      0.00 
  -3   1   7  21897.10  798.32  0. 1.0000  3074.      0.00 
  -3   1   7  22577.60  848.87  0. 1.0000  3075.      0.00 
  -3   1   7  22617.40  841.69  0. 1.0000  3076.      0.00 
  -3   1   6 118352.00 1767.30  0. 1.0000  3077.      0.00 
  -3   1   6 117485.01 1818.00  0. 1.0000  3078.      0.00 
   3  -1  -5   2398.64  228.78  0. 1.0000  3079.      0.00 
   3  -1  -5   1765.51  209.64  0. 1.0000  3080.      0.00 
   3  -1  -4 174839.00 1642.70  0. 1.0000  3081.      0.00 
   3  -1  -4 173864.00 1776.90  0. 1.0000  3082.      0.00 
   3  -1  -3  19796.00  470.39  0. 1.0000  3083.      0.00 
   3  -1  -3  19481.10  527.86  0. 1.0000  3084.      0.00 
   3  -1  -2 356240.97 1520.10  0. 1.0000  3085.      0.00 
   3  -1  -2 364221.03 2039.10  0. 1.0000  3086.      0.00 
   3  -1  -1  22241.00  427.12  0. 1.0000  3087.      0.00 
   3  -1  -1  19881.70  433.50  0. 1.0000  3088.      0.00 
   3  -1   0  85142.10  825.71  0. 1.0000  3089.      0.00 
   3  -1   0  84482.90  914.74  0. 1.0000  3090.      0.00 
   3  -1   1  15206.00  407.92  0. 1.0000  3091.      0.00 
   3  -1   1  14892.40  393.60  0. 1.0000  3092.      0.00 
   3  -1   1  15058.20  349.16  0. 1.0000  3093.      0.00 
   3  -1   1  14639.70  421.91  0. 1.0000  3094.      0.00 
   3  -1   2   2020.19  152.88  0. 1.0000  3095.      0.00 
   3  -1   2   2504.54  186.27  0. 1.0000  3096.      0.00 
   3  -1   2   1943.42  161.09  0. 1.0000  3097.      0.00 
   3  -1   2   2019.29  139.21  0. 1.0000  3098.      0.00 
   3  -1   3 180027.02 1522.30  0. 1.0000  3099.      0.00 
   3  -1   3 181994.00 1715.10  0. 1.0000  3100.      0.00 
   3  -1   3 183786.00 1710.90  0. 1.0000  3101.      0.00 
   3  -1   4    170.13   75.81  0. 1.0000  3102.      0.00 
   3  -1   4    186.62   79.41  0. 1.0000  3103.      0.00 
   3  -1   4    222.27   83.32  0. 1.0000  3104.      0.00 
   3  -1   5 332293.97 2769.20  0. 1.0000  3105.      0.00 
   3  -1   5 332138.97 2899.90  0. 1.0000  3106.      0.00 
  -3   1  -5 331228.00 3024.30  0. 1.0000  3107.      0.00 
   3  -1   5 342768.00 2825.50  0. 1.0000  3108.      0.00 
   3  -1   5 339888.00 2885.60  0. 1.0000  3109.      0.00 
   3  -1   5 324886.00 2697.30  0. 1.0000  3110.      0.00 
   3  -1   5 322541.97 2909.20  0. 1.0000  3111.      0.00 
   3  -1   5 339333.97 3008.10  0. 1.0000  3112.      0.00 
   3  -1   5 316332.03 2794.00  0. 1.0000  3113.      0.00 
   3  -1   6    523.51  143.24  0. 1.0000  3114.      0.00 
   3  -1   6    440.78  135.42  0. 1.0000  3115.      0.00 
   3  -1   6    190.46  104.58  0. 1.0000  3116.      0.00 
   3  -1   6    408.10  128.17  0. 1.0000  3117.      0.00 
   3  -1   6    261.26  126.05  0. 1.0000  3118.      0.00 
   3  -1   7  14637.80  598.69  0. 1.0000  3119.      0.00 
   3  -1   7  16000.50  642.70  0. 1.0000  3120.      0.00 
   3  -1   7  15401.00  613.41  0. 1.0000  3121.      0.00 
   3  -1   7  15408.70  601.71  0. 1.0000  3122.      0.00 
   3  -1   7  15439.00  649.30  0. 1.0000  3123.      0.00 
   3  -1   8   6342.68  328.57  0. 1.0000  3124.      0.00 
   3  -1   8   6522.34  335.46  0. 1.0000  3125.      0.00 
   3  -1   8   6553.97  338.17  0. 1.0000  3126.      0.00 
   3  -1   8   6339.37  355.08  0. 1.0000  3127.      0.00 
  -3   0  10  10941.10  394.67  0. 1.0000  3128.      0.00 
  -3   0  10  10535.20  363.62  0. 1.0000  3129.      0.00 
  -3   0  10  11837.40  334.60  0. 1.0000  3130.      0.00 
  -3   0   9  60117.00 1238.94  0. 1.0000  3131.      0.00 
  -3   0   9  56573.50 1152.79  0. 1.0000  3132.      0.00 
  -3   0   9  59785.70 1033.76  0. 1.0000  3133.      0.00 
  -3   0   9  59561.11 1212.82  0. 1.0000  3134.      0.00 
  -3   0   8  25466.90  896.56  0. 1.0000  3135.      0.00 
  -3   0   8  25106.40  871.21  0. 1.0000  3136.      0.00 
  -3   0   8  24172.40  749.85  0. 1.0000  3137.      0.00 
  -3   0   8  25280.60  875.63  0. 1.0000  3138.      0.00 
  -3   0   7  48438.40 1208.65  0. 1.0000  3139.      0.00 
  -3   0   7  48215.60 1106.63  0. 1.0000  3140.      0.00 
  -3   0   7  47560.70 1181.62  0. 1.0000  3141.      0.00 
  -3   0   7  48494.90 1186.13  0. 1.0000  3142.      0.00 
   3   0  -6  64232.30 1269.55  0. 1.0000  3143.      0.00 
   3   0  -6  64019.50 1211.93  0. 1.0000  3144.      0.00 
   3   0  -5  46851.10  945.03  0. 1.0000  3145.      0.00 
   3   0  -5  47049.50  937.32  0. 1.0000  3146.      0.00 
   3   0  -4 493642.00 2678.40  0. 1.0000  3147.      0.00 
   3   0  -4 497591.00 2722.50  0. 1.0000  3148.      0.00 
   3   0  -3  42154.30  722.75  0. 1.0000  3149.      0.00 
   3   0  -2 201255.00 1461.30  0. 1.0000  3150.      0.00 
   3   0  -1    763.96   89.54  0. 1.0000  3151.      0.00 
   3   0   0 349311.00 1896.10  0. 1.0000  3152.      0.00 
   3   0   0 354012.00 1928.80  0. 1.0000  3153.      0.00 
   3   0   0 354508.97 1817.40  0. 1.0000  3154.      0.00 
   3   0   1   2085.42  161.21  0. 1.0000  3155.      0.00 
   3   0   1   2081.99  164.62  0. 1.0000  3156.      0.00 
   3   0   1   2447.62  139.35  0. 1.0000  3157.      0.00 
   3   0   1   2086.93  164.72  0. 1.0000  3158.      0.00 
   3   0   2  96915.61 1160.20  0. 1.0000  3159.      0.00 
   3   0   2  96726.51 1200.94  0. 1.0000  3160.      0.00 
   3   0   2  95017.10 1171.60  0. 1.0000  3161.      0.00 
   3   0   3  11935.80  470.58  0. 1.0000  3162.      0.00 
   3   0   3  10935.80  436.20  0. 1.0000  3163.      0.00 
   3   0   3  11805.90  468.28  0. 1.0000  3164.      0.00 
   3   0   4  55861.60 1125.93  0. 1.0000  3165.      0.00 
   3   0   4  57353.30 1076.87  0. 1.0000  3166.      0.00 
   3   0   4  61103.50 1196.12  0. 1.0000  3167.      0.00 
  -3   0  -4  58912.30 1248.84  0. 1.0000  3168.      0.00 
   3   0   4  59183.80 1158.86  0. 1.0000  3169.      0.00 
   3   0   5  27341.40  852.99  0. 1.0000  3170.      0.00 
   3   0   5  27688.00  888.93  0. 1.0000  3171.      0.00 
   3   0   5  27717.20  817.81  0. 1.0000  3172.      0.00 
   3   0   5  26733.10  803.32  0. 1.0000  3173.      0.00 
   3   0   6   1139.74  192.97  0. 1.0000  3174.      0.00 
   3   0   6   1364.00  188.71  0. 1.0000  3175.      0.00 
   3   0   6   1601.17  207.73  0. 1.0000  3176.      0.00 
   3   0   6   1233.75  199.67  0. 1.0000  3177.      0.00 
   3   0   6   1236.52  204.21  0. 1.0000  3178.      0.00 
   3   0   6   1339.74  190.30  0. 1.0000  3179.      0.00 
   3   0   7  23971.80  720.93  0. 1.0000  3180.      0.00 
   3   0   7  25486.40  688.02  0. 1.0000  3181.      0.00 
   3   0   7  26274.40  719.60  0. 1.0000  3182.      0.00 
   3   0   7  25563.50  768.38  0. 1.0000  3183.      0.00 
   3   0   8   1920.00  156.32  0. 1.0000  3184.      0.00 
   3   0   8   2152.55  149.96  0. 1.0000  3185.      0.00 
   3   0   8   2125.10  172.65  0. 1.0000  3186.      0.00 
  -3  -1  10  22093.80  584.55  0. 1.0000  3187.      0.00 
  -3  -1  10  23350.30  572.11  0. 1.0000  3188.      0.00 
  -3  -1  10  22782.50  661.42  0. 1.0000  3189.      0.00 
  -3  -1   9  27285.70  903.72  0. 1.0000  3190.      0.00 
  -3  -1   9  26019.60  795.82  0. 1.0000  3191.      0.00 
  -3  -1   9  25988.80  739.38  0. 1.0000  3192.      0.00 
  -3  -1   9  25186.80  830.80  0. 1.0000  3193.      0.00 
  -3  -1   8    645.87  171.30  0. 1.0000  3194.      0.00 
  -3  -1   8    626.11  150.71  0. 1.0000  3195.      0.00 
  -3  -1   8    722.34  150.47  0. 1.0000  3196.      0.00 
  -3  -1   8    628.38  161.14  0. 1.0000  3197.      0.00 
  -3  -1   7  50996.00 1211.07  0. 1.0000  3198.      0.00 
  -3  -1   7  50434.60 1132.80  0. 1.0000  3199.      0.00 
  -3  -1   7  49766.00 1022.11  0. 1.0000  3200.      0.00 
  -3  -1   7  50686.40 1151.74  0. 1.0000  3201.      0.00 
   3   1  -6  27552.80  730.27  0. 1.0000  3202.      0.00 
   3   1  -5 137261.00 1492.80  0. 1.0000  3203.      0.00 
   3   1  -4   2500.82  186.55  0. 1.0000  3204.      0.00 
   3   1  -3  75443.90  951.88  0. 1.0000  3205.      0.00 
   3   1  -2 147294.00 1261.00  0. 1.0000  3206.      0.00 
   3   1  -1  34320.20  611.44  0. 1.0000  3207.      0.00 
   3   1  -1  35723.40  511.68  0. 1.0000  3208.      0.00 
   3   1  -1  34424.70  585.69  0. 1.0000  3209.      0.00 
   3   1  -1  33335.70  604.91  0. 1.0000  3210.      0.00 
   3   1   0 359196.03 2015.00  0. 1.0000  3211.      0.00 
   3   1   0 360178.00 2098.00  0. 1.0000  3212.      0.00 
   3   1   1   1264.46  144.18  0. 1.0000  3213.      0.00 
   3   1   1   1368.98  141.62  0. 1.0000  3214.      0.00 
   3   1   1   1313.92  145.99  0. 1.0000  3215.      0.00 
   3   1   1   1468.39  136.56  0. 1.0000  3216.      0.00 
   3   1   2 224441.00 1934.70  0. 1.0000  3217.      0.00 
   3   1   2 221109.00 1967.30  0. 1.0000  3218.      0.00 
   3   1   3  14061.00  533.33  0. 1.0000  3219.      0.00 
   3   1   3  13987.10  540.12  0. 1.0000  3220.      0.00 
   3   1   3  14094.30  550.68  0. 1.0000  3221.      0.00 
   3   1   3  13348.90  542.50  0. 1.0000  3222.      0.00 
  -3  -1  -3  13975.00  604.15  0. 1.0000  3223.      0.00 
   3   1   4  46739.70 1090.77  0. 1.0000  3224.      0.00 
   3   1   4  47360.00  993.58  0. 1.0000  3225.      0.00 
   3   1   4  46999.60 1013.13  0. 1.0000  3226.      0.00 
   3   1   5  22726.50  702.62  0. 1.0000  3227.      0.00 
   3   1   5  23278.70  739.30  0. 1.0000  3228.      0.00 
   3   1   5  23770.90  817.08  0. 1.0000  3229.      0.00 
   3   1   6  45389.70 1056.58  0. 1.0000  3230.      0.00 
   3   1   6  46231.70  913.37  0. 1.0000  3231.      0.00 
   3   1   6  48156.40  998.04  0. 1.0000  3232.      0.00 
   3   1   6  47178.30 1002.94  0. 1.0000  3233.      0.00 
   3   1   6  46974.10 1062.45  0. 1.0000  3234.      0.00 
   3   1   7 111573.00 1337.20  0. 1.0000  3235.      0.00 
   3   1   7 109589.99 1187.20  0. 1.0000  3236.      0.00 
   3   1   7 111075.01 1313.30  0. 1.0000  3237.      0.00 
  -3  -2  11   4279.26  199.10  0. 1.0000  3238.      0.00 
  -3  -2  11   4454.15  235.96  0. 1.0000  3239.      0.00 
  -3  -2  10  15013.50  489.46  0. 1.0000  3240.      0.00 
  -3  -2  10  15412.40  516.35  0. 1.0000  3241.      0.00 
  -3  -2  10  15351.20  583.03  0. 1.0000  3242.      0.00 
  -3  -2   9  73382.91 1506.41  0. 1.0000  3243.      0.00 
  -3  -2   9  69673.10 1185.87  0. 1.0000  3244.      0.00 
  -3  -2   9  70844.49 1256.05  0. 1.0000  3245.      0.00 
  -3  -2   9  70978.50 1267.27  0. 1.0000  3246.      0.00 
  -3  -2   9  69689.80 1389.38  0. 1.0000  3247.      0.00 
  -3  -2   8   7906.08  500.21  0. 1.0000  3248.      0.00 
  -3  -2   8   8976.22  440.44  0. 1.0000  3249.      0.00 
  -3  -2   8   7933.26  441.74  0. 1.0000  3250.      0.00 
  -3  -2   8   8300.65  437.13  0. 1.0000  3251.      0.00 
  -3  -2   8   7779.24  430.76  0. 1.0000  3252.      0.00 
  -3  -2   8   8011.81  478.36  0. 1.0000  3253.      0.00 
  -3  -2   7 188268.02 2255.70  0. 1.0000  3254.      0.00 
  -3  -2   7 193445.98 2030.50  0. 1.0000  3255.      0.00 
  -3  -2   7 188617.02 2038.60  0. 1.0000  3256.      0.00 
  -3  -2   7 193218.02 2067.10  0. 1.0000  3257.      0.00 
  -3  -2   7 186647.00 2124.00  0. 1.0000  3258.      0.00 
   3   2  -4   8647.79  342.11  0. 1.0000  3259.      0.00 
   3   2  -3 245123.98 1698.70  0. 1.0000  3260.      0.00 
   3   2  -3 238488.00 1719.80  0. 1.0000  3261.      0.00 
   3   2  -2  73585.80  848.54  0. 1.0000  3262.      0.00 
   3   2  -2  73607.09  884.85  0. 1.0000  3263.      0.00 
   3   2  -2  74139.01  922.51  0. 1.0000  3264.      0.00 
   3   2  -2  72647.51  958.18  0. 1.0000  3265.      0.00 
   3   2  -1 202643.02 1407.60  0. 1.0000  3266.      0.00 
   3   2  -1 200977.02 1590.80  0. 1.0000  3267.      0.00 
   3   2   0  95249.11 1223.15  0. 1.0000  3268.      0.00 
   3   2   0  94153.80 1086.31  0. 1.0000  3269.      0.00 
   3   2   0  95780.39 1177.63  0. 1.0000  3270.      0.00 
   3   2   1  48708.70  884.61  0. 1.0000  3271.      0.00 
   3   2   1  49444.20  928.80  0. 1.0000  3272.      0.00 
   3   2   1  48184.40  858.09  0. 1.0000  3273.      0.00 
  -3  -2  -1  51340.20 1023.74  0. 1.0000  3274.      0.00 
   3   2   1  50022.70  922.77  0. 1.0000  3275.      0.00 
   3   2   2 184095.98 1875.90  0. 1.0000  3276.      0.00 
   3   2   2 184869.00 1933.40  0. 1.0000  3277.      0.00 
  -3  -2  -2 184154.00 2166.50  0. 1.0000  3278.      0.00 
   3   2   2 179085.00 1938.60  0. 1.0000  3279.      0.00 
   3   2   2 185380.98 1952.10  0. 1.0000  3280.      0.00 
   3   2   3   6363.97  382.10  0. 1.0000  3281.      0.00 
   3   2   3   6105.34  372.95  0. 1.0000  3282.      0.00 
   3   2   4  43092.80 1071.22  0. 1.0000  3283.      0.00 
   3   2   4  41528.50  949.48  0. 1.0000  3284.      0.00 
   3   2   4  42045.50  982.26  0. 1.0000  3285.      0.00 
   3   2   5   2839.56  285.38  0. 1.0000  3286.      0.00 
   3   2   5   2077.85  214.54  0. 1.0000  3287.      0.00 
   3   2   5   2560.36  258.36  0. 1.0000  3288.      0.00 
   3   2   6    894.13  143.01  0. 1.0000  3289.      0.00 
   3   2   6    856.15  129.86  0. 1.0000  3290.      0.00 
   3   2   6   1014.59  144.84  0. 1.0000  3291.      0.00 
   3   2   7   2831.04  160.61  0. 1.0000  3292.      0.00 
  -3  -3  11   5055.84  247.49  0. 1.0000  3293.      0.00 
  -3  -3  10  53389.61  958.77  0. 1.0000  3294.      0.00 
  -3  -3  10  56784.80 1035.97  0. 1.0000  3295.      0.00 
  -3  -3  10  55761.30 1136.99  0. 1.0000  3296.      0.00 
  -3  -3   9   3473.95  285.36  0. 1.0000  3297.      0.00 
  -3  -3   9   3510.96  288.43  0. 1.0000  3298.      0.00 
  -3  -3   9   3314.21  284.87  0. 1.0000  3299.      0.00 
  -3  -3   8 161033.98 1925.70  0. 1.0000  3300.      0.00 
  -3  -3   8 159576.98 1819.20  0. 1.0000  3301.      0.00 
  -3  -3   8 161081.00 1977.60  0. 1.0000  3302.      0.00 
  -3  -3   8 155887.00 1878.60  0. 1.0000  3303.      0.00 
  -3  -3   8 159871.00 2058.10  0. 1.0000  3304.      0.00 
  -3  -3   7   2226.11  228.10  0. 1.0000  3305.      0.00 
  -3  -3   7   2739.31  257.67  0. 1.0000  3306.      0.00 
  -3  -3   7   2145.57  218.90  0. 1.0000  3307.      0.00 
  -3  -3   7   2051.30  229.57  0. 1.0000  3308.      0.00 
   3   3  -6  15702.20  566.42  0. 1.0000  3309.      0.00 
   3   3  -5 156086.00 1533.60  0. 1.0000  3310.      0.00 
   3   3  -5 154056.02 1641.30  0. 1.0000  3311.      0.00 
   3   3  -4   4431.92  268.31  0. 1.0000  3312.      0.00 
   3   3  -4   4788.62  272.92  0. 1.0000  3313.      0.00 
   3   3  -3 435126.00 2486.80  0. 1.0000  3314.      0.00 
   3   3  -3 435863.00 2289.30  0. 1.0000  3315.      0.00 
   3   3  -2  65124.90  934.09  0. 1.0000  3316.      0.00 
   3   3  -2  64900.80  922.51  0. 1.0000  3317.      0.00 
   3   3  -1  59955.11 1010.43  0. 1.0000  3318.      0.00 
   3   3  -1  59532.20  882.67  0. 1.0000  3319.      0.00 
  -3  -3   1  61029.30  994.31  0. 1.0000  3320.      0.00 
   3   3  -1  57987.60  925.82  0. 1.0000  3321.      0.00 
  -3  -3   0  54029.70 1053.89  0. 1.0000  3322.      0.00 
   3   3   0  52240.20  860.15  0. 1.0000  3323.      0.00 
   3   3   0  50123.60  975.86  0. 1.0000  3324.      0.00 
   3   3   0  49259.70  917.38  0. 1.0000  3325.      0.00 
   3   3   1  59076.50 1012.85  0. 1.0000  3326.      0.00 
   3   3   1  57107.10 1078.59  0. 1.0000  3327.      0.00 
  -3  -3  -1  57401.30 1210.08  0. 1.0000  3328.      0.00 
   3   3   1  55526.70 1057.07  0. 1.0000  3329.      0.00 
   3   3   2  47848.80 1036.19  0. 1.0000  3330.      0.00 
   3   3   2  51980.20 1076.25  0. 1.0000  3331.      0.00 
   3   3   3   5846.37  378.56  0. 1.0000  3332.      0.00 
   3   3   4 100215.01 1503.20  0. 1.0000  3333.      0.00 
   3   3   4  97102.80 1432.16  0. 1.0000  3334.      0.00 
   3   3   5   4328.69  297.27  0. 1.0000  3335.      0.00 
   3   3   5   4507.83  290.51  0. 1.0000  3336.      0.00 
   3   3   5   3961.17  259.71  0. 1.0000  3337.      0.00 
   3   3   6  38099.60  634.76  0. 1.0000  3338.      0.00 
   3   3   6  37971.40  603.47  0. 1.0000  3339.      0.00 
  -3  -4  11    628.98   96.49  0. 1.0000  3340.      0.00 
  -3  -4  11    322.47   81.36  0. 1.0000  3341.      0.00 
  -3  -4  10  41241.80  893.03  0. 1.0000  3342.      0.00 
  -3  -4  10  42438.50  899.16  0. 1.0000  3343.      0.00 
  -3  -4   9   2711.75  235.13  0. 1.0000  3344.      0.00 
  -3  -4   9   2821.07  266.92  0. 1.0000  3345.      0.00 
  -3  -4   9   2806.19  267.48  0. 1.0000  3346.      0.00 
  -3  -4   9   2898.01  262.98  0. 1.0000  3347.      0.00 
  -3  -4   9   3009.94  296.62  0. 1.0000  3348.      0.00 
  -3  -4   8  94672.20 1528.31  0. 1.0000  3349.      0.00 
  -3  -4   8  90810.50 1470.50  0. 1.0000  3350.      0.00 
  -3  -4   8  95338.40 1554.14  0. 1.0000  3351.      0.00 
  -3  -4   8  90080.80 1405.89  0. 1.0000  3352.      0.00 
  -3  -4   8  91603.09 1565.40  0. 1.0000  3353.      0.00 
  -3  -4   7 103838.00 1573.50  0. 1.0000  3354.      0.00 
  -3  -4   7 102597.01 1554.00  0. 1.0000  3355.      0.00 
  -3  -4   7 102188.00 1418.80  0. 1.0000  3356.      0.00 
  -3  -4   7 103780.01 1603.30  0. 1.0000  3357.      0.00 
   3   4  -6 183841.02 2021.10  0. 1.0000  3358.      0.00 
   3   4  -5  69459.00 1197.49  0. 1.0000  3359.      0.00 
   3   4  -4  78614.71 1202.40  0. 1.0000  3360.      0.00 
   3   4  -3   1184.41  149.86  0. 1.0000  3361.      0.00 
   3   4  -2  46137.00  939.28  0. 1.0000  3362.      0.00 
   3   4  -2  46972.70  900.02  0. 1.0000  3363.      0.00 
   3   4  -1 150151.00 1745.40  0. 1.0000  3364.      0.00 
   3   4  -1 157899.02 1633.20  0. 1.0000  3365.      0.00 
   3   4   0    702.89  128.89  0. 1.0000  3366.      0.00 
   3   4   0    810.26  133.81  0. 1.0000  3367.      0.00 
  -3  -4  -1  50229.50 1151.44  0. 1.0000  3368.      0.00 
   3   4   1  49856.30 1058.61  0. 1.0000  3369.      0.00 
  -3  -4  -2   2178.07  242.80  0. 1.0000  3370.      0.00 
   3   4   2   2867.61  271.64  0. 1.0000  3371.      0.00 
   3   4   3  57988.60 1085.77  0. 1.0000  3372.      0.00 
   3   4   3  59838.00 1138.17  0. 1.0000  3373.      0.00 
   3   4   4   2438.02  223.51  0. 1.0000  3374.      0.00 
   3   4   4   2369.88  192.58  0. 1.0000  3375.      0.00 
   3   4   5  13848.50  390.28  0. 1.0000  3376.      0.00 
   3   4   5  13329.00  339.06  0. 1.0000  3377.      0.00 
   3   4   5  13653.40  379.92  0. 1.0000  3378.      0.00 
  -3  -5  11  53146.50  826.64  0. 1.0000  3379.      0.00 
  -3  -5  11  54823.70  823.97  0. 1.0000  3380.      0.00 
  -3  -5  10  35528.89  835.98  0. 1.0000  3381.      0.00 
  -3  -5  10  35147.30  790.56  0. 1.0000  3382.      0.00 
  -3  -5   9   4191.64  300.40  0. 1.0000  3383.      0.00 
  -3  -5   9   4531.95  340.61  0. 1.0000  3384.      0.00 
  -3  -5   9   3542.86  297.07  0. 1.0000  3385.      0.00 
  -3  -5   9   3395.23  270.75  0. 1.0000  3386.      0.00 
  -3  -5   8  42620.70  986.64  0. 1.0000  3387.      0.00 
  -3  -5   8  43923.90 1032.29  0. 1.0000  3388.      0.00 
  -3  -5   8  44364.00 1056.32  0. 1.0000  3389.      0.00 
  -3  -5   8  42653.90  943.35  0. 1.0000  3390.      0.00 
  -3  -5   7   1481.81  206.43  0. 1.0000  3391.      0.00 
  -3  -5   7   1545.87  198.36  0. 1.0000  3392.      0.00 
  -3  -5   7   1555.73  209.24  0. 1.0000  3393.      0.00 
  -3  -5   6 148686.00 1837.60  0. 1.0000  3394.      0.00 
  -3  -5   6 143904.00 1690.80  0. 1.0000  3395.      0.00 
  -3  -5   6 145596.00 1781.80  0. 1.0000  3396.      0.00 
   3   5  -5  20058.90  688.97  0. 1.0000  3397.      0.00 
   3   5  -4  98367.11 1386.03  0. 1.0000  3398.      0.00 
   3   5  -4  95022.80 1471.30  0. 1.0000  3399.      0.00 
   3   5  -3  72882.90 1260.41  0. 1.0000  3400.      0.00 
   3   5  -3  73706.10 1233.14  0. 1.0000  3401.      0.00 
   3   5  -2  78369.80 1296.85  0. 1.0000  3402.      0.00 
   3   5  -2  78422.59 1301.00  0. 1.0000  3403.      0.00 
   3   5  -1  75438.91 1277.12  0. 1.0000  3404.      0.00 
  -3  -5   1  75862.89 1453.02  0. 1.0000  3405.      0.00 
   3   5  -1  77670.99 1290.04  0. 1.0000  3406.      0.00 
  -3  -5   0   4867.12  378.60  0. 1.0000  3407.      0.00 
   3   5   0   3832.95  285.85  0. 1.0000  3408.      0.00 
   3   5   0   4330.74  304.54  0. 1.0000  3409.      0.00 
   3   5   0   3780.06  298.47  0. 1.0000  3410.      0.00 
  -3  -5  -1  64479.10 1288.80  0. 1.0000  3411.      0.00 
   3   5   1  63610.00 1205.75  0. 1.0000  3412.      0.00 
  -3  -5  -2   2142.87  217.31  0. 1.0000  3413.      0.00 
   3   5   2   2730.89  248.52  0. 1.0000  3414.      0.00 
   3   5   3  26858.90  685.22  0. 1.0000  3415.      0.00 
  -3  -5  -3  26158.00  666.67  0. 1.0000  3416.      0.00 
   3   5   4    139.13   51.30  0. 1.0000  3417.      0.00 
   3   5   4    116.21   45.62  0. 1.0000  3418.      0.00 
   3   5   4    212.23   59.10  0. 1.0000  3419.      0.00 
  -3  -6  11  29365.30  605.39  0. 1.0000  3420.      0.00 
  -3  -6  11  28235.30  541.89  0. 1.0000  3421.      0.00 
  -3  -6  10   6379.31  315.66  0. 1.0000  3422.      0.00 
  -3  -6  10   6915.52  362.81  0. 1.0000  3423.      0.00 
  -3  -6  10   6652.93  318.95  0. 1.0000  3424.      0.00 
  -3  -6   9  28708.70  776.56  0. 1.0000  3425.      0.00 
  -3  -6   9  29423.60  801.62  0. 1.0000  3426.      0.00 
  -3  -6   9  28809.50  708.08  0. 1.0000  3427.      0.00 
  -3  -6   8  36553.00  929.75  0. 1.0000  3428.      0.00 
  -3  -6   8  36397.00  912.41  0. 1.0000  3429.      0.00 
  -3  -6   7  18819.20  674.87  0. 1.0000  3430.      0.00 
  -3  -6   7  19066.40  648.70  0. 1.0000  3431.      0.00 
  -3  -6   7  19366.80  678.80  0. 1.0000  3432.      0.00 
  -3  -6   6  44114.50 1017.74  0. 1.0000  3433.      0.00 
  -3  -6   6  45818.00  994.15  0. 1.0000  3434.      0.00 
  -3  -6   5  12417.90  531.88  0. 1.0000  3435.      0.00 
   3   6  -4 123001.01 1564.10  0. 1.0000  3436.      0.00 
  -3  -6   4 127586.01 1631.60  0. 1.0000  3437.      0.00 
  -3  -6   4 129039.01 1860.70  0. 1.0000  3438.      0.00 
   3   6  -4 123102.00 1711.30  0. 1.0000  3439.      0.00 
   3   6  -3   1640.43  195.10  0. 1.0000  3440.      0.00 
  -3  -6   3   1980.06  249.71  0. 1.0000  3441.      0.00 
   3   6  -3   2029.29  225.78  0. 1.0000  3442.      0.00 
  -3  -6   2  42670.50  971.54  0. 1.0000  3443.      0.00 
  -3  -6   2  43339.80 1125.86  0. 1.0000  3444.      0.00 
   3   6  -2  41682.60  979.55  0. 1.0000  3445.      0.00 
   3   6  -2  41922.70  949.57  0. 1.0000  3446.      0.00 
  -3  -6   1  26553.00  873.93  0. 1.0000  3447.      0.00 
   3   6  -1  26223.60  762.15  0. 1.0000  3448.      0.00 
   3   6  -1  25063.50  749.04  0. 1.0000  3449.      0.00 
   3   6   0 146942.00 1665.70  0. 1.0000  3450.      0.00 
  -3  -6   0 148885.02 1953.10  0. 1.0000  3451.      0.00 
   3   6   0 147155.98 1777.50  0. 1.0000  3452.      0.00 
  -3  -6  -1  22234.30  670.48  0. 1.0000  3453.      0.00 
  -3  -6  -1  22049.90  721.41  0. 1.0000  3454.      0.00 
   3   6   1  22318.40  655.05  0. 1.0000  3455.      0.00 
  -3  -6  -2   4941.56  290.89  0. 1.0000  3456.      0.00 
   3   6   3  23814.60  447.64  0. 1.0000  3457.      0.00 
  -3  -7  11  17331.90  417.65  0. 1.0000  3458.      0.00 
  -3  -7  10   2082.76  177.67  0. 1.0000  3459.      0.00 
  -3  -7  10   2426.67  199.07  0. 1.0000  3460.      0.00 
  -3  -7   9  75989.80 1209.87  0. 1.0000  3461.      0.00 
  -3  -7   9  75666.50 1174.83  0. 1.0000  3462.      0.00 
  -3  -7   8   1821.75  197.10  0. 1.0000  3463.      0.00 
  -3  -7   8   1812.96  214.71  0. 1.0000  3464.      0.00 
  -3  -7   8   1913.65  201.70  0. 1.0000  3465.      0.00 
  -3  -7   8   1514.75  194.64  0. 1.0000  3466.      0.00 
  -3  -7   7  45230.90 1015.96  0. 1.0000  3467.      0.00 
  -3  -7   7  46108.90 1041.19  0. 1.0000  3468.      0.00 
   3   7  -7  44376.39  942.76  0. 1.0000  3469.      0.00 
  -3  -7   6   4509.81  336.54  0. 1.0000  3470.      0.00 
  -3  -7   6   4336.77  324.71  0. 1.0000  3471.      0.00 
   3   7  -6   4390.96  316.70  0. 1.0000  3472.      0.00 
  -3  -7   5  20491.10  715.20  0. 1.0000  3473.      0.00 
  -3  -7   5  19290.30  653.39  0. 1.0000  3474.      0.00 
  -3  -7   5  18942.40  703.25  0. 1.0000  3475.      0.00 
   3   7  -5  19330.20  667.85  0. 1.0000  3476.      0.00 
  -3  -7   4  94867.89 1515.79  0. 1.0000  3477.      0.00 
   3   7  -4  92624.00 1459.09  0. 1.0000  3478.      0.00 
  -3  -7   4  91213.70 1579.02  0. 1.0000  3479.      0.00 
  -3  -7   3  14853.50  584.08  0. 1.0000  3480.      0.00 
   3   7  -3  14695.10  576.55  0. 1.0000  3481.      0.00 
  -3  -7   3  14699.90  644.46  0. 1.0000  3482.      0.00 
   3   7  -3  14830.90  531.24  0. 1.0000  3483.      0.00 
  -3  -7   2 222504.98 2068.50  0. 1.0000  3484.      0.00 
  -3  -7   2 223765.00 2441.10  0. 1.0000  3485.      0.00 
   3   7  -2 221918.00 2170.20  0. 1.0000  3486.      0.00 
   3   7  -2 219812.00 2043.50  0. 1.0000  3487.      0.00 
  -3  -7   1  38426.90  953.52  0. 1.0000  3488.      0.00 
   3   7  -1  37325.70  821.20  0. 1.0000  3489.      0.00 
  -3  -7   1  37988.70  961.14  0. 1.0000  3490.      0.00 
   3   7  -1  37439.70  830.04  0. 1.0000  3491.      0.00 
  -3  -7   0  30522.10  791.32  0. 1.0000  3492.      0.00 
   3   7   0  29921.90  632.17  0. 1.0000  3493.      0.00 
  -3  -7   0  31342.80  751.56  0. 1.0000  3494.      0.00 
   3   7   0  29260.70  675.59  0. 1.0000  3495.      0.00 
   3   7   1    904.44  104.68  0. 1.0000  3496.      0.00 
  -3  -7  -1    975.33  128.52  0. 1.0000  3497.      0.00 
   3   7   1    801.76   92.83  0. 1.0000  3498.      0.00 
  -3  -8  10  53848.00  766.40  0. 1.0000  3499.      0.00 
  -3  -8  10  53545.10  715.66  0. 1.0000  3500.      0.00 
  -3  -8   9  39370.00  782.18  0. 1.0000  3501.      0.00 
  -3  -8   9  38080.30  671.90  0. 1.0000  3502.      0.00 
  -3  -8   8   3527.11  248.67  0. 1.0000  3503.      0.00 
  -3  -8   8   3467.58  259.92  0. 1.0000  3504.      0.00 
  -3  -8   8   2946.62  249.26  0. 1.0000  3505.      0.00 
  -3  -8   7  63616.90 1121.97  0. 1.0000  3506.      0.00 
  -3  -8   7  64258.50 1110.39  0. 1.0000  3507.      0.00 
   3   8  -7  65321.39 1033.32  0. 1.0000  3508.      0.00 
  -3  -8   6  22522.50  697.88  0. 1.0000  3509.      0.00 
  -3  -8   6  21953.20  644.34  0. 1.0000  3510.      0.00 
  -3  -8   6  21138.20  657.06  0. 1.0000  3511.      0.00 
   3   8  -6  22179.00  644.68  0. 1.0000  3512.      0.00 
  -3  -8   5  94098.50 1425.72  0. 1.0000  3513.      0.00 
   3   8  -5  91274.30 1332.46  0. 1.0000  3514.      0.00 
  -3  -8   4    164.43   98.26  0. 1.0000  3515.      0.00 
   3   8  -4    213.89   88.60  0. 1.0000  3516.      0.00 
  -3  -8   4    233.19   93.91  0. 1.0000  3517.      0.00 
  -3  -8   3  20057.50  587.14  0. 1.0000  3518.      0.00 
  -3  -8   3  21301.10  689.97  0. 1.0000  3519.      0.00 
   3   8  -3  20516.20  610.54  0. 1.0000  3520.      0.00 
  -3  -8   3  18681.20  603.15  0. 1.0000  3521.      0.00 
   3   8  -3  19898.50  525.06  0. 1.0000  3522.      0.00 
  -3  -8   2   6242.69  352.03  0. 1.0000  3523.      0.00 
  -3  -8   2   5881.48  331.48  0. 1.0000  3524.      0.00 
   3   8  -2   6344.94  314.13  0. 1.0000  3525.      0.00 
   3   8  -2   6015.13  283.25  0. 1.0000  3526.      0.00 
   3   8  -1   2192.37  158.29  0. 1.0000  3527.      0.00 
  -3  -8   1   2083.46  184.29  0. 1.0000  3528.      0.00 
  -3  -8   1   1957.62  174.32  0. 1.0000  3529.      0.00 
   3   8  -1   2138.44  157.09  0. 1.0000  3530.      0.00 
  -3  -8   0  22805.00  472.52  0. 1.0000  3531.      0.00 
  -3  -9   9  18762.30  435.47  0. 1.0000  3532.      0.00 
  -3  -9   8  10499.40  358.35  0. 1.0000  3533.      0.00 
  -3  -9   8   9540.23  370.36  0. 1.0000  3534.      0.00 
  -3  -9   8  10201.10  347.91  0. 1.0000  3535.      0.00 
  -3  -9   7  90104.80 1139.00  0. 1.0000  3536.      0.00 
  -3  -9   7  88044.01 1040.49  0. 1.0000  3537.      0.00 
   3   9  -7  87648.51  991.17  0. 1.0000  3538.      0.00 
  -3  -9   6  10776.70  407.65  0. 1.0000  3539.      0.00 
   3   9  -6  10769.80  375.32  0. 1.0000  3540.      0.00 
  -3  -9   6   9849.42  380.92  0. 1.0000  3541.      0.00 
  -3  -9   5  24176.00  621.94  0. 1.0000  3542.      0.00 
   3   9  -5  25836.50  592.01  0. 1.0000  3543.      0.00 
  -3  -9   5  26269.80  620.98  0. 1.0000  3544.      0.00 
  -3  -9   4   8169.47  358.15  0. 1.0000  3545.      0.00 
   3   9  -4   8880.88  336.06  0. 1.0000  3546.      0.00 
  -3  -9   4   8453.16  326.29  0. 1.0000  3547.      0.00 
   3   9  -3  16582.20  421.56  0. 1.0000  3548.      0.00 
  -3  -9   3  16357.80  461.83  0. 1.0000  3549.      0.00 
   4 -11   2  12753.60  359.95  0. 1.0000  3550.      0.00 
   4 -11   3  29414.30  609.64  0. 1.0000  3551.      0.00 
   4 -11   4  14265.80  430.59  0. 1.0000  3552.      0.00 
   4 -11   5  52728.60  818.54  0. 1.0000  3553.      0.00 
   4 -11   5  51059.50  768.19  0. 1.0000  3554.      0.00 
   4 -11   6   4857.66  218.86  0. 1.0000  3555.      0.00 
   4 -11   6   4737.44  234.25  0. 1.0000  3556.      0.00 
   4 -11   6   4911.69  256.38  0. 1.0000  3557.      0.00 
   4 -11   7  20510.70  428.23  0. 1.0000  3558.      0.00 
   4 -11   7  20457.80  453.94  0. 1.0000  3559.      0.00 
   4 -10   0  41808.80  746.55  0. 1.0000  3560.      0.00 
   4 -10   0  42423.00  679.32  0. 1.0000  3561.      0.00 
   4 -10   1    930.73  135.34  0. 1.0000  3562.      0.00 
  -4  10  -1    864.35  111.32  0. 1.0000  3563.      0.00 
   4 -10   1   1161.63  148.03  0. 1.0000  3564.      0.00 
   4 -10   2  68436.21 1120.94  0. 1.0000  3565.      0.00 
   4 -10   2  69540.90 1161.65  0. 1.0000  3566.      0.00 
   4 -10   3  23064.30  665.53  0. 1.0000  3567.      0.00 
   4 -10   3  22013.80  635.63  0. 1.0000  3568.      0.00 
   4 -10   3  23816.50  702.86  0. 1.0000  3569.      0.00 
   4 -10   4  58986.80  967.03  0. 1.0000  3570.      0.00 
   4 -10   4  58193.50 1065.54  0. 1.0000  3571.      0.00 
   4 -10   4  56285.70 1064.92  0. 1.0000  3572.      0.00 
   4 -10   5  22444.10  618.48  0. 1.0000  3573.      0.00 
   4 -10   5  22478.50  648.27  0. 1.0000  3574.      0.00 
   4 -10   5  22164.40  626.48  0. 1.0000  3575.      0.00 
   4 -10   6  21903.80  602.15  0. 1.0000  3576.      0.00 
   4 -10   6  23304.00  626.38  0. 1.0000  3577.      0.00 
   4 -10   6  23239.30  687.45  0. 1.0000  3578.      0.00 
   4 -10   7  32538.70  628.16  0. 1.0000  3579.      0.00 
   4 -10   7  34829.10  727.04  0. 1.0000  3580.      0.00 
   4 -10   7  34166.00  759.94  0. 1.0000  3581.      0.00 
   4 -10   8    229.97   70.82  0. 1.0000  3582.      0.00 
   4 -10   8    204.97   66.66  0. 1.0000  3583.      0.00 
   4  -9  -2  22929.40  520.79  0. 1.0000  3584.      0.00 
   4  -9  -2  23040.50  479.07  0. 1.0000  3585.      0.00 
  -4   9   1  30753.80  701.84  0. 1.0000  3586.      0.00 
   4  -9  -1  30556.80  746.35  0. 1.0000  3587.      0.00 
   4  -9  -1  31205.70  677.22  0. 1.0000  3588.      0.00 
   4  -9  -1  30662.40  674.90  0. 1.0000  3589.      0.00 
   4  -9   0   9577.80  471.44  0. 1.0000  3590.      0.00 
  -4   9   0   8848.83  407.56  0. 1.0000  3591.      0.00 
   4  -9   0   9240.14  443.89  0. 1.0000  3592.      0.00 
   4  -9   0   9408.33  411.89  0. 1.0000  3593.      0.00 
   4  -9   1   8733.26  470.02  0. 1.0000  3594.      0.00 
  -4   9  -1   8907.66  418.64  0. 1.0000  3595.      0.00 
   4  -9   1   8324.52  406.27  0. 1.0000  3596.      0.00 
   4  -9   1   8098.89  454.71  0. 1.0000  3597.      0.00 
   4  -9   2  38406.50  956.41  0. 1.0000  3598.      0.00 
   4  -9   2  38273.50  980.73  0. 1.0000  3599.      0.00 
   4  -9   2  39520.40 1016.26  0. 1.0000  3600.      0.00 
   4  -9   3   1802.24  222.71  0. 1.0000  3601.      0.00 
   4  -9   3   1780.58  201.71  0. 1.0000  3602.      0.00 
   4  -9   3   1809.21  217.12  0. 1.0000  3603.      0.00 
   4  -9   3   1936.79  234.91  0. 1.0000  3604.      0.00 
   4  -9   4  43093.90 1009.63  0. 1.0000  3605.      0.00 
   4  -9   4  42675.50  978.82  0. 1.0000  3606.      0.00 
   4  -9   4  43547.00 1027.02  0. 1.0000  3607.      0.00 
   4  -9   5   5989.98  372.85  0. 1.0000  3608.      0.00 
   4  -9   5   5728.63  362.25  0. 1.0000  3609.      0.00 
   4  -9   6  27074.70  722.51  0. 1.0000  3610.      0.00 
   4  -9   6  28810.90  786.84  0. 1.0000  3611.      0.00 
   4  -9   7   6879.70  371.16  0. 1.0000  3612.      0.00 
   4  -9   7   7178.70  400.86  0. 1.0000  3613.      0.00 
   4  -9   8  71830.40 1107.18  0. 1.0000  3614.      0.00 
   4  -9   8  71777.99 1058.35  0. 1.0000  3615.      0.00 
   4  -9   8  72603.90 1004.88  0. 1.0000  3616.      0.00 
   4  -9   9  31687.40  562.84  0. 1.0000  3617.      0.00 
   4  -9   9  31886.20  585.54  0. 1.0000  3618.      0.00 
   4  -9   9  33573.20  570.17  0. 1.0000  3619.      0.00 
   4  -8  -3  40600.00  751.56  0. 1.0000  3620.      0.00 
   4  -8  -3  41214.30  765.26  0. 1.0000  3621.      0.00 
   4  -8  -2     90.11   80.27  0. 1.0000  3622.      0.00 
  -4   8   2     47.18   76.58  0. 1.0000  3623.      0.00 
   4  -8  -2     89.70   75.20  0. 1.0000  3624.      0.00 
   4  -8  -1  94208.91 1587.87  0. 1.0000  3625.      0.00 
  -4   8   1  95627.39 1511.16  0. 1.0000  3626.      0.00 
   4  -8  -1  94085.90 1468.49  0. 1.0000  3627.      0.00 
   4  -8  -1  94793.41 1522.98  0. 1.0000  3628.      0.00 
   4  -8   0  73708.91 1455.19  0. 1.0000  3629.      0.00 
  -4   8   0  73630.89 1338.29  0. 1.0000  3630.      0.00 
   4  -8   0  72879.70 1337.14  0. 1.0000  3631.      0.00 
   4  -8   0  72790.60 1439.45  0. 1.0000  3632.      0.00 
   4  -8   1  85004.80 1513.99  0. 1.0000  3633.      0.00 
   4  -8   1  84968.41 1565.64  0. 1.0000  3634.      0.00 
  -4   8  -1  85828.01 1405.11  0. 1.0000  3635.      0.00 
   4  -8   1  84638.70 1438.54  0. 1.0000  3636.      0.00 
   4  -8   1  85120.89 1584.38  0. 1.0000  3637.      0.00 
   4  -8   2  27320.20  799.98  0. 1.0000  3638.      0.00 
   4  -8   2  26067.90  844.91  0. 1.0000  3639.      0.00 
   4  -8   2  27059.80  870.56  0. 1.0000  3640.      0.00 
   4  -8   2  26167.00  790.90  0. 1.0000  3641.      0.00 
   4  -8   2  25415.40  866.64  0. 1.0000  3642.      0.00 
   4  -8   3  98476.79 1616.89  0. 1.0000  3643.      0.00 
   4  -8   3 100190.00 1596.10  0. 1.0000  3644.      0.00 
   4  -8   3  97966.99 1555.04  0. 1.0000  3645.      0.00 
   4  -8   3 100018.00 1502.70  0. 1.0000  3646.      0.00 
   4  -8   3  96566.49 1627.25  0. 1.0000  3647.      0.00 
   4  -8   4   9839.33  502.04  0. 1.0000  3648.      0.00 
   4  -8   4  10618.40  519.02  0. 1.0000  3649.      0.00 
   4  -8   4  10161.20  502.76  0. 1.0000  3650.      0.00 
   4  -8   5    227.14  100.18  0. 1.0000  3651.      0.00 
   4  -8   5    217.82  110.83  0. 1.0000  3652.      0.00 
   4  -8   6  46097.60 1132.82  0. 1.0000  3653.      0.00 
   4  -8   6  46007.00  992.93  0. 1.0000  3654.      0.00 
   4  -8   6  45849.80 1053.52  0. 1.0000  3655.      0.00 
   4  -8   7   2455.87  240.65  0. 1.0000  3656.      0.00 
   4  -8   7   2756.13  270.68  0. 1.0000  3657.      0.00 
   4  -8   8  30373.20  725.32  0. 1.0000  3658.      0.00 
   4  -8   8  30994.20  795.24  0. 1.0000  3659.      0.00 
   4  -8   8  31377.40  756.82  0. 1.0000  3660.      0.00 
   4  -8   9   6689.50  269.71  0. 1.0000  3661.      0.00 
   4  -8   9   7010.01  314.98  0. 1.0000  3662.      0.00 
   4  -8   9   7066.05  314.40  0. 1.0000  3663.      0.00 
   4  -7  -5  15768.40  383.29  0. 1.0000  3664.      0.00 
  -4   7   4  12854.20  410.19  0. 1.0000  3665.      0.00 
  -4   7   3  35246.60  773.18  0. 1.0000  3666.      0.00 
  -4   7   3  36635.90  952.67  0. 1.0000  3667.      0.00 
   4  -7  -3  35254.20  915.61  0. 1.0000  3668.      0.00 
   4  -7  -2    663.70  148.09  0. 1.0000  3669.      0.00 
   4  -7  -2    663.85  155.71  0. 1.0000  3670.      0.00 
   4  -7  -1  59862.50 1352.82  0. 1.0000  3671.      0.00 
  -4   7   1  60442.70 1306.76  0. 1.0000  3672.      0.00 
   4  -7  -1  59808.20 1340.55  0. 1.0000  3673.      0.00 
   4  -7   0   1619.60  226.16  0. 1.0000  3674.      0.00 
   4  -7   0   1640.87  221.12  0. 1.0000  3675.      0.00 
   4  -7   0   1830.98  246.05  0. 1.0000  3676.      0.00 
  -4   7   0   1388.19  200.11  0. 1.0000  3677.      0.00 
   4  -7   0   1629.81  237.32  0. 1.0000  3678.      0.00 
   4  -7   1  84542.50 1539.49  0. 1.0000  3679.      0.00 
   4  -7   1  88550.40 1466.38  0. 1.0000  3680.      0.00 
   4  -7   1  85375.80 1564.12  0. 1.0000  3681.      0.00 
  -4   7  -1  87609.10 1412.54  0. 1.0000  3682.      0.00 
   4  -7   1  86806.30 1469.06  0. 1.0000  3683.      0.00 
   4  -7   1  85029.41 1581.24  0. 1.0000  3684.      0.00 
   4  -7   2   2638.80  264.58  0. 1.0000  3685.      0.00 
   4  -7   2   3084.99  294.89  0. 1.0000  3686.      0.00 
   4  -7   2   2604.99  269.29  0. 1.0000  3687.      0.00 
   4  -7   2   2521.54  251.94  0. 1.0000  3688.      0.00 
   4  -7   2   2789.63  288.00  0. 1.0000  3689.      0.00 
   4  -7   3  50154.20 1128.13  0. 1.0000  3690.      0.00 
   4  -7   3  53062.70 1133.76  0. 1.0000  3691.      0.00 
   4  -7   3  51376.70 1138.81  0. 1.0000  3692.      0.00 
   4  -7   3  51971.20 1149.75  0. 1.0000  3693.      0.00 
   4  -7   3  51562.61 1087.29  0. 1.0000  3694.      0.00 
   4  -7   4  84269.30 1426.16  0. 1.0000  3695.      0.00 
   4  -7   4  86553.29 1492.36  0. 1.0000  3696.      0.00 
   4  -7   4  86100.70 1387.60  0. 1.0000  3697.      0.00 
   4  -7   5 109898.00 1678.90  0. 1.0000  3698.      0.00 
   4  -7   6  52843.30 1143.69  0. 1.0000  3699.      0.00 
   4  -7   6  54037.40 1238.07  0. 1.0000  3700.      0.00 
   4  -7   6  53935.40 1132.30  0. 1.0000  3701.      0.00 
   4  -7   6  55128.00 1147.18  0. 1.0000  3702.      0.00 
   4  -7   7   9440.51  461.10  0. 1.0000  3703.      0.00 
   4  -7   7  10008.00  520.58  0. 1.0000  3704.      0.00 
   4  -7   7   9725.06  471.22  0. 1.0000  3705.      0.00 
   4  -7   7  10037.40  492.60  0. 1.0000  3706.      0.00 
   4  -7   8  14917.70  521.83  0. 1.0000  3707.      0.00 
   4  -7   8  15328.70  516.45  0. 1.0000  3708.      0.00 
   4  -7   8  15922.60  595.88  0. 1.0000  3709.      0.00 
   4  -7   8  15412.40  574.21  0. 1.0000  3710.      0.00 
   4  -7   9   5464.10  295.41  0. 1.0000  3711.      0.00 
   4  -7   9   5493.92  299.52  0. 1.0000  3712.      0.00 
  -4   6   6  46049.00  631.14  0. 1.0000  3713.      0.00 
   4  -6  -6  44161.60  646.05  0. 1.0000  3714.      0.00 
  -4   6   5   2453.18  203.82  0. 1.0000  3715.      0.00 
  -4   6   4  60741.60 1124.15  0. 1.0000  3716.      0.00 
  -4   6   3  20310.30  679.56  0. 1.0000  3717.      0.00 
   4  -6  -3  20828.10  782.68  0. 1.0000  3718.      0.00 
  -4   6   3  21967.00  832.09  0. 1.0000  3719.      0.00 
   4  -6  -2  69943.99 1469.34  0. 1.0000  3720.      0.00 
  -4   6   2  69474.01 1468.71  0. 1.0000  3721.      0.00 
   4  -6  -2  66846.50 1414.29  0. 1.0000  3722.      0.00 
   4  -6  -1  52854.40 1248.50  0. 1.0000  3723.      0.00 
  -4   6   1  52410.30 1205.79  0. 1.0000  3724.      0.00 
   4  -6  -1  51159.10 1245.22  0. 1.0000  3725.      0.00 
   4  -6   0  43899.00 1094.67  0. 1.0000  3726.      0.00 
   4  -6   1 105087.01 1698.70  0. 1.0000  3727.      0.00 
   4  -6   2   4137.29  346.98  0. 1.0000  3728.      0.00 
   4  -6   3 213780.00 2454.60  0. 1.0000  3729.      0.00 
   4  -6   4   1410.98  199.13  0. 1.0000  3730.      0.00 
   4  -6   4   1517.62  201.38  0. 1.0000  3731.      0.00 
   4  -6   5 103555.00 1596.20  0. 1.0000  3732.      0.00 
   4  -6   5 108886.00 1730.10  0. 1.0000  3733.      0.00 
   4  -6   5 107243.00 1562.60  0. 1.0000  3734.      0.00 
   4  -6   6   7590.48  429.25  0. 1.0000  3735.      0.00 
   4  -6   6   8516.73  493.24  0. 1.0000  3736.      0.00 
   4  -6   6   8493.37  451.03  0. 1.0000  3737.      0.00 
   4  -6   6   8440.41  463.05  0. 1.0000  3738.      0.00 
   4  -6   7  12940.40  515.75  0. 1.0000  3739.      0.00 
   4  -6   7  12897.60  561.72  0. 1.0000  3740.      0.00 
   4  -6   7  13247.50  599.55  0. 1.0000  3741.      0.00 
   4  -6   7  12924.30  579.16  0. 1.0000  3742.      0.00 
   4  -6   8  47046.90 1037.23  0. 1.0000  3743.      0.00 
   4  -6   8  47908.00 1044.97  0. 1.0000  3744.      0.00 
   4  -6   9  10582.40  412.73  0. 1.0000  3745.      0.00 
   4  -6   9  10154.80  371.80  0. 1.0000  3746.      0.00 
   4  -6   9  10945.80  432.71  0. 1.0000  3747.      0.00 
  -4   5   7   4015.98  189.60  0. 1.0000  3748.      0.00 
  -4   5   6  26233.90  683.07  0. 1.0000  3749.      0.00 
  -4   5   6  25997.60  579.55  0. 1.0000  3750.      0.00 
  -4   5   5  19761.70  687.44  0. 1.0000  3751.      0.00 
  -4   5   5  19351.10  590.26  0. 1.0000  3752.      0.00 
  -4   5   4  53486.40 1333.83  0. 1.0000  3753.      0.00 
  -4   5   4  55999.90 1203.99  0. 1.0000  3754.      0.00 
  -4   5   3    194.64   99.79  0. 1.0000  3755.      0.00 
   4  -5  -3     78.87  103.04  0. 1.0000  3756.      0.00 
  -4   5   2  76682.70 1494.39  0. 1.0000  3757.      0.00 
   4  -5  -2  77679.91 1449.01  0. 1.0000  3758.      0.00 
   4  -5  -1  29604.80  799.49  0. 1.0000  3759.      0.00 
   4  -5   0 172809.02 1998.80  0. 1.0000  3760.      0.00 
   4  -5   1 237939.00 2351.00  0. 1.0000  3761.      0.00 
   4  -5   2  57581.89 1165.99  0. 1.0000  3762.      0.00 
   4  -5   3  86251.09 1484.81  0. 1.0000  3763.      0.00 
   4  -5   3  90040.71 1333.18  0. 1.0000  3764.      0.00 
   4  -5   4   1416.24  206.18  0. 1.0000  3765.      0.00 
   4  -5   4   1205.88  175.36  0. 1.0000  3766.      0.00 
   4  -5   5  73524.29 1289.79  0. 1.0000  3767.      0.00 
   4  -5   5  75483.79 1408.62  0. 1.0000  3768.      0.00 
   4  -5   5  73219.09 1304.17  0. 1.0000  3769.      0.00 
   4  -5   5  76815.60 1343.28  0. 1.0000  3770.      0.00 
   4  -5   6   5973.01  378.20  0. 1.0000  3771.      0.00 
   4  -5   6   6788.22  413.86  0. 1.0000  3772.      0.00 
   4  -5   6   5947.65  395.58  0. 1.0000  3773.      0.00 
   4  -5   6   5634.30  391.78  0. 1.0000  3774.      0.00 
   4  -5   6   5851.67  410.81  0. 1.0000  3775.      0.00 
   4  -5   7 116999.99 1689.80  0. 1.0000  3776.      0.00 
   4  -5   7 114810.99 1757.80  0. 1.0000  3777.      0.00 
   4  -5   7 111995.99 1629.00  0. 1.0000  3778.      0.00 
   4  -5   7 114404.99 1744.90  0. 1.0000  3779.      0.00 
   4  -5   8    146.52   96.04  0. 1.0000  3780.      0.00 
   4  -5   8    133.37   85.84  0. 1.0000  3781.      0.00 
   4  -5   8     84.89   97.55  0. 1.0000  3782.      0.00 
   4  -5   9  40747.80  739.96  0. 1.0000  3783.      0.00 
   4  -5   9  43380.40  811.64  0. 1.0000  3784.      0.00 
   4  -5   9  42468.30  762.68  0. 1.0000  3785.      0.00 
  -4   4   7  57842.70 1002.29  0. 1.0000  3786.      0.00 
  -4   4   7  57956.50  919.33  0. 1.0000  3787.      0.00 
  -4   4   6  51227.50 1145.34  0. 1.0000  3788.      0.00 
  -4   4   6  50082.11 1028.31  0. 1.0000  3789.      0.00 
  -4   4   5  74240.20 1454.16  0. 1.0000  3790.      0.00 
  -4   4   5  76423.11 1340.05  0. 1.0000  3791.      0.00 
  -4   4   4 130131.01 1876.50  0. 1.0000  3792.      0.00 
  -4   4   4 131106.00 1706.60  0. 1.0000  3793.      0.00 
  -4   4   4 132361.00 2100.30  0. 1.0000  3794.      0.00 
   4  -4  -3  25896.70  859.86  0. 1.0000  3795.      0.00 
   4  -4  -2 179408.98 2024.60  0. 1.0000  3796.      0.00 
   4  -4  -1   9719.72  431.80  0. 1.0000  3797.      0.00 
   4  -4  -1   8074.24  384.65  0. 1.0000  3798.      0.00 
   4  -4   0   8269.20  400.48  0. 1.0000  3799.      0.00 
   4  -4   0   8260.74  340.44  0. 1.0000  3800.      0.00 
   4  -4   1   1751.89  194.57  0. 1.0000  3801.      0.00 
   4  -4   2 128396.99 1644.20  0. 1.0000  3802.      0.00 
   4  -4   2 127917.01 1400.50  0. 1.0000  3803.      0.00 
   4  -4   3  67684.90 1080.27  0. 1.0000  3804.      0.00 
   4  -4   3  65257.70 1234.68  0. 1.0000  3805.      0.00 
   4  -4   3  63525.30 1104.38  0. 1.0000  3806.      0.00 
   4  -4   4  17274.20  668.70  0. 1.0000  3807.      0.00 
   4  -4   4  16843.70  626.51  0. 1.0000  3808.      0.00 
   4  -4   5  33986.60  938.80  0. 1.0000  3809.      0.00 
   4  -4   5  34967.39  911.48  0. 1.0000  3810.      0.00 
   4  -4   5  32344.50  870.96  0. 1.0000  3811.      0.00 
   4  -4   5  32100.20  867.11  0. 1.0000  3812.      0.00 
   4  -4   5  32970.40  898.53  0. 1.0000  3813.      0.00 
   4  -4   6  10588.30  546.26  0. 1.0000  3814.      0.00 
   4  -4   6  10795.90  531.83  0. 1.0000  3815.      0.00 
   4  -4   6  11030.20  531.72  0. 1.0000  3816.      0.00 
   4  -4   6  10320.20  535.37  0. 1.0000  3817.      0.00 
   4  -4   7  22230.40  776.20  0. 1.0000  3818.      0.00 
   4  -4   7  20755.50  720.39  0. 1.0000  3819.      0.00 
   4  -4   7  21659.70  730.98  0. 1.0000  3820.      0.00 
   4  -4   7  20572.90  750.56  0. 1.0000  3821.      0.00 
   4  -4   7  20505.40  680.20  0. 1.0000  3822.      0.00 
   4  -4   8     60.19   83.45  0. 1.0000  3823.      0.00 
   4  -4   8     95.65   80.65  0. 1.0000  3824.      0.00 
   4  -4   8    154.93   88.52  0. 1.0000  3825.      0.00 
   4  -4   8    261.31   92.31  0. 1.0000  3826.      0.00 
   4  -4   9  26212.80  591.17  0. 1.0000  3827.      0.00 
   4  -4   9  25106.60  568.39  0. 1.0000  3828.      0.00 
   4  -4   9  26028.70  567.40  0. 1.0000  3829.      0.00 
   4  -4   9  24398.60  505.67  0. 1.0000  3830.      0.00 
  -4   3   8  21826.30  562.45  0. 1.0000  3831.      0.00 
  -4   3   8  23619.80  581.79  0. 1.0000  3832.      0.00 
  -4   3   8  22755.20  492.32  0. 1.0000  3833.      0.00 
  -4   3   7  29919.30  855.12  0. 1.0000  3834.      0.00 
  -4   3   7  31265.00  843.00  0. 1.0000  3835.      0.00 
  -4   3   6  13284.70  631.46  0. 1.0000  3836.      0.00 
  -4   3   6  13786.20  609.36  0. 1.0000  3837.      0.00 
  -4   3   5  11862.60  587.44  0. 1.0000  3838.      0.00 
  -4   3   5  11508.00  543.57  0. 1.0000  3839.      0.00 
   4  -3  -4  63968.10 1375.01  0. 1.0000  3840.      0.00 
   4  -3  -3 107844.99 1603.80  0. 1.0000  3841.      0.00 
   4  -3  -2 140382.02 1630.20  0. 1.0000  3842.      0.00 
   4  -3  -1  89112.51 1158.97  0. 1.0000  3843.      0.00 
   4  -3  -1  83989.91 1131.63  0. 1.0000  3844.      0.00 
   4  -3   0 325264.00 1962.10  0. 1.0000  3845.      0.00 
   4  -3   0 306918.03 2251.40  0. 1.0000  3846.      0.00 
   4  -3   1  19392.60  536.12  0. 1.0000  3847.      0.00 
   4  -3   1  20612.30  602.18  0. 1.0000  3848.      0.00 
   4  -3   2 127942.99 1335.30  0. 1.0000  3849.      0.00 
   4  -3   2 126203.99 1415.70  0. 1.0000  3850.      0.00 
   4  -3   3   6065.74  335.16  0. 1.0000  3851.      0.00 
   4  -3   3   5916.23  365.67  0. 1.0000  3852.      0.00 
   4  -3   4 153532.00 1808.30  0. 1.0000  3853.      0.00 
   4  -3   5  56106.20 1141.66  0. 1.0000  3854.      0.00 
   4  -3   5  53548.89 1182.87  0. 1.0000  3855.      0.00 
   4  -3   5  56214.20 1187.02  0. 1.0000  3856.      0.00 
   4  -3   5  53076.00 1133.65  0. 1.0000  3857.      0.00 
   4  -3   5  51854.80 1124.36  0. 1.0000  3858.      0.00 
   4  -3   5  52107.20 1164.80  0. 1.0000  3859.      0.00 
   4  -3   6  45730.70 1052.26  0. 1.0000  3860.      0.00 
   4  -3   6  48062.80 1156.40  0. 1.0000  3861.      0.00 
   4  -3   6  46588.70 1114.24  0. 1.0000  3862.      0.00 
   4  -3   6  48721.30 1109.15  0. 1.0000  3863.      0.00 
   4  -3   6  45217.60 1128.39  0. 1.0000  3864.      0.00 
   4  -3   6  45333.30 1072.88  0. 1.0000  3865.      0.00 
   4  -3   7  17351.90  674.68  0. 1.0000  3866.      0.00 
   4  -3   7  17506.20  660.65  0. 1.0000  3867.      0.00 
   4  -3   7  17079.30  637.53  0. 1.0000  3868.      0.00 
   4  -3   7  16347.50  628.29  0. 1.0000  3869.      0.00 
   4  -3   8  10500.30  445.76  0. 1.0000  3870.      0.00 
   4  -3   8  10899.10  461.12  0. 1.0000  3871.      0.00 
   4  -3   8  10598.40  441.24  0. 1.0000  3872.      0.00 
   4  -3   8  10377.30  436.63  0. 1.0000  3873.      0.00 
   4  -3   9  15647.30  397.14  0. 1.0000  3874.      0.00 
   4  -3   9  15639.00  390.62  0. 1.0000  3875.      0.00 
  -4   2   9  22251.40  513.76  0. 1.0000  3876.      0.00 
  -4   2   9  23550.30  436.21  0. 1.0000  3877.      0.00 
  -4   2   8   5925.30  366.78  0. 1.0000  3878.      0.00 
  -4   2   8   5218.49  332.55  0. 1.0000  3879.      0.00 
  -4   2   8   5846.63  318.47  0. 1.0000  3880.      0.00 
  -4   2   7  49173.70 1178.82  0. 1.0000  3881.      0.00 
  -4   2   7  50560.00 1191.70  0. 1.0000  3882.      0.00 
  -4   2   6   3182.49  319.22  0. 1.0000  3883.      0.00 
  -4   2   6   3337.36  313.91  0. 1.0000  3884.      0.00 
  -4   2   5 164515.00 2067.50  0. 1.0000  3885.      0.00 
  -4   2   5 157338.00 1966.00  0. 1.0000  3886.      0.00 
   4  -2  -4   1071.61  172.56  0. 1.0000  3887.      0.00 
   4  -2  -3  73315.30 1204.07  0. 1.0000  3888.      0.00 
   4  -2  -2  23214.70  613.30  0. 1.0000  3889.      0.00 
   4  -2  -1 256693.02 1819.40  0. 1.0000  3890.      0.00 
   4  -2  -1 246653.00 1820.90  0. 1.0000  3891.      0.00 
   4  -2   0  54864.30  900.17  0. 1.0000  3892.      0.00 
   4  -2   0  52120.80  770.68  0. 1.0000  3893.      0.00 
   4  -2   1    620.27  107.57  0. 1.0000  3894.      0.00 
   4  -2   1    603.46   85.57  0. 1.0000  3895.      0.00 
   4  -2   1    520.31  104.50  0. 1.0000  3896.      0.00 
   4  -2   2   1285.18  154.72  0. 1.0000  3897.      0.00 
   4  -2   2   1147.58  141.09  0. 1.0000  3898.      0.00 
   4  -2   3  66166.29 1137.89  0. 1.0000  3899.      0.00 
   4  -2   3  67970.30 1105.26  0. 1.0000  3900.      0.00 
   4  -2   4 131934.00 1740.80  0. 1.0000  3901.      0.00 
   4  -2   5   3115.18  283.03  0. 1.0000  3902.      0.00 
   4  -2   5   3138.29  300.13  0. 1.0000  3903.      0.00 
   4  -2   5   3513.16  306.59  0. 1.0000  3904.      0.00 
   4  -2   5   2909.92  278.49  0. 1.0000  3905.      0.00 
   4  -2   5   3037.30  301.16  0. 1.0000  3906.      0.00 
   4  -2   5   3108.96  291.05  0. 1.0000  3907.      0.00 
   4  -2   6  37493.00 1012.92  0. 1.0000  3908.      0.00 
   4  -2   6  37457.70  980.61  0. 1.0000  3909.      0.00 
   4  -2   6  36496.90  951.67  0. 1.0000  3910.      0.00 
   4  -2   6  35874.10  985.11  0. 1.0000  3911.      0.00 
   4  -2   7  26909.70  800.65  0. 1.0000  3912.      0.00 
   4  -2   7  26052.80  762.66  0. 1.0000  3913.      0.00 
   4  -2   7  26890.40  759.22  0. 1.0000  3914.      0.00 
   4  -2   7  26463.20  784.33  0. 1.0000  3915.      0.00 
   4  -2   8  12810.60  438.61  0. 1.0000  3916.      0.00 
   4  -2   8  13573.50  446.64  0. 1.0000  3917.      0.00 
   4  -2   8  12205.80  438.83  0. 1.0000  3918.      0.00 
  -4   1   9   9592.18  359.02  0. 1.0000  3919.      0.00 
  -4   1   9   9867.83  427.47  0. 1.0000  3920.      0.00 
  -4   1   9  10182.70  380.65  0. 1.0000  3921.      0.00 
  -4   1   8  32284.60  869.69  0. 1.0000  3922.      0.00 
  -4   1   8  32241.40  929.97  0. 1.0000  3923.      0.00 
  -4   1   8  31434.30  818.34  0. 1.0000  3924.      0.00 
  -4   1   8  32944.30  874.68  0. 1.0000  3925.      0.00 
  -4   1   7  36956.70 1016.38  0. 1.0000  3926.      0.00 
  -4   1   7  37207.70  973.67  0. 1.0000  3927.      0.00 
  -4   1   7  37714.70 1047.61  0. 1.0000  3928.      0.00 
  -4   1   6  84997.20 1508.59  0. 1.0000  3929.      0.00 
  -4   1   6  83034.80 1495.56  0. 1.0000  3930.      0.00 
   4  -1  -5  46345.70 1084.40  0. 1.0000  3931.      0.00 
   4  -1  -4   8946.91  432.87  0. 1.0000  3932.      0.00 
   4  -1  -3  93548.70 1269.05  0. 1.0000  3933.      0.00 
   4  -1  -2   2602.28  199.57  0. 1.0000  3934.      0.00 
   4  -1  -1 104664.00 1132.40  0. 1.0000  3935.      0.00 
   4  -1  -1 108510.01 1177.30  0. 1.0000  3936.      0.00 
   4  -1   0  33103.40  688.82  0. 1.0000  3937.      0.00 
   4  -1   0  34013.10  696.19  0. 1.0000  3938.      0.00 
   4  -1   0  35671.61  726.48  0. 1.0000  3939.      0.00 
   4  -1   0  33869.20  634.03  0. 1.0000  3940.      0.00 
   4  -1   1 995451.00 3628.60  0. 1.0000  3941.      0.00 
   4  -1   1 999999.00 3949.00  0. 1.0000  3942.      0.00 
   4  -1   1 994584.00 3914.60  0. 1.0000  3943.      0.00 
   4  -1   2 517783.03 3030.30  0. 1.0000  3944.      0.00 
   4  -1   2 522690.00 3003.90  0. 1.0000  3945.      0.00 
   4  -1   3  96617.71 1420.28  0. 1.0000  3946.      0.00 
   4  -1   3  96375.89 1397.60  0. 1.0000  3947.      0.00 
   4  -1   4   6945.36  403.60  0. 1.0000  3948.      0.00 
   4  -1   4   7475.93  432.97  0. 1.0000  3949.      0.00 
   4  -1   4   7236.62  419.39  0. 1.0000  3950.      0.00 
   4  -1   4   6762.93  392.58  0. 1.0000  3951.      0.00 
   4  -1   4   7402.76  439.35  0. 1.0000  3952.      0.00 
   4  -1   5    490.94  132.38  0. 1.0000  3953.      0.00 
   4  -1   5    383.04  130.29  0. 1.0000  3954.      0.00 
   4  -1   5    676.66  149.14  0. 1.0000  3955.      0.00 
   4  -1   5    452.62  125.27  0. 1.0000  3956.      0.00 
   4  -1   5    489.63  142.22  0. 1.0000  3957.      0.00 
   4  -1   6  43379.50  993.89  0. 1.0000  3958.      0.00 
   4  -1   6  45924.80 1086.36  0. 1.0000  3959.      0.00 
   4  -1   6  45578.00 1034.50  0. 1.0000  3960.      0.00 
   4  -1   6  45318.50 1025.80  0. 1.0000  3961.      0.00 
   4  -1   6  43689.50 1067.49  0. 1.0000  3962.      0.00 
   4  -1   7   1041.45  140.88  0. 1.0000  3963.      0.00 
   4  -1   7   1002.20  145.87  0. 1.0000  3964.      0.00 
   4  -1   7   1249.15  164.01  0. 1.0000  3965.      0.00 
   4  -1   7   1052.18  160.49  0. 1.0000  3966.      0.00 
   4  -1   8  14484.80  367.34  0. 1.0000  3967.      0.00 
   4  -1   8  14297.20  398.75  0. 1.0000  3968.      0.00 
  -4   0  10  34451.40  637.98  0. 1.0000  3969.      0.00 
  -4   0  10  37302.10  610.43  0. 1.0000  3970.      0.00 
  -4   0   9   1828.38  211.68  0. 1.0000  3971.      0.00 
  -4   0   9   1436.96  174.79  0. 1.0000  3972.      0.00 
  -4   0   9   1580.04  190.34  0. 1.0000  3973.      0.00 
  -4   0   8  54239.60 1119.74  0. 1.0000  3974.      0.00 
  -4   0   8  54013.60 1224.96  0. 1.0000  3975.      0.00 
  -4   0   8  51700.00 1105.91  0. 1.0000  3976.      0.00 
  -4   0   8  56226.00 1192.14  0. 1.0000  3977.      0.00 
  -4   0   7    795.19  168.85  0. 1.0000  3978.      0.00 
  -4   0   7    802.63  156.53  0. 1.0000  3979.      0.00 
  -4   0   7    578.92  145.61  0. 1.0000  3980.      0.00 
  -4   0   7    511.30  121.76  0. 1.0000  3981.      0.00 
  -4   0   6  98186.70 1485.84  0. 1.0000  3982.      0.00 
  -4   0   6  97881.60 1544.43  0. 1.0000  3983.      0.00 
  -4   0   6  96060.10 1473.08  0. 1.0000  3984.      0.00 
  -4   0   6 100384.99 1514.20  0. 1.0000  3985.      0.00 
   4   0  -5  26908.10  768.82  0. 1.0000  3986.      0.00 
   4   0  -4 211989.98 1965.00  0. 1.0000  3987.      0.00 
   4   0  -3 151282.00 1557.00  0. 1.0000  3988.      0.00 
   4   0  -2  14468.70  456.66  0. 1.0000  3989.      0.00 
   4   0  -1 122237.00 1319.40  0. 1.0000  3990.      0.00 
   4   0  -1 122244.00 1289.10  0. 1.0000  3991.      0.00 
   4   0   0   4058.37  254.54  0. 1.0000  3992.      0.00 
   4   0   0   3640.17  238.51  0. 1.0000  3993.      0.00 
   4   0   1  18819.10  566.36  0. 1.0000  3994.      0.00 
   4   0   1  17945.60  544.24  0. 1.0000  3995.      0.00 
   4   0   1  17977.80  559.59  0. 1.0000  3996.      0.00 
   4   0   2   1011.27  143.60  0. 1.0000  3997.      0.00 
   4   0   2    916.51  147.45  0. 1.0000  3998.      0.00 
   4   0   3  21453.40  703.31  0. 1.0000  3999.      0.00 
   4   0   3  20326.70  683.92  0. 1.0000  4000.      0.00 
   4   0   4  62410.30 1213.09  0. 1.0000  4001.      0.00 
   4   0   4  66467.09 1213.71  0. 1.0000  4002.      0.00 
   4   0   4  63917.00 1270.96  0. 1.0000  4003.      0.00 
   4   0   4  63439.80 1213.57  0. 1.0000  4004.      0.00 
   4   0   4  63171.00 1197.03  0. 1.0000  4005.      0.00 
   4   0   4  67058.51 1352.07  0. 1.0000  4006.      0.00 
   4   0   5  57476.80 1215.47  0. 1.0000  4007.      0.00 
   4   0   5  60182.30 1256.20  0. 1.0000  4008.      0.00 
   4   0   5  58691.40 1148.24  0. 1.0000  4009.      0.00 
   4   0   5  58420.20 1161.42  0. 1.0000  4010.      0.00 
   4   0   5  59001.70 1259.76  0. 1.0000  4011.      0.00 
   4   0   6   9661.25  450.48  0. 1.0000  4012.      0.00 
   4   0   6   9950.32  434.88  0. 1.0000  4013.      0.00 
   4   0   6  10087.40  483.75  0. 1.0000  4014.      0.00 
   4   0   7  18411.90  479.66  0. 1.0000  4015.      0.00 
   4   0   7  18642.00  462.59  0. 1.0000  4016.      0.00 
   4   0   7  18813.60  527.61  0. 1.0000  4017.      0.00 
  -4  -1  10  20385.60  546.17  0. 1.0000  4018.      0.00 
  -4  -1  10  21508.20  552.42  0. 1.0000  4019.      0.00 
  -4  -1  10  20334.80  560.10  0. 1.0000  4020.      0.00 
  -4  -1   9  31354.00  850.62  0. 1.0000  4021.      0.00 
  -4  -1   9  30707.70  727.19  0. 1.0000  4022.      0.00 
  -4  -1   9  32102.10  815.21  0. 1.0000  4023.      0.00 
  -4  -1   9  32702.90  869.42  0. 1.0000  4024.      0.00 
  -4  -1   8 156040.00 1779.00  0. 1.0000  4025.      0.00 
  -4  -1   8 161945.02 2057.10  0. 1.0000  4026.      0.00 
  -4  -1   8 158483.00 1834.80  0. 1.0000  4027.      0.00 
  -4  -1   8 154243.00 1935.00  0. 1.0000  4028.      0.00 
  -4  -1   8 165798.00 2057.00  0. 1.0000  4029.      0.00 
  -4  -1   7    387.16  117.95  0. 1.0000  4030.      0.00 
  -4  -1   7    505.13  131.23  0. 1.0000  4031.      0.00 
  -4  -1   7    621.04  129.87  0. 1.0000  4032.      0.00 
  -4  -1   7    417.74  121.80  0. 1.0000  4033.      0.00 
  -4  -1   7    395.65  122.09  0. 1.0000  4034.      0.00 
   4   1  -6  95409.80 1464.80  0. 1.0000  4035.      0.00 
   4   1  -5   5357.89  330.67  0. 1.0000  4036.      0.00 
   4   1  -4 199538.02 1870.20  0. 1.0000  4037.      0.00 
   4   1  -3  53659.30  842.63  0. 1.0000  4038.      0.00 
   4   1  -3  54190.40  929.13  0. 1.0000  4039.      0.00 
   4   1  -2 219666.00 1773.60  0. 1.0000  4040.      0.00 
   4   1  -2 223295.02 1867.30  0. 1.0000  4041.      0.00 
   4   1  -2 221253.98 1862.90  0. 1.0000  4042.      0.00 
   4   1  -1 139472.00 1435.70  0. 1.0000  4043.      0.00 
   4   1  -1 141544.00 1501.60  0. 1.0000  4044.      0.00 
   4   1  -1 138579.98 1489.00  0. 1.0000  4045.      0.00 
   4   1   0  34440.80  776.88  0. 1.0000  4046.      0.00 
   4   1   0  34982.70  756.48  0. 1.0000  4047.      0.00 
   4   1   0  35593.40  790.73  0. 1.0000  4048.      0.00 
   4   1   1  47088.00  952.00  0. 1.0000  4049.      0.00 
   4   1   1  47012.80  931.84  0. 1.0000  4050.      0.00 
   4   1   1  48031.80  977.37  0. 1.0000  4051.      0.00 
   4   1   2  10322.30  461.24  0. 1.0000  4052.      0.00 
   4   1   2  10544.40  480.82  0. 1.0000  4053.      0.00 
   4   1   2  10172.60  481.85  0. 1.0000  4054.      0.00 
   4   1   3 196386.00 2090.00  0. 1.0000  4055.      0.00 
   4   1   3 205866.00 2165.00  0. 1.0000  4056.      0.00 
   4   1   3 195961.02 2140.70  0. 1.0000  4057.      0.00 
   4   1   3 203952.00 2076.90  0. 1.0000  4058.      0.00 
   4   1   4   2939.85  255.04  0. 1.0000  4059.      0.00 
   4   1   4   3639.88  285.55  0. 1.0000  4060.      0.00 
   4   1   4   2945.91  292.04  0. 1.0000  4061.      0.00 
   4   1   5  32616.90  879.60  0. 1.0000  4062.      0.00 
   4   1   5  33294.20  774.53  0. 1.0000  4063.      0.00 
   4   1   5  33212.80  798.56  0. 1.0000  4064.      0.00 
   4   1   5  32600.30  882.72  0. 1.0000  4065.      0.00 
   4   1   6    218.65   81.07  0. 1.0000  4066.      0.00 
   4   1   6    252.29   74.41  0. 1.0000  4067.      0.00 
   4   1   6    296.87   98.25  0. 1.0000  4068.      0.00 
  -4  -2  10   5457.94  289.91  0. 1.0000  4069.      0.00 
  -4  -2  10   5326.84  274.67  0. 1.0000  4070.      0.00 
  -4  -2  10   5570.41  304.93  0. 1.0000  4071.      0.00 
  -4  -2  10   5731.82  332.21  0. 1.0000  4072.      0.00 
  -4  -2   9  33004.70  783.48  0. 1.0000  4073.      0.00 
  -4  -2   9  33238.70  847.81  0. 1.0000  4074.      0.00 
  -4  -2   9  32406.00  805.11  0. 1.0000  4075.      0.00 
  -4  -2   9  32863.60  805.62  0. 1.0000  4076.      0.00 
  -4  -2   9  34377.10  859.41  0. 1.0000  4077.      0.00 
  -4  -2   9  34472.30  913.17  0. 1.0000  4078.      0.00 
  -4  -2   8   1980.54  223.69  0. 1.0000  4079.      0.00 
  -4  -2   8   2247.59  240.19  0. 1.0000  4080.      0.00 
  -4  -2   8   2119.08  232.56  0. 1.0000  4081.      0.00 
  -4  -2   8   1805.72  216.43  0. 1.0000  4082.      0.00 
  -4  -2   8   1901.52  230.64  0. 1.0000  4083.      0.00 
  -4  -2   7  25824.60  791.75  0. 1.0000  4084.      0.00 
  -4  -2   7  24504.60  752.66  0. 1.0000  4085.      0.00 
  -4  -2   7  25125.60  786.90  0. 1.0000  4086.      0.00 
  -4  -2   7  23685.80  723.43  0. 1.0000  4087.      0.00 
  -4  -2   7  25292.20  771.55  0. 1.0000  4088.      0.00 
   4   2  -6 123150.00 1658.50  0. 1.0000  4089.      0.00 
   4   2  -6 126634.01 1623.00  0. 1.0000  4090.      0.00 
   4   2  -5  14018.30  525.02  0. 1.0000  4091.      0.00 
   4   2  -5  14160.40  524.89  0. 1.0000  4092.      0.00 
   4   2  -4  77345.79 1145.38  0. 1.0000  4093.      0.00 
   4   2  -4  75665.20 1168.81  0. 1.0000  4094.      0.00 
   4   2  -3  10615.10  397.96  0. 1.0000  4095.      0.00 
   4   2  -3  11117.30  401.59  0. 1.0000  4096.      0.00 
   4   2  -3  10848.80  424.99  0. 1.0000  4097.      0.00 
   4   2  -3  11079.00  447.23  0. 1.0000  4098.      0.00 
   4   2  -2 105845.00 1242.10  0. 1.0000  4099.      0.00 
   4   2  -2 102424.01 1315.30  0. 1.0000  4100.      0.00 
   4   2  -1  11410.30  470.42  0. 1.0000  4101.      0.00 
   4   2  -1  11197.40  422.52  0. 1.0000  4102.      0.00 
   4   2  -1  11392.00  457.28  0. 1.0000  4103.      0.00 
   4   2   0  89490.39 1255.02  0. 1.0000  4104.      0.00 
   4   2   0  85387.70 1335.99  0. 1.0000  4105.      0.00 
   4   2   0  87686.71 1333.94  0. 1.0000  4106.      0.00 
   4   2   1  35627.40  853.56  0. 1.0000  4107.      0.00 
  -4  -2  -1  35346.30  969.27  0. 1.0000  4108.      0.00 
   4   2   2   7644.35  400.51  0. 1.0000  4109.      0.00 
   4   2   2   8030.60  435.99  0. 1.0000  4110.      0.00 
   4   2   2   8576.00  435.07  0. 1.0000  4111.      0.00 
   4   2   3   2567.26  252.76  0. 1.0000  4112.      0.00 
   4   2   3   1554.95  195.45  0. 1.0000  4113.      0.00 
   4   2   4  13061.30  555.81  0. 1.0000  4114.      0.00 
   4   2   4  12529.80  482.79  0. 1.0000  4115.      0.00 
   4   2   5  29308.00  733.99  0. 1.0000  4116.      0.00 
   4   2   5  29490.20  695.86  0. 1.0000  4117.      0.00 
   4   2   5  29046.50  716.21  0. 1.0000  4118.      0.00 
   4   2   6   1267.49  116.32  0. 1.0000  4119.      0.00 
   4   2   6   1849.96  134.46  0. 1.0000  4120.      0.00 
  -4  -3  11  38515.50  625.76  0. 1.0000  4121.      0.00 
  -4  -3  10   5188.49  297.43  0. 1.0000  4122.      0.00 
  -4  -3  10   5147.34  299.98  0. 1.0000  4123.      0.00 
  -4  -3   9  17227.20  611.26  0. 1.0000  4124.      0.00 
  -4  -3   9  18218.30  595.33  0. 1.0000  4125.      0.00 
  -4  -3   9  17712.10  622.60  0. 1.0000  4126.      0.00 
  -4  -3   9  16949.40  614.59  0. 1.0000  4127.      0.00 
  -4  -3   9  17023.10  594.15  0. 1.0000  4128.      0.00 
  -4  -3   9  17585.30  656.47  0. 1.0000  4129.      0.00 
  -4  -3   8  26549.00  804.25  0. 1.0000  4130.      0.00 
  -4  -3   8  26172.10  757.04  0. 1.0000  4131.      0.00 
  -4  -3   8  27987.20  842.46  0. 1.0000  4132.      0.00 
  -4  -3   8  26202.20  756.85  0. 1.0000  4133.      0.00 
  -4  -3   8  27430.90  837.12  0. 1.0000  4134.      0.00 
  -4  -3   7 178721.00 2081.00  0. 1.0000  4135.      0.00 
  -4  -3   7 173945.00 2104.20  0. 1.0000  4136.      0.00 
  -4  -3   7 175147.00 1933.80  0. 1.0000  4137.      0.00 
  -4  -3   7 172206.98 1861.30  0. 1.0000  4138.      0.00 
  -4  -3   6 131243.98 1742.90  0. 1.0000  4139.      0.00 
  -4  -3   6 130875.01 1639.50  0. 1.0000  4140.      0.00 
  -4  -3   6 128656.00 1746.70  0. 1.0000  4141.      0.00 
   4   3  -5  41359.40  937.63  0. 1.0000  4142.      0.00 
   4   3  -5  41134.50  922.21  0. 1.0000  4143.      0.00 
   4   3  -4 103005.99 1403.40  0. 1.0000  4144.      0.00 
   4   3  -4 100334.00 1431.30  0. 1.0000  4145.      0.00 
   4   3  -3  27291.80  686.10  0. 1.0000  4146.      0.00 
   4   3  -3  28321.30  702.63  0. 1.0000  4147.      0.00 
   4   3  -2 119367.00 1602.70  0. 1.0000  4148.      0.00 
   4   3  -2 120568.00 1495.90  0. 1.0000  4149.      0.00 
   4   3  -1  30261.80  834.92  0. 1.0000  4150.      0.00 
   4   3  -1  30952.00  801.31  0. 1.0000  4151.      0.00 
   4   3   0 105577.00 1516.90  0. 1.0000  4152.      0.00 
  -4  -3   0 101390.00 1610.30  0. 1.0000  4153.      0.00 
   4   3   0 101920.00 1479.60  0. 1.0000  4154.      0.00 
   4   3   1   4265.17  320.27  0. 1.0000  4155.      0.00 
   4   3   1   2203.95  232.92  0. 1.0000  4156.      0.00 
   4   3   2 120099.01 1650.10  0. 1.0000  4157.      0.00 
   4   3   2 124232.00 1662.30  0. 1.0000  4158.      0.00 
  -4  -3  -3   9415.59  450.57  0. 1.0000  4159.      0.00 
   4   3   3   9578.59  472.28  0. 1.0000  4160.      0.00 
   4   3   3   9348.79  436.57  0. 1.0000  4161.      0.00 
   4   3   4  23469.60  672.82  0. 1.0000  4162.      0.00 
   4   3   4  22515.60  621.62  0. 1.0000  4163.      0.00 
   4   3   5   7332.73  288.86  0. 1.0000  4164.      0.00 
   4   3   5   7288.84  272.91  0. 1.0000  4165.      0.00 
   4   3   5   7285.07  262.00  0. 1.0000  4166.      0.00 
  -4  -4  11  26619.20  528.07  0. 1.0000  4167.      0.00 
  -4  -4  11  27366.00  524.26  0. 1.0000  4168.      0.00 
  -4  -4  10   4189.93  278.71  0. 1.0000  4169.      0.00 
  -4  -4  10   4012.24  258.23  0. 1.0000  4170.      0.00 
  -4  -4   9 109865.00 1553.00  0. 1.0000  4171.      0.00 
  -4  -4   9 111018.00 1588.70  0. 1.0000  4172.      0.00 
  -4  -4   8  10990.10  522.83  0. 1.0000  4173.      0.00 
  -4  -4   8  10883.20  523.25  0. 1.0000  4174.      0.00 
  -4  -4   8  10638.40  455.96  0. 1.0000  4175.      0.00 
  -4  -4   7   3003.42  282.34  0. 1.0000  4176.      0.00 
  -4  -4   7   3108.39  287.02  0. 1.0000  4177.      0.00 
  -4  -4   6  81996.91 1375.03  0. 1.0000  4178.      0.00 
  -4  -4   6  82753.90 1369.71  0. 1.0000  4179.      0.00 
   4   4  -5  78577.39 1252.09  0. 1.0000  4180.      0.00 
  -4  -4   5  80478.99 1296.11  0. 1.0000  4181.      0.00 
   4   4  -4  58828.80 1136.49  0. 1.0000  4182.      0.00 
   4   4  -3  71524.59 1301.44  0. 1.0000  4183.      0.00 
   4   4  -2  54753.60 1104.37  0. 1.0000  4184.      0.00 
  -4  -4   2  57662.80 1237.79  0. 1.0000  4185.      0.00 
   4   4  -1  38134.70  936.77  0. 1.0000  4186.      0.00 
   4   4  -1  38046.90  898.66  0. 1.0000  4187.      0.00 
  -4  -4   1  38599.40 1037.38  0. 1.0000  4188.      0.00 
   4   4  -1  40393.10  929.27  0. 1.0000  4189.      0.00 
   4   4   0  94135.71 1449.30  0. 1.0000  4190.      0.00 
  -4  -4   0  96694.10 1666.17  0. 1.0000  4191.      0.00 
   4   4   0  96477.41 1489.85  0. 1.0000  4192.      0.00 
   4   4   1  17223.50  618.72  0. 1.0000  4193.      0.00 
  -4  -4  -1  17294.30  687.15  0. 1.0000  4194.      0.00 
   4   4   1  18037.50  639.21  0. 1.0000  4195.      0.00 
  -4  -4  -2  34552.70  878.23  0. 1.0000  4196.      0.00 
   4   4   2  33210.00  824.10  0. 1.0000  4197.      0.00 
   4   4   3   1803.66  174.30  0. 1.0000  4198.      0.00 
   4   4   3   1696.91  168.55  0. 1.0000  4199.      0.00 
   4   4   4  18445.30  455.30  0. 1.0000  4200.      0.00 
   4   4   4  18269.40  438.96  0. 1.0000  4201.      0.00 
  -4  -5  11   1535.80  136.66  0. 1.0000  4202.      0.00 
  -4  -5  10  71008.70 1098.53  0. 1.0000  4203.      0.00 
  -4  -5  10  69620.59  955.52  0. 1.0000  4204.      0.00 
  -4  -5   9  15248.70  552.91  0. 1.0000  4205.      0.00 
  -4  -5   9  15783.50  576.89  0. 1.0000  4206.      0.00 
  -4  -5   9  16081.50  601.81  0. 1.0000  4207.      0.00 
  -4  -5   9  15413.10  499.26  0. 1.0000  4208.      0.00 
  -4  -5   8  76718.30 1302.20  0. 1.0000  4209.      0.00 
  -4  -5   8  78335.89 1351.81  0. 1.0000  4210.      0.00 
  -4  -5   7 169150.00 2026.80  0. 1.0000  4211.      0.00 
  -4  -5   7 163945.00 1949.90  0. 1.0000  4212.      0.00 
  -4  -5   6    746.06  149.18  0. 1.0000  4213.      0.00 
  -4  -5   6   1045.16  167.37  0. 1.0000  4214.      0.00 
   4   5  -5 117729.01 1589.20  0. 1.0000  4215.      0.00 
  -4  -5   5 125407.00 1627.10  0. 1.0000  4216.      0.00 
   4   5  -4   5821.49  363.10  0. 1.0000  4217.      0.00 
  -4  -5   4   6017.15  402.90  0. 1.0000  4218.      0.00 
   4   5  -3  84796.59 1400.24  0. 1.0000  4219.      0.00 
  -4  -5   3  85676.99 1542.18  0. 1.0000  4220.      0.00 
   4   5  -3  84037.70 1425.57  0. 1.0000  4221.      0.00 
   4   5  -2  24070.00  751.70  0. 1.0000  4222.      0.00 
   4   5  -2  23663.90  683.43  0. 1.0000  4223.      0.00 
  -4  -5   2  24396.80  839.12  0. 1.0000  4224.      0.00 
   4   5  -2  24389.70  754.99  0. 1.0000  4225.      0.00 
   4   5  -1  56429.60 1072.00  0. 1.0000  4226.      0.00 
   4   5  -1  60878.40 1131.66  0. 1.0000  4227.      0.00 
  -4  -5   1  59328.20 1313.40  0. 1.0000  4228.      0.00 
   4   5  -1  60187.60 1175.59  0. 1.0000  4229.      0.00 
  -4  -5   0  15826.60  653.87  0. 1.0000  4230.      0.00 
   4   5   0  15391.70  584.49  0. 1.0000  4231.      0.00 
  -4  -5  -1  11943.90  514.38  0. 1.0000  4232.      0.00 
   4   5   1  12172.60  491.47  0. 1.0000  4233.      0.00 
  -4  -5  -2  27664.50  616.46  0. 1.0000  4234.      0.00 
  -4  -5  -2  27569.80  692.58  0. 1.0000  4235.      0.00 
   4   5   2  26730.50  583.33  0. 1.0000  4236.      0.00 
   4   5   2  27226.80  635.55  0. 1.0000  4237.      0.00 
   4   5   3    137.24   52.69  0. 1.0000  4238.      0.00 
   4   5   3     39.77   38.29  0. 1.0000  4239.      0.00 
  -4  -6  11    499.33   77.64  0. 1.0000  4240.      0.00 
  -4  -6  10  16326.80  471.63  0. 1.0000  4241.      0.00 
  -4  -6  10  15945.50  482.94  0. 1.0000  4242.      0.00 
  -4  -6   9    388.33  110.83  0. 1.0000  4243.      0.00 
  -4  -6   9    409.17  106.52  0. 1.0000  4244.      0.00 
  -4  -6   8  52803.60 1068.62  0. 1.0000  4245.      0.00 
  -4  -6   8  51701.39  991.47  0. 1.0000  4246.      0.00 
  -4  -6   7  36657.60  909.69  0. 1.0000  4247.      0.00 
  -4  -6   7  36790.20  876.17  0. 1.0000  4248.      0.00 
  -4  -6   6  39971.90  946.04  0. 1.0000  4249.      0.00 
   4   6  -5  11375.50  485.88  0. 1.0000  4250.      0.00 
  -4  -6   5  12050.70  507.39  0. 1.0000  4251.      0.00 
   4   6  -5  12783.30  554.69  0. 1.0000  4252.      0.00 
   4   6  -4  31783.00  823.88  0. 1.0000  4253.      0.00 
  -4  -6   4  32211.60  928.72  0. 1.0000  4254.      0.00 
   4   6  -4  33076.70  895.88  0. 1.0000  4255.      0.00 
   4   6  -3  46423.89 1001.01  0. 1.0000  4256.      0.00 
  -4  -6   3  45196.50 1120.49  0. 1.0000  4257.      0.00 
   4   6  -3  47529.60 1049.83  0. 1.0000  4258.      0.00 
   4   6  -2    196.39   89.93  0. 1.0000  4259.      0.00 
  -4  -6   2    387.26  105.01  0. 1.0000  4260.      0.00 
  -4  -6   2     79.14   95.76  0. 1.0000  4261.      0.00 
   4   6  -2     89.18   82.48  0. 1.0000  4262.      0.00 
   4   6  -1  22377.90  629.27  0. 1.0000  4263.      0.00 
  -4  -6   1  21918.80  735.96  0. 1.0000  4264.      0.00 
   4   6  -1  22549.10  670.70  0. 1.0000  4265.      0.00 
  -4  -6   0  16439.30  576.32  0. 1.0000  4266.      0.00 
   4   6   0  16667.30  538.69  0. 1.0000  4267.      0.00 
  -4  -6  -1  28343.80  665.98  0. 1.0000  4268.      0.00 
  -4  -6  -1  28314.90  600.97  0. 1.0000  4269.      0.00 
   4   6   1  28449.00  605.64  0. 1.0000  4270.      0.00 
  -4  -7  10  43698.90  695.48  0. 1.0000  4271.      0.00 
  -4  -7  10  42501.30  647.13  0. 1.0000  4272.      0.00 
  -4  -7   9    659.01  115.00  0. 1.0000  4273.      0.00 
  -4  -7   9    442.63   86.45  0. 1.0000  4274.      0.00 
  -4  -7   8  37182.00  801.45  0. 1.0000  4275.      0.00 
  -4  -7   8  38587.70  843.04  0. 1.0000  4276.      0.00 
   4   7  -8  38275.60  746.73  0. 1.0000  4277.      0.00 
  -4  -7   7    283.61  100.22  0. 1.0000  4278.      0.00 
  -4  -7   7    225.09   95.06  0. 1.0000  4279.      0.00 
  -4  -7   6 110514.99 1546.20  0. 1.0000  4280.      0.00 
  -4  -7   6 106357.99 1415.80  0. 1.0000  4281.      0.00 
   4   7  -6 107063.00 1466.70  0. 1.0000  4282.      0.00 
   4   7  -5  46497.20  863.75  0. 1.0000  4283.      0.00 
  -4  -7   5  47348.50 1017.83  0. 1.0000  4284.      0.00 
   4   7  -5  48785.10 1007.57  0. 1.0000  4285.      0.00 
  -4  -7   4  23675.50  697.64  0. 1.0000  4286.      0.00 
  -4  -7   4  22697.90  735.11  0. 1.0000  4287.      0.00 
   4   7  -4  24282.20  707.26  0. 1.0000  4288.      0.00 
   4   7  -4  23660.60  632.66  0. 1.0000  4289.      0.00 
  -4  -7   3  13934.60  498.78  0. 1.0000  4290.      0.00 
   4   7  -3  13983.20  517.73  0. 1.0000  4291.      0.00 
  -4  -7   3  13214.60  552.71  0. 1.0000  4292.      0.00 
   4   7  -3  13850.30  482.97  0. 1.0000  4293.      0.00 
   4   7  -2  29296.70  674.20  0. 1.0000  4294.      0.00 
   4   7  -2  29423.90  677.98  0. 1.0000  4295.      0.00 
  -4  -7   2  30303.90  791.54  0. 1.0000  4296.      0.00 
  -4  -7   1  11543.10  441.35  0. 1.0000  4297.      0.00 
   4   7  -1  11240.40  349.00  0. 1.0000  4298.      0.00 
  -4  -7   1  11656.60  438.87  0. 1.0000  4299.      0.00 
   4   7  -1  11547.40  392.69  0. 1.0000  4300.      0.00 
  -4  -7   0   6655.50  257.76  0. 1.0000  4301.      0.00 
  -4  -7   0   6350.70  276.25  0. 1.0000  4302.      0.00 
   4   7   0   6318.33  246.43  0. 1.0000  4303.      0.00 
  -4  -8   9   5478.47  246.22  0. 1.0000  4304.      0.00 
  -4  -8   8  33807.80  659.69  0. 1.0000  4305.      0.00 
  -4  -8   8  34906.00  666.05  0. 1.0000  4306.      0.00 
   4   8  -8  34868.70  584.33  0. 1.0000  4307.      0.00 
  -4  -8   7   9411.63  384.15  0. 1.0000  4308.      0.00 
  -4  -8   7   8830.70  340.41  0. 1.0000  4309.      0.00 
   4   8  -7   8845.10  339.39  0. 1.0000  4310.      0.00 
  -4  -8   7   8132.87  363.48  0. 1.0000  4311.      0.00 
  -4  -8   6   8044.69  365.69  0. 1.0000  4312.      0.00 
   4   8  -6   8063.65  346.83  0. 1.0000  4313.      0.00 
  -4  -8   5    450.80  103.71  0. 1.0000  4314.      0.00 
   4   8  -5    465.61   98.79  0. 1.0000  4315.      0.00 
  -4  -8   5    358.28   92.42  0. 1.0000  4316.      0.00 
  -4  -8   4  35834.11  693.41  0. 1.0000  4317.      0.00 
   4   8  -4  36222.89  715.12  0. 1.0000  4318.      0.00 
  -4  -8   3   4917.19  273.75  0. 1.0000  4319.      0.00 
  -4  -8   3   4559.41  230.94  0. 1.0000  4320.      0.00 
   4   8  -3   4825.55  240.77  0. 1.0000  4321.      0.00 
   4   8  -3   4946.01  218.36  0. 1.0000  4322.      0.00 
  -4  -8   2  36702.90  637.02  0. 1.0000  4323.      0.00 
  -4  -8   2  34898.20  580.40  0. 1.0000  4324.      0.00 
  -4  -9   7   4001.06  188.54  0. 1.0000  4325.      0.00 
   4   9  -6  22163.40  419.39  0. 1.0000  4326.      0.00 
  -4  -9   6  22794.00  450.31  0. 1.0000  4327.      0.00 
   4   9  -5  11534.80  298.55  0. 1.0000  4328.      0.00 
   5 -11   3  55622.90  728.69  0. 1.0000  4329.      0.00 
  -5  11  -4   2698.05  156.28  0. 1.0000  4330.      0.00 
   5 -11   4   2188.61  144.15  0. 1.0000  4331.      0.00 
   5 -11   5   6648.42  273.95  0. 1.0000  4332.      0.00 
   5 -11   6  14933.40  375.11  0. 1.0000  4333.      0.00 
   5 -10   0  10530.10  345.24  0. 1.0000  4334.      0.00 
   5 -10   0  10416.30  321.92  0. 1.0000  4335.      0.00 
   5 -10   1  33131.80  691.60  0. 1.0000  4336.      0.00 
   5 -10   1  33397.20  576.09  0. 1.0000  4337.      0.00 
   5 -10   1  32685.80  690.04  0. 1.0000  4338.      0.00 
   5 -10   2  10479.70  407.91  0. 1.0000  4339.      0.00 
  -5  10  -2  10066.50  360.42  0. 1.0000  4340.      0.00 
   5 -10   2  10062.60  418.48  0. 1.0000  4341.      0.00 
   5 -10   3  42525.50  801.37  0. 1.0000  4342.      0.00 
   5 -10   3  42064.00  854.81  0. 1.0000  4343.      0.00 
   5 -10   4  10644.60  415.95  0. 1.0000  4344.      0.00 
   5 -10   5   9856.90  393.99  0. 1.0000  4345.      0.00 
   5 -10   5  10302.40  437.39  0. 1.0000  4346.      0.00 
   5 -10   6   1170.46  139.23  0. 1.0000  4347.      0.00 
   5 -10   6   1425.89  161.25  0. 1.0000  4348.      0.00 
   5 -10   7  11949.90  376.20  0. 1.0000  4349.      0.00 
   5 -10   7  11990.20  393.57  0. 1.0000  4350.      0.00 
   5  -9  -2  24949.60  499.33  0. 1.0000  4351.      0.00 
   5  -9  -2  24725.50  472.99  0. 1.0000  4352.      0.00 
   5  -9  -1   5123.67  266.98  0. 1.0000  4353.      0.00 
   5  -9  -1   5092.58  292.36  0. 1.0000  4354.      0.00 
   5  -9  -1   4911.39  269.24  0. 1.0000  4355.      0.00 
   5  -9   0  27964.40  758.94  0. 1.0000  4356.      0.00 
   5  -9   0  28627.10  697.78  0. 1.0000  4357.      0.00 
   5  -9   0  27832.90  747.05  0. 1.0000  4358.      0.00 
   5  -9   1  25837.40  766.68  0. 1.0000  4359.      0.00 
  -5   9  -1  27045.90  705.26  0. 1.0000  4360.      0.00 
   5  -9   1  26403.40  704.64  0. 1.0000  4361.      0.00 
   5  -9   1  26901.70  792.56  0. 1.0000  4362.      0.00 
   5  -9   2  14292.70  574.13  0. 1.0000  4363.      0.00 
   5  -9   2  14281.10  529.98  0. 1.0000  4364.      0.00 
   5  -9   2  15346.00  609.52  0. 1.0000  4365.      0.00 
   5  -9   3  22643.30  720.74  0. 1.0000  4366.      0.00 
   5  -9   3  22611.90  694.15  0. 1.0000  4367.      0.00 
   5  -9   3  20951.30  674.16  0. 1.0000  4368.      0.00 
   5  -9   3  22002.10  648.25  0. 1.0000  4369.      0.00 
   5  -9   3  21888.10  715.59  0. 1.0000  4370.      0.00 
   5  -9   4 121176.99 1611.90  0. 1.0000  4371.      0.00 
   5  -9   4 122879.00 1629.30  0. 1.0000  4372.      0.00 
   5  -9   4 120845.01 1568.00  0. 1.0000  4373.      0.00 
   5  -9   5 159442.98 1720.40  0. 1.0000  4374.      0.00 
   5  -9   5 171460.02 1900.90  0. 1.0000  4375.      0.00 
   5  -9   6    897.16  156.03  0. 1.0000  4376.      0.00 
   5  -9   6    879.27  143.59  0. 1.0000  4377.      0.00 
   5  -9   6   1131.13  140.66  0. 1.0000  4378.      0.00 
   5  -9   7  24590.90  617.81  0. 1.0000  4379.      0.00 
   5  -9   7  25389.00  666.74  0. 1.0000  4380.      0.00 
   5  -9   8    568.28   86.49  0. 1.0000  4381.      0.00 
   5  -9   8    536.07   94.08  0. 1.0000  4382.      0.00 
   5  -8  -3   7514.89  312.07  0. 1.0000  4383.      0.00 
   5  -8  -3   7222.31  298.25  0. 1.0000  4384.      0.00 
   5  -8  -2  50432.60  999.36  0. 1.0000  4385.      0.00 
   5  -8  -2  49374.10  937.99  0. 1.0000  4386.      0.00 
   5  -8  -2  49190.11  929.74  0. 1.0000  4387.      0.00 
   5  -8  -1  28402.60  841.36  0. 1.0000  4388.      0.00 
   5  -8  -1  28681.60  786.58  0. 1.0000  4389.      0.00 
   5  -8  -1  28697.70  834.40  0. 1.0000  4390.      0.00 
   5  -8   0  75905.30 1441.33  0. 1.0000  4391.      0.00 
  -5   8   0  76883.20 1315.89  0. 1.0000  4392.      0.00 
  -5   8   0  75228.20 1285.36  0. 1.0000  4393.      0.00 
   5  -8   0  76099.00 1340.94  0. 1.0000  4394.      0.00 
   5  -8   0  75923.41 1460.77  0. 1.0000  4395.      0.00 
   5  -8   1   1786.61  235.02  0. 1.0000  4396.      0.00 
   5  -8   1   1418.79  195.26  0. 1.0000  4397.      0.00 
   5  -8   1   1476.87  219.69  0. 1.0000  4398.      0.00 
   5  -8   2  33943.80  964.97  0. 1.0000  4399.      0.00 
   5  -8   2  34402.50  965.24  0. 1.0000  4400.      0.00 
   5  -8   2  35825.20  959.72  0. 1.0000  4401.      0.00 
   5  -8   2  34470.00  911.50  0. 1.0000  4402.      0.00 
   5  -8   2  34700.50  985.04  0. 1.0000  4403.      0.00 
   5  -8   3 113042.00 1711.00  0. 1.0000  4404.      0.00 
   5  -8   3 116112.00 1699.00  0. 1.0000  4405.      0.00 
   5  -8   3 117505.99 1756.90  0. 1.0000  4406.      0.00 
   5  -8   3 116093.01 1640.80  0. 1.0000  4407.      0.00 
   5  -8   3 112529.00 1702.20  0. 1.0000  4408.      0.00 
   5  -8   4   1251.70  186.00  0. 1.0000  4409.      0.00 
   5  -8   4   1207.67  195.17  0. 1.0000  4410.      0.00 
   5  -8   4   1421.16  187.58  0. 1.0000  4411.      0.00 
   5  -8   5  27842.60  824.09  0. 1.0000  4412.      0.00 
   5  -8   5  29183.50  885.22  0. 1.0000  4413.      0.00 
   5  -8   5  28366.50  763.11  0. 1.0000  4414.      0.00 
   5  -8   6   6194.79  398.07  0. 1.0000  4415.      0.00 
   5  -8   6   6121.41  354.23  0. 1.0000  4416.      0.00 
   5  -8   6   6120.38  371.09  0. 1.0000  4417.      0.00 
   5  -8   7  38626.50  895.86  0. 1.0000  4418.      0.00 
   5  -8   7  37677.60  787.61  0. 1.0000  4419.      0.00 
   5  -8   8    140.17   56.23  0. 1.0000  4420.      0.00 
   5  -8   8    209.74   80.56  0. 1.0000  4421.      0.00 
   5  -8   8    279.28   67.62  0. 1.0000  4422.      0.00 
  -5   7   4  27139.60  528.69  0. 1.0000  4423.      0.00 
   5  -7  -4  27656.60  641.83  0. 1.0000  4424.      0.00 
   5  -7  -3  57645.20 1121.32  0. 1.0000  4425.      0.00 
   5  -7  -3  58457.80 1098.17  0. 1.0000  4426.      0.00 
  -5   7   3  58316.11  898.74  0. 1.0000  4427.      0.00 
   5  -7  -2  28942.10  891.27  0. 1.0000  4428.      0.00 
   5  -7  -2  29308.40  850.03  0. 1.0000  4429.      0.00 
   5  -7  -2  29161.20  880.46  0. 1.0000  4430.      0.00 
   5  -7  -1  17691.10  732.78  0. 1.0000  4431.      0.00 
  -5   7   1  17877.00  679.91  0. 1.0000  4432.      0.00 
   5  -7  -1  17960.00  690.25  0. 1.0000  4433.      0.00 
  -5   7   1  18812.00  700.76  0. 1.0000  4434.      0.00 
   5  -7  -1  17155.20  730.62  0. 1.0000  4435.      0.00 
   5  -7   0  62498.80 1373.10  0. 1.0000  4436.      0.00 
  -5   7   0  63032.20 1239.16  0. 1.0000  4437.      0.00 
   5  -7   0  63877.20 1303.87  0. 1.0000  4438.      0.00 
   5  -7   0  62606.50 1405.53  0. 1.0000  4439.      0.00 
   5  -7   1   2934.51  300.70  0. 1.0000  4440.      0.00 
   5  -7   1   3654.72  317.67  0. 1.0000  4441.      0.00 
   5  -7   1   3544.50  338.35  0. 1.0000  4442.      0.00 
   5  -7   2 155075.00 2093.40  0. 1.0000  4443.      0.00 
   5  -7   2 148815.98 2040.40  0. 1.0000  4444.      0.00 
   5  -7   2 152755.00 2051.50  0. 1.0000  4445.      0.00 
   5  -7   2 149526.00 1967.40  0. 1.0000  4446.      0.00 
   5  -7   2 153752.02 2076.40  0. 1.0000  4447.      0.00 
   5  -7   3  10005.50  513.46  0. 1.0000  4448.      0.00 
   5  -7   3   9627.10  527.92  0. 1.0000  4449.      0.00 
   5  -7   3  10071.60  504.12  0. 1.0000  4450.      0.00 
   5  -7   3  10220.50  514.72  0. 1.0000  4451.      0.00 
   5  -7   3  10283.70  511.12  0. 1.0000  4452.      0.00 
   5  -7   4  33745.60  878.60  0. 1.0000  4453.      0.00 
   5  -7   4  32276.00  946.50  0. 1.0000  4454.      0.00 
   5  -7   4  32561.40  885.71  0. 1.0000  4455.      0.00 
   5  -7   5   1485.00  208.29  0. 1.0000  4456.      0.00 
   5  -7   5   1263.06  204.84  0. 1.0000  4457.      0.00 
   5  -7   5   1504.37  196.27  0. 1.0000  4458.      0.00 
   5  -7   6  56796.40 1219.81  0. 1.0000  4459.      0.00 
   5  -7   6  55598.00 1089.96  0. 1.0000  4460.      0.00 
   5  -7   6  55551.10 1123.46  0. 1.0000  4461.      0.00 
   5  -7   7  34087.00  881.90  0. 1.0000  4462.      0.00 
   5  -7   7  31639.00  743.83  0. 1.0000  4463.      0.00 
   5  -7   7  33673.70  808.76  0. 1.0000  4464.      0.00 
   5  -7   8  18608.80  564.31  0. 1.0000  4465.      0.00 
   5  -7   8  18025.80  502.66  0. 1.0000  4466.      0.00 
   5  -7   9  10810.10  318.77  0. 1.0000  4467.      0.00 
  -5   6   5  24586.00  572.19  0. 1.0000  4468.      0.00 
   5  -6  -5  23700.00  606.67  0. 1.0000  4469.      0.00 
   5  -6  -4   2437.16  240.19  0. 1.0000  4470.      0.00 
  -5   6   4   2600.43  221.52  0. 1.0000  4471.      0.00 
  -5   6   3  58027.80 1082.00  0. 1.0000  4472.      0.00 
   5  -6  -3  56908.70 1266.58  0. 1.0000  4473.      0.00 
   5  -6  -3  55303.11 1224.14  0. 1.0000  4474.      0.00 
   5  -6  -2  24616.70  871.10  0. 1.0000  4475.      0.00 
  -5   6   2  24590.70  815.68  0. 1.0000  4476.      0.00 
   5  -6  -2  24258.40  816.28  0. 1.0000  4477.      0.00 
   5  -6  -2  23824.50  876.02  0. 1.0000  4478.      0.00 
   5  -6  -1  29705.10  954.54  0. 1.0000  4479.      0.00 
  -5   6   1  28942.80  943.92  0. 1.0000  4480.      0.00 
  -5   6   1  29786.70  899.06  0. 1.0000  4481.      0.00 
   5  -6  -1  29707.80  900.02  0. 1.0000  4482.      0.00 
   5  -6  -1  27412.40  952.16  0. 1.0000  4483.      0.00 
   5  -6   0  51940.80 1233.22  0. 1.0000  4484.      0.00 
  -5   6   0  52551.30 1114.85  0. 1.0000  4485.      0.00 
   5  -6   0  51360.70 1153.91  0. 1.0000  4486.      0.00 
   5  -6   0  49975.20 1248.62  0. 1.0000  4487.      0.00 
   5  -6   1  71773.59 1404.74  0. 1.0000  4488.      0.00 
   5  -6   1  73297.59 1356.47  0. 1.0000  4489.      0.00 
   5  -6   1  71324.71 1434.80  0. 1.0000  4490.      0.00 
   5  -6   1  72790.50 1441.02  0. 1.0000  4491.      0.00 
   5  -6   2  12966.00  589.58  0. 1.0000  4492.      0.00 
   5  -6   2  13066.40  587.94  0. 1.0000  4493.      0.00 
   5  -6   2  12896.60  566.41  0. 1.0000  4494.      0.00 
   5  -6   2  12613.40  602.85  0. 1.0000  4495.      0.00 
   5  -6   2  13392.80  592.20  0. 1.0000  4496.      0.00 
   5  -6   3   6323.63  399.81  0. 1.0000  4497.      0.00 
   5  -6   3   6624.33  401.19  0. 1.0000  4498.      0.00 
   5  -6   3   6377.33  428.04  0. 1.0000  4499.      0.00 
   5  -6   3   6477.84  400.74  0. 1.0000  4500.      0.00 
   5  -6   4  75663.90 1440.02  0. 1.0000  4501.      0.00 
   5  -6   4  73163.80 1340.11  0. 1.0000  4502.      0.00 
   5  -6   5  16942.00  646.56  0. 1.0000  4503.      0.00 
   5  -6   5  17715.10  704.04  0. 1.0000  4504.      0.00 
   5  -6   5  17903.10  664.98  0. 1.0000  4505.      0.00 
   5  -6   6  11603.00  498.46  0. 1.0000  4506.      0.00 
   5  -6   6  12125.10  571.79  0. 1.0000  4507.      0.00 
   5  -6   6  12834.50  548.59  0. 1.0000  4508.      0.00 
   5  -6   6  11601.00  533.84  0. 1.0000  4509.      0.00 
   5  -6   7   1048.91  173.90  0. 1.0000  4510.      0.00 
   5  -6   7    958.61  157.00  0. 1.0000  4511.      0.00 
   5  -6   7    798.04  145.63  0. 1.0000  4512.      0.00 
   5  -6   8  21221.30  607.50  0. 1.0000  4513.      0.00 
   5  -6   8  20590.10  559.64  0. 1.0000  4514.      0.00 
   5  -6   9  12376.00  339.63  0. 1.0000  4515.      0.00 
   5  -5  -6  14154.70  454.54  0. 1.0000  4516.      0.00 
  -5   5   6  15063.00  477.72  0. 1.0000  4517.      0.00 
  -5   5   5  30526.80  798.23  0. 1.0000  4518.      0.00 
  -5   5   4  16976.90  634.04  0. 1.0000  4519.      0.00 
  -5   5   3 151293.02 1865.20  0. 1.0000  4520.      0.00 
  -5   5   3 156634.00 2046.50  0. 1.0000  4521.      0.00 
   5  -5  -3 156949.02 2165.10  0. 1.0000  4522.      0.00 
  -5   5   2   4137.79  299.58  0. 1.0000  4523.      0.00 
   5  -5  -2   4024.66  354.48  0. 1.0000  4524.      0.00 
  -5   5   2   4296.56  372.42  0. 1.0000  4525.      0.00 
   5  -5  -2   3805.35  326.00  0. 1.0000  4526.      0.00 
   5  -5  -2   4069.65  370.73  0. 1.0000  4527.      0.00 
   5  -5  -1 192746.98 2331.40  0. 1.0000  4528.      0.00 
  -5   5   1 184003.02 2434.60  0. 1.0000  4529.      0.00 
   5  -5  -1 190294.02 2182.30  0. 1.0000  4530.      0.00 
   5  -5  -1 191795.98 2399.80  0. 1.0000  4531.      0.00 
   5  -5   0   6096.68  410.10  0. 1.0000  4532.      0.00 
   5  -5   1  47630.90 1145.15  0. 1.0000  4533.      0.00 
   5  -5   2  27558.60  890.04  0. 1.0000  4534.      0.00 
   5  -5   3  68837.90 1345.80  0. 1.0000  4535.      0.00 
   5  -5   3  71847.39 1304.39  0. 1.0000  4536.      0.00 
   5  -5   4  41921.80 1051.44  0. 1.0000  4537.      0.00 
   5  -5   4  40093.20 1000.35  0. 1.0000  4538.      0.00 
   5  -5   4  39812.50 1003.77  0. 1.0000  4539.      0.00 
   5  -5   5  97870.20 1635.06  0. 1.0000  4540.      0.00 
   5  -5   5  98932.90 1482.10  0. 1.0000  4541.      0.00 
   5  -5   5  93945.71 1542.82  0. 1.0000  4542.      0.00 
   5  -5   5  96568.20 1567.97  0. 1.0000  4543.      0.00 
   5  -5   6  34965.50  968.09  0. 1.0000  4544.      0.00 
   5  -5   6  33883.90  861.83  0. 1.0000  4545.      0.00 
   5  -5   6  35744.40  929.82  0. 1.0000  4546.      0.00 
   5  -5   6  34297.40  919.41  0. 1.0000  4547.      0.00 
   5  -5   6  33821.80  915.59  0. 1.0000  4548.      0.00 
   5  -5   7   2708.42  262.23  0. 1.0000  4549.      0.00 
   5  -5   7   2615.75  232.46  0. 1.0000  4550.      0.00 
   5  -5   7   2623.47  245.34  0. 1.0000  4551.      0.00 
   5  -5   8  23874.30  627.56  0. 1.0000  4552.      0.00 
   5  -5   8  21932.50  547.57  0. 1.0000  4553.      0.00 
   5  -5   8  23174.80  589.48  0. 1.0000  4554.      0.00 
  -5   4   7    258.07   78.33  0. 1.0000  4555.      0.00 
  -5   4   7     79.60   51.82  0. 1.0000  4556.      0.00 
  -5   4   6  67563.70 1233.56  0. 1.0000  4557.      0.00 
  -5   4   6  67501.90 1078.27  0. 1.0000  4558.      0.00 
  -5   4   5  28623.00  862.74  0. 1.0000  4559.      0.00 
  -5   4   5  28913.70  764.22  0. 1.0000  4560.      0.00 
  -5   4   4    803.30  160.68  0. 1.0000  4561.      0.00 
  -5   4   4    803.05  157.21  0. 1.0000  4562.      0.00 
   5  -4  -3    528.71  149.57  0. 1.0000  4563.      0.00 
  -5   4   3    527.68  125.39  0. 1.0000  4564.      0.00 
   5  -4  -3    561.20  150.48  0. 1.0000  4565.      0.00 
  -5   4   3    372.13  133.55  0. 1.0000  4566.      0.00 
  -5   4   3    484.20  130.39  0. 1.0000  4567.      0.00 
   5  -4  -2  37287.30  950.46  0. 1.0000  4568.      0.00 
   5  -4  -1  99782.49 1412.97  0. 1.0000  4569.      0.00 
   5  -4   0     89.28   85.99  0. 1.0000  4570.      0.00 
   5  -4   1 208199.02 2073.60  0. 1.0000  4571.      0.00 
   5  -4   1 198446.00 2227.30  0. 1.0000  4572.      0.00 
   5  -4   2    239.14   89.46  0. 1.0000  4573.      0.00 
   5  -4   2    649.77  145.27  0. 1.0000  4574.      0.00 
   5  -4   3 143651.00 1784.60  0. 1.0000  4575.      0.00 
   5  -4   4   8705.56  443.60  0. 1.0000  4576.      0.00 
   5  -4   4   9065.18  486.87  0. 1.0000  4577.      0.00 
   5  -4   4   9779.02  489.15  0. 1.0000  4578.      0.00 
   5  -4   4   8640.77  467.49  0. 1.0000  4579.      0.00 
   5  -4   5  26297.00  774.94  0. 1.0000  4580.      0.00 
   5  -4   5  24717.10  819.59  0. 1.0000  4581.      0.00 
   5  -4   5  25190.70  786.09  0. 1.0000  4582.      0.00 
   5  -4   5  25052.20  804.97  0. 1.0000  4583.      0.00 
   5  -4   5  24875.20  794.74  0. 1.0000  4584.      0.00 
   5  -4   5  24888.30  799.88  0. 1.0000  4585.      0.00 
   5  -4   6  39315.70 1017.72  0. 1.0000  4586.      0.00 
   5  -4   6  40832.40  980.92  0. 1.0000  4587.      0.00 
   5  -4   6  38344.40  963.51  0. 1.0000  4588.      0.00 
   5  -4   7  14419.80  565.23  0. 1.0000  4589.      0.00 
   5  -4   7  13963.90  525.74  0. 1.0000  4590.      0.00 
   5  -4   7  14684.10  546.54  0. 1.0000  4591.      0.00 
   5  -4   8  18346.70  517.75  0. 1.0000  4592.      0.00 
   5  -4   8  16963.00  473.83  0. 1.0000  4593.      0.00 
   5  -4   8  17967.90  494.27  0. 1.0000  4594.      0.00 
  -5   3   8  19698.00  476.95  0. 1.0000  4595.      0.00 
  -5   3   8  18187.80  480.58  0. 1.0000  4596.      0.00 
  -5   3   8  19217.30  453.30  0. 1.0000  4597.      0.00 
  -5   3   7   5772.76  358.47  0. 1.0000  4598.      0.00 
  -5   3   7   6112.51  341.92  0. 1.0000  4599.      0.00 
  -5   3   6  68237.70 1350.71  0. 1.0000  4600.      0.00 
  -5   3   6  67825.29 1241.92  0. 1.0000  4601.      0.00 
  -5   3   5  49880.00 1093.83  0. 1.0000  4602.      0.00 
  -5   3   5  46454.10 1036.68  0. 1.0000  4603.      0.00 
  -5   3   5  47885.89 1142.43  0. 1.0000  4604.      0.00 
  -5   3   4 276678.00 2616.40  0. 1.0000  4605.      0.00 
  -5   3   4 280652.97 2431.20  0. 1.0000  4606.      0.00 
  -5   3   4 277919.00 2705.10  0. 1.0000  4607.      0.00 
   5  -3  -3  19829.70  716.38  0. 1.0000  4608.      0.00 
   5  -3  -2 110982.01 1548.80  0. 1.0000  4609.      0.00 
   5  -3  -1  25369.10  677.39  0. 1.0000  4610.      0.00 
   5  -3   0  81465.00 1281.16  0. 1.0000  4611.      0.00 
   5  -3   0  81743.90 1312.33  0. 1.0000  4612.      0.00 
   5  -3   1 166069.02 1835.00  0. 1.0000  4613.      0.00 
   5  -3   1 167428.98 1771.20  0. 1.0000  4614.      0.00 
   5  -3   2  17244.60  617.38  0. 1.0000  4615.      0.00 
   5  -3   2  16298.60  568.00  0. 1.0000  4616.      0.00 
   5  -3   2  16601.60  654.76  0. 1.0000  4617.      0.00 
   5  -3   3  98550.10 1517.18  0. 1.0000  4618.      0.00 
   5  -3   4     15.11   69.70  0. 1.0000  4619.      0.00 
   5  -3   4    196.62  108.75  0. 1.0000  4620.      0.00 
   5  -3   4    362.51  118.37  0. 1.0000  4621.      0.00 
   5  -3   4    177.56  101.32  0. 1.0000  4622.      0.00 
   5  -3   4     68.44   74.75  0. 1.0000  4623.      0.00 
   5  -3   5  59926.20 1197.23  0. 1.0000  4624.      0.00 
   5  -3   5  61268.30 1279.01  0. 1.0000  4625.      0.00 
   5  -3   5  61657.80 1240.00  0. 1.0000  4626.      0.00 
   5  -3   5  61414.80 1232.36  0. 1.0000  4627.      0.00 
   5  -3   6  14394.10  605.02  0. 1.0000  4628.      0.00 
   5  -3   6  14019.20  570.70  0. 1.0000  4629.      0.00 
   5  -3   6  14894.40  589.08  0. 1.0000  4630.      0.00 
   5  -3   6  13307.10  535.96  0. 1.0000  4631.      0.00 
   5  -3   7   2033.61  210.65  0. 1.0000  4632.      0.00 
   5  -3   7   1935.59  197.75  0. 1.0000  4633.      0.00 
   5  -3   7   2179.20  206.15  0. 1.0000  4634.      0.00 
   5  -3   7   2105.36  193.54  0. 1.0000  4635.      0.00 
   5  -3   8    812.41  101.04  0. 1.0000  4636.      0.00 
   5  -3   8    814.03  101.22  0. 1.0000  4637.      0.00 
  -5   2   9  41417.50  618.09  0. 1.0000  4638.      0.00 
  -5   2   8  19688.80  602.08  0. 1.0000  4639.      0.00 
  -5   2   8  18307.60  580.72  0. 1.0000  4640.      0.00 
  -5   2   8  19906.20  574.69  0. 1.0000  4641.      0.00 
  -5   2   7  26074.50  815.72  0. 1.0000  4642.      0.00 
  -5   2   7  26404.20  797.51  0. 1.0000  4643.      0.00 
  -5   2   6  37616.40 1023.24  0. 1.0000  4644.      0.00 
  -5   2   6  37633.30  922.07  0. 1.0000  4645.      0.00 
  -5   2   6  36120.10  955.02  0. 1.0000  4646.      0.00 
  -5   2   5   7584.66  449.04  0. 1.0000  4647.      0.00 
  -5   2   5   6858.93  435.55  0. 1.0000  4648.      0.00 
  -5   2   5   6665.46  403.76  0. 1.0000  4649.      0.00 
  -5   2   5   6641.42  420.79  0. 1.0000  4650.      0.00 
  -5   2   4 117194.00 1639.80  0. 1.0000  4651.      0.00 
  -5   2   4 116458.00 1785.10  0. 1.0000  4652.      0.00 
   5  -2  -3   1415.93  186.03  0. 1.0000  4653.      0.00 
   5  -2  -2  55576.80 1050.48  0. 1.0000  4654.      0.00 
   5  -2  -1  11422.40  445.34  0. 1.0000  4655.      0.00 
   5  -2   0  78759.50 1246.19  0. 1.0000  4656.      0.00 
   5  -2   0  77937.01 1226.40  0. 1.0000  4657.      0.00 
   5  -2   0  79501.61 1114.30  0. 1.0000  4658.      0.00 
   5  -2   1  42094.70  933.53  0. 1.0000  4659.      0.00 
   5  -2   1  42032.00  913.81  0. 1.0000  4660.      0.00 
   5  -2   2  24237.90  736.25  0. 1.0000  4661.      0.00 
   5  -2   2  24824.10  728.97  0. 1.0000  4662.      0.00 
   5  -2   3  56905.80 1133.36  0. 1.0000  4663.      0.00 
   5  -2   3  56874.10 1156.45  0. 1.0000  4664.      0.00 
   5  -2   3  57397.61 1118.48  0. 1.0000  4665.      0.00 
   5  -2   4   9010.98  469.06  0. 1.0000  4666.      0.00 
   5  -2   4   7719.37  446.01  0. 1.0000  4667.      0.00 
   5  -2   4   9150.33  483.04  0. 1.0000  4668.      0.00 
   5  -2   4   7920.18  454.36  0. 1.0000  4669.      0.00 
   5  -2   4   7665.73  431.59  0. 1.0000  4670.      0.00 
   5  -2   4   8023.37  448.74  0. 1.0000  4671.      0.00 
   5  -2   5  38129.10  948.66  0. 1.0000  4672.      0.00 
   5  -2   5  38164.00  992.86  0. 1.0000  4673.      0.00 
   5  -2   5  37805.70  956.90  0. 1.0000  4674.      0.00 
   5  -2   5  39061.20  967.83  0. 1.0000  4675.      0.00 
   5  -2   5  37090.30  953.78  0. 1.0000  4676.      0.00 
   5  -2   6  31668.20  846.61  0. 1.0000  4677.      0.00 
   5  -2   6  31829.60  819.44  0. 1.0000  4678.      0.00 
   5  -2   6  32145.00  814.70  0. 1.0000  4679.      0.00 
   5  -2   6  29842.60  801.28  0. 1.0000  4680.      0.00 
   5  -2   7  47440.00  834.09  0. 1.0000  4681.      0.00 
   5  -2   7  48567.50  841.13  0. 1.0000  4682.      0.00 
  -5   1   9  59304.80  947.01  0. 1.0000  4683.      0.00 
  -5   1   9  62133.20  903.45  0. 1.0000  4684.      0.00 
  -5   1   8   1563.11  191.40  0. 1.0000  4685.      0.00 
  -5   1   8   1520.72  198.88  0. 1.0000  4686.      0.00 
  -5   1   8   1720.21  201.76  0. 1.0000  4687.      0.00 
  -5   1   7  61493.80 1133.23  0. 1.0000  4688.      0.00 
  -5   1   7  63640.80 1291.53  0. 1.0000  4689.      0.00 
  -5   1   7  64768.30 1152.03  0. 1.0000  4690.      0.00 
  -5   1   7  64592.30 1304.48  0. 1.0000  4691.      0.00 
  -5   1   6  33345.70  921.04  0. 1.0000  4692.      0.00 
  -5   1   6  34635.90  943.80  0. 1.0000  4693.      0.00 
  -5   1   6  35117.50  963.46  0. 1.0000  4694.      0.00 
  -5   1   6  33679.80  922.80  0. 1.0000  4695.      0.00 
  -5   1   5  57218.90 1175.60  0. 1.0000  4696.      0.00 
  -5   1   5  55741.10 1219.00  0. 1.0000  4697.      0.00 
  -5   1   5  55211.00 1136.41  0. 1.0000  4698.      0.00 
  -5   1   5  56397.80 1224.49  0. 1.0000  4699.      0.00 
   5  -1  -4  38248.70  961.54  0. 1.0000  4700.      0.00 
   5  -1  -3  99829.91 1462.43  0. 1.0000  4701.      0.00 
   5  -1  -2 407618.03 2780.30  0. 1.0000  4702.      0.00 
   5  -1  -1  30914.00  780.83  0. 1.0000  4703.      0.00 
   5  -1  -1  31099.60  739.20  0. 1.0000  4704.      0.00 
   5  -1   0  88556.70 1335.92  0. 1.0000  4705.      0.00 
   5  -1   0  87332.50 1325.29  0. 1.0000  4706.      0.00 
   5  -1   0  89555.00 1244.22  0. 1.0000  4707.      0.00 
   5  -1   1  29782.20  810.31  0. 1.0000  4708.      0.00 
   5  -1   1  28766.00  787.75  0. 1.0000  4709.      0.00 
   5  -1   2  15157.90  597.84  0. 1.0000  4710.      0.00 
   5  -1   2  16541.80  620.33  0. 1.0000  4711.      0.00 
   5  -1   3  29802.00  835.27  0. 1.0000  4712.      0.00 
   5  -1   3  31824.80  824.16  0. 1.0000  4713.      0.00 
   5  -1   3  29099.00  842.90  0. 1.0000  4714.      0.00 
   5  -1   3  29499.90  802.10  0. 1.0000  4715.      0.00 
   5  -1   4  24229.00  765.35  0. 1.0000  4716.      0.00 
   5  -1   4  25358.70  788.63  0. 1.0000  4717.      0.00 
   5  -1   4  25124.70  778.01  0. 1.0000  4718.      0.00 
   5  -1   4  26049.60  773.57  0. 1.0000  4719.      0.00 
   5  -1   4  23920.80  788.19  0. 1.0000  4720.      0.00 
   5  -1   5  21942.50  722.60  0. 1.0000  4721.      0.00 
   5  -1   5  21630.10  690.63  0. 1.0000  4722.      0.00 
   5  -1   5  22407.80  694.60  0. 1.0000  4723.      0.00 
   5  -1   5  20314.80  698.79  0. 1.0000  4724.      0.00 
   5  -1   6   4511.26  281.85  0. 1.0000  4725.      0.00 
   5  -1   6   4397.87  275.02  0. 1.0000  4726.      0.00 
   5  -1   6   4308.72  293.10  0. 1.0000  4727.      0.00 
   5  -1   7  14655.50  379.44  0. 1.0000  4728.      0.00 
   5  -1   7  14186.80  396.46  0. 1.0000  4729.      0.00 
  -5   0  10   9575.32  289.52  0. 1.0000  4730.      0.00 
  -5   0   9  10732.90  366.58  0. 1.0000  4731.      0.00 
  -5   0   9  10655.60  450.27  0. 1.0000  4732.      0.00 
  -5   0   9  11146.90  434.61  0. 1.0000  4733.      0.00 
  -5   0   8    182.89   85.43  0. 1.0000  4734.      0.00 
  -5   0   8    326.26   92.39  0. 1.0000  4735.      0.00 
  -5   0   8    271.32  108.58  0. 1.0000  4736.      0.00 
  -5   0   8    183.51   78.79  0. 1.0000  4737.      0.00 
  -5   0   8    133.92   91.83  0. 1.0000  4738.      0.00 
  -5   0   7  79229.11 1385.96  0. 1.0000  4739.      0.00 
  -5   0   7  82099.41 1470.10  0. 1.0000  4740.      0.00 
  -5   0   7  80547.11 1401.40  0. 1.0000  4741.      0.00 
  -5   0   7  82899.91 1431.56  0. 1.0000  4742.      0.00 
  -5   0   6    162.83   91.70  0. 1.0000  4743.      0.00 
  -5   0   6    138.33   94.29  0. 1.0000  4744.      0.00 
  -5   0   6    128.46   99.02  0. 1.0000  4745.      0.00 
  -5   0   5  80031.91 1345.23  0. 1.0000  4746.      0.00 
  -5   0   5  80494.49 1445.39  0. 1.0000  4747.      0.00 
  -5   0   5  77119.89 1316.95  0. 1.0000  4748.      0.00 
  -5   0   5  80712.30 1466.97  0. 1.0000  4749.      0.00 
   5   0  -4  48912.20 1057.53  0. 1.0000  4750.      0.00 
   5   0  -3  39620.10  902.12  0. 1.0000  4751.      0.00 
   5   0  -2   7851.24  398.48  0. 1.0000  4752.      0.00 
   5   0  -2   7667.14  392.07  0. 1.0000  4753.      0.00 
   5   0  -1  39235.10  885.17  0. 1.0000  4754.      0.00 
   5   0  -1  38416.40  895.59  0. 1.0000  4755.      0.00 
   5   0  -1  38907.50  873.66  0. 1.0000  4756.      0.00 
   5   0   0  75865.21 1237.04  0. 1.0000  4757.      0.00 
   5   0   0  74357.11 1258.35  0. 1.0000  4758.      0.00 
   5   0   0  74545.00 1281.86  0. 1.0000  4759.      0.00 
   5   0   1  11726.90  501.54  0. 1.0000  4760.      0.00 
   5   0   1  11981.50  522.73  0. 1.0000  4761.      0.00 
   5   0   1  11971.10  532.71  0. 1.0000  4762.      0.00 
   5   0   2 188604.00 2053.80  0. 1.0000  4763.      0.00 
   5   0   2 192954.00 2065.10  0. 1.0000  4764.      0.00 
   5   0   3  44352.30 1021.84  0. 1.0000  4765.      0.00 
   5   0   3  45652.30 1014.06  0. 1.0000  4766.      0.00 
   5   0   3  45371.20 1029.35  0. 1.0000  4767.      0.00 
   5   0   4  45356.11 1010.06  0. 1.0000  4768.      0.00 
   5   0   4  44474.70  947.22  0. 1.0000  4769.      0.00 
   5   0   4  45083.00 1016.18  0. 1.0000  4770.      0.00 
   5   0   4  44175.20  973.31  0. 1.0000  4771.      0.00 
   5   0   4  45119.61  961.62  0. 1.0000  4772.      0.00 
   5   0   4  44850.20 1065.66  0. 1.0000  4773.      0.00 
   5   0   5    843.19  137.14  0. 1.0000  4774.      0.00 
   5   0   5    879.78  140.44  0. 1.0000  4775.      0.00 
   5   0   5    879.53  133.98  0. 1.0000  4776.      0.00 
   5   0   5    842.49  151.57  0. 1.0000  4777.      0.00 
   5   0   6   4615.51  231.49  0. 1.0000  4778.      0.00 
   5   0   6   4997.93  234.32  0. 1.0000  4779.      0.00 
   5   0   6   4810.05  266.68  0. 1.0000  4780.      0.00 
  -5  -1  10  32338.50  626.24  0. 1.0000  4781.      0.00 
  -5  -1  10  33918.60  632.09  0. 1.0000  4782.      0.00 
  -5  -1   9  12755.70  506.43  0. 1.0000  4783.      0.00 
  -5  -1   9  12197.80  435.37  0. 1.0000  4784.      0.00 
  -5  -1   9  12624.80  485.50  0. 1.0000  4785.      0.00 
  -5  -1   8  52933.60 1073.61  0. 1.0000  4786.      0.00 
  -5  -1   8  54218.20 1154.15  0. 1.0000  4787.      0.00 
  -5  -1   8  52221.70 1077.34  0. 1.0000  4788.      0.00 
  -5  -1   8  52036.20 1072.56  0. 1.0000  4789.      0.00 
  -5  -1   7  34178.50  940.47  0. 1.0000  4790.      0.00 
   5   1  -7  32853.50  819.51  0. 1.0000  4791.      0.00 
  -5  -1   7  34717.40  936.43  0. 1.0000  4792.      0.00 
  -5  -1   7  34690.30  947.04  0. 1.0000  4793.      0.00 
  -5  -1   7  32135.30  853.08  0. 1.0000  4794.      0.00 
  -5  -1   6  33010.50  929.64  0. 1.0000  4795.      0.00 
   5   1  -6  31701.70  814.41  0. 1.0000  4796.      0.00 
  -5  -1   6  32160.90  872.52  0. 1.0000  4797.      0.00 
  -5  -1   5  88825.70 1470.16  0. 1.0000  4798.      0.00 
   5   1  -5  84654.01 1306.00  0. 1.0000  4799.      0.00 
  -5  -1   5  88892.00 1396.08  0. 1.0000  4800.      0.00 
  -5  -1   5  89347.50 1505.21  0. 1.0000  4801.      0.00 
   5   1  -4  17862.00  637.89  0. 1.0000  4802.      0.00 
   5   1  -3  83646.50 1287.39  0. 1.0000  4803.      0.00 
   5   1  -3  84196.90 1354.18  0. 1.0000  4804.      0.00 
   5   1  -3  85146.89 1375.42  0. 1.0000  4805.      0.00 
   5   1  -2    874.20  143.04  0. 1.0000  4806.      0.00 
   5   1  -2   1107.79  166.60  0. 1.0000  4807.      0.00 
   5   1  -2    859.83  149.02  0. 1.0000  4808.      0.00 
   5   1  -1  92921.80 1393.73  0. 1.0000  4809.      0.00 
   5   1  -1  92769.30 1452.42  0. 1.0000  4810.      0.00 
   5   1   0  59088.00 1169.38  0. 1.0000  4811.      0.00 
   5   1   0  60300.00 1147.75  0. 1.0000  4812.      0.00 
   5   1   0  62650.40 1220.86  0. 1.0000  4813.      0.00 
   5   1   1  95710.30 1423.62  0. 1.0000  4814.      0.00 
   5   1   1  97198.89 1490.63  0. 1.0000  4815.      0.00 
   5   1   2   9146.36  456.61  0. 1.0000  4816.      0.00 
   5   1   2   9468.39  474.80  0. 1.0000  4817.      0.00 
   5   1   3   9490.62  460.48  0. 1.0000  4818.      0.00 
   5   1   3   9191.44  436.11  0. 1.0000  4819.      0.00 
   5   1   4  25688.00  659.25  0. 1.0000  4820.      0.00 
   5   1   4  26310.30  767.25  0. 1.0000  4821.      0.00 
   5   1   5    481.69   96.03  0. 1.0000  4822.      0.00 
   5   1   5    381.05   82.28  0. 1.0000  4823.      0.00 
   5   1   5    527.13   87.82  0. 1.0000  4824.      0.00 
   5   1   5    456.24  104.20  0. 1.0000  4825.      0.00 
  -5  -2  10  30718.60  622.03  0. 1.0000  4826.      0.00 
  -5  -2  10  31167.20  638.29  0. 1.0000  4827.      0.00 
  -5  -2   9   4802.08  302.34  0. 1.0000  4828.      0.00 
  -5  -2   9   4724.00  308.60  0. 1.0000  4829.      0.00 
  -5  -2   9   4604.84  300.99  0. 1.0000  4830.      0.00 
  -5  -2   9   5103.06  309.00  0. 1.0000  4831.      0.00 
  -5  -2   8  46069.40 1035.49  0. 1.0000  4832.      0.00 
  -5  -2   8  45913.50 1029.26  0. 1.0000  4833.      0.00 
  -5  -2   8  45925.40 1054.69  0. 1.0000  4834.      0.00 
  -5  -2   8  45291.40  961.44  0. 1.0000  4835.      0.00 
  -5  -2   7   1949.13  239.07  0. 1.0000  4836.      0.00 
  -5  -2   7   1820.03  216.74  0. 1.0000  4837.      0.00 
  -5  -2   7   2120.50  244.47  0. 1.0000  4838.      0.00 
  -5  -2   7   2301.86  222.73  0. 1.0000  4839.      0.00 
  -5  -2   6  45912.20 1073.77  0. 1.0000  4840.      0.00 
  -5  -2   6  47060.90 1044.69  0. 1.0000  4841.      0.00 
  -5  -2   6  47040.80 1095.18  0. 1.0000  4842.      0.00 
  -5  -2   5  28683.90  826.24  0. 1.0000  4843.      0.00 
   5   2  -5  27992.80  739.56  0. 1.0000  4844.      0.00 
  -5  -2   5  29107.60  814.28  0. 1.0000  4845.      0.00 
  -5  -2   5  28759.60  832.33  0. 1.0000  4846.      0.00 
   5   2  -4  37755.00  907.85  0. 1.0000  4847.      0.00 
   5   2  -3 114242.00 1593.80  0. 1.0000  4848.      0.00 
   5   2  -2  27352.40  796.98  0. 1.0000  4849.      0.00 
   5   2  -1 221286.00 2207.90  0. 1.0000  4850.      0.00 
   5   2  -1 218853.98 2202.80  0. 1.0000  4851.      0.00 
   5   2   0   3761.76  297.71  0. 1.0000  4852.      0.00 
   5   2   0    388.29  117.00  0. 1.0000  4853.      0.00 
   5   2   1  42608.70  934.52  0. 1.0000  4854.      0.00 
   5   2   1  43039.61 1015.66  0. 1.0000  4855.      0.00 
   5   2   1  43343.90  976.89  0. 1.0000  4856.      0.00 
   5   2   2  31809.90  804.50  0. 1.0000  4857.      0.00 
   5   2   2  33932.70  883.21  0. 1.0000  4858.      0.00 
   5   2   2  33661.60  833.84  0. 1.0000  4859.      0.00 
  -5  -2  -3  25550.90  743.75  0. 1.0000  4860.      0.00 
   5   2   3  25483.50  757.46  0. 1.0000  4861.      0.00 
   5   2   3  24617.50  646.26  0. 1.0000  4862.      0.00 
   5   2   4  24101.60  630.42  0. 1.0000  4863.      0.00 
   5   2   4  24391.10  636.56  0. 1.0000  4864.      0.00 
   5   2   5  26068.80  489.02  0. 1.0000  4865.      0.00 
  -5  -3  10  67614.11  989.81  0. 1.0000  4866.      0.00 
  -5  -3  10  66931.70  912.22  0. 1.0000  4867.      0.00 
  -5  -3   9  21335.30  654.52  0. 1.0000  4868.      0.00 
  -5  -3   9  21983.50  658.95  0. 1.0000  4869.      0.00 
  -5  -3   9  21167.00  658.71  0. 1.0000  4870.      0.00 
  -5  -3   9  21524.00  593.25  0. 1.0000  4871.      0.00 
  -5  -3   8  91982.00 1478.80  0. 1.0000  4872.      0.00 
  -5  -3   8  89523.30 1384.90  0. 1.0000  4873.      0.00 
  -5  -3   8  93298.50 1496.99  0. 1.0000  4874.      0.00 
  -5  -3   7   3255.64  294.36  0. 1.0000  4875.      0.00 
  -5  -3   7   3337.04  301.60  0. 1.0000  4876.      0.00 
  -5  -3   6 144433.00 1859.70  0. 1.0000  4877.      0.00 
  -5  -3   6 144759.00 1865.90  0. 1.0000  4878.      0.00 
   5   3  -5   6282.67  376.21  0. 1.0000  4879.      0.00 
  -5  -3   5   6374.87  386.74  0. 1.0000  4880.      0.00 
  -5  -3   5   6479.83  387.33  0. 1.0000  4881.      0.00 
   5   3  -4  90171.40 1420.00  0. 1.0000  4882.      0.00 
   5   3  -4  88239.49 1328.56  0. 1.0000  4883.      0.00 
   5   3  -3  44165.30 1010.09  0. 1.0000  4884.      0.00 
   5   3  -3  43154.10  955.33  0. 1.0000  4885.      0.00 
   5   3  -2    438.49  124.86  0. 1.0000  4886.      0.00 
   5   3  -2    516.09  126.25  0. 1.0000  4887.      0.00 
   5   3  -1   9933.84  491.60  0. 1.0000  4888.      0.00 
   5   3  -1   9447.31  473.29  0. 1.0000  4889.      0.00 
   5   3   0  11372.70  515.28  0. 1.0000  4890.      0.00 
   5   3   0  11190.60  516.39  0. 1.0000  4891.      0.00 
   5   3   1  50259.40 1058.93  0. 1.0000  4892.      0.00 
   5   3   1  50020.80 1027.66  0. 1.0000  4893.      0.00 
  -5  -3  -2    640.10  135.91  0. 1.0000  4894.      0.00 
   5   3   2    996.43  145.62  0. 1.0000  4895.      0.00 
  -5  -3  -3  14785.70  460.35  0. 1.0000  4896.      0.00 
   5   3   3  14244.30  477.96  0. 1.0000  4897.      0.00 
   5   3   3  13462.70  415.20  0. 1.0000  4898.      0.00 
   5   3   4    553.49   79.75  0. 1.0000  4899.      0.00 
   5   3   4    516.07   74.97  0. 1.0000  4900.      0.00 
   5   3   4    532.70   76.88  0. 1.0000  4901.      0.00 
  -5  -4  10   4036.37  222.54  0. 1.0000  4902.      0.00 
  -5  -4  10   4408.79  257.72  0. 1.0000  4903.      0.00 
  -5  -4   9   9647.10  429.12  0. 1.0000  4904.      0.00 
  -5  -4   9   9658.29  442.33  0. 1.0000  4905.      0.00 
  -5  -4   8  51073.40 1079.79  0. 1.0000  4906.      0.00 
  -5  -4   8  49038.60 1004.65  0. 1.0000  4907.      0.00 
  -5  -4   8  51520.10 1072.88  0. 1.0000  4908.      0.00 
   5   4  -7    764.02  137.76  0. 1.0000  4909.      0.00 
  -5  -4   7    694.58  149.93  0. 1.0000  4910.      0.00 
  -5  -4   7    774.50  153.89  0. 1.0000  4911.      0.00 
   5   4  -6  82933.51 1338.13  0. 1.0000  4912.      0.00 
  -5  -4   6  85931.50 1392.35  0. 1.0000  4913.      0.00 
  -5  -4   6  84230.70 1353.71  0. 1.0000  4914.      0.00 
   5   4  -5   6245.27  384.60  0. 1.0000  4915.      0.00 
  -5  -4   5   6498.94  372.28  0. 1.0000  4916.      0.00 
   5   4  -4 102809.00 1566.30  0. 1.0000  4917.      0.00 
   5   4  -3    295.17  111.89  0. 1.0000  4918.      0.00 
   5   4  -3    405.61  106.54  0. 1.0000  4919.      0.00 
  -5  -4   3    388.54  130.81  0. 1.0000  4920.      0.00 
   5   4  -2 126346.99 1753.30  0. 1.0000  4921.      0.00 
   5   4  -2 122967.00 1634.60  0. 1.0000  4922.      0.00 
  -5  -4   2 122845.99 1860.90  0. 1.0000  4923.      0.00 
   5   4  -2 122307.00 1672.40  0. 1.0000  4924.      0.00 
   5   4  -1   6441.58  393.49  0. 1.0000  4925.      0.00 
   5   4  -1   5465.70  352.86  0. 1.0000  4926.      0.00 
  -5  -4   1   5263.30  392.53  0. 1.0000  4927.      0.00 
  -5  -4   0  20022.30  728.96  0. 1.0000  4928.      0.00 
   5   4   0  20292.90  650.69  0. 1.0000  4929.      0.00 
   5   4   0  20428.60  659.95  0. 1.0000  4930.      0.00 
  -5  -4  -1  27042.40  767.50  0. 1.0000  4931.      0.00 
   5   4   1  27139.20  700.57  0. 1.0000  4932.      0.00 
  -5  -4  -2  11002.10  404.20  0. 1.0000  4933.      0.00 
   5   4   2  10954.60  398.37  0. 1.0000  4934.      0.00 
   5   4   2  10759.90  380.91  0. 1.0000  4935.      0.00 
   5   4   3  24454.40  477.85  0. 1.0000  4936.      0.00 
   5   4   3  25081.60  470.49  0. 1.0000  4937.      0.00 
  -5  -5  10   9724.42  337.77  0. 1.0000  4938.      0.00 
  -5  -5  10   9696.56  352.53  0. 1.0000  4939.      0.00 
  -5  -5   9  43735.90  856.00  0. 1.0000  4940.      0.00 
  -5  -5   9  43010.20  833.74  0. 1.0000  4941.      0.00 
  -5  -5   8   6772.70  373.19  0. 1.0000  4942.      0.00 
  -5  -5   8   7606.56  369.62  0. 1.0000  4943.      0.00 
  -5  -5   8   7295.06  383.51  0. 1.0000  4944.      0.00 
   5   5  -7  50360.60  954.50  0. 1.0000  4945.      0.00 
  -5  -5   7  52761.90 1026.39  0. 1.0000  4946.      0.00 
   5   5  -6  17847.90  604.88  0. 1.0000  4947.      0.00 
   5   5  -5   2320.46  235.17  0. 1.0000  4948.      0.00 
  -5  -5   5   2279.87  220.38  0. 1.0000  4949.      0.00 
   5   5  -4  39230.80  949.52  0. 1.0000  4950.      0.00 
  -5  -5   4  38712.10 1000.15  0. 1.0000  4951.      0.00 
   5   5  -3  11036.20  504.00  0. 1.0000  4952.      0.00 
  -5  -5   3  10488.90  530.35  0. 1.0000  4953.      0.00 
   5   5  -3  10791.50  498.47  0. 1.0000  4954.      0.00 
   5   5  -2  43352.30  966.64  0. 1.0000  4955.      0.00 
   5   5  -2  40424.80  858.74  0. 1.0000  4956.      0.00 
   5   5  -2  43169.50  924.05  0. 1.0000  4957.      0.00 
  -5  -5   2  40219.60 1030.53  0. 1.0000  4958.      0.00 
   5   5  -1  11466.00  448.79  0. 1.0000  4959.      0.00 
  -5  -5   1  12529.40  554.99  0. 1.0000  4960.      0.00 
   5   5  -1  12778.50  504.25  0. 1.0000  4961.      0.00 
  -5  -5   0   4701.16  312.67  0. 1.0000  4962.      0.00 
   5   5   0   4902.36  291.80  0. 1.0000  4963.      0.00 
   5   5   1   2151.16  163.33  0. 1.0000  4964.      0.00 
   5   5   1   2567.42  182.58  0. 1.0000  4965.      0.00 
  -5  -5  -1   2131.21  176.25  0. 1.0000  4966.      0.00 
  -5  -6  10   4470.54  209.80  0. 1.0000  4967.      0.00 
  -5  -6   9  38442.30  741.60  0. 1.0000  4968.      0.00 
  -5  -6   9  36714.30  640.74  0. 1.0000  4969.      0.00 
  -5  -6   8   5629.87  316.01  0. 1.0000  4970.      0.00 
   5   6  -8   5322.90  284.84  0. 1.0000  4971.      0.00 
  -5  -6   7  28631.60  721.17  0. 1.0000  4972.      0.00 
   5   6  -7  28869.40  721.07  0. 1.0000  4973.      0.00 
   5   6  -6   5346.98  303.37  0. 1.0000  4974.      0.00 
  -5  -6   6   5229.96  307.23  0. 1.0000  4975.      0.00 
   5   6  -6   5567.40  341.10  0. 1.0000  4976.      0.00 
   5   6  -5  31690.50  759.28  0. 1.0000  4977.      0.00 
   5   6  -5  32600.10  828.87  0. 1.0000  4978.      0.00 
   5   6  -4  14763.20  523.73  0. 1.0000  4979.      0.00 
  -5  -6   4  13643.10  551.93  0. 1.0000  4980.      0.00 
   5   6  -4  15159.90  555.35  0. 1.0000  4981.      0.00 
  -5  -6   3  15600.90  514.07  0. 1.0000  4982.      0.00 
  -5  -6   3  14485.80  568.32  0. 1.0000  4983.      0.00 
   5   6  -3  15651.40  532.70  0. 1.0000  4984.      0.00 
   5   6  -3  15967.70  536.66  0. 1.0000  4985.      0.00 
  -5  -6   2  36366.20  854.89  0. 1.0000  4986.      0.00 
   5   6  -2  38209.90  742.59  0. 1.0000  4987.      0.00 
   5   6  -2  38337.90  788.27  0. 1.0000  4988.      0.00 
  -5  -6   1  87162.09 1193.70  0. 1.0000  4989.      0.00 
   5   6  -1  89496.51 1106.82  0. 1.0000  4990.      0.00 
  -5  -6   0 103585.99 1105.90  0. 1.0000  4991.      0.00 
  -5  -6   0 105400.00 1059.30  0. 1.0000  4992.      0.00 
   5   6   0 106765.01 1024.50  0. 1.0000  4993.      0.00 
  -5  -7   9   4000.03  201.93  0. 1.0000  4994.      0.00 
  -5  -7   8  10675.30  362.01  0. 1.0000  4995.      0.00 
  -5  -7   8  10337.90  352.84  0. 1.0000  4996.      0.00 
   5   7  -8  10487.40  333.47  0. 1.0000  4997.      0.00 
  -5  -7   7  31440.20  682.63  0. 1.0000  4998.      0.00 
  -5  -7   7  30942.50  613.24  0. 1.0000  4999.      0.00 
   5   7  -7  31129.10  641.99  0. 1.0000  5000.      0.00 
  -5  -7   6  11959.70  437.21  0. 1.0000  5001.      0.00 
   5   7  -6  11629.00  415.69  0. 1.0000  5002.      0.00 
  -5  -7   5  51871.70  887.24  0. 1.0000  5003.      0.00 
   5   7  -5  54166.40  902.96  0. 1.0000  5004.      0.00 
   5   7  -5  51729.10  779.05  0. 1.0000  5005.      0.00 
  -5  -7   4   1774.36  161.05  0. 1.0000  5006.      0.00 
  -5  -7   4   1910.77  182.33  0. 1.0000  5007.      0.00 
   5   7  -4   1973.46  173.58  0. 1.0000  5008.      0.00 
   5   7  -4   2034.36  161.67  0. 1.0000  5009.      0.00 
  -5  -7   3  18155.90  516.48  0. 1.0000  5010.      0.00 
   5   7  -3  19271.20  462.73  0. 1.0000  5011.      0.00 
   5   7  -3  19144.00  461.16  0. 1.0000  5012.      0.00 
  -5  -7   2   9515.81  331.23  0. 1.0000  5013.      0.00 
  -5  -7   2   9345.01  308.49  0. 1.0000  5014.      0.00 
   5   7  -2   9990.79  300.47  0. 1.0000  5015.      0.00 
  -5  -8   7  16894.80  385.75  0. 1.0000  5016.      0.00 
  -5  -8   6  14485.00  361.43  0. 1.0000  5017.      0.00 
   5   8  -6  15205.00  358.19  0. 1.0000  5018.      0.00 
   5   8  -5  27841.20  472.22  0. 1.0000  5019.      0.00 
   6 -10   1   8716.15  301.67  0. 1.0000  5020.      0.00 
   6 -10   1   8687.90  307.26  0. 1.0000  5021.      0.00 
   6 -10   2  37259.30  647.26  0. 1.0000  5022.      0.00 
   6 -10   2  38512.60  585.96  0. 1.0000  5023.      0.00 
   6 -10   2  38251.40  690.80  0. 1.0000  5024.      0.00 
  -6  10  -3   4995.06  250.63  0. 1.0000  5025.      0.00 
   6 -10   3   5400.43  263.13  0. 1.0000  5026.      0.00 
   6 -10   3   5112.76  252.09  0. 1.0000  5027.      0.00 
  -6  10  -4  30157.70  616.38  0. 1.0000  5028.      0.00 
   6 -10   4  30373.80  626.80  0. 1.0000  5029.      0.00 
  -6  10  -5   1469.02  134.82  0. 1.0000  5030.      0.00 
   6 -10   5   1575.55  144.79  0. 1.0000  5031.      0.00 
   6 -10   6  38652.39  615.03  0. 1.0000  5032.      0.00 
   6  -9  -1  29944.20  615.13  0. 1.0000  5033.      0.00 
   6  -9  -1  30943.10  581.68  0. 1.0000  5034.      0.00 
   6  -9   0   1347.26  159.42  0. 1.0000  5035.      0.00 
  -6   9   0   1207.44  123.81  0. 1.0000  5036.      0.00 
   6  -9   0   1279.15  141.62  0. 1.0000  5037.      0.00 
   6  -9   0   1754.72  179.59  0. 1.0000  5038.      0.00 
  -6   9  -1  97647.09 1257.45  0. 1.0000  5039.      0.00 
   6  -9   1  98458.41 1252.69  0. 1.0000  5040.      0.00 
   6  -9   1  96009.39 1334.60  0. 1.0000  5041.      0.00 
   6  -9   1  99027.11 1379.21  0. 1.0000  5042.      0.00 
   6  -9   2    222.39   84.45  0. 1.0000  5043.      0.00 
   6  -9   2    452.43  107.73  0. 1.0000  5044.      0.00 
   6  -9   2    251.14   84.95  0. 1.0000  5045.      0.00 
   6  -9   3  15298.50  504.88  0. 1.0000  5046.      0.00 
   6  -9   3  14489.00  496.82  0. 1.0000  5047.      0.00 
   6  -9   3  15538.80  527.28  0. 1.0000  5048.      0.00 
   6  -9   4   1409.80  172.97  0. 1.0000  5049.      0.00 
   6  -9   4   1277.46  147.79  0. 1.0000  5050.      0.00 
   6  -9   5   5303.67  302.78  0. 1.0000  5051.      0.00 
   6  -9   5   6008.57  327.57  0. 1.0000  5052.      0.00 
   6  -9   5   5788.96  274.86  0. 1.0000  5053.      0.00 
   6  -9   5   5858.04  297.37  0. 1.0000  5054.      0.00 
   6  -9   6  11232.40  392.29  0. 1.0000  5055.      0.00 
  -6   9  -6  12580.10  385.70  0. 1.0000  5056.      0.00 
   6  -9   6  12024.40  423.56  0. 1.0000  5057.      0.00 
   6  -9   6  12265.60  380.90  0. 1.0000  5058.      0.00 
   6  -9   7    588.52   87.61  0. 1.0000  5059.      0.00 
   6  -8  -3  10511.10  320.79  0. 1.0000  5060.      0.00 
   6  -8  -2  13242.30  462.98  0. 1.0000  5061.      0.00 
   6  -8  -2  13770.90  451.78  0. 1.0000  5062.      0.00 
   6  -8  -1  53847.60 1069.30  0. 1.0000  5063.      0.00 
  -6   8   1  53999.50  923.80  0. 1.0000  5064.      0.00 
   6  -8  -1  56721.80 1020.99  0. 1.0000  5065.      0.00 
   6  -8  -1  54711.60 1082.36  0. 1.0000  5066.      0.00 
   6  -8   0    147.61  100.50  0. 1.0000  5067.      0.00 
   6  -8   0    123.24   97.45  0. 1.0000  5068.      0.00 
  -6   8   0    126.82   84.62  0. 1.0000  5069.      0.00 
   6  -8   0    119.20   82.60  0. 1.0000  5070.      0.00 
   6  -8   1  45578.40 1061.32  0. 1.0000  5071.      0.00 
  -6   8  -1  46808.70 1073.43  0. 1.0000  5072.      0.00 
   6  -8   1  46242.20 1014.37  0. 1.0000  5073.      0.00 
   6  -8   1  46202.40 1083.54  0. 1.0000  5074.      0.00 
   6  -8   2    484.02  124.36  0. 1.0000  5075.      0.00 
   6  -8   2    293.70  108.04  0. 1.0000  5076.      0.00 
   6  -8   2    119.94   90.28  0. 1.0000  5077.      0.00 
   6  -8   3  63813.10 1173.37  0. 1.0000  5078.      0.00 
   6  -8   3  63044.20 1244.78  0. 1.0000  5079.      0.00 
   6  -8   3  65018.00 1183.84  0. 1.0000  5080.      0.00 
   6  -8   3  64579.89 1174.22  0. 1.0000  5081.      0.00 
   6  -8   4    894.51  161.42  0. 1.0000  5082.      0.00 
   6  -8   4    740.96  145.89  0. 1.0000  5083.      0.00 
   6  -8   4    592.94  124.20  0. 1.0000  5084.      0.00 
   6  -8   5  40823.39  913.59  0. 1.0000  5085.      0.00 
   6  -8   5  43780.80  958.41  0. 1.0000  5086.      0.00 
   6  -8   5  43066.61  875.60  0. 1.0000  5087.      0.00 
   6  -8   6   2058.56  187.48  0. 1.0000  5088.      0.00 
   6  -8   6   2180.38  207.20  0. 1.0000  5089.      0.00 
   6  -8   6   2361.76  188.87  0. 1.0000  5090.      0.00 
   6  -8   6   2249.79  195.45  0. 1.0000  5091.      0.00 
   6  -8   7  21661.90  544.72  0. 1.0000  5092.      0.00 
   6  -8   7  21673.50  498.88  0. 1.0000  5093.      0.00 
   6  -7  -4  17891.00  449.87  0. 1.0000  5094.      0.00 
   6  -7  -3   1959.25  155.20  0. 1.0000  5095.      0.00 
   6  -7  -3   1819.81  189.62  0. 1.0000  5096.      0.00 
   6  -7  -3   1999.31  190.67  0. 1.0000  5097.      0.00 
  -6   7   2  40298.50  878.26  0. 1.0000  5098.      0.00 
   6  -7  -2  41113.90  995.60  0. 1.0000  5099.      0.00 
   6  -7  -2  41079.10  932.18  0. 1.0000  5100.      0.00 
   6  -7  -2  40613.70  998.39  0. 1.0000  5101.      0.00 
   6  -7  -1   8182.62  480.03  0. 1.0000  5102.      0.00 
  -6   7   1   8593.48  474.77  0. 1.0000  5103.      0.00 
   6  -7  -1   8345.62  448.51  0. 1.0000  5104.      0.00 
   6  -7  -1   8252.49  492.72  0. 1.0000  5105.      0.00 
  -6   7   0  64915.30 1376.37  0. 1.0000  5106.      0.00 
   6  -7   0  65527.20 1282.95  0. 1.0000  5107.      0.00 
   6  -7   0  65057.40 1359.68  0. 1.0000  5108.      0.00 
   6  -7   0  64001.90 1378.61  0. 1.0000  5109.      0.00 
   6  -7   1  10728.20  552.73  0. 1.0000  5110.      0.00 
  -6   7  -1  11206.10  586.22  0. 1.0000  5111.      0.00 
   6  -7   1  10810.00  530.84  0. 1.0000  5112.      0.00 
   6  -7   1  10104.90  540.39  0. 1.0000  5113.      0.00 
   6  -7   2  10945.50  566.24  0. 1.0000  5114.      0.00 
   6  -7   2  11353.20  549.73  0. 1.0000  5115.      0.00 
   6  -7   2  11221.40  533.18  0. 1.0000  5116.      0.00 
   6  -7   2  11827.80  556.45  0. 1.0000  5117.      0.00 
   6  -7   3  73958.60 1335.70  0. 1.0000  5118.      0.00 
   6  -7   3  78329.40 1387.00  0. 1.0000  5119.      0.00 
   6  -7   3  75402.70 1354.56  0. 1.0000  5120.      0.00 
   6  -7   4    835.89  165.54  0. 1.0000  5121.      0.00 
   6  -7   4   1104.48  180.30  0. 1.0000  5122.      0.00 
   6  -7   4   1005.00  166.66  0. 1.0000  5123.      0.00 
   6  -7   5  53026.50 1105.80  0. 1.0000  5124.      0.00 
   6  -7   5  51469.40 1041.01  0. 1.0000  5125.      0.00 
   6  -7   5  52609.00 1071.63  0. 1.0000  5126.      0.00 
   6  -7   6    276.80   97.31  0. 1.0000  5127.      0.00 
   6  -7   6     51.41   66.03  0. 1.0000  5128.      0.00 
   6  -7   6    132.63   78.64  0. 1.0000  5129.      0.00 
   6  -7   7  17420.30  517.11  0. 1.0000  5130.      0.00 
   6  -7   7  16948.60  487.14  0. 1.0000  5131.      0.00 
   6  -6  -5   2103.26  157.99  0. 1.0000  5132.      0.00 
  -6   6   5   2255.44  150.71  0. 1.0000  5133.      0.00 
   6  -6  -4  39383.20  835.01  0. 1.0000  5134.      0.00 
  -6   6   4  38297.60  733.84  0. 1.0000  5135.      0.00 
  -6   6   3   5715.50  308.48  0. 1.0000  5136.      0.00 
  -6   6   3   6169.20  360.50  0. 1.0000  5137.      0.00 
   6  -6  -3   5777.90  387.46  0. 1.0000  5138.      0.00 
   6  -6  -3   5930.39  369.41  0. 1.0000  5139.      0.00 
   6  -6  -2  78315.10 1502.51  0. 1.0000  5140.      0.00 
  -6   6   2  76684.51 1468.61  0. 1.0000  5141.      0.00 
   6  -6  -2  78140.60 1392.53  0. 1.0000  5142.      0.00 
  -6   6   2  78135.89 1377.26  0. 1.0000  5143.      0.00 
   6  -6  -2  76666.90 1537.33  0. 1.0000  5144.      0.00 
   6  -6  -1   2792.74  249.28  0. 1.0000  5145.      0.00 
   6  -6  -1   2537.46  286.36  0. 1.0000  5146.      0.00 
  -6   6   1   3195.48  332.13  0. 1.0000  5147.      0.00 
   6  -6  -1   2490.96  262.29  0. 1.0000  5148.      0.00 
   6  -6  -1   2629.83  301.55  0. 1.0000  5149.      0.00 
   6  -6   0  31721.90  823.10  0. 1.0000  5150.      0.00 
   6  -6   0  30319.40  955.52  0. 1.0000  5151.      0.00 
  -6   6   0  30812.10 1020.03  0. 1.0000  5152.      0.00 
   6  -6   0  29555.60  888.06  0. 1.0000  5153.      0.00 
   6  -6   0  30723.00  981.25  0. 1.0000  5154.      0.00 
   6  -6   1  18282.10  728.89  0. 1.0000  5155.      0.00 
  -6   6  -1  18931.60  788.91  0. 1.0000  5156.      0.00 
   6  -6   1  18862.00  703.49  0. 1.0000  5157.      0.00 
   6  -6   1  18195.80  722.33  0. 1.0000  5158.      0.00 
   6  -6   2  92546.89 1589.50  0. 1.0000  5159.      0.00 
   6  -6   2  94829.90 1565.51  0. 1.0000  5160.      0.00 
   6  -6   2  94734.71 1535.73  0. 1.0000  5161.      0.00 
   6  -6   3  40746.50 1000.47  0. 1.0000  5162.      0.00 
   6  -6   3  39700.80 1010.45  0. 1.0000  5163.      0.00 
   6  -6   4  25508.10  804.54  0. 1.0000  5164.      0.00 
   6  -6   4  28016.70  837.21  0. 1.0000  5165.      0.00 
   6  -6   4  28176.20  838.42  0. 1.0000  5166.      0.00 
   6  -6   5  57007.80 1162.99  0. 1.0000  5167.      0.00 
   6  -6   5  54661.80 1120.01  0. 1.0000  5168.      0.00 
   6  -6   5  56459.10 1142.15  0. 1.0000  5169.      0.00 
   6  -6   6    711.05  138.52  0. 1.0000  5170.      0.00 
   6  -6   6    851.93  147.17  0. 1.0000  5171.      0.00 
   6  -6   7  27516.40  656.25  0. 1.0000  5172.      0.00 
   6  -6   7  28092.20  642.59  0. 1.0000  5173.      0.00 
  -6   5   6   2728.90  179.15  0. 1.0000  5174.      0.00 
  -6   5   5  91234.40 1224.88  0. 1.0000  5175.      0.00 
   6  -5  -5  89366.11 1234.99  0. 1.0000  5176.      0.00 
  -6   5   4   6153.06  352.61  0. 1.0000  5177.      0.00 
  -6   5   4   5668.78  347.64  0. 1.0000  5178.      0.00 
   6  -5  -4   6109.74  374.21  0. 1.0000  5179.      0.00 
  -6   5   3  82375.60 1301.14  0. 1.0000  5180.      0.00 
  -6   5   3  81540.00 1540.06  0. 1.0000  5181.      0.00 
   6  -5  -3  82624.90 1548.03  0. 1.0000  5182.      0.00 
   6  -5  -3  81832.70 1425.59  0. 1.0000  5183.      0.00 
  -6   5   3  81486.80 1444.29  0. 1.0000  5184.      0.00 
   6  -5  -2  16582.30  711.72  0. 1.0000  5185.      0.00 
  -6   5   2  15719.80  732.89  0. 1.0000  5186.      0.00 
   6  -5  -2  16119.70  647.18  0. 1.0000  5187.      0.00 
   6  -5  -2  16024.30  728.49  0. 1.0000  5188.      0.00 
   6  -5  -1   1064.94  170.95  0. 1.0000  5189.      0.00 
   6  -5  -1   1183.47  202.28  0. 1.0000  5190.      0.00 
  -6   5   1   1120.89  220.24  0. 1.0000  5191.      0.00 
   6  -5  -1   1105.58  182.45  0. 1.0000  5192.      0.00 
   6  -5   0 193339.00 2086.60  0. 1.0000  5193.      0.00 
   6  -5   0 194523.98 2379.90  0. 1.0000  5194.      0.00 
  -6   5   0 200262.02 2598.90  0. 1.0000  5195.      0.00 
   6  -5   0 192215.00 2227.60  0. 1.0000  5196.      0.00 
   6  -5   0 195136.00 2406.30  0. 1.0000  5197.      0.00 
   6  -5   1  18786.40  646.06  0. 1.0000  5198.      0.00 
   6  -5   1  17635.40  708.70  0. 1.0000  5199.      0.00 
  -6   5  -1  20052.30  798.40  0. 1.0000  5200.      0.00 
   6  -5   1  17956.80  681.67  0. 1.0000  5201.      0.00 
   6  -5   1  18349.90  700.57  0. 1.0000  5202.      0.00 
   6  -5   2  30330.20  816.66  0. 1.0000  5203.      0.00 
   6  -5   2  28724.30  881.72  0. 1.0000  5204.      0.00 
   6  -5   2  26405.20  879.61  0. 1.0000  5205.      0.00 
   6  -5   2  27898.60  846.36  0. 1.0000  5206.      0.00 
   6  -5   3    757.48  140.81  0. 1.0000  5207.      0.00 
   6  -5   3    463.89  137.55  0. 1.0000  5208.      0.00 
   6  -5   3    449.55  123.01  0. 1.0000  5209.      0.00 
   6  -5   3    264.70  105.78  0. 1.0000  5210.      0.00 
   6  -5   4  24745.00  726.78  0. 1.0000  5211.      0.00 
   6  -5   4  26581.40  808.85  0. 1.0000  5212.      0.00 
   6  -5   4  24899.90  727.54  0. 1.0000  5213.      0.00 
   6  -5   4  24315.70  793.02  0. 1.0000  5214.      0.00 
   6  -5   5  24513.00  682.46  0. 1.0000  5215.      0.00 
   6  -5   5  24328.10  763.64  0. 1.0000  5216.      0.00 
   6  -5   5  23167.00  681.37  0. 1.0000  5217.      0.00 
   6  -5   5  23955.40  754.74  0. 1.0000  5218.      0.00 
   6  -5   5  23693.80  746.69  0. 1.0000  5219.      0.00 
   6  -5   6   5988.67  357.31  0. 1.0000  5220.      0.00 
   6  -5   6   6052.01  323.31  0. 1.0000  5221.      0.00 
   6  -5   6   5484.08  336.45  0. 1.0000  5222.      0.00 
   6  -5   7  14883.80  469.32  0. 1.0000  5223.      0.00 
   6  -5   7  14054.80  413.21  0. 1.0000  5224.      0.00 
   6  -5   7  14866.40  461.85  0. 1.0000  5225.      0.00 
  -6   4   7  15654.10  422.64  0. 1.0000  5226.      0.00 
   6  -4  -7  15292.00  419.40  0. 1.0000  5227.      0.00 
  -6   4   7  15614.40  405.74  0. 1.0000  5228.      0.00 
  -6   4   6    155.39   78.72  0. 1.0000  5229.      0.00 
  -6   4   6    136.35   58.92  0. 1.0000  5230.      0.00 
  -6   4   5  65894.60 1196.49  0. 1.0000  5231.      0.00 
  -6   4   5  66251.80 1148.91  0. 1.0000  5232.      0.00 
  -6   4   5  68954.41 1050.73  0. 1.0000  5233.      0.00 
   6  -4  -5  66684.60 1157.67  0. 1.0000  5234.      0.00 
  -6   4   4  36736.90  921.49  0. 1.0000  5235.      0.00 
  -6   4   4  36177.50 1010.50  0. 1.0000  5236.      0.00 
   6  -4  -4  37251.90  934.96  0. 1.0000  5237.      0.00 
  -6   4   4  38410.00  992.94  0. 1.0000  5238.      0.00 
  -6   4   3  46970.80 1026.95  0. 1.0000  5239.      0.00 
   6  -4  -3  48541.00 1186.45  0. 1.0000  5240.      0.00 
  -6   4   3  44001.40 1212.95  0. 1.0000  5241.      0.00 
   6  -4  -3  47359.40 1077.74  0. 1.0000  5242.      0.00 
  -6   4   3  44251.80 1174.83  0. 1.0000  5243.      0.00 
  -6   4   2  58000.20 1110.55  0. 1.0000  5244.      0.00 
   6  -4  -2  55313.50 1272.52  0. 1.0000  5245.      0.00 
  -6   4   2  55415.60 1398.75  0. 1.0000  5246.      0.00 
   6  -4  -2  55598.00 1164.52  0. 1.0000  5247.      0.00 
   6  -4  -1 107023.01 1576.80  0. 1.0000  5248.      0.00 
   6  -4  -1 109417.00 1519.20  0. 1.0000  5249.      0.00 
   6  -4  -1 109170.01 1761.90  0. 1.0000  5250.      0.00 
  -6   4   1 111920.00 1947.60  0. 1.0000  5251.      0.00 
   6  -4  -1 108452.01 1615.30  0. 1.0000  5252.      0.00 
   6  -4   0   2437.32  245.25  0. 1.0000  5253.      0.00 
  -6   4   0   2306.59  281.08  0. 1.0000  5254.      0.00 
   6  -4   0   2290.20  243.56  0. 1.0000  5255.      0.00 
   6  -4   1  75161.09 1315.02  0. 1.0000  5256.      0.00 
   6  -4   1  76095.60 1439.28  0. 1.0000  5257.      0.00 
  -6   4  -1  79393.90 1491.46  0. 1.0000  5258.      0.00 
   6  -4   1  75034.70 1345.64  0. 1.0000  5259.      0.00 
   6  -4   2  41282.60  976.40  0. 1.0000  5260.      0.00 
   6  -4   2  40107.20 1003.72  0. 1.0000  5261.      0.00 
   6  -4   3    169.22   93.01  0. 1.0000  5262.      0.00 
   6  -4   3    162.45  101.10  0. 1.0000  5263.      0.00 
   6  -4   4  45576.20 1018.76  0. 1.0000  5264.      0.00 
   6  -4   4  47010.80 1060.84  0. 1.0000  5265.      0.00 
   6  -4   4  45828.70 1036.55  0. 1.0000  5266.      0.00 
   6  -4   4  45677.50 1079.63  0. 1.0000  5267.      0.00 
   6  -4   4  45895.40 1059.75  0. 1.0000  5268.      0.00 
   6  -4   5   3421.12  269.85  0. 1.0000  5269.      0.00 
   6  -4   5   3550.86  293.48  0. 1.0000  5270.      0.00 
   6  -4   5   3122.90  264.26  0. 1.0000  5271.      0.00 
   6  -4   5   3178.77  277.35  0. 1.0000  5272.      0.00 
   6  -4   6  33933.60  800.73  0. 1.0000  5273.      0.00 
   6  -4   6  31737.30  749.04  0. 1.0000  5274.      0.00 
   6  -4   6  34453.80  798.63  0. 1.0000  5275.      0.00 
   6  -4   7   4560.16  245.23  0. 1.0000  5276.      0.00 
   6  -4   7   4466.62  233.77  0. 1.0000  5277.      0.00 
   6  -4   7   4719.86  245.60  0. 1.0000  5278.      0.00 
  -6   3   8  50875.90  653.48  0. 1.0000  5279.      0.00 
  -6   3   7  18733.20  570.15  0. 1.0000  5280.      0.00 
  -6   3   7  19744.00  526.22  0. 1.0000  5281.      0.00 
  -6   3   6  13815.80  562.85  0. 1.0000  5282.      0.00 
  -6   3   6  13041.50  491.55  0. 1.0000  5283.      0.00 
  -6   3   6  13597.60  502.43  0. 1.0000  5284.      0.00 
  -6   3   5  24910.40  784.34  0. 1.0000  5285.      0.00 
  -6   3   5  24469.60  807.96  0. 1.0000  5286.      0.00 
  -6   3   5  24212.10  702.64  0. 1.0000  5287.      0.00 
  -6   3   5  24461.20  779.26  0. 1.0000  5288.      0.00 
  -6   3   4   7221.69  423.61  0. 1.0000  5289.      0.00 
  -6   3   4   7111.66  481.54  0. 1.0000  5290.      0.00 
  -6   3   4   7855.06  403.06  0. 1.0000  5291.      0.00 
  -6   3   4   7477.22  483.29  0. 1.0000  5292.      0.00 
  -6   3   3 101467.00 1526.20  0. 1.0000  5293.      0.00 
   6  -3  -3 102141.00 1667.20  0. 1.0000  5294.      0.00 
  -6   3   3  99726.20 1834.70  0. 1.0000  5295.      0.00 
  -6   3   3  96661.20 1789.54  0. 1.0000  5296.      0.00 
   6  -3  -2   3410.38  283.17  0. 1.0000  5297.      0.00 
   6  -3  -2   3363.95  309.35  0. 1.0000  5298.      0.00 
  -6   3   2   3547.53  354.67  0. 1.0000  5299.      0.00 
   6  -3  -2   3112.54  270.80  0. 1.0000  5300.      0.00 
   6  -3  -1  58524.30 1160.31  0. 1.0000  5301.      0.00 
   6  -3  -1  60858.70 1134.36  0. 1.0000  5302.      0.00 
  -6   3   1  61985.30 1374.14  0. 1.0000  5303.      0.00 
   6  -3  -1  58442.50 1137.07  0. 1.0000  5304.      0.00 
   6  -3  -1  59082.60 1260.98  0. 1.0000  5305.      0.00 
   6  -3   0  12566.00  533.72  0. 1.0000  5306.      0.00 
   6  -3   0  12725.30  510.28  0. 1.0000  5307.      0.00 
   6  -3   0  13223.30  596.81  0. 1.0000  5308.      0.00 
  -6   3   0  13711.20  614.42  0. 1.0000  5309.      0.00 
   6  -3   0  12516.80  531.64  0. 1.0000  5310.      0.00 
   6  -3   1  58054.00 1153.25  0. 1.0000  5311.      0.00 
   6  -3   1  57948.60 1160.82  0. 1.0000  5312.      0.00 
   6  -3   2  80562.80 1376.40  0. 1.0000  5313.      0.00 
   6  -3   2  82165.70 1424.79  0. 1.0000  5314.      0.00 
   6  -3   3   2279.37  243.57  0. 1.0000  5315.      0.00 
   6  -3   3   2137.49  245.45  0. 1.0000  5316.      0.00 
   6  -3   3   2042.20  230.14  0. 1.0000  5317.      0.00 
   6  -3   4  11951.00  531.30  0. 1.0000  5318.      0.00 
   6  -3   4  11813.40  524.42  0. 1.0000  5319.      0.00 
   6  -3   4  12624.90  552.56  0. 1.0000  5320.      0.00 
   6  -3   4  12159.20  556.82  0. 1.0000  5321.      0.00 
   6  -3   4  12204.80  536.95  0. 1.0000  5322.      0.00 
   6  -3   5   1090.28  161.81  0. 1.0000  5323.      0.00 
   6  -3   5   1091.43  165.81  0. 1.0000  5324.      0.00 
   6  -3   5   1067.76  165.97  0. 1.0000  5325.      0.00 
   6  -3   5   1122.52  165.68  0. 1.0000  5326.      0.00 
   6  -3   6  24656.50  635.58  0. 1.0000  5327.      0.00 
   6  -3   6  24161.80  628.76  0. 1.0000  5328.      0.00 
   6  -3   6  24667.50  628.01  0. 1.0000  5329.      0.00 
   6  -3   7   1060.71  107.45  0. 1.0000  5330.      0.00 
   6  -3   7   1011.30  102.33  0. 1.0000  5331.      0.00 
   6  -2  -8  23686.40  559.22  0. 1.0000  5332.      0.00 
  -6   2   8  25151.50  581.65  0. 1.0000  5333.      0.00 
  -6   2   8  24308.50  577.02  0. 1.0000  5334.      0.00 
  -6   2   7   9712.35  460.28  0. 1.0000  5335.      0.00 
  -6   2   7   9671.07  396.56  0. 1.0000  5336.      0.00 
  -6   2   7   9726.72  431.51  0. 1.0000  5337.      0.00 
  -6   2   6  49163.80 1099.00  0. 1.0000  5338.      0.00 
  -6   2   6  46641.61 1065.73  0. 1.0000  5339.      0.00 
  -6   2   6  47301.10 1020.34  0. 1.0000  5340.      0.00 
  -6   2   6  46323.11 1032.51  0. 1.0000  5341.      0.00 
  -6   2   5  13546.10  587.33  0. 1.0000  5342.      0.00 
  -6   2   5  13524.70  635.43  0. 1.0000  5343.      0.00 
  -6   2   5  12902.60  540.40  0. 1.0000  5344.      0.00 
  -6   2   5  12816.40  613.05  0. 1.0000  5345.      0.00 
  -6   2   4  28032.70  824.98  0. 1.0000  5346.      0.00 
  -6   2   4  27858.90  944.54  0. 1.0000  5347.      0.00 
  -6   2   4  27985.50  778.23  0. 1.0000  5348.      0.00 
  -6   2   4  28807.40  963.33  0. 1.0000  5349.      0.00 
  -6   2   3  55407.00 1314.88  0. 1.0000  5350.      0.00 
   6  -2  -3  53371.50 1119.55  0. 1.0000  5351.      0.00 
   6  -2  -3  53196.90 1159.95  0. 1.0000  5352.      0.00 
  -6   2   3  56812.80 1098.33  0. 1.0000  5353.      0.00 
  -6   2   3  53077.90 1316.53  0. 1.0000  5354.      0.00 
   6  -2  -2  12973.20  542.02  0. 1.0000  5355.      0.00 
   6  -2  -2  13083.20  540.52  0. 1.0000  5356.      0.00 
   6  -2  -2  12955.00  579.92  0. 1.0000  5357.      0.00 
  -6   2   2  13684.80  634.80  0. 1.0000  5358.      0.00 
  -6   2   2  12783.50  640.58  0. 1.0000  5359.      0.00 
   6  -2  -1  82794.49 1350.43  0. 1.0000  5360.      0.00 
   6  -2  -1  85400.50 1345.72  0. 1.0000  5361.      0.00 
   6  -2   0    283.65   99.44  0. 1.0000  5362.      0.00 
   6  -2   0    405.40  108.83  0. 1.0000  5363.      0.00 
   6  -2   0    289.57   98.36  0. 1.0000  5364.      0.00 
   6  -2   1  52430.00 1101.20  0. 1.0000  5365.      0.00 
   6  -2   1  54982.30 1083.23  0. 1.0000  5366.      0.00 
   6  -2   1  52907.50 1101.16  0. 1.0000  5367.      0.00 
   6  -2   2  62451.11 1215.68  0. 1.0000  5368.      0.00 
   6  -2   2  64867.30 1170.08  0. 1.0000  5369.      0.00 
   6  -2   2  60900.80 1217.23  0. 1.0000  5370.      0.00 
   6  -2   2  63340.20 1167.52  0. 1.0000  5371.      0.00 
   6  -2   3 236099.98 2380.10  0. 1.0000  5372.      0.00 
   6  -2   3 232417.00 2404.50  0. 1.0000  5373.      0.00 
   6  -2   3 230860.02 2262.80  0. 1.0000  5374.      0.00 
   6  -2   4  18484.60  647.30  0. 1.0000  5375.      0.00 
   6  -2   4  17913.00  641.62  0. 1.0000  5376.      0.00 
   6  -2   4  18473.80  624.92  0. 1.0000  5377.      0.00 
   6  -2   4  17382.00  605.76  0. 1.0000  5378.      0.00 
   6  -2   5   9475.21  418.59  0. 1.0000  5379.      0.00 
   6  -2   5   9459.90  426.97  0. 1.0000  5380.      0.00 
   6  -2   5   9593.58  416.04  0. 1.0000  5381.      0.00 
   6  -2   5   8982.91  406.38  0. 1.0000  5382.      0.00 
   6  -2   6   8815.73  343.63  0. 1.0000  5383.      0.00 
   6  -2   6   9365.02  336.62  0. 1.0000  5384.      0.00 
   6  -2   6   8534.04  319.77  0. 1.0000  5385.      0.00 
  -6   1   9   4784.00  228.85  0. 1.0000  5386.      0.00 
  -6   1   9   4643.31  216.12  0. 1.0000  5387.      0.00 
   6  -1  -8  36512.40  754.51  0. 1.0000  5388.      0.00 
  -6   1   8  37670.90  818.14  0. 1.0000  5389.      0.00 
  -6   1   8  36742.90  788.52  0. 1.0000  5390.      0.00 
  -6   1   7   1844.89  206.08  0. 1.0000  5391.      0.00 
   6  -1  -7   1939.12  214.09  0. 1.0000  5392.      0.00 
  -6   1   7   1808.31  201.92  0. 1.0000  5393.      0.00 
  -6   1   6  49418.80 1119.42  0. 1.0000  5394.      0.00 
  -6   1   6  47633.39 1140.21  0. 1.0000  5395.      0.00 
   6  -1  -6  49252.90 1090.55  0. 1.0000  5396.      0.00 
  -6   1   6  49555.39 1082.36  0. 1.0000  5397.      0.00 
  -6   1   6  48373.90 1139.91  0. 1.0000  5398.      0.00 
  -6   1   5   3432.57  300.60  0. 1.0000  5399.      0.00 
  -6   1   5   3666.95  343.88  0. 1.0000  5400.      0.00 
   6  -1  -5   3034.72  283.36  0. 1.0000  5401.      0.00 
  -6   1   5   2966.85  271.20  0. 1.0000  5402.      0.00 
  -6   1   5   3458.30  335.61  0. 1.0000  5403.      0.00 
   6  -1  -4  94538.01 1506.33  0. 1.0000  5404.      0.00 
  -6   1   4  97509.09 1495.12  0. 1.0000  5405.      0.00 
  -6   1   4  97009.49 1737.56  0. 1.0000  5406.      0.00 
  -6   1   4  97140.99 1697.04  0. 1.0000  5407.      0.00 
   6  -1  -3   1013.70  162.51  0. 1.0000  5408.      0.00 
   6  -1  -3   1121.74  170.44  0. 1.0000  5409.      0.00 
  -6   1   3   1324.15  203.64  0. 1.0000  5410.      0.00 
  -6   1   3   1658.42  241.53  0. 1.0000  5411.      0.00 
   6  -1  -2  68575.09 1220.62  0. 1.0000  5412.      0.00 
   6  -1  -2  71062.91 1255.98  0. 1.0000  5413.      0.00 
  -6   1   2  72116.70 1344.88  0. 1.0000  5414.      0.00 
  -6   1   2  73682.91 1423.93  0. 1.0000  5415.      0.00 
   6  -1  -1  54629.70 1088.18  0. 1.0000  5416.      0.00 
   6  -1  -1  52991.00 1081.67  0. 1.0000  5417.      0.00 
  -6   1   1  54496.00 1164.69  0. 1.0000  5418.      0.00 
   6  -1   0   4473.32  321.54  0. 1.0000  5419.      0.00 
   6  -1   0   4599.98  326.42  0. 1.0000  5420.      0.00 
   6  -1   1 202882.02 2184.00  0. 1.0000  5421.      0.00 
   6  -1   1 204465.00 2154.00  0. 1.0000  5422.      0.00 
   6  -1   1 207395.98 2136.60  0. 1.0000  5423.      0.00 
   6  -1   2  34920.70  917.72  0. 1.0000  5424.      0.00 
   6  -1   2  35954.00  901.06  0. 1.0000  5425.      0.00 
   6  -1   2  35039.80  908.92  0. 1.0000  5426.      0.00 
   6  -1   3  24708.40  762.43  0. 1.0000  5427.      0.00 
   6  -1   3  26748.30  736.18  0. 1.0000  5428.      0.00 
   6  -1   3  26520.00  789.68  0. 1.0000  5429.      0.00 
   6  -1   3  25311.90  778.77  0. 1.0000  5430.      0.00 
   6  -1   4   3032.01  261.53  0. 1.0000  5431.      0.00 
   6  -1   4   3212.88  264.32  0. 1.0000  5432.      0.00 
   6  -1   4   3306.98  245.46  0. 1.0000  5433.      0.00 
   6  -1   4   3118.53  261.17  0. 1.0000  5434.      0.00 
   6  -1   5  27251.80  640.44  0. 1.0000  5435.      0.00 
   6  -1   5  29016.00  608.63  0. 1.0000  5436.      0.00 
   6  -1   5  26969.60  657.83  0. 1.0000  5437.      0.00 
   6  -1   6   2312.96  143.09  0. 1.0000  5438.      0.00 
  -6   0   9  32482.80  685.43  0. 1.0000  5439.      0.00 
  -6   0   9  31979.50  588.27  0. 1.0000  5440.      0.00 
  -6   0   9  31239.40  620.98  0. 1.0000  5441.      0.00 
  -6   0   8   7461.88  365.61  0. 1.0000  5442.      0.00 
   6   0  -8   7476.06  346.63  0. 1.0000  5443.      0.00 
  -6   0   8   7672.96  398.16  0. 1.0000  5444.      0.00 
  -6   0   8   7579.59  369.53  0. 1.0000  5445.      0.00 
  -6   0   8   7440.06  368.23  0. 1.0000  5446.      0.00 
  -6   0   7  61032.30 1216.42  0. 1.0000  5447.      0.00 
   6   0  -7  61631.00 1127.56  0. 1.0000  5448.      0.00 
  -6   0   7  63533.20 1219.93  0. 1.0000  5449.      0.00 
  -6   0   7  60509.20 1208.99  0. 1.0000  5450.      0.00 
  -6   0   7  59725.00 1107.98  0. 1.0000  5451.      0.00 
  -6   0   6 105664.99 1704.70  0. 1.0000  5452.      0.00 
   6   0  -6 100374.01 1515.80  0. 1.0000  5453.      0.00 
  -6   0   6 102787.01 1567.40  0. 1.0000  5454.      0.00 
  -6   0   6 102611.01 1693.80  0. 1.0000  5455.      0.00 
  -6   0   5  17036.80  701.82  0. 1.0000  5456.      0.00 
   6   0  -5  16796.60  628.34  0. 1.0000  5457.      0.00 
  -6   0   5  17024.50  639.22  0. 1.0000  5458.      0.00 
  -6   0   5  17796.40  725.92  0. 1.0000  5459.      0.00 
   6   0  -4  66222.99 1178.85  0. 1.0000  5460.      0.00 
  -6   0   4  68969.71 1355.39  0. 1.0000  5461.      0.00 
   6   0  -4  66538.49 1236.35  0. 1.0000  5462.      0.00 
  -6   0   4  71172.10 1305.28  0. 1.0000  5463.      0.00 
  -6   0   4  69246.80 1416.83  0. 1.0000  5464.      0.00 
   6   0  -3   6181.56  363.33  0. 1.0000  5465.      0.00 
   6   0  -3   5961.29  375.57  0. 1.0000  5466.      0.00 
  -6   0   3   6043.52  390.57  0. 1.0000  5467.      0.00 
  -6   0   3   6618.90  424.48  0. 1.0000  5468.      0.00 
   6   0  -2  96986.00 1420.98  0. 1.0000  5469.      0.00 
   6   0  -2  95677.30 1415.89  0. 1.0000  5470.      0.00 
   6   0  -2  94632.20 1471.16  0. 1.0000  5471.      0.00 
  -6   0   2  93176.41 1489.44  0. 1.0000  5472.      0.00 
   6   0  -1   8470.28  425.48  0. 1.0000  5473.      0.00 
   6   0  -1   7798.06  414.23  0. 1.0000  5474.      0.00 
   6   0  -1   7604.26  426.49  0. 1.0000  5475.      0.00 
   6   0   0 120708.00 1646.60  0. 1.0000  5476.      0.00 
   6   0   0 123512.99 1713.80  0. 1.0000  5477.      0.00 
   6   0   1    353.82  114.07  0. 1.0000  5478.      0.00 
   6   0   1    508.32  129.34  0. 1.0000  5479.      0.00 
   6   0   2   4235.72  319.90  0. 1.0000  5480.      0.00 
   6   0   2   4090.78  311.62  0. 1.0000  5481.      0.00 
   6   0   3  12774.10  520.33  0. 1.0000  5482.      0.00 
   6   0   3  13860.70  519.49  0. 1.0000  5483.      0.00 
   6   0   3  12860.90  510.21  0. 1.0000  5484.      0.00 
   6   0   3  13602.60  560.15  0. 1.0000  5485.      0.00 
   6   0   4   5385.93  293.24  0. 1.0000  5486.      0.00 
   6   0   4   5219.20  312.80  0. 1.0000  5487.      0.00 
   6   0   5  30997.40  541.49  0. 1.0000  5488.      0.00 
   6   0   5  31119.20  610.77  0. 1.0000  5489.      0.00 
  -6  -1   9  31895.60  646.22  0. 1.0000  5490.      0.00 
  -6  -1   9  31146.70  666.82  0. 1.0000  5491.      0.00 
  -6  -1   9  31205.60  648.89  0. 1.0000  5492.      0.00 
  -6  -1   9  32198.70  644.07  0. 1.0000  5493.      0.00 
  -6  -1   8  23888.30  702.33  0. 1.0000  5494.      0.00 
  -6  -1   8  25442.70  732.93  0. 1.0000  5495.      0.00 
  -6  -1   8  24061.20  707.11  0. 1.0000  5496.      0.00 
  -6  -1   8  24634.30  644.28  0. 1.0000  5497.      0.00 
  -6  -1   7  16919.90  653.53  0. 1.0000  5498.      0.00 
   6   1  -7  16979.40  567.61  0. 1.0000  5499.      0.00 
  -6  -1   7  17409.40  641.60  0. 1.0000  5500.      0.00 
  -6  -1   7  16544.00  652.05  0. 1.0000  5501.      0.00 
  -6  -1   6  10763.90  538.66  0. 1.0000  5502.      0.00 
   6   1  -6  10378.60  473.20  0. 1.0000  5503.      0.00 
  -6  -1   6  10798.10  514.52  0. 1.0000  5504.      0.00 
  -6  -1   6  10493.30  538.81  0. 1.0000  5505.      0.00 
  -6  -1   5  21471.20  753.64  0. 1.0000  5506.      0.00 
   6   1  -5  21012.10  683.86  0. 1.0000  5507.      0.00 
  -6  -1   5  21163.50  761.75  0. 1.0000  5508.      0.00 
  -6  -1   4 101798.00 1559.90  0. 1.0000  5509.      0.00 
   6   1  -4 103648.00 1525.30  0. 1.0000  5510.      0.00 
  -6  -1   4 105414.01 1620.60  0. 1.0000  5511.      0.00 
   6   1  -3   2232.37  235.91  0. 1.0000  5512.      0.00 
  -6  -1   3   2109.47  223.30  0. 1.0000  5513.      0.00 
   6   1  -3   2752.61  260.49  0. 1.0000  5514.      0.00 
  -6  -1   3   2495.56  244.83  0. 1.0000  5515.      0.00 
   6   1  -2  84746.80 1394.45  0. 1.0000  5516.      0.00 
   6   1  -2  81457.09 1274.98  0. 1.0000  5517.      0.00 
   6   1  -2  84437.90 1420.39  0. 1.0000  5518.      0.00 
   6   1  -1   4872.74  340.34  0. 1.0000  5519.      0.00 
   6   1  -1   4595.69  316.40  0. 1.0000  5520.      0.00 
   6   1  -1   4590.84  341.78  0. 1.0000  5521.      0.00 
   6   1   0  10585.90  484.03  0. 1.0000  5522.      0.00 
   6   1   0  10046.20  470.98  0. 1.0000  5523.      0.00 
   6   1   0  10374.70  507.47  0. 1.0000  5524.      0.00 
   6   1   1  11945.90  509.32  0. 1.0000  5525.      0.00 
   6   1   1  12289.00  542.12  0. 1.0000  5526.      0.00 
   6   1   1  12570.20  500.50  0. 1.0000  5527.      0.00 
   6   1   2  46202.70  958.27  0. 1.0000  5528.      0.00 
   6   1   2  47422.30  995.61  0. 1.0000  5529.      0.00 
   6   1   2  46881.20  945.40  0. 1.0000  5530.      0.00 
   6   1   3  33376.10  704.53  0. 1.0000  5531.      0.00 
   6   1   3  34606.20  818.78  0. 1.0000  5532.      0.00 
   6   1   4   1503.32  150.13  0. 1.0000  5533.      0.00 
  -6  -2   9  28000.20  667.86  0. 1.0000  5534.      0.00 
  -6  -2   9  28369.50  669.53  0. 1.0000  5535.      0.00 
  -6  -2   9  27232.90  660.38  0. 1.0000  5536.      0.00 
  -6  -2   8   2162.25  227.44  0. 1.0000  5537.      0.00 
  -6  -2   8   1803.69  211.65  0. 1.0000  5538.      0.00 
  -6  -2   7  54555.50 1151.54  0. 1.0000  5539.      0.00 
  -6  -2   7  54955.80 1168.23  0. 1.0000  5540.      0.00 
  -6  -2   6   1317.09  194.70  0. 1.0000  5541.      0.00 
   6   2  -6   1192.57  163.81  0. 1.0000  5542.      0.00 
  -6  -2   6   1275.34  193.21  0. 1.0000  5543.      0.00 
   6   2  -5 127644.00 1710.50  0. 1.0000  5544.      0.00 
  -6  -2   5 125573.01 1711.40  0. 1.0000  5545.      0.00 
   6   2  -5 125583.00 1629.50  0. 1.0000  5546.      0.00 
  -6  -2   5 127392.01 1750.80  0. 1.0000  5547.      0.00 
   6   2  -4  15638.90  609.18  0. 1.0000  5548.      0.00 
  -6  -2   4  14826.90  565.38  0. 1.0000  5549.      0.00 
   6   2  -4  15642.10  592.85  0. 1.0000  5550.      0.00 
  -6  -2   4  14366.50  559.11  0. 1.0000  5551.      0.00 
   6   2  -3  80981.79 1390.84  0. 1.0000  5552.      0.00 
   6   2  -3  79935.80 1364.55  0. 1.0000  5553.      0.00 
   6   2  -2  11474.10  529.58  0. 1.0000  5554.      0.00 
   6   2  -2  11922.20  540.40  0. 1.0000  5555.      0.00 
   6   2  -1   2157.67  234.53  0. 1.0000  5556.      0.00 
   6   2  -1   2258.19  244.03  0. 1.0000  5557.      0.00 
   6   2   0  57019.70 1106.62  0. 1.0000  5558.      0.00 
   6   2   0  57992.60 1162.59  0. 1.0000  5559.      0.00 
   6   2   1   8879.41  394.20  0. 1.0000  5560.      0.00 
   6   2   1   9241.01  449.15  0. 1.0000  5561.      0.00 
   6   2   1   9060.44  409.36  0. 1.0000  5562.      0.00 
   6   2   2  27179.00  683.32  0. 1.0000  5563.      0.00 
  -6  -2  -2  27154.70  744.68  0. 1.0000  5564.      0.00 
   6   2   3  13775.90  411.57  0. 1.0000  5565.      0.00 
  -6  -2  -3  14317.20  428.30  0. 1.0000  5566.      0.00 
   6   2   3  13954.80  439.31  0. 1.0000  5567.      0.00 
  -6  -3  10  22658.30  479.74  0. 1.0000  5568.      0.00 
   6   3  -9  15502.20  432.72  0. 1.0000  5569.      0.00 
  -6  -3   9  16854.80  511.98  0. 1.0000  5570.      0.00 
  -6  -3   9  16991.40  524.32  0. 1.0000  5571.      0.00 
   6   3  -8  24557.10  635.73  0. 1.0000  5572.      0.00 
  -6  -3   8  24996.60  716.91  0. 1.0000  5573.      0.00 
  -6  -3   8  24439.50  705.36  0. 1.0000  5574.      0.00 
  -6  -3   7  60238.10 1153.91  0. 1.0000  5575.      0.00 
  -6  -3   7  59573.10 1143.98  0. 1.0000  5576.      0.00 
   6   3  -6  17907.90  624.19  0. 1.0000  5577.      0.00 
  -6  -3   6  17411.00  620.34  0. 1.0000  5578.      0.00 
  -6  -3   6  17886.20  629.66  0. 1.0000  5579.      0.00 
   6   3  -5    465.53  127.09  0. 1.0000  5580.      0.00 
   6   3  -5    418.50  106.41  0. 1.0000  5581.      0.00 
  -6  -3   5    507.95  122.06  0. 1.0000  5582.      0.00 
  -6  -3   5    600.09  128.07  0. 1.0000  5583.      0.00 
   6   3  -4    397.47  123.79  0. 1.0000  5584.      0.00 
   6   3  -4    174.70   88.62  0. 1.0000  5585.      0.00 
   6   3  -3  54810.50 1157.21  0. 1.0000  5586.      0.00 
   6   3  -3  52873.70 1081.67  0. 1.0000  5587.      0.00 
  -6  -3   3  51193.60 1154.21  0. 1.0000  5588.      0.00 
   6   3  -2  23680.50  749.98  0. 1.0000  5589.      0.00 
   6   3  -2  24024.70  740.63  0. 1.0000  5590.      0.00 
   6   3  -1  79136.21 1313.28  0. 1.0000  5591.      0.00 
   6   3  -1  77982.61 1308.14  0. 1.0000  5592.      0.00 
   6   3   0  12635.80  510.20  0. 1.0000  5593.      0.00 
  -6  -3   0  13338.80  574.75  0. 1.0000  5594.      0.00 
   6   3   0  12599.40  484.82  0. 1.0000  5595.      0.00 
   6   3   1  21228.30  592.21  0. 1.0000  5596.      0.00 
  -6  -3  -1  21246.00  652.60  0. 1.0000  5597.      0.00 
   6   3   1  20857.20  559.84  0. 1.0000  5598.      0.00 
  -6  -3  -2  12577.30  408.53  0. 1.0000  5599.      0.00 
   6   3   2  12600.80  406.93  0. 1.0000  5600.      0.00 
   6   3   2  12294.70  337.45  0. 1.0000  5601.      0.00 
   6   4  -9   1759.69  135.19  0. 1.0000  5602.      0.00 
  -6  -4   9   1640.99  158.70  0. 1.0000  5603.      0.00 
  -6  -4   9   1736.18  158.90  0. 1.0000  5604.      0.00 
  -6  -4   9   1715.70  167.31  0. 1.0000  5605.      0.00 
   6   4  -8  42559.60  782.24  0. 1.0000  5606.      0.00 
  -6  -4   8  42427.00  800.29  0. 1.0000  5607.      0.00 
  -6  -4   8  44834.00  875.34  0. 1.0000  5608.      0.00 
   6   4  -7   1781.95  185.94  0. 1.0000  5609.      0.00 
  -6  -4   7   1863.29  197.82  0. 1.0000  5610.      0.00 
  -6  -4   7   2225.44  207.99  0. 1.0000  5611.      0.00 
   6   4  -6 145159.00 1706.30  0. 1.0000  5612.      0.00 
  -6  -4   6 145701.00 1631.80  0. 1.0000  5613.      0.00 
  -6  -4   6 142721.00 1549.60  0. 1.0000  5614.      0.00 
   6   4  -5  62104.00 1158.76  0. 1.0000  5615.      0.00 
   6   4  -4  11323.60  509.18  0. 1.0000  5616.      0.00 
   6   4  -4  11070.90  446.04  0. 1.0000  5617.      0.00 
   6   4  -3  27735.70  782.85  0. 1.0000  5618.      0.00 
   6   4  -3  27445.20  718.73  0. 1.0000  5619.      0.00 
  -6  -4   3  26174.90  800.38  0. 1.0000  5620.      0.00 
   6   4  -3  29142.20  775.74  0. 1.0000  5621.      0.00 
   6   4  -2    470.17  126.40  0. 1.0000  5622.      0.00 
   6   4  -2    470.89  114.38  0. 1.0000  5623.      0.00 
  -6  -4   2    402.13  124.04  0. 1.0000  5624.      0.00 
   6   4  -2    627.45  116.98  0. 1.0000  5625.      0.00 
   6   4  -1  46224.30  890.48  0. 1.0000  5626.      0.00 
  -6  -4   1  44784.30  990.85  0. 1.0000  5627.      0.00 
   6   4  -1  46870.89  911.99  0. 1.0000  5628.      0.00 
  -6  -4   0   3576.35  261.65  0. 1.0000  5629.      0.00 
   6   4   0   3783.63  238.65  0. 1.0000  5630.      0.00 
  -6  -4  -1  16286.50  441.78  0. 1.0000  5631.      0.00 
   6   4   1  16204.40  428.48  0. 1.0000  5632.      0.00 
   6   4   1  16233.70  393.06  0. 1.0000  5633.      0.00 
  -6  -5   9    110.22   58.65  0. 1.0000  5634.      0.00 
   6   5  -8  23383.00  502.35  0. 1.0000  5635.      0.00 
  -6  -5   8  23770.40  582.93  0. 1.0000  5636.      0.00 
   6   5  -7  11347.00  406.32  0. 1.0000  5637.      0.00 
  -6  -5   7  11790.00  426.03  0. 1.0000  5638.      0.00 
   6   5  -6  39046.30  806.54  0. 1.0000  5639.      0.00 
  -6  -5   6  37773.80  753.71  0. 1.0000  5640.      0.00 
   6   5  -5  11719.40  461.56  0. 1.0000  5641.      0.00 
   6   5  -5  12184.90  483.93  0. 1.0000  5642.      0.00 
   6   5  -4  10931.00  445.29  0. 1.0000  5643.      0.00 
  -6  -5   4   9674.94  431.70  0. 1.0000  5644.      0.00 
   6   5  -4  10611.80  439.72  0. 1.0000  5645.      0.00 
   6   5  -3  23044.60  628.97  0. 1.0000  5646.      0.00 
  -6  -5   3  21791.60  563.38  0. 1.0000  5647.      0.00 
   6   5  -3  22157.00  531.76  0. 1.0000  5648.      0.00 
  -6  -5   3  20431.00  631.02  0. 1.0000  5649.      0.00 
   6   5  -3  22133.70  585.96  0. 1.0000  5650.      0.00 
   6   5  -2   9656.74  342.95  0. 1.0000  5651.      0.00 
  -6  -5   2   9529.98  415.72  0. 1.0000  5652.      0.00 
   6   5  -2   9965.95  390.30  0. 1.0000  5653.      0.00 
  -6  -5   1  19264.10  531.11  0. 1.0000  5654.      0.00 
   6   5  -1  19172.80  485.05  0. 1.0000  5655.      0.00 
   6   5   0    143.93   45.91  0. 1.0000  5656.      0.00 
  -6  -5   0     -2.48   40.13  0. 1.0000  5657.      0.00 
  -6  -6   8  41965.20  658.34  0. 1.0000  5658.      0.00 
  -6  -6   8  42621.80  635.77  0. 1.0000  5659.      0.00 
   6   6  -8  42956.11  628.65  0. 1.0000  5660.      0.00 
   6   6  -7   1465.12  119.82  0. 1.0000  5661.      0.00 
  -6  -6   7   1547.69  152.97  0. 1.0000  5662.      0.00 
  -6  -6   7   1479.99  127.21  0. 1.0000  5663.      0.00 
   6   6  -7   1434.35  138.23  0. 1.0000  5664.      0.00 
   6   6  -6  20948.10  482.36  0. 1.0000  5665.      0.00 
  -6  -6   6  21721.80  550.01  0. 1.0000  5666.      0.00 
   6   6  -6  22587.60  549.36  0. 1.0000  5667.      0.00 
   6   6  -5   1211.20  128.00  0. 1.0000  5668.      0.00 
  -6  -6   5   1213.23  138.52  0. 1.0000  5669.      0.00 
   6   6  -5   1264.15  137.95  0. 1.0000  5670.      0.00 
   6   6  -4  93137.70 1047.91  0. 1.0000  5671.      0.00 
   6   6  -4  91159.60 1033.98  0. 1.0000  5672.      0.00 
  -6  -6   3   1024.94  121.37  0. 1.0000  5673.      0.00 
   6   6  -3    996.72   98.14  0. 1.0000  5674.      0.00 
   6   6  -3   1220.91  121.27  0. 1.0000  5675.      0.00 
  -6  -6   2   6328.55  250.48  0. 1.0000  5676.      0.00 
   6   6  -2   6431.88  234.22  0. 1.0000  5677.      0.00 
   7  -9   0   2915.88  180.31  0. 1.0000  5678.      0.00 
   7  -9   0   2941.72  169.47  0. 1.0000  5679.      0.00 
   7  -9   1   1089.22  124.92  0. 1.0000  5680.      0.00 
  -7   9  -1    994.40  114.01  0. 1.0000  5681.      0.00 
   7  -9   1   1130.48  120.60  0. 1.0000  5682.      0.00 
  -7   9  -1   1108.92  105.37  0. 1.0000  5683.      0.00 
  -7   9  -2  28633.40  614.94  0. 1.0000  5684.      0.00 
   7  -9   2  30070.10  604.77  0. 1.0000  5685.      0.00 
  -7   9  -3    497.99   94.54  0. 1.0000  5686.      0.00 
   7  -9   3    484.49   87.12  0. 1.0000  5687.      0.00 
   7  -9   4  79926.41  862.49  0. 1.0000  5688.      0.00 
   7  -9   4  80595.90  907.03  0. 1.0000  5689.      0.00 
   7  -9   4  80884.00  957.85  0. 1.0000  5690.      0.00 
   7  -9   5  95545.91  921.40  0. 1.0000  5691.      0.00 
   7  -8  -2   2073.54  150.78  0. 1.0000  5692.      0.00 
   7  -8  -2   1933.85  141.57  0. 1.0000  5693.      0.00 
  -7   8   1  33647.39  641.83  0. 1.0000  5694.      0.00 
   7  -8  -1  33715.00  719.96  0. 1.0000  5695.      0.00 
   7  -8  -1  34501.70  677.48  0. 1.0000  5696.      0.00 
   7  -8   0  32994.80  771.98  0. 1.0000  5697.      0.00 
  -7   8   0  34187.80  757.60  0. 1.0000  5698.      0.00 
   7  -8   0  34818.70  744.59  0. 1.0000  5699.      0.00 
  -7   8   0  33747.00  696.17  0. 1.0000  5700.      0.00 
   7  -8   1  19731.00  611.41  0. 1.0000  5701.      0.00 
  -7   8  -1  18974.70  605.37  0. 1.0000  5702.      0.00 
   7  -8   1  19683.70  584.76  0. 1.0000  5703.      0.00 
  -7   8  -2  19286.00  608.14  0. 1.0000  5704.      0.00 
   7  -8   2  19206.80  583.19  0. 1.0000  5705.      0.00 
  -7   8  -3   1224.89  158.30  0. 1.0000  5706.      0.00 
   7  -8   3   1311.66  159.92  0. 1.0000  5707.      0.00 
  -7   8  -4   7277.63  325.66  0. 1.0000  5708.      0.00 
   7  -8   4   7793.67  327.83  0. 1.0000  5709.      0.00 
   7  -8   4   7709.82  345.17  0. 1.0000  5710.      0.00 
   7  -8   4   7660.26  349.38  0. 1.0000  5711.      0.00 
   7  -8   5   1114.51  123.74  0. 1.0000  5712.      0.00 
   7  -8   5   1109.67  125.50  0. 1.0000  5713.      0.00 
   7  -8   5   1148.19  132.55  0. 1.0000  5714.      0.00 
   7  -8   6   3486.23  181.53  0. 1.0000  5715.      0.00 
   7  -7  -3  25915.80  551.45  0. 1.0000  5716.      0.00 
   7  -7  -3  25598.80  545.95  0. 1.0000  5717.      0.00 
   7  -7  -2    337.77   73.34  0. 1.0000  5718.      0.00 
   7  -7  -2    390.73  102.29  0. 1.0000  5719.      0.00 
  -7   7   2    369.46   91.93  0. 1.0000  5720.      0.00 
   7  -7  -2    270.23   84.13  0. 1.0000  5721.      0.00 
   7  -7  -1  49191.70 1040.49  0. 1.0000  5722.      0.00 
  -7   7   1  50426.50 1039.01  0. 1.0000  5723.      0.00 
   7  -7  -1  50454.89  974.62  0. 1.0000  5724.      0.00 
  -7   7   1  49433.60  964.42  0. 1.0000  5725.      0.00 
   7  -7   0  14116.50  583.04  0. 1.0000  5726.      0.00 
  -7   7   0  15083.20  613.46  0. 1.0000  5727.      0.00 
   7  -7   0  14948.90  559.40  0. 1.0000  5728.      0.00 
   7  -7   1  39162.80  960.56  0. 1.0000  5729.      0.00 
  -7   7  -1  40363.20 1004.23  0. 1.0000  5730.      0.00 
   7  -7   1  40577.40  933.50  0. 1.0000  5731.      0.00 
  -7   7  -2  19262.50  670.97  0. 1.0000  5732.      0.00 
   7  -7   2  20229.20  661.26  0. 1.0000  5733.      0.00 
  -7   7  -3  16777.20  581.30  0. 1.0000  5734.      0.00 
   7  -7   3  16928.40  594.19  0. 1.0000  5735.      0.00 
   7  -7   4  11575.20  429.82  0. 1.0000  5736.      0.00 
   7  -7   4  11482.10  463.51  0. 1.0000  5737.      0.00 
   7  -7   4  11560.10  463.99  0. 1.0000  5738.      0.00 
   7  -7   5   6609.49  305.09  0. 1.0000  5739.      0.00 
   7  -7   5   6257.81  312.65  0. 1.0000  5740.      0.00 
   7  -7   5   6436.42  320.26  0. 1.0000  5741.      0.00 
   7  -7   6  41144.00  638.29  0. 1.0000  5742.      0.00 
   7  -7   6  41693.50  684.69  0. 1.0000  5743.      0.00 
   7  -6  -4  21233.10  487.59  0. 1.0000  5744.      0.00 
   7  -6  -4  21483.60  473.11  0. 1.0000  5745.      0.00 
   7  -6  -4  20934.50  494.89  0. 1.0000  5746.      0.00 
   7  -6  -3  12920.90  441.72  0. 1.0000  5747.      0.00 
   7  -6  -3  13015.60  417.55  0. 1.0000  5748.      0.00 
  -7   6   3  12469.60  474.02  0. 1.0000  5749.      0.00 
   7  -6  -3  12324.30  490.07  0. 1.0000  5750.      0.00 
   7  -6  -3  12557.60  462.80  0. 1.0000  5751.      0.00 
  -7   6   3  12252.80  423.92  0. 1.0000  5752.      0.00 
   7  -6  -2   7179.02  357.98  0. 1.0000  5753.      0.00 
   7  -6  -2   7086.88  419.01  0. 1.0000  5754.      0.00 
  -7   6   2   6714.61  414.73  0. 1.0000  5755.      0.00 
   7  -6  -2   7015.61  380.96  0. 1.0000  5756.      0.00 
  -7   6   2   6713.80  390.32  0. 1.0000  5757.      0.00 
   7  -6  -1  47837.90  951.59  0. 1.0000  5758.      0.00 
   7  -6  -1  47627.00 1127.36  0. 1.0000  5759.      0.00 
  -7   6   1  47573.30 1169.61  0. 1.0000  5760.      0.00 
   7  -6  -1  46411.20 1019.68  0. 1.0000  5761.      0.00 
   7  -6   0  17497.60  586.01  0. 1.0000  5762.      0.00 
   7  -6   0  17204.90  684.20  0. 1.0000  5763.      0.00 
  -7   6   0  16922.00  711.11  0. 1.0000  5764.      0.00 
   7  -6   0  16902.40  632.57  0. 1.0000  5765.      0.00 
   7  -6   1  33819.00  811.19  0. 1.0000  5766.      0.00 
   7  -6   1  32404.10  920.20  0. 1.0000  5767.      0.00 
  -7   6  -1  33919.90  969.62  0. 1.0000  5768.      0.00 
   7  -6   1  32549.60  880.80  0. 1.0000  5769.      0.00 
   7  -6   2    156.53   84.74  0. 1.0000  5770.      0.00 
  -7   6  -2    163.29  101.43  0. 1.0000  5771.      0.00 
   7  -6   2     66.89   82.79  0. 1.0000  5772.      0.00 
   7  -6   3  29088.40  707.05  0. 1.0000  5773.      0.00 
  -7   6  -3  27409.60  736.52  0. 1.0000  5774.      0.00 
   7  -6   3  29572.10  819.87  0. 1.0000  5775.      0.00 
   7  -6   4   6645.40  371.04  0. 1.0000  5776.      0.00 
   7  -6   4   6644.93  366.54  0. 1.0000  5777.      0.00 
   7  -6   5   9683.85  376.16  0. 1.0000  5778.      0.00 
   7  -6   5  10062.60  416.32  0. 1.0000  5779.      0.00 
   7  -6   5   9567.49  401.55  0. 1.0000  5780.      0.00 
   7  -6   6    267.40   67.73  0. 1.0000  5781.      0.00 
   7  -6   6    266.47   72.89  0. 1.0000  5782.      0.00 
   7  -5  -5   1175.67  129.94  0. 1.0000  5783.      0.00 
   7  -5  -5   1175.27  129.46  0. 1.0000  5784.      0.00 
   7  -5  -4  37086.50  787.36  0. 1.0000  5785.      0.00 
  -7   5   4  34599.60  802.17  0. 1.0000  5786.      0.00 
   7  -5  -4  36138.90  767.42  0. 1.0000  5787.      0.00 
   7  -5  -4  35528.30  750.53  0. 1.0000  5788.      0.00 
  -7   5   4  35985.90  751.58  0. 1.0000  5789.      0.00 
   7  -5  -3 101680.99 1411.40  0. 1.0000  5790.      0.00 
   7  -5  -3  97217.20 1337.51  0. 1.0000  5791.      0.00 
  -7   5   3  97758.20 1600.30  0. 1.0000  5792.      0.00 
   7  -5  -3  98825.71 1549.26  0. 1.0000  5793.      0.00 
   7  -5  -3  99395.61 1410.87  0. 1.0000  5794.      0.00 
  -7   5   3  94646.79 1500.96  0. 1.0000  5795.      0.00 
   7  -5  -2  21537.30  683.66  0. 1.0000  5796.      0.00 
   7  -5  -2  21776.00  647.66  0. 1.0000  5797.      0.00 
   7  -5  -2  22326.20  785.20  0. 1.0000  5798.      0.00 
  -7   5   2  21127.40  811.69  0. 1.0000  5799.      0.00 
   7  -5  -2  21227.60  691.94  0. 1.0000  5800.      0.00 
  -7   5   2  21855.80  812.87  0. 1.0000  5801.      0.00 
   7  -5  -1  15096.20  581.87  0. 1.0000  5802.      0.00 
   7  -5  -1  14792.90  653.55  0. 1.0000  5803.      0.00 
  -7   5   1  14836.50  697.17  0. 1.0000  5804.      0.00 
   7  -5  -1  14497.00  587.16  0. 1.0000  5805.      0.00 
   7  -5   0  23473.20  724.48  0. 1.0000  5806.      0.00 
   7  -5   0  22719.20  802.67  0. 1.0000  5807.      0.00 
  -7   5   0  23443.70  852.15  0. 1.0000  5808.      0.00 
   7  -5   0  22775.60  744.79  0. 1.0000  5809.      0.00 
   7  -5   1  46739.60 1011.75  0. 1.0000  5810.      0.00 
  -7   5  -1  45875.20 1124.46  0. 1.0000  5811.      0.00 
   7  -5   1  45814.00 1059.38  0. 1.0000  5812.      0.00 
   7  -5   2   8783.11  437.68  0. 1.0000  5813.      0.00 
  -7   5  -2   8817.11  453.68  0. 1.0000  5814.      0.00 
   7  -5   2   8259.66  453.89  0. 1.0000  5815.      0.00 
   7  -5   3  53910.50 1031.94  0. 1.0000  5816.      0.00 
   7  -5   3  56844.10 1024.72  0. 1.0000  5817.      0.00 
   7  -5   3  54062.20 1126.22  0. 1.0000  5818.      0.00 
   7  -5   3  53022.50 1073.92  0. 1.0000  5819.      0.00 
   7  -5   4   1043.11  144.58  0. 1.0000  5820.      0.00 
   7  -5   4   1010.88  138.85  0. 1.0000  5821.      0.00 
   7  -5   4   1093.25  169.24  0. 1.0000  5822.      0.00 
   7  -5   4   1462.60  183.38  0. 1.0000  5823.      0.00 
   7  -5   5  37179.30  692.70  0. 1.0000  5824.      0.00 
   7  -5   5  36462.00  699.90  0. 1.0000  5825.      0.00 
   7  -5   5  38600.40  790.33  0. 1.0000  5826.      0.00 
   7  -5   6   8236.48  270.63  0. 1.0000  5827.      0.00 
   7  -5   6   8695.49  314.98  0. 1.0000  5828.      0.00 
   7  -4  -6  30338.70  619.37  0. 1.0000  5829.      0.00 
   7  -4  -6  31021.30  634.65  0. 1.0000  5830.      0.00 
   7  -4  -5   2583.74  222.02  0. 1.0000  5831.      0.00 
  -7   4   5   2466.09  217.27  0. 1.0000  5832.      0.00 
   7  -4  -5   2509.70  217.41  0. 1.0000  5833.      0.00 
  -7   4   5   2446.54  202.65  0. 1.0000  5834.      0.00 
   7  -4  -4  12772.40  516.94  0. 1.0000  5835.      0.00 
  -7   4   4  11369.70  547.43  0. 1.0000  5836.      0.00 
   7  -4  -4  12064.70  500.52  0. 1.0000  5837.      0.00 
  -7   4   4  11337.40  527.86  0. 1.0000  5838.      0.00 
   7  -4  -3 122546.00 1663.60  0. 1.0000  5839.      0.00 
   7  -4  -3 121659.01 1621.10  0. 1.0000  5840.      0.00 
  -7   4   3 119504.01 1931.80  0. 1.0000  5841.      0.00 
   7  -4  -3 124937.01 1810.80  0. 1.0000  5842.      0.00 
   7  -4  -3 122730.99 1589.40  0. 1.0000  5843.      0.00 
  -7   4   3 117090.01 1890.50  0. 1.0000  5844.      0.00 
   7  -4  -2  42379.80 1004.68  0. 1.0000  5845.      0.00 
   7  -4  -2  42395.60  957.07  0. 1.0000  5846.      0.00 
   7  -4  -2  42412.10 1101.28  0. 1.0000  5847.      0.00 
  -7   4   2  44235.30 1208.20  0. 1.0000  5848.      0.00 
   7  -4  -2  42429.11  972.45  0. 1.0000  5849.      0.00 
  -7   4   2  42209.60 1206.10  0. 1.0000  5850.      0.00 
   7  -4  -1   6144.80  387.50  0. 1.0000  5851.      0.00 
   7  -4  -1   5681.37  350.08  0. 1.0000  5852.      0.00 
  -7   4   1   5674.47  433.66  0. 1.0000  5853.      0.00 
   7  -4  -1   5102.78  349.15  0. 1.0000  5854.      0.00 
   7  -4   0  22547.60  729.48  0. 1.0000  5855.      0.00 
  -7   4   0  22091.60  799.58  0. 1.0000  5856.      0.00 
   7  -4   0  21750.70  718.14  0. 1.0000  5857.      0.00 
   7  -4   1  28355.90  814.48  0. 1.0000  5858.      0.00 
  -7   4  -1  28478.20  832.64  0. 1.0000  5859.      0.00 
   7  -4   1  26336.70  799.52  0. 1.0000  5860.      0.00 
   7  -4   2  45661.61 1018.95  0. 1.0000  5861.      0.00 
   7  -4   2  43399.20 1026.03  0. 1.0000  5862.      0.00 
   7  -4   3  29342.00  787.52  0. 1.0000  5863.      0.00 
   7  -4   3  29599.10  789.48  0. 1.0000  5864.      0.00 
   7  -4   3  29615.40  828.76  0. 1.0000  5865.      0.00 
   7  -4   3  29520.00  786.23  0. 1.0000  5866.      0.00 
   7  -4   4   3824.82  269.83  0. 1.0000  5867.      0.00 
   7  -4   4   4016.05  275.98  0. 1.0000  5868.      0.00 
   7  -4   4   4157.33  283.23  0. 1.0000  5869.      0.00 
   7  -4   5  25011.10  582.19  0. 1.0000  5870.      0.00 
   7  -4   5  24985.80  599.34  0. 1.0000  5871.      0.00 
   7  -4   5  26036.60  616.19  0. 1.0000  5872.      0.00 
   7  -4   6   2134.18  142.58  0. 1.0000  5873.      0.00 
   7  -4   6   2327.43  146.44  0. 1.0000  5874.      0.00 
   7  -3  -7  35614.20  620.73  0. 1.0000  5875.      0.00 
   7  -3  -7  36764.10  647.29  0. 1.0000  5876.      0.00 
  -7   3   7  36782.70  626.55  0. 1.0000  5877.      0.00 
   7  -3  -6  16716.00  526.10  0. 1.0000  5878.      0.00 
  -7   3   6  16766.50  523.06  0. 1.0000  5879.      0.00 
   7  -3  -6  17416.90  553.32  0. 1.0000  5880.      0.00 
  -7   3   6  17625.70  476.09  0. 1.0000  5881.      0.00 
  -7   3   6  17840.50  510.70  0. 1.0000  5882.      0.00 
   7  -3  -5  62649.39 1128.76  0. 1.0000  5883.      0.00 
  -7   3   5  56945.61 1176.29  0. 1.0000  5884.      0.00 
   7  -3  -5  63485.90 1155.34  0. 1.0000  5885.      0.00 
  -7   3   5  64976.80 1013.89  0. 1.0000  5886.      0.00 
  -7   3   5  58971.10 1168.09  0. 1.0000  5887.      0.00 
   7  -3  -4  50843.80 1071.61  0. 1.0000  5888.      0.00 
  -7   3   4  51585.10 1246.51  0. 1.0000  5889.      0.00 
  -7   3   4  48606.39 1203.61  0. 1.0000  5890.      0.00 
   7  -3  -3   1997.20  230.80  0. 1.0000  5891.      0.00 
   7  -3  -3   2112.48  233.73  0. 1.0000  5892.      0.00 
  -7   3   3   2366.16  291.23  0. 1.0000  5893.      0.00 
   7  -3  -2  85874.59 1440.76  0. 1.0000  5894.      0.00 
   7  -3  -2  84415.39 1400.45  0. 1.0000  5895.      0.00 
  -7   3   2  90068.00 1688.57  0. 1.0000  5896.      0.00 
  -7   3   2  88102.10 1735.09  0. 1.0000  5897.      0.00 
   7  -3  -1    373.71  117.08  0. 1.0000  5898.      0.00 
   7  -3  -1    710.87  137.25  0. 1.0000  5899.      0.00 
  -7   3   1    452.08  145.29  0. 1.0000  5900.      0.00 
  -7   3   1    475.17  151.45  0. 1.0000  5901.      0.00 
   7  -3   0  84194.49 1415.77  0. 1.0000  5902.      0.00 
   7  -3   0  83636.89 1349.02  0. 1.0000  5903.      0.00 
  -7   3   0  82662.20 1429.44  0. 1.0000  5904.      0.00 
   7  -3   0  80983.70 1355.23  0. 1.0000  5905.      0.00 
   7  -3   1   1989.17  211.22  0. 1.0000  5906.      0.00 
   7  -3   1   2220.35  237.12  0. 1.0000  5907.      0.00 
   7  -3   2  28180.40  809.77  0. 1.0000  5908.      0.00 
   7  -3   2  27981.60  808.85  0. 1.0000  5909.      0.00 
   7  -3   2  27348.90  745.73  0. 1.0000  5910.      0.00 
   7  -3   3  23032.60  701.40  0. 1.0000  5911.      0.00 
   7  -3   3  23457.10  713.19  0. 1.0000  5912.      0.00 
   7  -3   3  22998.70  712.77  0. 1.0000  5913.      0.00 
   7  -3   3  22400.90  651.90  0. 1.0000  5914.      0.00 
   7  -3   4  20570.80  601.80  0. 1.0000  5915.      0.00 
   7  -3   4  20254.60  600.64  0. 1.0000  5916.      0.00 
   7  -3   4  20948.60  580.45  0. 1.0000  5917.      0.00 
   7  -3   5   5457.30  270.95  0. 1.0000  5918.      0.00 
   7  -3   5   5522.59  252.20  0. 1.0000  5919.      0.00 
   7  -2  -7  21674.40  547.58  0. 1.0000  5920.      0.00 
  -7   2   7  21734.10  532.33  0. 1.0000  5921.      0.00 
   7  -2  -7  22499.10  579.41  0. 1.0000  5922.      0.00 
  -7   2   7  21652.00  517.44  0. 1.0000  5923.      0.00 
  -7   2   7  21966.90  547.62  0. 1.0000  5924.      0.00 
   7  -2  -6   1159.98  157.65  0. 1.0000  5925.      0.00 
  -7   2   6   1032.25  165.19  0. 1.0000  5926.      0.00 
   7  -2  -6   1228.78  170.76  0. 1.0000  5927.      0.00 
  -7   2   6   1392.85  164.09  0. 1.0000  5928.      0.00 
  -7   2   6    860.62  148.77  0. 1.0000  5929.      0.00 
   7  -2  -5  44062.90  970.26  0. 1.0000  5930.      0.00 
  -7   2   5  43183.60 1090.20  0. 1.0000  5931.      0.00 
   7  -2  -5  42664.20  980.48  0. 1.0000  5932.      0.00 
  -7   2   5  41713.40 1072.90  0. 1.0000  5933.      0.00 
   7  -2  -4  19663.40  676.95  0. 1.0000  5934.      0.00 
   7  -2  -4  20870.90  704.96  0. 1.0000  5935.      0.00 
  -7   2   4  21551.40  807.40  0. 1.0000  5936.      0.00 
  -7   2   4  20400.60  801.00  0. 1.0000  5937.      0.00 
   7  -2  -3  36807.00  932.57  0. 1.0000  5938.      0.00 
   7  -2  -3  36573.40  935.79  0. 1.0000  5939.      0.00 
  -7   2   3  38407.70 1082.84  0. 1.0000  5940.      0.00 
  -7   2   3  37959.11 1112.33  0. 1.0000  5941.      0.00 
   7  -2  -2   7741.65  434.58  0. 1.0000  5942.      0.00 
   7  -2  -2   8846.68  462.08  0. 1.0000  5943.      0.00 
  -7   2   2   8933.65  502.52  0. 1.0000  5944.      0.00 
  -7   2   2   8510.42  520.51  0. 1.0000  5945.      0.00 
   7  -2  -1  85359.50 1419.55  0. 1.0000  5946.      0.00 
   7  -2  -1  84405.71 1400.21  0. 1.0000  5947.      0.00 
  -7   2   1  84465.99 1434.43  0. 1.0000  5948.      0.00 
  -7   2   1  87910.80 1566.38  0. 1.0000  5949.      0.00 
   7  -2   0  23305.00  750.41  0. 1.0000  5950.      0.00 
   7  -2   0  22434.30  716.02  0. 1.0000  5951.      0.00 
   7  -2   1   1427.28  199.68  0. 1.0000  5952.      0.00 
   7  -2   1   1350.79  181.92  0. 1.0000  5953.      0.00 
   7  -2   1   1331.51  181.94  0. 1.0000  5954.      0.00 
   7  -2   2  10720.20  496.90  0. 1.0000  5955.      0.00 
   7  -2   2  10884.20  457.28  0. 1.0000  5956.      0.00 
   7  -2   2  10081.40  473.22  0. 1.0000  5957.      0.00 
   7  -2   3    753.63  142.60  0. 1.0000  5958.      0.00 
   7  -2   3    825.46  144.70  0. 1.0000  5959.      0.00 
   7  -2   4  12132.40  438.68  0. 1.0000  5960.      0.00 
   7  -2   4  11884.10  431.91  0. 1.0000  5961.      0.00 
   7  -2   5  11492.20  344.79  0. 1.0000  5962.      0.00 
   7  -1  -8   6552.83  255.13  0. 1.0000  5963.      0.00 
   7  -1  -7  44658.70  799.63  0. 1.0000  5964.      0.00 
  -7   1   7  42324.70  874.68  0. 1.0000  5965.      0.00 
   7  -1  -7  45397.80  860.49  0. 1.0000  5966.      0.00 
  -7   1   7  42427.90  865.86  0. 1.0000  5967.      0.00 
  -7   1   7  45896.80  795.25  0. 1.0000  5968.      0.00 
   7  -1  -6   6866.21  360.10  0. 1.0000  5969.      0.00 
  -7   1   6   6670.10  411.82  0. 1.0000  5970.      0.00 
   7  -1  -6   7107.92  386.46  0. 1.0000  5971.      0.00 
  -7   1   6   6400.10  404.19  0. 1.0000  5972.      0.00 
   7  -1  -5  37413.10  882.21  0. 1.0000  5973.      0.00 
  -7   1   5  39383.11 1043.87  0. 1.0000  5974.      0.00 
   7  -1  -5  38500.60  934.82  0. 1.0000  5975.      0.00 
  -7   1   5  38767.10 1055.58  0. 1.0000  5976.      0.00 
   7  -1  -4    242.06  103.52  0. 1.0000  5977.      0.00 
   7  -1  -4    365.57  117.71  0. 1.0000  5978.      0.00 
  -7   1   4    262.30  116.59  0. 1.0000  5979.      0.00 
  -7   1   4     27.07   95.07  0. 1.0000  5980.      0.00 
   7  -1  -3  93524.20 1391.53  0. 1.0000  5981.      0.00 
   7  -1  -3  91128.91 1423.61  0. 1.0000  5982.      0.00 
   7  -1  -3  93196.20 1486.54  0. 1.0000  5983.      0.00 
  -7   1   3  93737.41 1567.93  0. 1.0000  5984.      0.00 
  -7   1   3  94407.80 1656.41  0. 1.0000  5985.      0.00 
   7  -1  -2  44942.39  956.93  0. 1.0000  5986.      0.00 
   7  -1  -2  42079.10  978.44  0. 1.0000  5987.      0.00 
   7  -1  -2  43285.61 1016.91  0. 1.0000  5988.      0.00 
  -7   1   2  41675.00  983.39  0. 1.0000  5989.      0.00 
  -7   1   2  42144.80 1051.77  0. 1.0000  5990.      0.00 
   7  -1  -1  23468.60  736.63  0. 1.0000  5991.      0.00 
   7  -1  -1  24626.60  765.03  0. 1.0000  5992.      0.00 
   7  -1   0  17515.50  641.28  0. 1.0000  5993.      0.00 
   7  -1   0  18791.70  664.00  0. 1.0000  5994.      0.00 
   7  -1   1  38407.80  930.69  0. 1.0000  5995.      0.00 
   7  -1   1  39385.50  921.13  0. 1.0000  5996.      0.00 
   7  -1   2  14233.50  543.34  0. 1.0000  5997.      0.00 
   7  -1   2  13704.80  507.11  0. 1.0000  5998.      0.00 
   7  -1   2  13089.80  499.37  0. 1.0000  5999.      0.00 
   7  -1   3  17828.10  553.15  0. 1.0000  6000.      0.00 
   7  -1   3  17878.40  493.07  0. 1.0000  6001.      0.00 
   7  -1   3  18011.00  550.51  0. 1.0000  6002.      0.00 
   7  -1   3  16796.80  512.94  0. 1.0000  6003.      0.00 
   7  -1   4   4677.18  240.34  0. 1.0000  6004.      0.00 
   7  -1   4   4672.20  226.84  0. 1.0000  6005.      0.00 
  -7   0   8  26338.50  602.84  0. 1.0000  6006.      0.00 
  -7   0   8  27652.80  619.65  0. 1.0000  6007.      0.00 
  -7   0   7    960.50  160.99  0. 1.0000  6008.      0.00 
   7   0  -7    805.82  127.00  0. 1.0000  6009.      0.00 
  -7   0   7    800.46  145.75  0. 1.0000  6010.      0.00 
  -7   0   6  10142.40  505.65  0. 1.0000  6011.      0.00 
   7   0  -6  10450.70  459.26  0. 1.0000  6012.      0.00 
  -7   0   6   9971.19  508.97  0. 1.0000  6013.      0.00 
   7   0  -5  31555.30  770.72  0. 1.0000  6014.      0.00 
  -7   0   5  33615.11  929.29  0. 1.0000  6015.      0.00 
   7   0  -5  31848.60  836.22  0. 1.0000  6016.      0.00 
  -7   0   5  33531.50  952.83  0. 1.0000  6017.      0.00 
   7   0  -4  16557.10  603.14  0. 1.0000  6018.      0.00 
   7   0  -4  15889.00  562.36  0. 1.0000  6019.      0.00 
  -7   0   4  17004.70  653.73  0. 1.0000  6020.      0.00 
   7   0  -4  16313.90  613.74  0. 1.0000  6021.      0.00 
  -7   0   4  16491.30  664.31  0. 1.0000  6022.      0.00 
   7   0  -3  22892.90  712.67  0. 1.0000  6023.      0.00 
   7   0  -3  22198.30  677.01  0. 1.0000  6024.      0.00 
   7   0  -3  23108.20  739.68  0. 1.0000  6025.      0.00 
  -7   0   3  23008.80  714.71  0. 1.0000  6026.      0.00 
  -7   0   3  22471.70  740.33  0. 1.0000  6027.      0.00 
   7   0  -2  16951.60  609.39  0. 1.0000  6028.      0.00 
   7   0  -2  16640.70  595.18  0. 1.0000  6029.      0.00 
   7   0  -2  16913.40  641.65  0. 1.0000  6030.      0.00 
   7   0  -1  21131.70  660.63  0. 1.0000  6031.      0.00 
   7   0  -1  20820.50  670.49  0. 1.0000  6032.      0.00 
   7   0  -1  21860.20  723.08  0. 1.0000  6033.      0.00 
   7   0   0   3391.59  274.86  0. 1.0000  6034.      0.00 
   7   0   0   3507.47  291.32  0. 1.0000  6035.      0.00 
   7   0   1  50789.00 1003.03  0. 1.0000  6036.      0.00 
   7   0   1  51920.00 1027.72  0. 1.0000  6037.      0.00 
   7   0   2  11541.90  446.73  0. 1.0000  6038.      0.00 
   7   0   2  11794.60  443.41  0. 1.0000  6039.      0.00 
   7   0   2  11872.70  451.50  0. 1.0000  6040.      0.00 
   7   0   2  11583.90  455.02  0. 1.0000  6041.      0.00 
   7   0   3  16132.00  443.17  0. 1.0000  6042.      0.00 
   7   0   3  16706.00  471.01  0. 1.0000  6043.      0.00 
   7   1  -8  39950.40  742.66  0. 1.0000  6044.      0.00 
  -7  -1   8  38426.20  780.10  0. 1.0000  6045.      0.00 
  -7  -1   8  38035.90  782.77  0. 1.0000  6046.      0.00 
  -7  -1   7   4919.51  324.79  0. 1.0000  6047.      0.00 
   7   1  -7   4848.26  274.65  0. 1.0000  6048.      0.00 
  -7  -1   7   4853.93  322.55  0. 1.0000  6049.      0.00 
   7   1  -6  63518.00 1128.74  0. 1.0000  6050.      0.00 
  -7  -1   6  62152.00 1174.69  0. 1.0000  6051.      0.00 
   7   1  -6  61993.00 1071.10  0. 1.0000  6052.      0.00 
  -7  -1   6  62984.20 1200.38  0. 1.0000  6053.      0.00 
   7   1  -5   2683.79  250.32  0. 1.0000  6054.      0.00 
  -7  -1   5   2097.56  225.89  0. 1.0000  6055.      0.00 
   7   1  -5   2286.61  226.35  0. 1.0000  6056.      0.00 
  -7  -1   5   2089.59  227.12  0. 1.0000  6057.      0.00 
   7   1  -4  40583.30  949.91  0. 1.0000  6058.      0.00 
  -7  -1   4  40527.50  915.18  0. 1.0000  6059.      0.00 
   7   1  -4  41272.50  956.13  0. 1.0000  6060.      0.00 
  -7  -1   4  39406.10  926.89  0. 1.0000  6061.      0.00 
   7   1  -3   6267.90  379.24  0. 1.0000  6062.      0.00 
   7   1  -3   6458.95  391.56  0. 1.0000  6063.      0.00 
   7   1  -2   5706.59  359.62  0. 1.0000  6064.      0.00 
   7   1  -2   5582.78  367.04  0. 1.0000  6065.      0.00 
   7   1  -1  52523.50 1020.84  0. 1.0000  6066.      0.00 
   7   1  -1  50836.10  967.27  0. 1.0000  6067.      0.00 
   7   1  -1  52805.40 1091.50  0. 1.0000  6068.      0.00 
   7   1   0  25181.50  648.23  0. 1.0000  6069.      0.00 
   7   1   0  24275.80  649.22  0. 1.0000  6070.      0.00 
   7   1   0  24832.00  721.08  0. 1.0000  6071.      0.00 
   7   1   1  34549.20  723.15  0. 1.0000  6072.      0.00 
   7   1   1  35131.70  782.82  0. 1.0000  6073.      0.00 
   7   1   1  33864.60  728.04  0. 1.0000  6074.      0.00 
   7   1   2    645.70  101.50  0. 1.0000  6075.      0.00 
   7   1   2    338.93   72.92  0. 1.0000  6076.      0.00 
   7   1   2    591.75  102.64  0. 1.0000  6077.      0.00 
   7   1   3  17930.30  399.27  0. 1.0000  6078.      0.00 
   7   2  -8  22335.30  545.93  0. 1.0000  6079.      0.00 
  -7  -2   8  22792.30  598.22  0. 1.0000  6080.      0.00 
  -7  -2   8  22926.30  601.16  0. 1.0000  6081.      0.00 
   7   2  -7  35678.89  775.47  0. 1.0000  6082.      0.00 
  -7  -2   7  37049.40  826.74  0. 1.0000  6083.      0.00 
  -7  -2   7  36436.40  820.90  0. 1.0000  6084.      0.00 
   7   2  -6  21816.30  651.20  0. 1.0000  6085.      0.00 
  -7  -2   6  21790.50  645.41  0. 1.0000  6086.      0.00 
   7   2  -6  21216.60  587.53  0. 1.0000  6087.      0.00 
  -7  -2   6  20556.80  629.00  0. 1.0000  6088.      0.00 
   7   2  -5  10006.00  462.28  0. 1.0000  6089.      0.00 
  -7  -2   5   9615.11  419.85  0. 1.0000  6090.      0.00 
   7   2  -5   9453.99  424.05  0. 1.0000  6091.      0.00 
  -7  -2   5   9626.92  422.90  0. 1.0000  6092.      0.00 
   7   2  -4  30025.40  810.08  0. 1.0000  6093.      0.00 
   7   2  -4  29365.60  773.79  0. 1.0000  6094.      0.00 
   7   2  -3  18224.50  630.08  0. 1.0000  6095.      0.00 
   7   2  -3  17854.20  614.02  0. 1.0000  6096.      0.00 
   7   2  -2  94278.70 1383.43  0. 1.0000  6097.      0.00 
   7   2  -2  97465.30 1422.83  0. 1.0000  6098.      0.00 
   7   2  -1  31472.20  745.59  0. 1.0000  6099.      0.00 
   7   2  -1  32123.40  794.85  0. 1.0000  6100.      0.00 
   7   2   0    804.32  133.53  0. 1.0000  6101.      0.00 
  -7  -2   0    690.33  137.40  0. 1.0000  6102.      0.00 
   7   2   0    663.76  108.56  0. 1.0000  6103.      0.00 
   7   2   1   5089.19  261.74  0. 1.0000  6104.      0.00 
  -7  -2  -1   5265.29  292.28  0. 1.0000  6105.      0.00 
   7   2   1   5402.47  280.72  0. 1.0000  6106.      0.00 
   7   2   2    133.18   48.19  0. 1.0000  6107.      0.00 
   7   3  -8   9080.24  327.35  0. 1.0000  6108.      0.00 
  -7  -3   8   9039.80  315.25  0. 1.0000  6109.      0.00 
  -7  -3   8   9425.37  354.92  0. 1.0000  6110.      0.00 
   7   3  -7  18374.30  529.38  0. 1.0000  6111.      0.00 
  -7  -3   7  19696.40  545.05  0. 1.0000  6112.      0.00 
  -7  -3   7  18296.70  513.75  0. 1.0000  6113.      0.00 
   7   3  -6  71644.90 1119.51  0. 1.0000  6114.      0.00 
  -7  -3   6  70814.51 1036.82  0. 1.0000  6115.      0.00 
  -7  -3   6  70748.40 1003.23  0. 1.0000  6116.      0.00 
   7   3  -5   4615.58  303.42  0. 1.0000  6117.      0.00 
   7   3  -5   4453.54  264.25  0. 1.0000  6118.      0.00 
   7   3  -4  58529.90 1067.53  0. 1.0000  6119.      0.00 
   7   3  -4  59177.90  994.50  0. 1.0000  6120.      0.00 
   7   3  -3  21525.10  633.61  0. 1.0000  6121.      0.00 
   7   3  -3  21292.50  607.02  0. 1.0000  6122.      0.00 
  -7  -3   3  20308.40  636.00  0. 1.0000  6123.      0.00 
   7   3  -3  20928.70  580.99  0. 1.0000  6124.      0.00 
   7   3  -2   2042.32  192.40  0. 1.0000  6125.      0.00 
   7   3  -2   2010.70  190.40  0. 1.0000  6126.      0.00 
  -7  -3   2   1861.48  201.41  0. 1.0000  6127.      0.00 
   7   3  -1   4301.26  256.76  0. 1.0000  6128.      0.00 
  -7  -3   1   4026.21  273.30  0. 1.0000  6129.      0.00 
   7   3   0  11780.70  369.48  0. 1.0000  6130.      0.00 
  -7  -3   0  11867.10  408.64  0. 1.0000  6131.      0.00 
   7   3   0  11450.50  335.20  0. 1.0000  6132.      0.00 
   7   4  -8    210.04   55.13  0. 1.0000  6133.      0.00 
  -7  -4   8    257.74   65.61  0. 1.0000  6134.      0.00 
   7   4  -7  13256.50  399.30  0. 1.0000  6135.      0.00 
  -7  -4   7  12205.10  372.59  0. 1.0000  6136.      0.00 
   7   4  -6   2427.09  192.85  0. 1.0000  6137.      0.00 
  -7  -4   6   2320.40  163.76  0. 1.0000  6138.      0.00 
   7   4  -5  22676.30  590.56  0. 1.0000  6139.      0.00 
   7   4  -5  22041.70  579.16  0. 1.0000  6140.      0.00 
   7   4  -4  20214.00  556.29  0. 1.0000  6141.      0.00 
   7   4  -4  19325.90  470.54  0. 1.0000  6142.      0.00 
   7   4  -4  19506.90  521.28  0. 1.0000  6143.      0.00 
   7   4  -3   3174.04  216.76  0. 1.0000  6144.      0.00 
   7   4  -3   2932.51  188.04  0. 1.0000  6145.      0.00 
  -7  -4   3   2879.59  211.37  0. 1.0000  6146.      0.00 
   7   4  -2  25709.20  517.03  0. 1.0000  6147.      0.00 
  -7  -4   2  25523.90  590.77  0. 1.0000  6148.      0.00 
  -7  -4   1   1980.02  149.99  0. 1.0000  6149.      0.00 
   7   4  -1   1961.26  132.43  0. 1.0000  6150.      0.00 
  -7  -5   7  12375.00  346.00  0. 1.0000  6151.      0.00 
   7   5  -7  13937.40  351.40  0. 1.0000  6152.      0.00 
   7   5  -6    751.52   90.75  0. 1.0000  6153.      0.00 
   7   5  -6    744.65   95.09  0. 1.0000  6154.      0.00 
   7   5  -5  19106.80  434.94  0. 1.0000  6155.      0.00 
  -7  -5   5  17640.80  421.43  0. 1.0000  6156.      0.00 
   7   5  -5  18765.40  427.11  0. 1.0000  6157.      0.00 
   7   5  -4    548.78   81.42  0. 1.0000  6158.      0.00 
   7   5  -3  16055.80  361.84  0. 1.0000  6159.      0.00 
  -8   8   0   5798.10  232.55  0. 1.0000  6160.      0.00 
   8  -8   0   6400.24  242.62  0. 1.0000  6161.      0.00 
  -8   8  -1   1774.69  141.94  0. 1.0000  6162.      0.00 
   8  -8   1   1811.81  143.09  0. 1.0000  6163.      0.00 
  -8   8  -1   1822.01  141.24  0. 1.0000  6164.      0.00 
  -8   8  -2  12542.90  354.13  0. 1.0000  6165.      0.00 
   8  -8   2  13440.10  379.37  0. 1.0000  6166.      0.00 
  -8   8  -2  12880.60  373.98  0. 1.0000  6167.      0.00 
   8  -8   3   4246.30  204.31  0. 1.0000  6168.      0.00 
   8  -8   3   4192.33  201.15  0. 1.0000  6169.      0.00 
  -8   8  -3   3868.56  194.56  0. 1.0000  6170.      0.00 
  -8   7   2  14127.00  356.39  0. 1.0000  6171.      0.00 
  -8   7   1   6090.56  287.34  0. 1.0000  6172.      0.00 
   8  -7  -1   6195.12  271.61  0. 1.0000  6173.      0.00 
  -8   7   1   6104.89  273.03  0. 1.0000  6174.      0.00 
  -8   7   0  30117.00  676.73  0. 1.0000  6175.      0.00 
   8  -7   0  31725.70  656.76  0. 1.0000  6176.      0.00 
  -8   7   0  31131.30  688.17  0. 1.0000  6177.      0.00 
  -8   7  -1    226.10   80.12  0. 1.0000  6178.      0.00 
   8  -7   1    164.78   72.72  0. 1.0000  6179.      0.00 
  -8   7  -1    198.99   79.61  0. 1.0000  6180.      0.00 
  -8   7  -2  16753.90  463.92  0. 1.0000  6181.      0.00 
   8  -7   2  17729.80  502.78  0. 1.0000  6182.      0.00 
   8  -7   3   5011.76  258.36  0. 1.0000  6183.      0.00 
   8  -7   3   4961.37  249.69  0. 1.0000  6184.      0.00 
   8  -7   4  18921.80  443.25  0. 1.0000  6185.      0.00 
   8  -7   4  19184.80  432.16  0. 1.0000  6186.      0.00 
  -8   6   3  22357.90  501.34  0. 1.0000  6187.      0.00 
  -8   6   3  22382.80  449.21  0. 1.0000  6188.      0.00 
   8  -6  -2   1410.86  136.32  0. 1.0000  6189.      0.00 
  -8   6   2   1427.07  163.18  0. 1.0000  6190.      0.00 
   8  -6  -2   1399.32  140.16  0. 1.0000  6191.      0.00 
  -8   6   2   1562.25  161.45  0. 1.0000  6192.      0.00 
   8  -6  -1  12003.20  408.02  0. 1.0000  6193.      0.00 
  -8   6   1  11852.70  478.24  0. 1.0000  6194.      0.00 
   8  -6  -1  11968.90  428.64  0. 1.0000  6195.      0.00 
  -8   6   1  11775.40  476.60  0. 1.0000  6196.      0.00 
   8  -6   0  20345.60  545.23  0. 1.0000  6197.      0.00 
  -8   6   0  19974.00  620.97  0. 1.0000  6198.      0.00 
   8  -6   0  20440.80  581.43  0. 1.0000  6199.      0.00 
  -8   6   0  19762.00  642.77  0. 1.0000  6200.      0.00 
   8  -6   1  14423.20  455.59  0. 1.0000  6201.      0.00 
  -8   6  -1  13814.90  489.74  0. 1.0000  6202.      0.00 
   8  -6   1  14350.80  496.41  0. 1.0000  6203.      0.00 
  -8   6  -1  14211.70  529.98  0. 1.0000  6204.      0.00 
  -8   6  -2  76530.29 1004.15  0. 1.0000  6205.      0.00 
   8  -6   2  77595.99 1127.66  0. 1.0000  6206.      0.00 
   8  -6   2  77566.70 1068.57  0. 1.0000  6207.      0.00 
   8  -6   3   1105.40  114.36  0. 1.0000  6208.      0.00 
   8  -6   3   1047.38  135.69  0. 1.0000  6209.      0.00 
   8  -6   3   1060.39  127.55  0. 1.0000  6210.      0.00 
  -8   6  -3   1220.67  130.76  0. 1.0000  6211.      0.00 
   8  -6   4  13134.30  372.52  0. 1.0000  6212.      0.00 
   8  -5  -4   9971.01  335.05  0. 1.0000  6213.      0.00 
  -8   5   4   9598.78  341.70  0. 1.0000  6214.      0.00 
   8  -5  -4   9906.63  311.15  0. 1.0000  6215.      0.00 
  -8   5   4   9552.68  315.45  0. 1.0000  6216.      0.00 
   8  -5  -3  66505.10  899.96  0. 1.0000  6217.      0.00 
  -8   5   3  65133.10 1081.73  0. 1.0000  6218.      0.00 
  -8   5   3  64157.50 1043.04  0. 1.0000  6219.      0.00 
   8  -5  -2   4317.47  270.29  0. 1.0000  6220.      0.00 
   8  -5  -2   4293.20  244.17  0. 1.0000  6221.      0.00 
  -8   5   2   4225.47  307.64  0. 1.0000  6222.      0.00 
   8  -5  -2   4147.68  253.42  0. 1.0000  6223.      0.00 
  -8   5   2   4446.19  320.08  0. 1.0000  6224.      0.00 
   8  -5  -1  42929.60  863.31  0. 1.0000  6225.      0.00 
  -8   5   1  42231.00  964.57  0. 1.0000  6226.      0.00 
   8  -5  -1  42472.40  849.68  0. 1.0000  6227.      0.00 
  -8   5   1  42837.00 1014.25  0. 1.0000  6228.      0.00 
   8  -5   0   8528.33  390.58  0. 1.0000  6229.      0.00 
  -8   5   0   7956.81  408.35  0. 1.0000  6230.      0.00 
   8  -5   0   8101.86  386.86  0. 1.0000  6231.      0.00 
  -8   5   0   8100.24  441.28  0. 1.0000  6232.      0.00 
   8  -5   1   2029.98  193.61  0. 1.0000  6233.      0.00 
  -8   5  -1   1765.89  179.53  0. 1.0000  6234.      0.00 
   8  -5   1   1948.78  197.68  0. 1.0000  6235.      0.00 
  -8   5  -1   1771.56  201.42  0. 1.0000  6236.      0.00 
   8  -5   2    216.84   78.19  0. 1.0000  6237.      0.00 
   8  -5   2    131.02   77.19  0. 1.0000  6238.      0.00 
  -8   5  -2    158.60   78.17  0. 1.0000  6239.      0.00 
   8  -5   3   7112.97  308.73  0. 1.0000  6240.      0.00 
   8  -5   3   6941.22  278.99  0. 1.0000  6241.      0.00 
   8  -5   3   6765.33  324.13  0. 1.0000  6242.      0.00 
   8  -5   3   6658.95  296.72  0. 1.0000  6243.      0.00 
   8  -5   4  14312.60  359.21  0. 1.0000  6244.      0.00 
   8  -5   4  14588.00  376.25  0. 1.0000  6245.      0.00 
   8  -4  -5   1675.22  143.97  0. 1.0000  6246.      0.00 
  -8   4   5   1504.14  139.59  0. 1.0000  6247.      0.00 
   8  -4  -5   1636.74  139.61  0. 1.0000  6248.      0.00 
  -8   4   5   1709.17  137.83  0. 1.0000  6249.      0.00 
   8  -4  -4   2327.31  193.65  0. 1.0000  6250.      0.00 
  -8   4   4   2206.95  208.57  0. 1.0000  6251.      0.00 
   8  -4  -4   2319.30  186.97  0. 1.0000  6252.      0.00 
  -8   4   4   2209.29  205.58  0. 1.0000  6253.      0.00 
   8  -4  -3  28269.50  703.27  0. 1.0000  6254.      0.00 
   8  -4  -3  27532.10  666.13  0. 1.0000  6255.      0.00 
  -8   4   3  27608.30  785.24  0. 1.0000  6256.      0.00 
  -8   4   3  26591.60  778.17  0. 1.0000  6257.      0.00 
   8  -4  -2   2718.95  234.78  0. 1.0000  6258.      0.00 
   8  -4  -2   2617.23  216.87  0. 1.0000  6259.      0.00 
  -8   4   2   2529.85  256.26  0. 1.0000  6260.      0.00 
  -8   4   2   2844.99  283.68  0. 1.0000  6261.      0.00 
   8  -4  -1  66547.61 1137.39  0. 1.0000  6262.      0.00 
   8  -4  -1  65538.09 1043.97  0. 1.0000  6263.      0.00 
  -8   4   1  66483.29 1211.92  0. 1.0000  6264.      0.00 
   8  -4  -1  64932.10 1055.68  0. 1.0000  6265.      0.00 
  -8   4   1  66657.21 1296.04  0. 1.0000  6266.      0.00 
  -8   4   0    770.56  134.10  0. 1.0000  6267.      0.00 
   8  -4   0   1036.77  149.84  0. 1.0000  6268.      0.00 
  -8   4   0    957.69  163.59  0. 1.0000  6269.      0.00 
   8  -4   1  43306.10  897.59  0. 1.0000  6270.      0.00 
   8  -4   1  43677.20  885.73  0. 1.0000  6271.      0.00 
  -8   4  -1  42776.39  882.17  0. 1.0000  6272.      0.00 
   8  -4   2   2745.66  221.24  0. 1.0000  6273.      0.00 
   8  -4   2   2495.70  204.39  0. 1.0000  6274.      0.00 
   8  -4   2   2363.95  209.37  0. 1.0000  6275.      0.00 
   8  -4   3  32492.00  670.11  0. 1.0000  6276.      0.00 
   8  -4   3  30428.50  630.39  0. 1.0000  6277.      0.00 
   8  -4   4   8823.14  290.74  0. 1.0000  6278.      0.00 
   8  -4   4   8436.34  282.45  0. 1.0000  6279.      0.00 
   8  -3  -6  14216.30  370.43  0. 1.0000  6280.      0.00 
  -8   3   6  13730.90  368.24  0. 1.0000  6281.      0.00 
   8  -3  -6  14311.80  387.01  0. 1.0000  6282.      0.00 
   8  -3  -5   9289.17  363.14  0. 1.0000  6283.      0.00 
  -8   3   5   9349.23  404.24  0. 1.0000  6284.      0.00 
   8  -3  -5   9788.77  378.48  0. 1.0000  6285.      0.00 
  -8   3   5   9066.69  390.92  0. 1.0000  6286.      0.00 
   8  -3  -4  45679.50  882.03  0. 1.0000  6287.      0.00 
  -8   3   4  46046.60  995.22  0. 1.0000  6288.      0.00 
   8  -3  -4  45675.90  883.18  0. 1.0000  6289.      0.00 
  -8   3   4  44684.10  993.08  0. 1.0000  6290.      0.00 
   8  -3  -3   7580.70  384.05  0. 1.0000  6291.      0.00 
   8  -3  -3   7680.79  380.50  0. 1.0000  6292.      0.00 
  -8   3   3   7727.34  430.09  0. 1.0000  6293.      0.00 
  -8   3   3   7831.68  452.86  0. 1.0000  6294.      0.00 
   8  -3  -2  19261.80  622.96  0. 1.0000  6295.      0.00 
   8  -3  -2  18034.90  587.54  0. 1.0000  6296.      0.00 
  -8   3   2  18449.60  640.02  0. 1.0000  6297.      0.00 
  -8   3   2  19086.40  698.79  0. 1.0000  6298.      0.00 
   8  -3  -1  10346.50  464.63  0. 1.0000  6299.      0.00 
   8  -3  -1   9876.59  431.71  0. 1.0000  6300.      0.00 
  -8   3   1   9455.34  432.45  0. 1.0000  6301.      0.00 
  -8   3   1   9766.09  477.84  0. 1.0000  6302.      0.00 
   8  -3   0   3720.33  283.44  0. 1.0000  6303.      0.00 
   8  -3   0   3466.13  249.62  0. 1.0000  6304.      0.00 
  -8   3   0   3899.74  279.06  0. 1.0000  6305.      0.00 
   8  -3   1  41079.90  877.29  0. 1.0000  6306.      0.00 
   8  -3   1  40634.90  817.36  0. 1.0000  6307.      0.00 
   8  -3   2    329.76   97.68  0. 1.0000  6308.      0.00 
   8  -3   2    332.63   93.53  0. 1.0000  6309.      0.00 
   8  -3   3   2006.93  169.13  0. 1.0000  6310.      0.00 
   8  -3   3   1799.58  159.58  0. 1.0000  6311.      0.00 
   8  -3   4   5664.72  219.06  0. 1.0000  6312.      0.00 
   8  -2  -6  40118.10  659.68  0. 1.0000  6313.      0.00 
   8  -2  -6  39348.20  666.05  0. 1.0000  6314.      0.00 
  -8   2   6  37890.39  743.29  0. 1.0000  6315.      0.00 
   8  -2  -6  40377.60  727.39  0. 1.0000  6316.      0.00 
  -8   2   6  36755.10  723.67  0. 1.0000  6317.      0.00 
   8  -2  -5   8577.65  341.75  0. 1.0000  6318.      0.00 
   8  -2  -5   8290.27  357.65  0. 1.0000  6319.      0.00 
  -8   2   5   8399.84  408.17  0. 1.0000  6320.      0.00 
   8  -2  -5   8752.72  383.13  0. 1.0000  6321.      0.00 
  -8   2   5   8717.94  421.76  0. 1.0000  6322.      0.00 
   8  -2  -4  32853.30  694.97  0. 1.0000  6323.      0.00 
   8  -2  -4  33289.40  764.13  0. 1.0000  6324.      0.00 
  -8   2   4  32831.20  844.14  0. 1.0000  6325.      0.00 
   8  -2  -4  31757.60  770.08  0. 1.0000  6326.      0.00 
  -8   2   4  32269.20  866.91  0. 1.0000  6327.      0.00 
   8  -2  -3    180.78   86.04  0. 1.0000  6328.      0.00 
  -8   2   3    290.87  107.98  0. 1.0000  6329.      0.00 
  -8   2   3    252.44  114.55  0. 1.0000  6330.      0.00 
   8  -2  -2   7202.23  380.32  0. 1.0000  6331.      0.00 
   8  -2  -2   7608.07  395.30  0. 1.0000  6332.      0.00 
  -8   2   2   7445.27  378.86  0. 1.0000  6333.      0.00 
  -8   2   2   7540.70  413.05  0. 1.0000  6334.      0.00 
   8  -2  -1   6243.04  356.97  0. 1.0000  6335.      0.00 
   8  -2  -1   5904.21  342.04  0. 1.0000  6336.      0.00 
  -8   2   1   6322.20  346.77  0. 1.0000  6337.      0.00 
   8  -2   0  25808.80  705.25  0. 1.0000  6338.      0.00 
   8  -2   0  25748.50  677.99  0. 1.0000  6339.      0.00 
   8  -2   1  15776.10  528.45  0. 1.0000  6340.      0.00 
   8  -2   1  15317.20  480.20  0. 1.0000  6341.      0.00 
   8  -2   2  39366.39  763.24  0. 1.0000  6342.      0.00 
   8  -2   2  40156.39  770.65  0. 1.0000  6343.      0.00 
   8  -2   3 125097.01 1153.10  0. 1.0000  6344.      0.00 
   8  -2   3 125711.99 1154.90  0. 1.0000  6345.      0.00 
   8  -1  -7  15928.70  390.45  0. 1.0000  6346.      0.00 
  -8   1   7  15311.50  409.95  0. 1.0000  6347.      0.00 
  -8   1   7  15313.30  407.50  0. 1.0000  6348.      0.00 
   8  -1  -6    816.72  113.26  0. 1.0000  6349.      0.00 
   8  -1  -6    915.89  109.38  0. 1.0000  6350.      0.00 
  -8   1   6    845.03  134.11  0. 1.0000  6351.      0.00 
   8  -1  -6    861.75  123.59  0. 1.0000  6352.      0.00 
  -8   1   6    554.07  114.00  0. 1.0000  6353.      0.00 
   8  -1  -5  25298.10  621.98  0. 1.0000  6354.      0.00 
   8  -1  -5  24993.90  598.21  0. 1.0000  6355.      0.00 
  -8   1   5  25822.50  705.37  0. 1.0000  6356.      0.00 
   8  -1  -5  25725.70  663.19  0. 1.0000  6357.      0.00 
  -8   1   5  25158.10  708.94  0. 1.0000  6358.      0.00 
   8  -1  -4  25289.20  640.98  0. 1.0000  6359.      0.00 
   8  -1  -4  25586.00  650.54  0. 1.0000  6360.      0.00 
  -8   1   4  25730.10  708.00  0. 1.0000  6361.      0.00 
   8  -1  -4  25660.70  697.03  0. 1.0000  6362.      0.00 
  -8   1   4  26641.10  752.23  0. 1.0000  6363.      0.00 
   8  -1  -3   8793.51  381.99  0. 1.0000  6364.      0.00 
   8  -1  -3   8233.62  385.10  0. 1.0000  6365.      0.00 
   8  -1  -3   8987.26  427.70  0. 1.0000  6366.      0.00 
  -8   1   3   8809.03  401.51  0. 1.0000  6367.      0.00 
  -8   1   3   9067.01  431.71  0. 1.0000  6368.      0.00 
   8  -1  -2  67551.89 1105.57  0. 1.0000  6369.      0.00 
   8  -1  -2  67392.40 1154.32  0. 1.0000  6370.      0.00 
   8  -1  -1    997.48  149.34  0. 1.0000  6371.      0.00 
   8  -1  -1    651.69  130.64  0. 1.0000  6372.      0.00 
   8  -1   0  14720.40  502.36  0. 1.0000  6373.      0.00 
   8  -1   0  14926.30  507.33  0. 1.0000  6374.      0.00 
   8  -1   1   2371.97  194.43  0. 1.0000  6375.      0.00 
   8  -1   1   2370.39  187.55  0. 1.0000  6376.      0.00 
   8  -1   2    413.67   83.30  0. 1.0000  6377.      0.00 
   8  -1   2    399.58   69.14  0. 1.0000  6378.      0.00 
   8  -1   2    513.39   89.20  0. 1.0000  6379.      0.00 
   8   0  -7  71165.20  882.87  0. 1.0000  6380.      0.00 
  -8   0   7  72337.51  947.38  0. 1.0000  6381.      0.00 
   8   0  -7  71643.49  815.37  0. 1.0000  6382.      0.00 
  -8   0   7  71578.30  950.96  0. 1.0000  6383.      0.00 
   8   0  -6  14020.10  444.85  0. 1.0000  6384.      0.00 
  -8   0   6  14629.80  480.28  0. 1.0000  6385.      0.00 
   8   0  -6  14247.60  446.49  0. 1.0000  6386.      0.00 
  -8   0   6  14673.10  490.67  0. 1.0000  6387.      0.00 
   8   0  -5  20561.70  573.20  0. 1.0000  6388.      0.00 
  -8   0   5  20595.70  586.61  0. 1.0000  6389.      0.00 
   8   0  -5  20794.50  587.26  0. 1.0000  6390.      0.00 
  -8   0   5  20974.60  612.39  0. 1.0000  6391.      0.00 
   8   0  -4  10220.00  417.87  0. 1.0000  6392.      0.00 
  -8   0   4  10139.60  403.37  0. 1.0000  6393.      0.00 
   8   0  -4  10370.10  437.21  0. 1.0000  6394.      0.00 
  -8   0   4  10139.60  421.49  0. 1.0000  6395.      0.00 
   8   0  -3  21333.10  593.43  0. 1.0000  6396.      0.00 
   8   0  -3  20845.90  559.13  0. 1.0000  6397.      0.00 
   8   0  -3  20978.90  631.58  0. 1.0000  6398.      0.00 
   8   0  -2  37980.40  755.85  0. 1.0000  6399.      0.00 
   8   0  -2  37543.90  757.03  0. 1.0000  6400.      0.00 
   8   0  -2  38002.00  846.51  0. 1.0000  6401.      0.00 
   8   0  -1   6202.63  306.50  0. 1.0000  6402.      0.00 
   8   0  -1   6484.17  340.84  0. 1.0000  6403.      0.00 
   8   0   0  30415.80  635.19  0. 1.0000  6404.      0.00 
   8   0   0  30773.00  677.74  0. 1.0000  6405.      0.00 
   8   0   1    140.33   55.22  0. 1.0000  6406.      0.00 
   8   0   1     80.39   53.77  0. 1.0000  6407.      0.00 
  -8   0  -2   9252.37  294.06  0. 1.0000  6408.      0.00 
   8   1  -7   5350.97  246.58  0. 1.0000  6409.      0.00 
  -8  -1   7   5721.09  260.83  0. 1.0000  6410.      0.00 
  -8  -1   7   5433.51  253.63  0. 1.0000  6411.      0.00 
   8   1  -6   1624.20  156.85  0. 1.0000  6412.      0.00 
  -8  -1   6   1921.97  167.68  0. 1.0000  6413.      0.00 
   8   1  -6   1834.68  156.30  0. 1.0000  6414.      0.00 
  -8  -1   6   1878.25  166.99  0. 1.0000  6415.      0.00 
   8   1  -5  17562.40  520.11  0. 1.0000  6416.      0.00 
  -8  -1   5  17755.10  477.16  0. 1.0000  6417.      0.00 
   8   1  -5  17912.10  512.19  0. 1.0000  6418.      0.00 
  -8  -1   5  17105.70  479.26  0. 1.0000  6419.      0.00 
   8   1  -4   1594.52  168.12  0. 1.0000  6420.      0.00 
   8   1  -4   1673.52  174.58  0. 1.0000  6421.      0.00 
   8   1  -3  31563.20  693.93  0. 1.0000  6422.      0.00 
   8   1  -3  31641.10  726.59  0. 1.0000  6423.      0.00 
   8   1  -2     18.64   49.25  0. 1.0000  6424.      0.00 
   8   1  -2    180.86   81.06  0. 1.0000  6425.      0.00 
  -8  -1   2    133.50   72.33  0. 1.0000  6426.      0.00 
   8   1  -1   8221.73  346.09  0. 1.0000  6427.      0.00 
  -8  -1   1   7403.59  345.53  0. 1.0000  6428.      0.00 
   8   1   0   5804.60  260.70  0. 1.0000  6429.      0.00 
  -8  -1   0   5580.64  276.85  0. 1.0000  6430.      0.00 
   8   1   0   5463.48  226.52  0. 1.0000  6431.      0.00 
   8   1   0   5959.79  248.05  0. 1.0000  6432.      0.00 
   8   2  -7   9079.45  298.65  0. 1.0000  6433.      0.00 
   8   2  -6  11911.80  382.53  0. 1.0000  6434.      0.00 
  -8  -2   6  12090.40  334.27  0. 1.0000  6435.      0.00 
   8   2  -6  12137.90  328.73  0. 1.0000  6436.      0.00 
   8   2  -5 101061.01 1162.30  0. 1.0000  6437.      0.00 
   8   2  -5 100388.99 1074.90  0. 1.0000  6438.      0.00 
   8   2  -4    145.13   67.27  0. 1.0000  6439.      0.00 
   8   2  -4    105.47   62.12  0. 1.0000  6440.      0.00 
   8   2  -3   7543.86  308.17  0. 1.0000  6441.      0.00 
   8   2  -3   7898.59  322.83  0. 1.0000  6442.      0.00 
   8   2  -2    173.39   56.83  0. 1.0000  6443.      0.00 
   8   2  -2    267.50   73.42  0. 1.0000  6444.      0.00 
  -8  -2   2    162.39   65.01  0. 1.0000  6445.      0.00 
   8   2  -1  21504.20  461.93  0. 1.0000  6446.      0.00 
  -8  -2   1  19375.80  458.96  0. 1.0000  6447.      0.00 
   8   3  -6   3698.55  187.21  0. 1.0000  6448.      0.00 
   8   3  -6   4076.54  193.03  0. 1.0000  6449.      0.00 
   8   3  -5  40363.60  638.37  0. 1.0000  6450.      0.00 
   8   3  -5  40711.30  596.57  0. 1.0000  6451.      0.00 
   8   3  -4  10446.30  322.44  0. 1.0000  6452.      0.00 
   8   3  -3  18557.50  392.22  0. 1.0000  6453.      0.00 
   9  -5  -2   2696.19  153.53  0. 1.0000  6454.      0.00 
  -9   5   2   2410.34  149.76  0. 1.0000  6455.      0.00 
  -9   5   2   2502.06  160.83  0. 1.0000  6456.      0.00 
   9  -5  -1   3638.54  188.86  0. 1.0000  6457.      0.00 
  -9   5   1   3468.53  176.75  0. 1.0000  6458.      0.00 
  -9   5   1   3255.06  190.94  0. 1.0000  6459.      0.00 
   9  -5   0  13952.70  365.84  0. 1.0000  6460.      0.00 
  -9   5   0  13279.70  353.96  0. 1.0000  6461.      0.00 
   9  -5   1   5981.94  225.82  0. 1.0000  6462.      0.00 
  -9   4   3  67319.71  813.16  0. 1.0000  6463.      0.00 
  -9   4   3  67483.20  844.15  0. 1.0000  6464.      0.00 
   9  -4  -2  23228.60  504.16  0. 1.0000  6465.      0.00 
  -9   4   2  22229.20  474.80  0. 1.0000  6466.      0.00 
  -9   4   2  22608.50  520.25  0. 1.0000  6467.      0.00 
   9  -4  -1  11222.40  360.86  0. 1.0000  6468.      0.00 
  -9   4   1  10365.70  339.16  0. 1.0000  6469.      0.00 
   9  -4   0  17598.30  440.96  0. 1.0000  6470.      0.00 
   9  -4   0  17521.20  386.48  0. 1.0000  6471.      0.00 
   9  -4   1   2836.37  168.65  0. 1.0000  6472.      0.00 
  -9   3   4    689.69   88.08  0. 1.0000  6473.      0.00 
  -9   3   4    690.22   92.02  0. 1.0000  6474.      0.00 
   9  -3  -3  15153.80  402.94  0. 1.0000  6475.      0.00 
  -9   3   3  14893.90  391.23  0. 1.0000  6476.      0.00 
   9  -3  -3  15115.90  393.59  0. 1.0000  6477.      0.00 
  -9   3   3  14761.50  422.35  0. 1.0000  6478.      0.00 
   9  -3  -2   9350.21  334.62  0. 1.0000  6479.      0.00 
   9  -3  -2   9087.14  311.15  0. 1.0000  6480.      0.00 
  -9   3   2   8882.39  320.19  0. 1.0000  6481.      0.00 
   9  -3  -1   9462.11  337.23  0. 1.0000  6482.      0.00 
   9  -3  -1   9148.53  295.50  0. 1.0000  6483.      0.00 
   9  -3   0    936.97  110.52  0. 1.0000  6484.      0.00 
   9  -3   1   2762.79  161.13  0. 1.0000  6485.      0.00 
   9  -3   1   2610.09  150.26  0. 1.0000  6486.      0.00 
   9  -2  -4    516.71   75.86  0. 1.0000  6487.      0.00 
  -9   2   4    497.78   76.97  0. 1.0000  6488.      0.00 
   9  -2  -4    565.72   84.55  0. 1.0000  6489.      0.00 
  -9   2   4    603.58   89.47  0. 1.0000  6490.      0.00 
   9  -2  -3  24094.00  499.64  0. 1.0000  6491.      0.00 
   9  -2  -3  24892.00  530.01  0. 1.0000  6492.      0.00 
  -9   2   3  23923.40  493.40  0. 1.0000  6493.      0.00 
   9  -2  -2   6277.40  266.51  0. 1.0000  6494.      0.00 
   9  -2  -2   6436.23  272.02  0. 1.0000  6495.      0.00 
   9  -2  -1  49533.30  735.07  0. 1.0000  6496.      0.00 
   9  -2  -1  48823.60  695.49  0. 1.0000  6497.      0.00 
   9  -2   0   5139.01  222.00  0. 1.0000  6498.      0.00 
   9  -2   0   5260.60  231.11  0. 1.0000  6499.      0.00 
   9  -1  -4  18934.70  443.26  0. 1.0000  6500.      0.00 
   9  -1  -3   6538.20  271.67  0. 1.0000  6501.      0.00 
   9  -1  -2    170.68   49.89  0. 1.0000  6502.      0.00 
   9  -1  -2    147.47   55.47  0. 1.0000  6503.      0.00 
   9  -1  -1   3815.37  186.08  0. 1.0000  6504.      0.00 
   9   0  -4  12524.00  333.93  0. 1.0000  6505.      0.00 
   9   0  -3    707.35   89.39  0. 1.0000  6506.      0.00 
   9   0  -2  16802.10  377.07  0. 1.0000  6507.      0.00 
-512 
#   6507 reflections output 
#syst 
end 
#sort 
end 
#merge 
end 
#list 6 
read type=copy 
end 
;
loop_
_symmetry_equiv_pos_as_xyz
x,y,z
-x,-y,-z
loop_
_atom_site_label
_atom_site_type_symbol
_atom_site_fract_x
_atom_site_fract_y
_atom_site_fract_z
_atom_site_U_iso_or_equiv
_atom_site_occupancy
_atom_site_adp_type
_atom_site_refinement_flags_posn
_atom_site_refinement_flags_adp
_atom_site_refinement_flags_occupancy
_atom_site_disorder_assembly
_atom_site_disorder_group
_atom_site_attached_hydrogens
O1 O 0.33954(19) 1.22296(16) 0.96069(16) 0.0198 1.0000 Uani D . . . . .
C2 C 0.2825(2) 1.1030(2) 0.9994(2) 0.0154 1.0000 Uani . . . . . .
C3 C 0.2387(2) 1.1416(2) 1.1471(2) 0.0185 1.0000 Uani . . . . . .
C4 C 0.1846(2) 1.0189(2) 1.1910(2) 0.0207 1.0000 Uani . . . . . .
C5 C 0.1749(2) 0.8555(2) 1.0879(2) 0.0204 1.0000 Uani . . . . . .
C6 C 0.2190(2) 0.8100(2) 0.9362(2) 0.0167 1.0000 Uani . . . . . .
C7 C 0.2711(2) 0.9330(2) 0.8879(2) 0.0142 1.0000 Uani . . . . . .
C8 C 0.2173(3) 0.6430(2) 0.8328(2) 0.0212 1.0000 Uani . . . . . .
C9 C 0.2643(3) 0.5994(2) 0.6884(2) 0.0225 1.0000 Uani . . . . . .
C10 C 0.3089(2) 0.7203(2) 0.6419(2) 0.0192 1.0000 Uani . . . . . .
N11 N 0.31063(19) 0.87880(18) 0.73502(18) 0.0144 1.0000 Uani . . . . . .
C12 C 0.3508(2) 0.9880(2) 0.6598(2) 0.0150 1.0000 Uani . . . . . .
C13 C 0.1676(2) 0.9945(2) 0.5785(2) 0.0141 1.0000 Uani . . . . . .
C14 C 0.1436(2) 1.1507(2) 0.6279(2) 0.0160 1.0000 Uani . . . . . .
C15 C -0.0237(2) 1.1553(2) 0.5499(2) 0.0160 1.0000 Uani . . . . . .
Br1 Br 0.31877(3) 1.57454(2) 1.22276(2) 0.0232 1.0000 Uani . . . . . .
H31 H 0.2457 1.2544 1.2187 0.0222 1.0000 Uiso R . . . . .
H41 H 0.1550 1.0508 1.2948 0.0248 1.0000 Uiso R . . . . .
H51 H 0.1406 0.7729 1.1175 0.0244 1.0000 Uiso R . . . . .
H81 H 0.1859 0.5626 0.8672 0.0254 1.0000 Uiso R . . . . .
H91 H 0.2693 0.4902 0.6194 0.0274 1.0000 Uiso R . . . . .
H101 H 0.3384 0.6926 0.5409 0.0222 1.0000 Uiso R . . . . .
H121 H 0.4382 1.1021 0.7439 0.0170 1.0000 Uiso R . . . . .
H122 H 0.4117 0.9342 0.5730 0.0173 1.0000 Uiso R . . . . .
H141 H 0.2430 1.2536 0.7164 0.0191 1.0000 Uiso R . . . . .
H151 H -0.0391 1.2625 0.5855 0.0189 1.0000 Uiso R . . . . .
H11 H 0.337(4) 1.313(2) 1.033(3) 0.0299(19) 1.0000 Uiso D . . . . .
loop_
_atom_site_aniso_label
_atom_site_aniso_U_11
_atom_site_aniso_U_22
_atom_site_aniso_U_33
_atom_site_aniso_U_23
_atom_site_aniso_U_13
_atom_site_aniso_U_12
O1 0.0297(7) 0.0134(6) 0.0188(6) 0.0101(5) 0.0081(5) 0.0074(5)
C2 0.0124(7) 0.0169(8) 0.0180(8) 0.0113(7) 0.0015(6) 0.0041(6)
C3 0.0168(8) 0.0209(9) 0.0184(8) 0.0107(7) 0.0043(6) 0.0069(7)
C4 0.0178(8) 0.0296(10) 0.0210(9) 0.0173(8) 0.0073(7) 0.0087(7)
C5 0.0166(8) 0.0265(9) 0.0263(9) 0.0209(8) 0.0058(7) 0.0061(7)
C6 0.0119(7) 0.0182(8) 0.0216(8) 0.0135(7) 0.0014(6) 0.0033(6)
C7 0.0103(7) 0.0176(8) 0.0158(8) 0.0109(7) 0.0018(6) 0.0036(6)
C8 0.0195(8) 0.0184(8) 0.0271(9) 0.0156(8) 0.0022(7) 0.0038(7)
C9 0.0251(9) 0.0154(8) 0.0255(9) 0.0107(7) 0.0035(7) 0.0069(7)
C10 0.0195(8) 0.0194(8) 0.0188(8) 0.0101(7) 0.0041(7) 0.0075(7)
N11 0.0128(6) 0.0157(7) 0.0164(7) 0.0106(6) 0.0017(5) 0.0043(5)
C12 0.0144(7) 0.0181(8) 0.0176(8) 0.0132(7) 0.0057(6) 0.0050(6)
C13 0.0143(7) 0.0189(8) 0.0145(7) 0.0124(7) 0.0054(6) 0.0059(6)
C14 0.0160(8) 0.0153(8) 0.0152(8) 0.0090(6) 0.0021(6) 0.0026(6)
C15 0.0187(8) 0.0145(8) 0.0168(8) 0.0096(7) 0.0046(6) 0.0064(6)
Br1 0.03159(12) 0.01754(11) 0.02411(11) 0.01177(8) 0.01224(8) 0.01028(8)
loop_
_atom_type_symbol
_atom_type_scat_dispersion_real
_atom_type_scat_dispersion_imag
_atom_type_scat_Cromer_Mann_a1
_atom_type_scat_Cromer_Mann_b1
_atom_type_scat_Cromer_Mann_a2
_atom_type_scat_Cromer_Mann_b2
_atom_type_scat_Cromer_Mann_a3
_atom_type_scat_Cromer_Mann_b3
_atom_type_scat_Cromer_Mann_a4
_atom_type_scat_Cromer_Mann_b4
_atom_type_scat_Cromer_Mann_c
_atom_type_scat_source
C 0.0181 0.0091 2.3100 20.8439 1.0200 10.2075 1.5886 0.5687 0.8650 51.6512
0.2156 'International Tables Vol C 4.2.6.8 and 6.1.1.4'
H 0.0000 0.0000 0.4930 10.5109 0.3229 26.1257 0.1402 3.1424 0.0408 57.7998
0.0030 'International Tables Vol C 4.2.6.8 and 6.1.1.4'
N 0.0311 0.0180 12.2126 0.0057 3.1322 9.8933 2.0125 28.9975 1.1663 0.5826
-11.5290 'International Tables Vol C 4.2.6.8 and 6.1.1.4'
O 0.0492 0.0322 3.0485 13.2771 2.2868 5.7011 1.5463 0.3239 0.8670 32.9089
0.2508 'International Tables Vol C 4.2.6.8 and 6.1.1.4'
Br -0.6763 1.2805 17.1789 2.1723 5.2358 16.5796 5.6377 0.2609 3.9851 41.4328
2.9557 'International Tables Vol C 4.2.6.8 and 6.1.1.4'
loop_
_geom_angle_atom_site_label_1
_geom_angle_site_symmetry_1
_geom_angle_atom_site_label_2
_geom_angle_site_symmetry_2
_geom_angle_atom_site_label_3
_geom_angle_site_symmetry_3
_geom_angle
_geom_angle_publ_flag
C2 . O1 . H11 . 109.6(18) no
O1 . C2 . C3 . 121.48(16) yes
O1 . C2 . C7 . 119.50(15) yes
C3 . C2 . C7 . 119.01(16) yes
C2 . C3 . C4 . 122.00(17) yes
C2 . C3 . H31 . 117.8 no
C4 . C3 . H31 . 120.2 no
C3 . C4 . C5 . 120.37(17) yes
C3 . C4 . H41 . 119.4 no
C5 . C4 . H41 . 120.2 no
C4 . C5 . C6 . 119.79(16) yes
C4 . C5 . H51 . 120.8 no
C6 . C5 . H51 . 119.4 no
C5 . C6 . C7 . 120.58(16) yes
C5 . C6 . C8 . 119.87(16) yes
C7 . C6 . C8 . 119.52(16) yes
C6 . C7 . C2 . 118.24(15) yes
C6 . C7 . N11 . 117.61(15) yes
C2 . C7 . N11 . 124.14(15) yes
C6 . C8 . C9 . 120.20(16) yes
C6 . C8 . H81 . 119.1 no
C9 . C8 . H81 . 120.7 no
C8 . C9 . C10 . 119.06(17) yes
C8 . C9 . H91 . 121.8 no
C10 . C9 . H91 . 119.1 no
C9 . C10 . N11 . 122.71(17) yes
C9 . C10 . H101 . 120.9 no
N11 . C10 . H101 . 116.4 no
C7 . N11 . C10 . 120.81(14) yes
C7 . N11 . C12 . 124.03(14) yes
C10 . N11 . C12 . 115.12(14) yes
N11 . C12 . C13 . 111.55(13) yes
N11 . C12 . H121 . 110.3 no
C13 . C12 . H121 . 110.4 no
N11 . C12 . H122 . 106.7 no
C13 . C12 . H122 . 108.5 no
H121 . C12 . H122 . 109.2 no
C12 . C13 . C15 2_576 120.19(15) yes
C12 . C13 . C14 . 120.51(15) yes
C15 2_576 C13 . C14 . 119.27(15) yes
C13 . C14 . C15 . 120.00(16) yes
C13 . C14 . H141 . 119.0 no
C15 . C14 . H141 . 121.0 no
C13 2_576 C15 . C14 . 120.73(16) yes
C13 2_576 C15 . H151 . 120.0 no
C14 . C15 . H151 . 119.2 no
loop_
_geom_bond_atom_site_label_1
_geom_bond_site_symmetry_1
_geom_bond_atom_site_label_2
_geom_bond_site_symmetry_2
_geom_bond_distance
_geom_bond_publ_flag
O1 . C2 . 1.345(2) yes
O1 . H11 . 0.814(16) no
C2 . C3 . 1.382(2) yes
C2 . C7 . 1.425(2) yes
C3 . C4 . 1.401(2) yes
C3 . H31 . 0.943 no
C4 . C5 . 1.366(3) yes
C4 . H41 . 0.961 no
C5 . C6 . 1.409(3) yes
C5 . H51 . 0.942 no
C6 . C7 . 1.432(2) yes
C6 . C8 . 1.414(3) yes
C7 . N11 . 1.397(2) yes
C8 . C9 . 1.358(3) yes
C8 . H81 . 0.954 no
C9 . C10 . 1.395(3) yes
C9 . H91 . 0.945 no
C10 . N11 . 1.334(2) yes
C10 . H101 . 0.942 no
N11 . C12 . 1.507(2) yes
C12 . C13 . 1.515(2) yes
C12 . H121 . 0.968 no
C12 . H122 . 0.985 no
C13 . C15 2_576 1.392(2) yes
C13 . C14 . 1.396(2) yes
C14 . C15 . 1.392(2) yes
C14 . H141 . 0.959 no
C15 . H151 . 0.952 no
