#------------------------------------------------------------------------------
#$Date: 2021-02-05 01:31:31 +0200 (Fri, 05 Feb 2021) $
#$Revision: 261766 $
#$URL: file:///home/coder/svn-repositories/cod/cif/7/15/78/7157826.cif $
#------------------------------------------------------------------------------
#
# This file is available in the Crystallography Open Database (COD),
# http://www.crystallography.net/
#
# All data on this site have been placed in the public domain by the
# contributors.
#
data_7157826
loop_
_publ_author_name
'Zhao, Bin'
'Xu, Bo'
_publ_section_title
;
 Visible-light promoted oxidative cyclization of cinnamic acid derivatives
 using xanthone as the photocatalyst.
;
_journal_issue                   3
_journal_name_full               'Organic &amp; biomolecular chemistry'
_journal_page_first              568
_journal_page_last               573
_journal_paper_doi               10.1039/d0ob02417a
_journal_volume                  19
_journal_year                    2021
_chemical_formula_sum            'C20 H14 Cl2 O4'
_chemical_formula_weight         389.21
_space_group_crystal_system      triclinic
_space_group_IT_number           2
_space_group_name_Hall           '-P 1'
_space_group_name_H-M_alt        'P -1'
_atom_sites_solution_hydrogens   geom
_audit_creation_method           SHELXL-2018/3
_audit_update_record
;
2019-08-06 deposited with the CCDC.	2020-12-18 downloaded from the CCDC.
;
_cell_angle_alpha                71.5840(10)
_cell_angle_beta                 72.7130(10)
_cell_angle_gamma                72.0840(10)
_cell_formula_units_Z            2
_cell_length_a                   8.4191(2)
_cell_length_b                   10.2779(2)
_cell_length_c                   11.5069(3)
_cell_measurement_reflns_used    7248
_cell_measurement_temperature    193(2)
_cell_measurement_theta_max      60.40
_cell_measurement_theta_min      4.93
_cell_volume                     876.57(4)
_computing_structure_refinement  'SHELXL-2018/3 (Sheldrick, 2018)'
_computing_structure_solution    'SHELXT 2014/5 (Sheldrick, 2014)'
_diffrn_ambient_temperature      193(2)
_diffrn_measured_fraction_theta_full 0.979
_diffrn_measured_fraction_theta_max 0.979
_diffrn_measurement_device_type  'Bruker D8 Venture'
_diffrn_measurement_method       '\f and \w scans'
_diffrn_radiation_type           GaK\a
_diffrn_radiation_wavelength     1.34139
_diffrn_reflns_av_R_equivalents  0.0299
_diffrn_reflns_av_unetI/netI     0.0261
_diffrn_reflns_Laue_measured_fraction_full 0.979
_diffrn_reflns_Laue_measured_fraction_max 0.979
_diffrn_reflns_limit_h_max       10
_diffrn_reflns_limit_h_min       -10
_diffrn_reflns_limit_k_max       12
_diffrn_reflns_limit_k_min       -12
_diffrn_reflns_limit_l_max       13
_diffrn_reflns_limit_l_min       -13
_diffrn_reflns_number            10859
_diffrn_reflns_point_group_measured_fraction_full 0.979
_diffrn_reflns_point_group_measured_fraction_max 0.979
_diffrn_reflns_theta_full        52.995
_diffrn_reflns_theta_max         52.995
_diffrn_reflns_theta_min         4.925
_exptl_absorpt_coefficient_mu    2.338
_exptl_crystal_density_diffrn    1.475
_exptl_crystal_description       BLOCK
_exptl_crystal_F_000             400
_exptl_crystal_size_max          0.160
_exptl_crystal_size_mid          0.120
_exptl_crystal_size_min          0.110
_refine_diff_density_max         0.209
_refine_diff_density_min         -0.347
_refine_diff_density_rms         0.037
_refine_ls_extinction_method     none
_refine_ls_goodness_of_fit_ref   1.040
_refine_ls_hydrogen_treatment    constr
_refine_ls_matrix_type           full
_refine_ls_number_parameters     237
_refine_ls_number_reflns         3029
_refine_ls_number_restraints     0
_refine_ls_restrained_S_all      1.040
_refine_ls_R_factor_all          0.0423
_refine_ls_R_factor_gt           0.0364
_refine_ls_shift/su_max          0.001
_refine_ls_shift/su_mean         0.000
_refine_ls_structure_factor_coef Fsqd
_refine_ls_weighting_details
'w=1/[\s^2^(Fo^2^)+(0.0547P)^2^+0.3277P] where P=(Fo^2^+2Fc^2^)/3'
_refine_ls_weighting_scheme      calc
_refine_ls_wR_factor_gt          0.1000
_refine_ls_wR_factor_ref         0.1056
_reflns_Friedel_coverage         0.000
_reflns_number_gt                2669
_reflns_number_total             3029
_reflns_threshold_expression     'I > 2\s(I)'
_cod_data_source_file            d0ob02417a2.cif
_cod_data_source_block           20190627ZH_ZNZ4668_0m_a
_cod_depositor_comments          'Adding full bibliography for 7157826.cif.'
_cod_database_code               7157826
_shelx_shelxl_version_number     2018/3
_shelx_space_group_comment
;
The symmetry employed for this shelxl refinement is uniquely defined
by the following loop, which should always be used as a source of
symmetry information in preference to the above space-group names.
They are only intended as comments.
;
_shelx_estimated_absorpt_t_min   0.706
_shelx_estimated_absorpt_t_max   0.783
_shelx_res_file
;
TITL 20190627ZH_ZNZ4668_0m_a.res in P-1
    20190627ZH_ZNZ4668_0m_a.res
    created by SHELXL-2018/3 at 18:09:39 on 28-Jun-2019
CELL  1.34139   8.4191  10.2779  11.5069   71.584   72.713   72.084
ZERR   2.000   0.0002   0.0002   0.0003    0.001    0.001    0.001
LATT 1
SFAC C  H  Cl O
UNIT 40 28 4 8
L.S. 10
OMIT -3 106
ACTA
BOND $H
FMAP 2
SIZE .16 .12 .11
PLAN 20
LIST 6
TEMP -80.200
WGHT    0.054700    0.327700
FVAR       1.75784
C1    1    0.620809    0.954367    0.111816    11.00000    0.06357    0.06692 =
         0.03503   -0.00402   -0.01585   -0.01528
AFIX 137
H1A   2    0.709382    0.875337    0.084951    11.00000   -1.50000
H1B   2    0.622376    1.039854    0.043012    11.00000   -1.50000
H1C   2    0.508383    0.932627    0.134495    11.00000   -1.50000
AFIX   0
C2    1    0.650111    0.867705    0.320478    11.00000    0.03199    0.03790 =
         0.03613   -0.00316   -0.00597   -0.00993
C3    1    0.696778    0.892575    0.425026    11.00000    0.02907    0.03043 =
         0.03496   -0.00244   -0.00443   -0.00899
C4    1    0.725281    1.019856    0.416917    11.00000    0.02909    0.02890 =
         0.04015   -0.00004   -0.00573   -0.00787
AFIX  43
H4    2    0.715148    1.093564    0.342888    11.00000   -1.20000
AFIX   0
C5    1    0.769225    1.043366    0.516091    11.00000    0.02653    0.02482 =
         0.04596   -0.00466   -0.00371   -0.00696
C6    1    0.801154    1.174346    0.507758    11.00000    0.03162    0.02493 =
         0.05874   -0.00464   -0.00599   -0.00899
AFIX  43
H6    2    0.791516    1.248201    0.433767    11.00000   -1.20000
AFIX   0
C7    1    0.845168    1.196291    0.603290    11.00000    0.03360    0.02651 =
         0.06667   -0.01510   -0.00105   -0.01131
AFIX  43
H7    2    0.866820    1.284183    0.596315    11.00000   -1.20000
AFIX   0
C8    1    0.858039    1.086780    0.712384    11.00000    0.03454    0.03801 =
         0.05298   -0.02125    0.00064   -0.01477
C9    1    0.831762    0.957424    0.725467    11.00000    0.03653    0.03103 =
         0.04193   -0.01109   -0.00178   -0.01222
AFIX  43
H9    2    0.844331    0.884937    0.799932    11.00000   -1.20000
AFIX   0
C10   1    0.785698    0.932738    0.626993    11.00000    0.02823    0.02672 =
         0.03956   -0.00962   -0.00135   -0.00920
C11   1    0.757484    0.800087    0.634229    11.00000    0.02906    0.02535 =
         0.03522   -0.00647   -0.00210   -0.00866
C12   1    0.712155    0.781410    0.536092    11.00000    0.02833    0.02725 =
         0.03432   -0.00662   -0.00333   -0.00856
C13   1    0.682587    0.639540    0.551757    11.00000    0.03446    0.02947 =
         0.03074   -0.00441   -0.00968   -0.00989
C14   1    0.492985    0.492349    0.667332    11.00000    0.05869    0.03715 =
         0.04329   -0.00356   -0.00442   -0.02817
AFIX 137
H14A  2    0.518013    0.453569    0.594483    11.00000   -1.50000
H14B  2    0.372034    0.499810    0.709568    11.00000   -1.50000
H14C  2    0.564690    0.429873    0.725871    11.00000   -1.50000
AFIX   0
C15   1    0.783771    0.678967    0.745977    11.00000    0.03948    0.02668 =
         0.03324   -0.00684   -0.00739   -0.01533
C16   1    0.666265    0.673636    0.860509    11.00000    0.05045    0.03951 =
         0.03827   -0.00957   -0.00145   -0.01251
AFIX  43
H16   2    0.567995    0.749246    0.869083    11.00000   -1.20000
AFIX   0
C17   1    0.690650    0.559694    0.962049    11.00000    0.07032    0.05185 =
         0.03288   -0.00508   -0.00234   -0.02683
AFIX  43
H17   2    0.609744    0.556630    1.040047    11.00000   -1.20000
AFIX   0
C18   1    0.833849    0.450396    0.948888    11.00000    0.07050    0.03660 =
         0.03798   -0.00009   -0.02069   -0.02461
C19   1    0.952436    0.452987    0.837029    11.00000    0.05446    0.02888 =
         0.05040   -0.00644   -0.02019   -0.00972
AFIX  43
H19   2    1.050886    0.377370    0.829285    11.00000   -1.20000
AFIX   0
C20   1    0.926459    0.567551    0.735515    11.00000    0.04414    0.03091 =
         0.03759   -0.00719   -0.00790   -0.01337
AFIX  43
H20   2    1.007583    0.569751    0.657668    11.00000   -1.20000
AFIX   0
CL1   3    0.909009    1.118023    0.834319    11.00000    0.07063    0.06156 =
         0.06289   -0.02988   -0.00181   -0.03548
CL2   3    0.861351    0.303612    1.075286    11.00000    0.11737    0.05097 =
         0.04886    0.01313   -0.03591   -0.03261
O1    4    0.653584    0.976843    0.219172    11.00000    0.05636    0.04669 =
         0.03873    0.00344   -0.01622   -0.01715
O2    4    0.614135    0.762749    0.324155    11.00000    0.08368    0.04957 =
         0.04593   -0.00237   -0.02355   -0.03359
O3    4    0.784901    0.544638    0.512030    11.00000    0.04496    0.03301 =
         0.05111   -0.01660   -0.00429   -0.00869
O4    4    0.528618    0.630352    0.626241    11.00000    0.03610    0.03005 =
         0.04038   -0.00680   -0.00434   -0.01502
HKLF 4




REM  20190627ZH_ZNZ4668_0m_a.res in P-1
REM wR2 = 0.1056, GooF = S = 1.040, Restrained GooF = 1.040 for all data
REM R1 = 0.0364 for 2669 Fo > 4sig(Fo) and 0.0423 for all 3029 data
REM 237 parameters refined using 0 restraints

END

WGHT      0.0500      0.3531

REM Highest difference peak  0.209,  deepest hole -0.347,  1-sigma level  0.037
Q1    1   0.6736  0.8433  0.4964  11.00000  0.05    0.21
Q2    1   0.7606  1.0044  0.5805  11.00000  0.05    0.20
Q3    1   0.7999  0.9798  0.5550  11.00000  0.05    0.20
Q4    1   0.7705  0.7448  0.6991  11.00000  0.05    0.17
Q5    1   0.7465  0.3223  1.0663  11.00000  0.05    0.17
Q6    1   0.7335  0.4826  0.9472  11.00000  0.05    0.16
Q7    1   0.8081  1.1598  0.6631  11.00000  0.05    0.16
Q8    1   0.6857  0.7154  0.5371  11.00000  0.05    0.15
Q9    1   0.9535  0.5464  0.8050  11.00000  0.05    0.15
Q10   1   0.8355  0.9367  0.6605  11.00000  0.05    0.15
Q11   1   0.7833  0.8620  0.6238  11.00000  0.05    0.15
Q12   1   0.7110  0.7955  0.5823  11.00000  0.05    0.15
Q13   1   0.8494  1.2975  0.6404  11.00000  0.05    0.14
Q14   1   0.7521  0.6824  0.8045  11.00000  0.05    0.14
Q15   1   0.7536  1.1176  0.5232  11.00000  0.05    0.14
Q16   1   0.8932  1.1256  0.6460  11.00000  0.05    0.14
Q17   1   0.8759  1.0176  0.6997  11.00000  0.05    0.14
Q18   1   0.9433  0.9977  0.8570  11.00000  0.05    0.14
Q19   1   0.7786  1.1890  0.5817  11.00000  0.05    0.14
Q20   1   0.9144  0.4978  0.7736  11.00000  0.05    0.13
;
_shelx_res_checksum              37903
_shelx_hkl_file
;
  -1   0   0 1012.40   33.30
  -1   0   0  959.20   33.20
  -1   0   0  930.71   33.20
   1   0   0  994.50   33.20
  -3   0   0 1468.75   50.39
  -3   0   0 1373.16   50.09
  -3   0   0 1449.46   50.49
  -3   0   0 1317.47   48.50
   3   0   0 1338.67   48.30
  -4   0   0  566.84   23.10
  -4   0   0  633.44   25.70
  -4   0   0  529.95   25.00
  -4   0   0  581.94   25.10
   4   0   0  555.64   22.80
  -5   0   0  462.65   24.20
  -5   0   0  492.25   21.50
  -5   0   0  462.05   23.40
  -5   0   0  529.25   24.70
   5   0   0  476.15   21.20
  -6   0   0  153.18   10.90
  -6   0   0  163.78   13.70
   6   0   0  152.08   10.80
  -7   0   0  326.57   21.20
  -7   0   0  320.27   17.60
   7   0   0  365.76   19.30
  -8   0   0    5.40    4.20
  -8   0   0   10.70    5.30
  -8   0   0   14.30    6.20
   8   0   0   16.60    5.40
  -9   0   0   15.10    4.90
   9   0   0    3.80    3.50
 -10   0   0    9.20    4.50
  10   0   0   -4.90    2.60
   9  -1   0   -0.50    3.30
  -9   1   0    0.70    3.60
   8  -1   0    4.50    3.70
  -8   1   0   -6.50    6.30
  -8   1   0    2.40    3.40
   7  -1   0  101.29    9.50
  -7   1   0   88.29   10.00
  -7   1   0   93.39   10.80
   6  -1   0    7.20    4.00
  -6   1   0   10.20    4.20
  -6   1   0    1.60    3.10
  -6   1   0    7.20    4.60
   5  -1   0  351.86   17.10
  -5   1   0  374.06   20.10
  -5   1   0  349.27   16.90
  -5   1   0  354.16   19.50
  -5   1   0  339.77   18.80
  -4   1   0  100.29    8.40
  -4   1   0  111.99    7.60
  -4   1   0  115.79    8.90
  -4   1   0  102.49    7.20
  -4   1   0  118.39    9.20
   3  -1   0  428.16   17.90
  -3   1   0  467.25   19.70
  -3   1   0  440.56   18.30
  -3   1   0  483.45   19.90
  -3   1   0  474.05   19.90
  -3   1   0  435.16   18.10
  -1  -1   0 1175.08   38.60
  -1  -1   0 1161.18   39.10
   1   1   0 1123.09   38.90
   1   1   0 1112.29   38.60
  -3  -1   0 4843.52  162.48
  -4  -1   0 3300.07  114.09
  -4  -1   0 3319.07  111.99
  -4  -1   0 3482.75  114.19
  -4  -1   0 3289.47  115.19
   4   1   0 3073.69  111.09
  -5  -1   0  322.37   17.90
  -5  -1   0  282.47   17.50
  -5  -1   0  314.37   17.50
  -5  -1   0  308.67   15.50
   5   1   0  299.77   14.90
  -6  -1   0  481.95   22.40
  -6  -1   0  483.95   25.80
  -6  -1   0  447.26   19.00
   6   1   0  482.95   22.40
  -7  -1   0   50.19    6.80
  -7  -1   0   53.19    9.30
   7   1   0   60.79    7.80
  -8  -1   0  208.48   13.80
  -8  -1   0  218.78   17.90
   8   1   0  246.08   15.40
  -9  -1   0   -2.20    2.90
   9   1   0   -0.70    3.00
 -10  -1   0    9.80    3.80
  10   1   0   11.90    3.90
   9  -2   0    1.10    3.40
  -9   2   0   15.10    4.30
   8  -2   0  123.89   10.70
  -8   2   0  112.09   10.10
   7  -2   0  181.98   12.90
  -7   2   0  154.28   13.90
  -7   2   0  179.28   13.40
   6  -2   0   34.70    6.30
  -6   2   0   47.30    7.80
  -6   2   0   37.40    6.70
   5  -2   0  307.57   15.70
  -5   2   0  287.27   14.70
  -5   2   0  310.97   15.90
  -5   2   0  306.77   18.00
  -5   2   0  291.97   17.00
   4  -2   0  164.38    9.50
  -4   2   0  170.18   11.20
  -4   2   0  148.59   10.70
  -4   2   0  151.98    9.10
  -4   2   0  159.58   10.50
  -4   2   0  146.39   10.60
  -4   2   0  163.88    9.80
   3  -2   0   40.90    4.30
  -3   2   0   35.70    4.80
  -3   2   0   47.30    4.90
  -3   2   0   34.70    4.60
  -3   2   0   45.10    4.70
  -3   2   0   41.80    4.20
   2  -2   0  889.71   31.90
   2  -2   0  868.01   30.50
   2  -2   0  869.01   32.40
   2  -2   0  979.00   33.60
  -2   2   0  928.11   32.70
  -2   2   0  897.71   32.30
  -2   2   0  882.71   32.60
   1  -2   0 1060.69   38.20
   1  -2   0 1166.58   39.70
   1  -2   0 1148.69   38.70
  -1   2   0 1231.58   39.90
  -1   2   0 1147.99   38.70
  -1   2   0 1083.19   38.50
  -1  -2   0  416.26   15.90
  -1  -2   0  398.16   14.50
   1   2   0  407.26   14.70
  -2  -2   0 2190.98   79.49
  -2  -2   0 2392.46   79.29
   2   2   0 2241.78   78.09
   2   2   0 2420.26   78.89
  -3  -2   0 1222.68   45.40
  -3  -2   0 1183.78   43.40
  -3  -2   0 1299.17   44.60
   3   2   0 1193.18   44.70
  -4  -2   0 1382.26   49.40
  -4  -2   0 1363.76   50.69
  -4  -2   0 1248.58   49.90
  -4  -2   0 1299.37   47.60
   4   2   0 1277.87   47.00
  -5  -2   0  633.74   29.90
  -5  -2   0  658.73   26.70
  -5  -2   0  586.84   28.50
  -5  -2   0  643.04   28.70
   5   2   0  630.34   26.00
  -6  -2   0   48.70    6.50
  -6  -2   0   40.20    4.80
  -6  -2   0   53.69    9.00
   6   2   0   44.60    6.60
  -7  -2   0  262.47   15.90
   7   2   0  260.97   15.80
  -8  -2   0  405.56   21.20
  -8  -2   0  397.86   24.70
   8   2   0  407.36   21.80
  -9  -2   0   71.79    8.80
  -9  -2   0   64.49    8.00
   9   2   0   64.69    8.20
 -10  -2   0    7.00    3.70
  10   2   0    0.80    3.40
   9  -3   0   -0.30    2.70
   8  -3   0   10.00    4.30
  -8   3   0    9.00    5.00
   7  -3   0  333.77   18.40
  -7   3   0  337.97   18.60
  -7   3   0  324.77   20.00
   6  -3   0  125.29   10.40
  -6   3   0  117.99   10.00
  -6   3   0  120.69   11.00
   5  -3   0  270.27   14.80
  -5   3   0  268.77   15.00
  -5   3   0  270.97   15.00
  -5   3   0  267.57   15.90
   4  -3   0  273.07   13.90
  -4   3   0  306.67   15.10
  -4   3   0  301.37   15.10
  -4   3   0  253.07   14.90
  -4   3   0  282.57   14.40
   3  -3   0   40.30    4.40
   3  -3   0   46.20    5.00
  -3   3   0   41.40    5.00
  -3   3   0   43.60    5.10
  -3   3   0   45.40    5.10
  -3   3   0   38.50    4.20
   2  -3   0  782.42   29.50
   2  -3   0  759.72   28.30
   2  -3   0  851.61   30.50
   2  -3   0  748.73   27.10
  -2   3   0  770.32   29.60
  -2   3   0  803.22   28.40
  -2   3   0  801.02   28.80
  -2   3   0  751.82   30.10
   1  -3   0   12.50    1.80
   1  -3   0    7.70    1.80
  -1   3   0   11.80    2.50
  -1   3   0   13.10    2.60
  -1   3   0   10.60    1.50
   0  -3   0   23.00    1.60
   0  -3   0   28.90    2.90
   0  -3   0   21.30    2.60
   0   3   0   28.30    3.40
   0   3   0   24.60    2.90
   1   3   0 3497.45  122.09
   1   3   0 3641.04  122.19
   1   3   0 3814.72  119.99
  -2  -3   0   41.30    4.10
  -2  -3   0   43.60    4.50
  -2  -3   0   41.40    3.70
   2   3   0   51.69    4.60
   2   3   0   38.50    4.10
   2   3   0   55.09    4.10
  -3  -3   0  798.42   29.90
  -3  -3   0  795.02   29.50
  -3  -3   0  798.32   31.70
   3   3   0  790.52   29.00
   3   3   0  755.92   30.60
  -4  -3   0   22.80    4.80
  -4  -3   0   23.50    4.40
  -4  -3   0   22.40    4.10
   4   3   0   21.10    4.40
   4   3   0   25.40    3.90
   4   3   0   23.30    3.70
  -5  -3   0  605.04   29.60
  -5  -3   0  636.94   28.00
  -5  -3   0  610.14   30.00
  -5  -3   0  622.74   26.30
   5   3   0  615.74   24.70
   5   3   0  598.64   25.40
  -6  -3   0  187.58   14.20
  -6  -3   0  201.48   12.80
  -6  -3   0  193.88   11.50
   6   3   0  192.88   12.20
  -7  -3   0  301.77   15.70
  -7  -3   0  333.87   18.60
   7   3   0  333.47   18.10
  -8  -3   0   98.99   11.90
  -8  -3   0   86.99    9.20
   8   3   0  105.29    9.70
  -9  -3   0   61.49    7.40
   9   3   0   46.80    7.20
 -10  -3   0   27.10    5.60
  10   3   0   10.70    4.10
   8  -4   0   34.10    5.60
   7  -4   0  385.66   20.30
   5  -4   0   22.90    5.40
  -5   4   0   33.40    5.90
  -5   4   0   27.10    5.20
  -5   4   0   22.40    4.60
   4  -4   0    4.40    3.10
  -4   4   0    5.00    3.20
  -4   4   0    1.20    2.40
   3  -4   0    1.40    1.80
   3  -4   0    0.70    2.20
  -3   4   0    0.60    1.60
  -3   4   0    2.90    2.00
  -3   4   0    0.70    2.60
  -3   4   0   -1.50    1.90
   2  -4   0 1750.32   62.09
   2  -4   0 2107.99   71.59
   2  -4   0 1773.32   62.49
   2  -4   0 1746.53   61.29
  -2   4   0 1743.03   64.09
  -2   4   0 1811.22   67.59
  -2   4   0 1804.82   61.49
   1  -4   0 1036.80   38.90
   1  -4   0 1078.29   39.20
   1  -4   0 1236.48   45.90
  -1   4   0 1190.18   41.30
  -1   4   0 1106.89   40.90
  -1   4   0 1105.29   41.60
   0  -4   0   17.70    2.90
   0  -4   0   20.40    2.40
   0   4   0   16.70    3.10
   0   4   0   23.10    3.80
   0   4   0   19.30    3.20
  -1  -4   0  152.78    7.30
  -1  -4   0  147.09    7.90
  -1  -4   0  146.09    8.30
   1   4   0  139.89    8.20
   1   4   0  150.38    8.50
   1   4   0  135.79    8.50
  -2  -4   0    3.80    2.10
  -2  -4   0    4.70    1.90
   2   4   0    4.30    2.40
   2   4   0    2.30    2.10
  -3  -4   0    7.50    2.60
  -3  -4   0   11.30    2.60
  -3  -4   0    9.80    2.60
   3   4   0   10.70    3.20
   3   4   0   16.00    3.70
   3   4   0    7.30    2.50
  -4  -4   0 1072.99   42.80
  -4  -4   0 1043.80   39.20
  -4  -4   0 1084.99   40.10
   4   4   0  993.20   41.00
   4   4   0 1025.90   39.50
   4   4   0 1019.80   38.30
  -5  -4   0 3133.69  113.89
  -5  -4   0 3102.29  110.09
  -5  -4   0 3226.18  108.79
   5   4   0 3056.89  107.39
   5   4   0 3084.79  107.89
  -6  -4   0  395.46   22.20
  -6  -4   0  407.76   22.20
  -6  -4   0  400.16   19.60
   6   4   0  422.46   19.90
  -7  -4   0  309.87   16.50
  -7  -4   0  337.17   18.70
   7   4   0  312.37   17.70
  -8  -4   0  210.68   14.10
  -8  -4   0  168.98   15.20
   8   4   0  190.88   13.30
  -9  -4   0   57.39    7.80
   9   4   0   48.40    7.20
 -10  -4   0    8.70    4.30
 -10  -4   0   15.10    8.10
  10   4   0    9.80    4.00
  10   4   0    3.80    6.30
   8  -5   0    3.80    3.20
   7  -5   0    0.10    2.80
   6  -5   0   38.40    7.40
  -6   5   0   41.30    7.00
   5  -5   0   23.20    5.20
  -5   5   0   19.60    5.10
   4  -5   0  110.09    8.90
  -4   5   0  126.49   10.20
   3  -5   0  565.24   23.30
  -3   5   0  536.15   24.50
   2  -5   0    2.50    1.70
   2  -5   0    1.70    1.30
   2  -5   0    9.10    2.90
  -2   5   0    4.70    2.70
  -2   5   0    4.30    1.10
  -2   5   0    3.70    2.60
   1  -5   0  187.38   10.30
   1  -5   0  177.68    9.00
   1  -5   0  192.38    9.30
  -1   5   0  192.08   10.90
  -1   5   0  198.28   11.00
  -1   5   0  172.48   10.50
   0  -5   0  691.73   25.90
   0  -5   0  677.33   26.50
   0  -5   0  681.53   25.00
   0   5   0  686.73   27.70
   0   5   0  644.84   26.80
   0   5   0  658.83   27.00
  -1  -5   0 4149.78  142.29
  -1  -5   0 4158.08  137.79
  -1  -5   0 4212.38  139.09
   1   5   0 3974.70  139.69
   1   5   0 4201.08  140.29
   1   5   0 4105.89  140.59
  -2  -5   0  795.42   30.10
  -2  -5   0  764.92   28.70
  -2  -5   0  741.43   30.90
   2   5   0  773.22   31.10
   2   5   0  794.12   31.10
   2   5   0  755.92   30.50
   2   5   0  742.53   26.70
  -3  -5   0  256.87   15.00
  -3  -5   0  251.97   13.30
  -3  -5   0  249.58   12.40
   3   5   0  241.78   13.70
   3   5   0  242.08   13.80
   3   5   0  252.37   11.80
   3   5   0  253.77   14.30
  -4  -5   0 1550.14   58.39
  -4  -5   0 1551.64   54.69
  -4  -5   0 1450.35   53.49
   4   5   0 1372.16   55.39
   4   5   0 1446.06   52.49
   4   5   0 1416.66   54.69
  -5  -5   0  956.70   38.00
  -5  -5   0  967.10   38.30
   5   5   0  916.61   38.10
  -6  -5   0  238.58   14.70
  -6  -5   0  265.07   15.40
  -7  -5   0  435.76   23.00
  -8  -5   0    0.90    3.40
  -8  -5   0   -3.30    3.90
  -9  -5   0   18.40    4.90
   9   5   0   11.30    4.90
 -10  -5   0    8.80    4.30
 -10  -5   0    8.10    4.00
  10   5   0    1.70    2.80
   7  -6   0    5.50    3.30
   6  -6   0    2.10    3.30
  -6   6   0    3.10    3.30
   5  -6   0    3.70    3.30
  -5   6   0    6.60    3.50
   4  -6   0   71.19    7.40
  -4   6   0   58.59    7.80
   3  -6   0  607.54   28.70
  -3   6   0  602.94   27.40
   2  -6   0   68.39    6.10
   2  -6   0   68.49    5.00
  -2   6   0   78.49    7.80
   1  -6   0   88.99    7.10
   1  -6   0   97.69    6.50
   1  -6   0  103.89    6.70
  -1   6   0   90.19    7.90
  -1   6   0   99.99    8.20
   0  -6   0   50.69    5.10
   0  -6   0   47.00    4.30
   0  -6   0   52.99    5.30
   0   6   0   39.40    5.50
   0   6   0   52.29    5.90
   0   6   0   55.79    6.30
  -1  -6   0 1917.51   67.29
  -1  -6   0 1949.60   69.59
  -1  -6   0 1990.10   68.99
   1   6   0 1968.50   71.09
   1   6   0 1872.91   69.49
   1   6   0 1973.30   70.29
  -2  -6   0 1879.41   65.49
  -2  -6   0 1851.91   70.99
   2   6   0 1909.01   68.59
   2   6   0 1842.72   68.69
  -3  -6   0 4543.05  148.09
  -3  -6   0 4320.07  146.19
   3   6   0 4542.55  149.79
   3   6   0 4412.56  149.39
   3   6   0 3801.12  147.79
  -4  -6   0   31.60    5.80
  -4  -6   0   36.30    5.60
   4   6   0   32.10    6.40
   4   6   0   32.40    4.60
   4   6   0   38.90    7.10
  -5  -6   0   66.89    7.30
   5   6   0   42.20    5.60
   5   6   0   47.30    7.70
  -6  -6   0 1166.68   46.30
  -6  -6   0 1157.58   46.10
   6   6   0 1147.79   48.90
   6   6   0 1075.59   43.50
  -7  -6   0   11.70    3.90
  -7  -6   0    6.10    4.20
   7   6   0    7.80    4.00
   7   6   0    8.10    5.10
  -8  -6   0   29.70    5.70
  -8  -6   0   41.60    7.20
  -8  -6   0   24.00    6.40
   8   6   0   20.40    5.90
   8   6   0   24.00    6.10
  -9  -6   0   12.00    4.30
  -9  -6   0   -3.20    2.80
   9   6   0    3.60    4.10
 -10  -6   0   25.70    4.70
 -10  -6   0   19.00    4.50
  10   6   0   18.50    5.00
   7  -7   0   60.59    8.00
   6  -7   0    2.20    3.30
   5  -7   0    6.70    3.60
  -5   7   0   13.70    4.00
   4  -7   0  116.59    9.10
  -4   7   0  105.69    9.90
   3  -7   0   95.49    8.30
  -3   7   0  114.49   10.30
   2  -7   0   39.00    5.10
   2  -7   0   28.50    4.00
  -2   7   0   32.50    6.40
   1  -7   0  615.44   24.90
   1  -7   0  598.34   24.80
  -1   7   0  615.84   27.80
   0  -7   0    8.10    2.70
   0  -7   0    3.30    2.20
   0   7   0    3.60    3.50
  -1  -7   0 1190.58   45.20
  -1  -7   0 1179.58   43.40
   1   7   0 1178.78   46.90
   1   7   0 1192.18   47.70
  -2  -7   0    4.70    3.00
  -2  -7   0    2.90    2.40
   2   7   0    2.60    3.20
   2   7   0    3.00    3.50
  -3  -7   0   44.70    5.40
  -3  -7   0   62.59    7.20
   3   7   0   58.39    7.90
   3   7   0   54.59    7.50
  -4  -7   0 1743.23   64.79
   4   7   0 1579.84   68.59
   4   7   0 1811.92   67.49
  -5  -7   0  111.29   10.30
  -5  -7   0  116.19    9.70
   5   7   0  124.59   12.10
   5   7   0  115.39   10.90
  -6  -7   0  320.57   19.20
  -6  -7   0  364.56   19.70
   6   7   0  355.46   22.20
  -7  -7   0   35.40    6.60
  -7  -7   0   47.90    7.60
  -7  -7   0   55.09    7.80
   7   7   0   40.10    8.50
  -8  -7   0  134.09   11.10
  -8  -7   0  163.88   12.50
   8   7   0  152.88   13.60
  -9  -7   0   62.39    7.30
  -9  -7   0   66.39    7.40
   9   7   0   49.30    7.90
   6  -8   0    6.60    3.60
   5  -8   0  621.64   26.80
  -5   8   0  619.34   27.60
   4  -8   0    0.80    2.90
  -4   8   0    2.20    2.90
   3  -8   0 1517.95   56.89
  -3   8   0 1539.85   59.59
   2  -8   0 1031.10   40.00
  -2   8   0 1005.60   42.60
   1  -8   0 2011.70   72.79
   1  -8   0 2083.59   73.29
  -1   8   0 2088.89   76.89
   0  -8   0  478.85   20.70
   0  -8   0  446.36   21.20
   0   8   0  474.55   24.20
  -1  -8   0  106.79    9.00
   1   8   0  110.69   10.50
  -2  -8   0  623.04   29.70
  -2  -8   0  629.84   28.10
   2   8   0  607.14   29.50
   2   8   0  593.34   30.00
  -3  -8   0    5.40    3.50
  -3  -8   0    2.70    2.70
   3   8   0    4.90    4.20
   3   8   0    7.60    4.80
  -4  -8   0   35.20    5.90
  -4  -8   0   26.70    5.80
   4   8   0   30.80    7.20
   4   8   0   45.50    8.60
  -5  -8   0  288.57   17.60
  -5  -8   0  267.97   16.30
   5   8   0  303.77   19.90
  -6  -8   0  121.89   10.80
  -6  -8   0  122.59   11.00
   6   8   0  116.29   12.50
  -7  -8   0   65.09    8.50
  -7  -8   0   63.29    8.30
   7   8   0   46.90    9.10
  -8  -8   0   -3.10    4.70
  -8  -8   0    1.20    3.20
   8   8   0    6.80    4.40
  -9  -8   0   31.90    5.00
  -9  -8   0   27.60    5.70
   9   8   0   25.40    5.70
   5  -9   0  513.25   21.40
  -5   9   0  458.85   25.00
   4  -9   0   92.29    9.80
  -4   9   0   83.39    8.20
   3  -9   0  665.73   28.40
  -3   9   0  666.33   30.40
  -2   9   0   39.00    9.70
   1  -9   0  329.07   16.80
  -1   9   0  341.17   19.90
   0  -9   0  672.73   29.00
   0  -9   0  663.63   28.20
   0   9   0  692.13   32.20
  -1  -9   0    1.20    2.70
  -1  -9   0   -3.50    2.30
   1   9   0   -4.50    3.20
  -2  -9   0   79.09    8.30
  -2  -9   0   72.79    7.00
   2   9   0   81.29   10.00
  -3  -9   0   31.20    6.40
   3   9   0    8.60    5.20
  -4  -9   0    8.60    4.40
  -4  -9   0   12.50    4.00
   4   9   0   15.50    6.30
  -5  -9   0  216.18   15.50
  -5  -9   0  226.98   14.10
   5   9   0  234.48   17.90
  -6  -9   0    7.40    3.90
  -6  -9   0    7.50    4.40
   6   9   0   -3.90    3.70
  -7  -9   0  148.09   12.40
  -7  -9   0  166.08   12.30
   7   9   0  181.68   15.00
  -8  -9   0  147.19   11.00
   8   9   0  160.98   13.40
   4 -10   0    5.50    3.50
  -4  10   0   11.70    5.00
   3 -10   0   12.60    4.10
  -3  10   0   21.20    4.80
   2 -10   0   36.20    5.20
  -2  10   0   26.90    6.00
   1 -10   0  120.29    9.20
  -1  10   0  134.39   11.60
   0 -10   0    3.90    2.90
   0 -10   0    9.90    4.00
   0  10   0    2.20    3.60
  -1 -10   0   14.20    4.50
  -1 -10   0    5.90    3.30
   1  10   0   10.80    6.40
  -2 -10   0  147.59   12.10
  -2 -10   0  156.98   10.40
   2  10   0  155.08   13.90
  -3 -10   0   45.00    7.60
  -4 -10   0   81.59    9.60
  -4 -10   0   77.79    7.60
   4  10   0   72.29   10.30
  -5 -10   0    8.20    4.70
  -5 -10   0   18.50    4.90
   5  10   0   10.60    5.60
  -6 -10   0  136.89   10.80
  -6 -10   0  136.69   11.90
   6  10   0  137.49   13.00
  -7 -10   0    9.20    4.30
   7  10   0   11.20    8.20
  -8 -10   0    0.80    2.80
   8  10   0    8.10    4.20
   2 -11   0   56.29    7.30
  -2  11   0   44.90    6.70
   1 -11   0   12.50    3.50
  -1  11   0    7.70    4.30
   0 -11   0    3.40    3.20
   0  11   0    3.40    4.00
  -1 -11   0  133.29    9.20
  -1 -11   0  121.69   10.70
   1  11   0  146.99   12.30
  -2 -11   0  351.06   19.40
  -2 -11   0  373.86   18.10
   2  11   0  406.06   22.60
  -3 -11   0  129.79   11.00
  -3 -11   0  124.29    9.40
   3  11   0  146.59   13.00
  -4 -11   0  103.19    8.30
  -4 -11   0   76.29    9.40
   4  11   0   98.29   11.00
  -5 -11   0    8.40    3.70
  -5 -11   0   10.60    4.00
   5  11   0   12.10    5.30
  -6 -11   0   12.40    4.70
  -6 -11   0   13.10    4.20
   6  11   0    4.80    4.80
  -7 -11   0   10.30    3.30
   7  11   0    7.00    4.30
   0 -12   0  318.97   15.10
   0  12   0  322.37   17.60
  -1 -12   0    7.40    3.40
   1  12   0   12.40    4.80
  -2 -12   0   80.89    7.10
   2  12   0   78.79    9.10
  -3 -12   0    1.50    2.70
   3  12   0    1.10    3.20
  -4 -12   0   20.60    4.30
   4  12   0   23.60    5.90
  -5 -12   0  102.09    7.50
   5  12   0   90.29    9.60
   4  12  -1  395.46   20.90
  -4 -12   1  366.86   16.90
   3  12  -1   59.49    8.10
  -3 -12   1   59.59    6.30
   2  12  -1   77.99    8.80
  -2 -12   1   94.39    9.80
   1  12  -1  332.17   18.60
   0  12  -1    8.40    4.20
   6  11  -1  172.08   12.90
  -6 -11   1  157.08   10.20
   5  11  -1   11.90    4.90
  -5 -11   1   14.80    5.60
  -5 -11   1   19.70    4.10
   4  11  -1  173.78   14.50
  -4 -11   1  163.18   12.30
   3  11  -1  222.58   16.30
  -3 -11   1  188.58   13.40
  -3 -11   1  190.58   11.40
   2  11  -1    1.50    3.90
  -2 -11   1    5.20    2.80
  -2 -11   1   -8.00    3.20
   1  11  -1   18.00    5.20
   0  11  -1  176.98   13.90
   0 -11   1  168.38   10.10
  -1  11  -1   73.89    8.70
   1 -11   1   67.79    6.80
  -2  11  -1    0.10    2.80
   7  10  -1  180.18   13.80
  -7 -10   1  180.88   11.50
   6  10  -1    6.70    4.60
  -6 -10   1    7.00    3.70
  -6 -10   1   11.30    4.50
   5  10  -1   -3.10    3.70
  -5 -10   1   -4.50    2.40
  -5 -10   1    1.10    3.90
   4  10  -1    6.30    4.80
  -4 -10   1   11.00    3.70
  -4 -10   1    7.60    4.00
   3  10  -1   77.69   11.70
  -3 -10   1   64.79    6.90
  -3 -10   1   71.49    8.80
   2  10  -1    3.20    4.20
  -2 -10   1    8.60    3.90
  -2 -10   1   11.60    3.30
   1  10  -1  108.79   11.30
  -1 -10   1   92.99    9.00
  -1 -10   1   85.79    7.20
   0  10  -1   15.10    5.50
   0 -10   1    6.50    3.10
  -1  10  -1  135.69   11.80
   1 -10   1  127.89    9.00
  -2  10  -1   42.80    7.40
  -3  10  -1   77.79    8.40
   3 -10   1   86.49    7.20
  -4  10  -1    4.30    4.20
   8   9  -1  217.28   14.80
  -8  -9   1  213.68   12.80
   7   9  -1  105.99   11.20
  -7  -9   1   98.49    9.30
  -7  -9   1  113.89   11.00
   6   9  -1  148.19   13.80
  -6  -9   1  143.89   12.40
  -6  -9   1  134.89   10.90
   5   9  -1   14.70    5.60
  -5  -9   1   12.80    5.10
  -5  -9   1    6.70    3.70
   4   9  -1  330.77   22.00
   4   9  -1  363.46   22.60
  -4  -9   1  342.57   18.00
  -4  -9   1  352.96   20.50
   3   9  -1    1.00    4.60
   3   9  -1    6.80    5.00
  -3  -9   1    4.90    3.90
  -3  -9   1    3.20    2.60
   2   9  -1  209.28   16.10
   2   9  -1  201.48   16.30
  -2  -9   1  194.88   13.40
  -2  -9   1  198.98   12.00
   1   9  -1   25.10    7.00
  -1  -9   1   19.90    4.20
  -1  -9   1   18.80    4.80
   0   9  -1  101.09   10.40
   0  -9   1   70.49    7.40
   0  -9   1   69.09    6.70
  -1   9  -1    4.60    4.00
   1  -9   1    1.50    2.60
  -2   9  -1    8.30    4.60
   2  -9   1    9.30    2.90
  -3   9  -1  593.44   28.50
   3  -9   1  614.14   25.80
  -4   9  -1   20.30    5.20
   4  -9   1   19.30    4.10
  -5   9  -1    8.80    3.70
   9   8  -1   11.10    6.50
   8   8  -1    5.00    5.50
  -8  -8   1    5.90    3.60
  -8  -8   1    4.50    4.00
   7   8  -1   79.39   10.20
  -7  -8   1   69.89    8.60
  -7  -8   1   82.09    8.90
   6   8  -1 1933.21   89.09
  -6  -8   1 1497.35   64.19
   5   8  -1   -1.20    3.80
   5   8  -1    4.70    4.10
  -5  -8   1    2.80    3.50
  -5  -8   1    7.90    3.50
   4   8  -1    3.00    4.10
   4   8  -1    2.60    4.30
  -4  -8   1   -1.80    2.40
  -4  -8   1    9.30    4.50
   3   8  -1   87.89   10.70
   3   8  -1   85.69   10.40
  -3  -8   1   86.69    8.90
  -3  -8   1   81.59    7.40
   2   8  -1  435.96   24.60
   2   8  -1  455.95   24.80
  -2  -8   1  446.16   20.20
  -2  -8   1  437.06   22.10
   1   8  -1  191.78   14.10
   1   8  -1  171.28   13.90
  -1  -8   1  170.68   10.30
  -1  -8   1  176.78   11.90
   0   8  -1   42.20    7.60
   0  -8   1   47.50    5.80
   0  -8   1   49.10    5.30
  -1   8  -1 3923.21  135.89
   1  -8   1 3765.42  130.59
  -2   8  -1   88.29    9.80
   2  -8   1  101.49    7.90
  -3   8  -1 1331.47   53.09
   3  -8   1 1304.07   49.20
  -4   8  -1   23.40    5.90
   4  -8   1   25.30    4.80
  -5   8  -1  255.77   15.20
   6  -8   1    9.90    3.20
   9   7  -1    0.90    3.40
  -9  -7   1   -2.80    3.30
  -9  -7   1    4.10    3.40
   8   7  -1    6.70    4.60
  -8  -7   1   16.70    5.10
  -8  -7   1    5.60    4.40
   7   7  -1   13.70    5.40
  -7  -7   1   15.70    4.90
  -7  -7   1   21.40    5.50
   6   7  -1   30.10    6.90
   6   7  -1   33.90    7.80
  -6  -7   1   27.20    6.50
  -6  -7   1   33.40    6.60
   5   7  -1  169.58   13.60
   5   7  -1  178.28   14.80
  -5  -7   1  172.28   12.20
  -5  -7   1  161.88   14.10
   4   7  -1  553.64   27.80
   4   7  -1  529.35   27.80
  -4  -7   1  555.44   26.50
  -4  -7   1  520.05   24.30
  -3  -7   1   21.10    5.10
  -3  -7   1   22.40    4.30
   2   7  -1   38.70    7.30
   2   7  -1   36.10    7.20
  -2  -7   1   39.20    4.70
  -2  -7   1   32.90    5.90
   1   7  -1   56.39    7.80
   1   7  -1   65.39    9.40
  -1  -7   1   61.49    5.50
  -1  -7   1   63.59    6.70
   0   7  -1 4867.21  164.28
   0   7  -1 4775.42  163.58
   0  -7   1 4565.44  158.38
   0  -7   1 4740.43  160.48
  -1   7  -1 1811.32   67.09
   1  -7   1 1728.43   62.79
   1  -7   1 1784.52   62.59
  -2   7  -1 1636.54   61.99
   2  -7   1 1573.84   58.09
  -3   7  -1  626.54   29.20
   3  -7   1  601.54   25.90
  -4   7  -1   11.30    4.70
   4  -7   1   12.70    3.70
  -5   7  -1  168.38   12.40
   5  -7   1  168.28   11.30
  -6   7  -1   23.90    5.60
   6  -7   1   18.50    5.70
   7  -7   1   20.80    4.10
   9   6  -1    3.50    3.50
  -9  -6   1    2.90    4.10
   8   6  -1   -1.70    2.90
  -8  -6   1    7.40    4.00
  -8  -6   1    0.40    2.90
   7   6  -1   32.50    7.40
  -7  -6   1   25.00    5.60
  -7  -6   1   48.20    8.20
   6   6  -1   79.69    9.90
   6   6  -1   82.29    8.50
  -6  -6   1   85.09    8.90
  -6  -6   1   80.09    8.90
   5   6  -1    8.50    4.70
  -5  -6   1    9.70    3.70
  -5  -6   1    0.20    3.10
   4   6  -1    7.00    4.00
   4   6  -1   14.60    5.10
  -4  -6   1   10.30    3.60
  -4  -6   1    4.70    3.40
   3   6  -1  973.70   40.50
   3   6  -1  958.80   40.50
  -3  -6   1  965.60   37.30
  -3  -6   1 1004.60   39.40
   2   6  -1 4098.99  136.79
   2   6  -1 3661.23  133.79
   2   6  -1 3968.80  136.89
  -2  -6   1 3897.31  135.09
  -2  -6   1 3916.81  132.59
  -2  -6   1 4039.80  134.99
   1   6  -1  881.71   35.00
   1   6  -1  965.30   37.40
   1   6  -1  901.11   37.40
  -1  -6   1  906.21   33.60
   0   6  -1  444.56   19.20
   0   6  -1  440.86   21.10
   0   6  -1  458.35   21.60
   0  -6   1  436.06   19.20
   0  -6   1  433.96   18.70
   0  -6   1  442.76   17.90
  -1   6  -1 1905.61   65.39
  -1   6  -1 1642.04   62.19
  -1   6  -1 1834.32   65.29
   1  -6   1 1712.83   61.99
   1  -6   1 1756.42   61.69
   1  -6   1 1718.53   60.99
  -2   6  -1 2402.36   84.69
   2  -6   1 2254.27   79.49
   2  -6   1 2380.46   81.09
  -3   6  -1  213.68   14.00
   3  -6   1  191.98   11.30
  -4   6  -1    3.20    4.00
   4  -6   1    4.60    2.90
  -5   6  -1  166.98   12.50
   5  -6   1  162.28   11.10
  -6   6  -1   14.90    4.30
   6  -6   1   15.00    4.50
   7  -6   1   10.90    3.20
   9   5  -1   13.20    4.20
  -9  -5   1   10.30    4.20
   8   5  -1   12.80    5.30
   8   5  -1   15.80    4.90
  -8  -5   1   11.60    4.30
  -8  -5   1   15.30    4.70
  -8  -5   1   14.00    5.00
   7   5  -1   28.80    6.00
  -7  -5   1   40.00    7.60
  -7  -5   1   48.70    6.70
   6   5  -1   29.40    5.20
   6   5  -1   17.30    4.70
  -6  -5   1   25.00    5.90
  -6  -5   1   22.10    5.40
  -6  -5   1   17.00    4.80
   5   5  -1   -1.40    2.70
   5   5  -1   -4.90    2.10
  -5  -5   1    1.40    2.80
  -5  -5   1   -5.40    2.20
   4   5  -1  549.65   24.80
   4   5  -1  551.54   25.70
   4   5  -1  521.65   21.70
  -4  -5   1  474.15   30.10
  -4  -5   1  561.14   23.70
   3   5  -1   31.80    4.80
   3   5  -1   35.20    6.10
   3   5  -1   32.80    5.60
  -3  -5   1   33.30    4.30
  -3  -5   1   37.10    5.90
  -3  -5   1   37.60    4.10
   2   5  -1  575.04   24.90
   2   5  -1  649.04   26.90
   2   5  -1  623.04   26.50
  -2  -5   1  632.14   26.10
  -2  -5   1  609.04   24.00
   1   5  -1    3.00    1.70
   1   5  -1    0.70    2.40
   1   5  -1    3.40    2.90
  -1  -5   1    4.10    1.60
  -1  -5   1    4.40    1.70
  -1  -5   1    0.50    1.90
   0   5  -1 4763.72  160.48
   0   5  -1 4856.81  160.38
   0   5  -1 4539.75  158.08
   0  -5   1 4647.73  156.88
   0  -5   1 4841.12  158.48
   0  -5   1 4769.02  157.98
  -1   5  -1  114.09    8.50
  -1   5  -1  120.99    7.50
  -1   5  -1  109.59    8.20
   1  -5   1  113.39    6.80
   1  -5   1  116.19    6.30
   1  -5   1  117.39    7.00
  -2   5  -1  230.38   12.70
  -2   5  -1  243.98   10.20
  -2   5  -1  247.98   13.60
   2  -5   1  252.47   12.30
   2  -5   1  241.18   11.30
  -3   5  -1  571.64   25.50
   3  -5   1  561.64   23.20
  -5   5  -1    0.70    3.10
   5  -5   1    4.70    3.20
  -6   5  -1   40.90    7.50
   6  -5   1   41.70    7.00
   7  -5   1   71.39    7.70
   8  -5   1   38.70    5.80
 -10  -4   1    7.60    5.30
 -10  -4   1   12.20    4.20
  -9  -4   1   -0.30    2.80
   8   4  -1    9.20    6.60
  -8  -4   1    1.20    3.80
  -8  -4   1    4.20    4.10
   7   4  -1  493.55   23.40
  -7  -4   1  453.45   28.60
  -7  -4   1  523.75   25.50
   6   4  -1  865.61   35.60
   6   4  -1  899.41   36.40
  -6  -4   1  933.71   38.30
  -6  -4   1  920.81   40.10
   5   4  -1   49.40    5.90
   5   4  -1   57.79    6.00
  -5  -4   1   43.90    6.60
  -5  -4   1   54.59    6.80
   4   4  -1  364.86   15.70
   4   4  -1  345.07   17.20
  -4  -4   1  361.26   16.90
  -4  -4   1  310.47   22.30
  -4  -4   1  352.06   17.40
   3   4  -1 1920.21   68.89
   3   4  -1 1844.72   65.69
   3   4  -1 1897.91   68.19
  -3  -4   1 1933.61   66.89
  -3  -4   1 1959.90   69.69
  -3  -4   1 1919.61   66.99
   2   4  -1  600.44   24.90
   2   4  -1  561.64   22.60
   2   4  -1  615.74   24.10
   2   4  -1  589.14   24.60
  -2  -4   1  619.54   22.50
  -2  -4   1  561.94   22.70
  -2  -4   1  647.34   25.20
   1   4  -1 2312.37   78.19
   1   4  -1 2244.28   76.89
   1   4  -1 2252.47   78.29
  -1  -4   1 2230.18   77.09
  -1  -4   1 2281.07   74.09
  -1  -4   1 2167.08   75.69
   0   4  -1  490.45   21.00
   0   4  -1  531.85   19.90
   0   4  -1  508.15   21.30
   0  -4   1  492.45   18.70
   0  -4   1  519.05   19.70
   0  -4   1  533.25   20.20
  -1   4  -1  416.56   18.10
  -1   4  -1  403.16   18.00
  -1   4  -1  420.06   15.70
  -1   4  -1  404.26   16.90
   1  -4   1  413.46   16.30
   1  -4   1  440.66   16.90
  -2   4  -1  697.83   25.30
  -2   4  -1  698.63   27.70
  -2   4  -1  683.03   26.80
  -2   4  -1  667.03   26.90
   2  -4   1  662.43   24.40
   2  -4   1  672.83   25.30
   2  -4   1  730.43   28.50
   2  -4   1  682.93   26.60
  -3   4  -1   37.90    4.20
  -3   4  -1   39.30    5.30
  -3   4  -1   38.30    4.30
  -3   4  -1   40.20    5.40
   3  -4   1   36.50    4.20
  -4   4  -1    7.60    3.60
  -4   4  -1    9.90    3.00
   4  -4   1    6.90    2.90
  -5   4  -1  593.74   26.90
  -5   4  -1  567.54   25.70
  -5   4  -1  613.54   27.60
   5  -4   1  647.54   26.80
  -6   4  -1  683.03   30.30
  -6   4  -1  613.54   29.50
  -6   4  -1  649.24   28.40
   6  -4   1  703.23   29.70
   7  -4   1   97.29    8.90
   8  -4   1  146.49   10.90
  10   3  -1    7.70    3.70
 -10  -3   1   11.40    4.30
   9   3  -1  111.39    9.50
  -9  -3   1  107.39    9.10
   8   3  -1  297.67   17.20
  -8  -3   1  287.77   17.70
   7   3  -1  696.13   30.20
  -7  -3   1  744.93   31.90
  -7  -3   1  619.34   28.20
  -7  -3   1  664.03   34.10
   6   3  -1  765.32   31.90
  -6  -3   1  734.43   34.90
  -6  -3   1  798.82   42.30
   5   3  -1 1571.64   55.89
   5   3  -1 1512.75   55.39
  -5  -3   1 1469.95   61.39
  -5  -3   1 1530.65   57.09
  -5  -3   1 1578.54   59.09
   4   3  -1 1003.50   37.50
   4   3  -1  995.70   38.10
  -4  -3   1 1026.60   40.80
  -4  -3   1  994.60   38.60
  -4  -3   1 1027.10   41.70
  -4  -3   1 1038.50   39.90
   3   3  -1 1686.43   62.29
   3   3  -1 1739.83   61.19
   3   3  -1 1837.82   63.59
  -3  -3   1 1759.32   62.89
  -3  -3   1 1780.42   62.19
  -3  -3   1 1858.01   64.69
   2   3  -1 1089.39   42.30
   2   3  -1 1133.29   42.60
  -2  -3   1 1248.18   42.00
  -2  -3   1 1272.27   43.50
   1   3  -1 1445.56   52.29
   1   3  -1 1421.76   52.29
   1   3  -1 1460.45   50.19
   1   3  -1 1536.35   51.59
  -1  -3   1 1537.95   50.29
  -1  -3   1 1544.65   51.89
   0   3  -1   81.69    4.60
   0   3  -1   76.49    4.20
   0   3  -1   75.19    5.40
   0   3  -1   73.99    5.30
   0  -3   1   79.89    3.00
   0  -3   1   82.29    4.50
  -1   3  -1    2.10    1.80
  -1   3  -1    2.90    1.80
  -1   3  -1    6.20    1.40
  -1   3  -1    2.70    1.20
   1  -3   1    1.30    0.80
   1  -3   1    3.80    1.20
   1  -3   1    1.50    1.10
  -2   3  -1  140.19    7.50
  -2   3  -1  145.19    8.00
  -2   3  -1  142.39    8.40
   2  -3   1  129.39    7.20
   2  -3   1  154.68    8.00
  -3   3  -1   82.69    6.70
  -3   3  -1   86.39    6.40
  -3   3  -1   80.09    6.80
  -3   3  -1   94.69    6.30
  -3   3  -1   85.49    6.60
   3  -3   1   89.29    5.90
  -4   3  -1  412.26   18.80
  -4   3  -1  406.86   18.90
  -4   3  -1  357.16   19.20
   4  -3   1  399.26   17.50
  -5   3  -1  445.86   21.10
  -5   3  -1  420.36   21.60
  -5   3  -1  458.75   21.60
   5  -3   1  455.05   20.70
  -6   3  -1   10.20    4.50
  -6   3  -1    3.80    3.60
  -6   3  -1   16.90    4.50
   6  -3   1    5.30    3.70
  -7   3  -1  375.86   20.00
  -7   3  -1  333.47   20.90
   7  -3   1  406.06   20.10
  -8   3  -1   73.99    8.70
   8  -3   1   78.49    8.60
   9  -3   1   -0.50    2.70
  10   2  -1    0.40    3.80
 -10  -2   1   -1.20    2.90
   9   2  -1  383.76   20.00
  -9  -2   1  394.56   19.70
   8   2  -1   11.10    4.60
  -8  -2   1   -0.80    3.10
  -8  -2   1   -8.60    3.30
   7   2  -1   67.79    8.00
  -7  -2   1   44.40    8.00
  -7  -2   1   74.29    8.50
   6   2  -1   22.10    4.90
  -6  -2   1   24.80    5.70
  -6  -2   1   28.70    6.60
   5   2  -1 1437.76   50.19
   5   2  -1 1275.27   48.60
  -5  -2   1 1258.97   52.49
  -5  -2   1 1334.67   51.89
  -5  -2   1 1253.87   53.59
  -5  -2   1 1343.17   49.99
   4   2  -1 2880.11  101.59
   4   2  -1 3070.09  102.29
  -4  -2   1 3045.80  104.99
  -4  -2   1 3039.50  106.29
  -4  -2   1 2971.50  105.29
   3   2  -1 4830.72  166.18
   3   2  -1 4724.13  165.38
  -3  -2   1 5305.47  167.48
  -3  -2   1 4893.21  165.98
  -3  -2   1 4715.13  167.28
  -3  -2   1 5404.36  168.58
   2   2  -1  308.87   13.70
  -2  -2   1  322.97   14.20
  -2  -2   1  303.47   13.00
  -2  -2   1  337.97   13.90
   1   2  -1 3285.37  108.89
  -1   2  -1    7.90    1.70
  -1   2  -1    6.20    1.40
   1  -2   1    6.40    1.30
   1  -2   1    6.90    1.10
   1  -2   1    9.30    1.50
  -2   2  -1  411.86   16.80
  -2   2  -1  412.06   16.40
  -2   2  -1  421.26   16.30
   2  -2   1  414.36   16.40
   2  -2   1  373.16   15.90
  -3   2  -1    7.00    2.30
  -3   2  -1   13.60    3.20
  -3   2  -1   10.20    2.40
  -3   2  -1    6.80    2.20
   3  -2   1    8.20    2.20
  -4   2  -1   87.49    7.60
  -4   2  -1   91.69    7.00
  -4   2  -1   77.69    7.00
  -4   2  -1  104.79    7.60
   4  -2   1   92.89    6.80
  -5   2  -1  382.56   19.70
  -5   2  -1  419.86   19.70
  -5   2  -1  378.36   20.30
   5  -2   1  418.56   19.00
  -6   2  -1   -3.00    2.80
  -6   2  -1   -1.00    2.80
   6  -2   1    1.70    3.30
  -7   2  -1  242.58   17.30
  -7   2  -1  246.48   16.10
   7  -2   1  235.58   14.90
  -8   2  -1   21.90    7.90
  -8   2  -1   35.40    6.70
   8  -2   1   38.70    7.00
  -9   2  -1    8.60    4.40
   9  -2   1   -3.20    4.00
  10   1  -1    7.90    4.10
 -10  -1   1    4.60    2.70
   9   1  -1    8.70    3.70
  -9  -1   1    3.10    3.50
   8   1  -1    2.90    3.90
  -8  -1   1   12.20    4.30
  -8  -1   1   -5.70    3.30
   7   1  -1  694.93   30.80
  -7  -1   1  665.63   30.50
  -7  -1   1  674.13   34.40
   6   1  -1  565.44   25.70
  -6  -1   1  586.74   26.30
  -6  -1   1  546.55   28.90
   5   1  -1    1.20    2.60
  -5  -1   1    5.50    3.60
  -5  -1   1    4.80    3.70
  -5  -1   1    5.20    3.10
  -5  -1   1    6.50    3.80
   4   1  -1  453.55   18.50
  -4  -1   1  406.16   18.80
  -4  -1   1  461.35   21.20
  -4  -1   1  424.86   21.00
  -4  -1   1  412.76   20.50
   3   1  -1  182.28    8.80
  -3  -1   1  164.58    9.10
  -3  -1   1  160.08   10.10
  -3  -1   1  195.68   10.70
  -3  -1   1  180.18   10.20
   1   1  -1    6.80    1.90
  -1  -1   1    8.10    2.10
  -1  -1   1   10.70    2.00
   2  -1   1 4107.09  136.49
  -3   1  -1 1905.41   65.79
  -3   1  -1 1940.21   66.49
  -3   1  -1 1803.52   66.09
  -3   1  -1 1935.11   66.49
   3  -1   1 1896.31   64.79
  -4   1  -1 2347.77   82.89
  -4   1  -1 2252.57   81.39
  -4   1  -1 2344.17   84.19
  -4   1  -1 2419.86   84.59
  -4   1  -1 2332.67   84.49
  -4   1  -1 2526.15   84.89
   4  -1   1 2499.55   82.29
  -5   1  -1    7.30    3.70
  -5   1  -1    2.70    2.60
  -5   1  -1    0.40    2.20
  -5   1  -1   -4.30    2.10
   5  -1   1    4.10    2.40
  -6   1  -1  408.06   22.60
  -6   1  -1  379.06   18.30
  -6   1  -1  437.66   21.90
  -7   1  -1   -0.20    3.60
  -7   1  -1    1.60    3.60
   7  -1   1   -1.00    3.10
  -8   1  -1    5.60    5.50
  -9   1  -1   62.39    8.00
   9  -1   1   53.99    8.10
  10  -1   1   -1.30    2.90
   9   0  -1   22.30    5.30
  -9   0   1   21.10    5.40
   8   0  -1   29.00    6.20
  -8   0   1   24.70    6.70
  -8   0   1   38.60    7.90
   7   0  -1   57.69    7.70
  -7   0   1   46.20   11.80
  -7   0   1   64.49   11.00
  -7   0   1   53.09    7.20
   6   0  -1   16.70    6.50
  -6   0   1   24.40    7.00
  -6   0   1   19.00    4.80
   5   0  -1  240.18   13.20
  -5   0   1  241.88   15.60
  -5   0   1  219.58   15.50
  -5   0   1  243.28   15.70
  -5   0   1  241.28   13.50
   4   0  -1 6665.13  220.58
  -4   0   1 6410.66  223.48
  -4   0   1 6857.61  223.58
  -4   0   1 6581.64  221.08
   3   0  -1  576.44   22.60
  -3   0   1  564.94   24.30
  -3   0   1  551.84   22.90
  -3   0   1  639.44   24.90
  -3   0   1  608.04   24.40
  -1   0  -1   22.20    2.10
  -1   0  -1   22.10    1.90
   1   0   1   25.60    1.90
   1   0   1   25.60    2.10
  -3   0  -1   73.29    6.00
  -3   0  -1   67.89    5.30
  -3   0  -1   66.99    5.00
  -3   0  -1   70.09    5.60
   3   0   1   54.99    4.90
  -4   0  -1 4517.85  152.98
  -4   0  -1 4338.07  152.38
  -4   0  -1 4599.04  150.98
  -4   0  -1 4612.64  153.08
  -4   0  -1 4455.35  150.08
   4   0   1 4420.66  150.18
  -5   0  -1 2148.49   77.79
  -5   0  -1 1912.41   78.59
  -5   0  -1 2336.37   78.89
  -5   0  -1 2104.69   74.29
   5   0   1 2120.59   74.69
  -6   0  -1   22.00    6.00
  -6   0  -1   32.20    4.90
   6   0   1   27.10    5.20
  -7   0  -1    0.20    3.60
  -7   0  -1   -4.70    2.30
  -7   0  -1    0.50    3.30
   7   0   1    0.10    3.30
  -8   0  -1  104.99   11.60
  -8   0  -1  108.59   11.40
   8   0   1  110.99   10.30
  -9   0  -1    1.30    4.00
   9   0   1   -0.40    3.60
 -10   0  -1   13.70    4.40
  10   0   1   20.80    4.70
   9  -1  -1   -0.90    4.60
  -9   1   1    2.30    3.80
   8  -1  -1   49.80    8.00
  -8   1   1   49.60    8.20
   7  -1  -1  209.38   14.10
  -7   1   1  191.88   13.10
  -7   1   1  215.28   16.80
   6  -1  -1    4.00    3.90
  -6   1   1   -0.40    4.10
  -6   1   1    3.80    3.50
   5  -1  -1  240.38   13.30
  -5   1   1  225.28   15.40
  -5   1   1  239.28   13.40
  -5   1   1  233.68   19.40
   4  -1  -1 6472.95  214.58
  -4   1   1 5981.50  216.98
  -4   1   1 6773.02  215.38
  -4   1   1 6639.04  217.98
  -4   1   1 6327.97  220.68
   3  -1  -1   30.20    4.00
  -3   1   1   29.50    4.30
  -3   1   1   28.40    3.80
  -3   1   1   23.40    3.30
  -3   1   1   40.00    5.80
  -2  -1  -1  898.71   30.50
  -2  -1  -1  918.91   32.40
  -2  -1  -1  824.82   33.00
   2   1   1  933.41   32.00
   2   1   1  895.21   32.10
  -3  -1  -1 1503.65   50.69
  -3  -1  -1 1363.76   48.50
  -3  -1  -1 1437.76   49.99
   3   1   1 1383.26   49.90
   3   1   1 1311.57   48.20
  -4  -1  -1    2.80    2.90
  -4  -1  -1    5.10    2.20
  -4  -1  -1    2.40    2.00
  -4  -1  -1    3.10    2.30
   4   1   1    3.90    2.30
  -5  -1  -1    2.60    2.80
  -5  -1  -1    0.10    2.30
  -5  -1  -1    3.00    1.40
  -5  -1  -1    3.80    3.40
  -5  -1  -1   -1.20    2.20
   5   1   1    4.60    2.70
  -6  -1  -1  237.88   13.60
  -6  -1  -1  255.87   16.80
   6   1   1  251.87   14.20
  -7  -1  -1   27.10    7.70
  -7  -1  -1   24.40    5.10
   7   1   1   37.10    6.60
  -8  -1  -1    6.50    4.20
  -8  -1  -1    6.40    4.30
   8   1   1   -1.10    3.10
  -9  -1  -1   -0.70    3.20
   9   1   1   -4.40    3.00
 -10  -1  -1    1.10    4.00
   9  -2  -1   -0.70    3.40
  -9   2   1    7.10    5.80
   8  -2  -1    0.20    3.50
  -8   2   1   -1.20    3.40
   7  -2  -1   25.20    6.20
  -7   2   1   31.70    6.80
  -7   2   1   39.50    7.20
   6  -2  -1  157.18   11.80
  -6   2   1  160.08   11.20
  -6   2   1  155.58   13.40
  -6   2   1  138.49   12.60
   5  -2  -1  791.92   32.10
  -5   2   1  787.02   33.80
  -5   2   1  754.72   34.60
  -5   2   1  749.73   31.70
   4  -2  -1 7391.96  243.08
  -4   2   1 7269.87  245.68
  -4   2   1 7363.56  246.68
  -4   2   1 7227.58  243.28
  -4   2   1 7262.87  246.38
   3  -2  -1 3270.47  113.99
   3  -2  -1 3612.74  117.29
  -3   2   1 3463.15  116.99
  -3   2   1 3248.97  113.99
  -3   2   1 3167.98  114.29
  -3   2   1 3536.85  116.39
   1  -2  -1  161.58    7.90
   1  -2  -1  146.79    7.00
   1  -2  -1  139.99    6.40
  -1   2   1  149.69    7.90
  -1   2   1  160.18    7.30
  -1  -2  -1 1524.55   49.50
  -1  -2  -1 1327.37   48.10
   1   2   1 1345.87   47.80
   1   2   1 1520.15   49.40
  -3  -2  -1   68.99    6.00
  -3  -2  -1   74.99    5.90
  -3  -2  -1   71.19    4.90
   3   2   1   63.39    5.60
  -4  -2  -1    1.70    2.50
  -4  -2  -1   -0.10    1.90
  -4  -2  -1    4.00    2.20
   4   2   1    0.20    2.00
   4   2   1    2.90    2.30
  -5  -2  -1  652.53   30.80
  -5  -2  -1  656.03   26.70
  -5  -2  -1  683.43   29.40
  -5  -2  -1  653.23   30.30
  -5  -2  -1  628.14   25.00
   5   2   1  658.43   26.70
  -6  -2  -1    0.10    1.90
  -6  -2  -1    5.80    3.20
   6   2   1    8.40    3.50
  -7  -2  -1  285.27   16.20
  -7  -2  -1  285.37   19.30
   7   2   1  298.37   17.00
  -8  -2  -1  201.88   16.80
  -8  -2  -1  208.08   13.40
   8   2   1  219.48   14.70
  -9  -2  -1   11.30    5.50
   9   2   1   13.50    5.00
 -10  -2  -1   -0.90    3.10
  10   2   1    6.40    3.30
   9  -3  -1   19.10    4.60
   8  -3  -1   30.80    6.40
  -8   3   1   26.50    7.00
  -7   3   1    6.00    6.20
  -7   3   1    4.40    3.60
   6  -3  -1   10.70    4.40
  -6   3   1    5.80    3.90
  -6   3   1    3.40    4.30
   5  -3  -1   13.30    4.50
  -5   3   1   18.50    4.50
  -5   3   1   15.50    4.20
  -5   3   1   22.90    6.00
   4  -3  -1 1301.57   46.90
  -4   3   1 1279.17   46.80
  -4   3   1 1240.88   47.60
  -4   3   1 1267.47   50.69
  -4   3   1 1184.48   46.30
  -4   3   1 1261.07   48.90
   3  -3  -1  923.81   34.40
   3  -3  -1  913.41   32.40
   3  -3  -1  892.51   36.80
  -3   3   1  971.70   34.90
  -3   3   1  941.31   34.80
  -3   3   1  867.51   36.30
  -3   3   1  926.91   37.20
  -3   3   1  919.01   35.70
   2  -3  -1 6927.31  218.98
   2  -3  -1 6744.33  216.58
   2  -3  -1 6286.87  215.18
  -2   3   1 6246.48  216.58
   1  -3  -1   71.49    4.40
   1  -3  -1   69.29    4.20
   1  -3  -1   78.99    5.40
   1  -3  -1   70.59    4.30
  -1   3   1   65.49    4.70
  -1   3   1   74.19    3.60
  -1   3   1   73.19    5.70
  -1   3   1   75.39    4.60
  -1  -3  -1 3436.16  111.99
  -1  -3  -1 3361.96  113.19
   1   3   1 3298.07  110.59
  -2  -3  -1 3297.37  108.99
  -2  -3  -1 3283.97  110.89
  -2  -3  -1 3036.00  108.59
   2   3   1 3561.34  111.29
   2   3   1 3289.07  110.49
   2   3   1 3099.29  108.59
  -3  -3  -1  495.15   19.70
  -3  -3  -1  480.35   21.70
  -3  -3  -1  494.65   19.70
  -3  -3  -1  513.95   20.30
   3   3   1  523.25   21.50
   3   3   1  496.25   20.00
   3   3   1  499.65   19.50
  -4  -3  -1  525.95   21.30
  -4  -3  -1  511.25   20.80
  -4  -3  -1  521.75   22.50
  -4  -3  -1  509.85   23.80
   4   3   1  520.05   21.00
   4   3   1  519.45   23.10
   4   3   1  516.05   20.90
  -5  -3  -1    0.10    2.40
  -5  -3  -1    3.60    3.60
  -5  -3  -1    6.20    2.30
  -5  -3  -1    2.50    2.30
   5   3   1    1.50    2.30
  -6  -3  -1  135.39    9.70
  -6  -3  -1  105.19    7.90
   6   3   1  129.29    9.60
  -7  -3  -1    8.90    3.70
  -7  -3  -1    4.10    2.40
  -7  -3  -1    0.60    3.60
   7   3   1    4.20    3.60
  -8  -3  -1   12.10    6.00
  -8  -3  -1    7.70    4.40
   8   3   1    5.20    3.80
  -9  -3  -1   -1.70    3.50
  -9  -3  -1    6.20    4.20
   9   3   1   11.60    4.30
 -10  -3  -1   16.30    5.20
  10   3   1   18.90    4.30
   7  -4  -1   16.30    5.00
   5  -4  -1    5.00    3.60
  -5   4   1    7.30    3.60
  -5   4   1   10.20    3.80
  -5   4   1    0.70    2.90
   4  -4  -1   57.59    6.30
  -4   4   1   51.69    5.80
  -4   4   1   59.99    6.20
  -4   4   1   48.60    6.10
  -4   4   1   53.19    6.80
   3  -4  -1  277.77   16.20
   3  -4  -1  286.17   12.20
   3  -4  -1  318.77   14.70
  -3   4   1  305.17   15.00
  -3   4   1  310.57   13.80
  -3   4   1  288.17   14.10
  -3   4   1  290.07   16.90
  -3   4   1  292.47   13.30
  -3   4   1  330.97   15.20
   2  -4  -1    4.70    1.70
   2  -4  -1    6.10    2.30
   2  -4  -1    9.60    2.60
  -2   4   1    7.40    2.80
  -2   4   1    9.20    2.70
  -2   4   1    8.00    2.20
  -2   4   1    8.20    1.60
   1  -4  -1 2605.34   88.49
   1  -4  -1 2658.63   90.59
   1  -4  -1 2737.43   88.49
  -1   4   1 2633.34   87.39
  -1   4   1 2506.65   89.49
   0  -4  -1 1473.95   50.39
   0  -4  -1 1389.96   51.89
   0   4   1 1567.74   52.59
   0   4   1 1442.06   51.39
  -1  -4  -1   79.39    5.40
  -1  -4  -1   80.99    6.00
  -1  -4  -1   74.59    3.20
  -1  -4  -1   71.39    3.20
  -1  -4  -1   86.89    5.40
   1   4   1   83.49    6.30
   1   4   1   75.29    6.00
   1   4   1   78.19    3.20
   1   4   1   74.89    5.80
  -2  -4  -1 3705.73  123.89
  -2  -4  -1 3987.30  126.29
  -2  -4  -1 3617.04  123.19
   2   4   1 3699.73  124.89
   2   4   1 3567.94  125.29
   2   4   1 3694.43  124.69
   2   4   1 3725.83  123.59
   2   4   1 3536.15  123.09
  -4  -4  -1   56.19    5.40
  -4  -4  -1   55.89    5.30
  -4  -4  -1   54.79    6.60
   4   4   1   51.69    6.10
   4   4   1   58.59    5.60
   4   4   1   58.79    5.20
  -5  -4  -1 1820.72   63.79
  -5  -4  -1 1852.71   69.79
  -5  -4  -1 1754.82   64.09
   5   4   1 1637.34   66.59
   5   4   1 1819.22   63.79
  -6  -4  -1  244.98   14.10
  -6  -4  -1  226.08   13.00
   6   4   1  237.28   13.80
  -7  -4  -1    4.60    4.10
  -7  -4  -1   11.90    4.20
  -7  -4  -1    8.90    3.30
   7   4   1   20.80    5.20
  -8  -4  -1  188.08   15.90
  -8  -4  -1  199.88   13.70
   8   4   1  207.58   13.90
  -9  -4  -1   19.30    5.50
  -9  -4  -1   14.70    4.40
   9   4   1   21.10    5.10
 -10  -4  -1   14.60    4.20
   8  -5  -1    9.20    3.10
   7  -5  -1    2.70    3.50
   5  -5  -1   83.99    8.50
  -5   5   1   89.29    8.60
   4  -5  -1  143.19   10.60
  -4   5   1  146.49   14.90
   3  -5  -1  455.65   20.50
   3  -5  -1  466.25   19.00
  -3   5   1  452.25   21.00
   2  -5  -1   22.50    4.30
   2  -5  -1   30.80    4.10
   2  -5  -1   36.40    3.50
  -2   5   1   27.40    5.10
  -2   5   1   39.80    4.80
   1  -5  -1 4022.00  134.19
   1  -5  -1 3960.60  131.69
   1  -5  -1 3887.81  131.69
  -1   5   1 4018.30  133.39
  -1   5   1 3783.32  134.89
   0  -5  -1 2182.98   73.29
   0  -5  -1 2134.39   72.49
   0  -5  -1 1957.00   74.29
   0   5   1 2109.49   73.99
   0   5   1 2246.88   75.79
  -1  -5  -1 3585.94  119.59
  -1  -5  -1 3510.65  118.49
  -1  -5  -1 3584.04  121.19
   1   5   1 3559.84  121.19
   1   5   1 3458.25  120.09
  -2  -5  -1 3595.24  121.59
  -2  -5  -1 3641.64  119.49
  -2  -5  -1 3596.24  118.59
   2   5   1 3328.07  117.89
   2   5   1 3569.04  120.89
   2   5   1 3399.06  120.89
   2   5   1 3597.84  120.49
   2   5   1 3469.05  116.69
  -3  -5  -1 1501.15   54.29
  -3  -5  -1 1572.24   59.09
   3   5   1 1486.35   55.29
   3   5   1 1437.46   61.89
   3   5   1 1519.95   53.19
  -4  -5  -1   17.90    3.80
  -4  -5  -1   23.40    5.50
  -4  -5  -1   14.90    3.60
   4   5   1   26.50    5.20
   4   5   1   10.00    3.40
   4   5   1   19.10    3.80
  -5  -5  -1  354.46   18.00
  -5  -5  -1  360.06   18.00
   5   5   1  429.86   29.90
  -6  -5  -1 2763.32   99.39
  -6  -5  -1 2720.73   95.89
   6   5   1 2663.33   95.69
  -7  -5  -1  186.98   13.20
  -7  -5  -1  170.38   11.70
  -7  -5  -1  179.98   14.10
   7   5   1  178.68   12.50
  -8  -5  -1    2.40    3.50
  -8  -5  -1    0.90    3.30
  -9  -5  -1   39.50    8.00
  -9  -5  -1   64.99    7.50
   9   5   1   64.19    9.00
 -10  -5  -1    0.30    3.50
 -10  -5  -1    9.80    3.80
  10   5   1   -6.30    2.70
  10   5   1   -6.70    4.40
   7  -6  -1    2.70    2.60
   6  -6  -1   61.69    7.70
   5  -6  -1   18.80    5.00
  -5   6   1   22.20    5.40
   4  -6  -1  497.45   23.00
  -4   6   1  448.56   22.60
   3  -6  -1   19.00    4.70
  -3   6   1   22.60    4.90
   2  -6  -1  105.69    6.80
   2  -6  -1  104.49    7.90
  -2   6   1  119.39    8.90
   1  -6  -1  420.16   17.50
   1  -6  -1  359.56   18.70
   1  -6  -1  406.96   17.50
  -1   6   1  401.06   18.80
  -1   6   1  413.56   20.90
   0  -6  -1  784.52   29.90
   0  -6  -1  800.72   29.10
   0  -6  -1  782.22   31.50
   0   6   1  773.12   30.90
   0   6   1  695.93   31.70
  -1  -6  -1 1311.17   46.60
  -1  -6  -1 1273.97   48.00
  -1  -6  -1 1257.27   45.10
   1   6   1 1180.08   47.80
   1   6   1 1255.57   47.20
   1   6   1 1280.57   48.40
  -2  -6  -1 1781.02   62.59
  -2  -6  -1 1802.32   66.09
  -2  -6  -1 1762.82   59.69
  -2  -6  -1 1883.01   64.19
   2   6   1 1813.32   65.09
   2   6   1 1665.03   61.69
   2   6   1 1801.72   65.79
  -3  -6  -1  309.27   15.60
  -3  -6  -1  321.27   17.90
  -3  -6  -1  309.17   14.70
   3   6   1  301.27   14.00
   3   6   1  327.47   17.00
   3   6   1  287.37   16.70
   3   6   1  311.37   16.70
  -4  -6  -1   83.49    7.00
  -4  -6  -1   78.49    7.40
   4   6   1   65.49    7.40
   4   6   1   76.99    8.40
  -5  -6  -1 1397.66   52.69
  -5  -6  -1 1427.86   53.19
   5   6   1 1357.26   51.59
  -6  -6  -1   64.79    7.50
  -6  -6  -1   74.89    8.00
   6   6   1   64.89    7.50
  -7  -6  -1  346.67   19.20
  -7  -6  -1  351.26   23.10
  -7  -6  -1  310.37   17.70
   7   6   1  299.77   17.40
  -8  -6  -1   45.90    8.90
  -8  -6  -1   38.20    5.90
  -9  -6  -1   17.10    4.70
  -9  -6  -1   12.90    4.40
   9   6   1   21.40    5.80
   9   6   1   12.10    5.50
 -10  -6  -1   26.90    5.50
 -10  -6  -1   17.80    4.20
  10   6   1   16.80    4.80
   7  -7  -1    4.60    3.30
   6  -7  -1   19.50    4.70
   5  -7  -1    3.90    3.70
  -5   7   1   10.50    3.80
   4  -7  -1  418.06   20.80
  -4   7   1  404.86   20.80
   3  -7  -1   51.49    7.20
  -3   7   1   44.40    7.10
   2  -7  -1   22.20    4.00
   2  -7  -1   31.80    5.30
  -2   7   1   29.30    5.80
   1  -7  -1  286.07   14.20
   1  -7  -1  306.27   14.70
  -1   7   1  297.27   16.30
   0  -7  -1  185.78   11.00
   0  -7  -1  184.18   10.30
   0   7   1  188.38   12.20
  -1  -7  -1  103.39    7.40
  -1  -7  -1  104.89    8.30
   1   7   1  108.49    9.00
  -2  -7  -1 1014.90   38.20
  -2  -7  -1 1000.00   39.60
   2   7   1 1013.80   41.00
   2   7   1 1004.50   41.80
  -3  -7  -1  843.42   32.70
  -3  -7  -1  963.20   36.00
  -3  -7  -1  931.81   37.30
   3   7   1  893.41   38.80
   3   7   1  962.90   39.00
  -4  -7  -1  490.25   23.10
  -4  -7  -1  498.85   22.00
   4   7   1  389.86   23.40
   4   7   1  483.85   24.40
   4   7   1  503.85   25.00
  -5  -7  -1  765.82   32.00
  -5  -7  -1  796.52   33.10
   5   7   1  674.13   29.80
   5   7   1  737.43   34.80
  -6  -7  -1  269.77   16.90
  -6  -7  -1  280.57   16.80
   6   7   1  271.07   16.70
   6   7   1  295.37   19.50
  -7  -7  -1  252.47   16.20
  -7  -7  -1  265.87   16.30
  -7  -7  -1  256.17   17.30
   7   7   1  243.98   14.80
   7   7   1  267.87   18.70
  -8  -7  -1   47.30    8.80
  -8  -7  -1   62.29    8.10
   8   7   1   45.80    8.80
  -9  -7  -1  163.48   13.40
  -9  -7  -1  159.38   11.90
   9   7   1  165.48   13.40
 -10  -7  -1   21.20    4.50
 -10  -7  -1   21.20    4.90
  10   7   1   14.50    4.20
   6  -8  -1  133.49    9.50
   5  -8  -1  443.86   21.70
  -5   8   1  488.55   25.40
   4  -8  -1  145.89   10.80
  -4   8   1  158.68   11.20
   3  -8  -1   21.30    4.80
  -3   8   1   35.00    6.30
   2  -8  -1  191.08   12.20
  -2   8   1  191.98   13.30
   1  -8  -1   21.90    4.30
   1  -8  -1   19.80    4.10
  -1   8   1   22.80    5.70
   0  -8  -1  421.66   19.10
   0  -8  -1  408.26   19.40
   0   8   1  402.46   21.20
  -1  -8  -1   50.29    5.70
  -1  -8  -1   45.30    6.10
   1   8   1   55.89   13.00
  -2  -8  -1  583.54   26.50
  -2  -8  -1  603.84   25.00
   2   8   1  543.95   36.20
  -3  -8  -1   14.80    4.00
  -3  -8  -1   16.50    4.70
   3   8   1   13.90    5.20
  -4  -8  -1  142.39   10.50
  -4  -8  -1  144.39   11.60
   4   8   1  163.88   13.10
  -5  -8  -1   13.70    4.40
  -5  -8  -1   12.60    4.40
   5   8   1    8.20    5.40
  -6  -8  -1   20.50    5.60
  -6  -8  -1   27.70    6.30
  -6  -8  -1   17.00    4.90
   6   8   1   21.00    6.40
  -7  -8  -1  225.58   14.90
  -7  -8  -1  207.78   17.60
  -7  -8  -1  198.68   14.50
   7   8   1  210.38   16.70
  -8  -8  -1   54.39    8.30
  -8  -8  -1   58.49    8.20
  -8  -8  -1   72.89    7.70
   8   8   1   66.49   10.30
  -9  -8  -1  604.74   27.70
  -9  -8  -1  637.64   27.90
   9   8   1  676.63   31.00
   5  -9  -1  190.98   11.50
   4  -9  -1   34.50    5.70
  -4   9   1   33.80    7.30
   3  -9  -1   -1.80    2.70
  -3   9   1   -3.30    2.80
   2  -9  -1  221.68   13.80
  -2   9   1  203.08   14.40
   1  -9  -1  210.78   12.80
   1  -9  -1  209.68   12.20
  -1   9   1  202.48   14.40
   0  -9  -1  652.23   28.10
   0   9   1  671.53   31.10
  -1  -9  -1    0.20    2.30
  -1  -9  -1   -4.90    2.30
   1   9   1    6.80    4.10
  -2  -9  -1  446.96   21.20
   2   9   1  455.05   24.50
  -3  -9  -1   70.89    8.60
  -3  -9  -1   72.39    7.20
   3   9   1   55.99    9.50
  -4  -9  -1  585.54   26.30
  -4  -9  -1  549.25   27.80
   4   9   1  583.74   30.10
  -5  -9  -1  127.09   10.60
  -5  -9  -1  121.89   11.50
   5   9   1  132.09   13.20
  -6  -9  -1   18.40    7.00
  -6  -9  -1   14.30    4.60
   6   9   1   12.60    7.70
  -7  -9  -1  109.89   10.70
  -7  -9  -1  136.09   10.90
   7   9   1  123.59   12.80
  -8  -9  -1    7.10    6.30
  -8  -9  -1   13.40    4.10
   8   9   1   12.40    4.80
  -9  -9  -1  171.88   10.90
   9   9   1  160.68   12.40
   4 -10  -1   11.00    3.60
  -4  10   1    9.40    4.40
   3 -10  -1   16.90    6.80
  -3  10   1   15.70    4.00
   2 -10  -1   27.90    5.60
  -2  10   1   40.50    6.80
   1 -10  -1   16.40    4.30
  -1  10   1    9.80    3.70
   0 -10  -1   48.50    6.90
  -1 -10  -1    2.50    2.90
   1  10   1    3.60    3.70
  -2 -10  -1  415.56   21.70
  -2 -10  -1  415.76   20.30
   2  10   1  420.46   23.70
  -3 -10  -1   19.00    4.60
  -3 -10  -1   21.00    5.50
   3  10   1   17.60    6.00
  -4 -10  -1  166.38   13.20
  -4 -10  -1  175.38   13.10
   4  10   1  179.88   17.30
  -5 -10  -1   33.10    6.20
  -5 -10  -1   35.60    7.20
   5  10   1   45.30    9.40
  -6 -10  -1  195.98   13.00
  -6 -10  -1  177.38   13.90
   6  10   1  176.88   15.10
  -7 -10  -1   98.99    9.10
  -7 -10  -1   91.59    9.70
   7  10   1   91.09   10.80
  -8 -10  -1   66.29    7.00
   8  10   1   53.59    8.10
   2 -11  -1    8.80    3.60
  -2  11   1    3.60    3.40
   1 -11  -1    3.20    3.30
  -1  11   1   -2.20    2.50
   0 -11  -1   -0.80    2.80
  -1 -11  -1   95.19    8.10
  -1 -11  -1   75.29    8.20
   1  11   1   86.49   10.00
  -2 -11  -1  177.48   12.80
  -2 -11  -1  175.78   11.40
   2  11   1  172.38   14.10
  -3 -11  -1   26.10    5.20
  -3 -11  -1   24.10    5.30
   3  11   1   27.60    6.90
  -4 -11  -1   31.30    6.30
  -4 -11  -1   42.50    6.40
   4  11   1   41.10    7.90
  -5 -11  -1   26.00    5.90
  -5 -11  -1   25.60    5.30
   5  11   1   17.50    6.20
  -6 -11  -1  138.29   10.60
  -6 -11  -1  154.68   13.00
   6  11   1  133.29   12.50
  -7 -11  -1  208.98   12.70
   7  11   1  223.48   15.20
   1 -12  -1   -3.70    3.60
  -1  12   1    0.30    3.60
   0 -12  -1   67.69    6.60
   0  12   1   68.69    8.00
  -1 -12  -1   14.20    4.10
   1  12   1   12.10    4.40
  -2 -12  -1  215.78   12.30
   2  12   1  208.58   16.20
  -3 -12  -1   53.89    6.10
  -3 -12  -1   35.50    5.80
   3  12   1   76.59   12.50
  -4 -12  -1  152.58   10.10
  -4 -12  -1  123.99   10.30
   4  12   1  143.39   12.50
  -5 -12  -1  157.18   10.30
   5  12   1  165.38   12.50
  -6 -12  -1   -2.60    2.50
   6  12   1   -2.10    3.20
   5  11  -2   22.20    5.80
  -5 -11   2   15.10    3.90
   4  11  -2   45.30    8.40
  -4 -11   2   35.60    4.90
   3  11  -2  232.68   22.20
  -3 -11   2  259.37   12.70
  -3 -11   2  216.78   14.70
   2  11  -2   -3.90    3.50
  -2 -11   2   12.60    3.30
   1  11  -2   20.40    6.10
   0  11  -2   79.39    9.40
  -1  11  -2   -2.90    3.00
  -2  11  -2   59.69    7.20
   7  10  -2   48.00    8.90
  -7 -10   2   35.30    6.20
   6  10  -2  258.67   17.00
  -6 -10   2  258.77   16.30
  -6 -10   2  268.37   14.30
   5  10  -2   86.79   10.30
  -5 -10   2   86.19    7.90
  -5 -10   2   81.29    9.40
   4  10  -2    2.60    4.50
  -4 -10   2   11.20    4.50
  -4 -10   2    7.20    3.30
   3  10  -2    6.20    4.60
  -3 -10   2   -0.50    2.70
  -3 -10   2    4.40    3.70
   2  10  -2   87.59   10.30
  -2 -10   2  101.59    9.50
  -2 -10   2   81.49    7.10
   1  10  -2   14.60    5.80
  -1 -10   2   18.30    4.00
  -1 -10   2   16.50    4.60
   0  10  -2    3.30    3.90
   0 -10   2    1.30    2.90
  -1  10  -2   22.20    5.60
  -2  10  -2  142.79   12.30
  -3  10  -2    7.00    3.50
   7   9  -2   12.90    4.90
  -7  -9   2    6.10    3.70
  -7  -9   2   12.20    4.90
   6   9  -2    5.30    5.00
  -6  -9   2    5.50    4.00
  -6  -9   2    4.50    4.10
   5   9  -2   11.30    5.50
  -5  -9   2    5.90    2.70
  -5  -9   2   -1.50    3.50
   4   9  -2  764.52   36.90
   4   9  -2  729.83   37.00
  -4  -9   2  730.03   34.20
  -4  -9   2  735.73   31.10
   3   9  -2  358.96   23.10
   3   9  -2  356.56   22.80
  -3  -9   2  365.26   20.60
  -3  -9   2  357.16   17.80
   2   9  -2  372.86   22.70
   2   9  -2  374.86   23.20
  -2  -9   2  375.06   17.50
  -2  -9   2  326.27   19.40
   1   9  -2    0.90    3.00
   1   9  -2    6.10    4.70
  -1  -9   2    2.10    3.30
  -1  -9   2    9.80    3.10
   0   9  -2  587.84   29.30
   0  -9   2  532.35   24.50
   0  -9   2  540.55   23.10
  -1   9  -2  689.13   33.30
  -2   9  -2    9.70    4.60
   2  -9   2    3.40    2.50
  -3   9  -2   11.00    4.00
   3  -9   2    7.10    4.30
  -4   9  -2   12.80    4.30
  -5   9  -2    7.60    5.80
   8   8  -2   61.19    8.40
  -8  -8   2   35.90    5.80
   7   8  -2  143.09   13.10
  -7  -8   2  125.69   11.40
  -7  -8   2  124.59   10.50
   6   8  -2  147.19   13.90
  -6  -8   2  141.49   11.40
  -6  -8   2  149.39   15.50
   5   8  -2   91.89   11.70
   5   8  -2   91.49   10.70
  -5  -8   2   97.49   10.40
  -5  -8   2   89.79    8.60
   4   8  -2  305.77   20.50
   4   8  -2  332.57   21.40
  -4  -8   2  311.77   19.20
  -4  -8   2  317.87   17.00
   3   8  -2   19.90    6.70
   3   8  -2   19.30    6.30
  -3  -8   2   16.80    4.10
  -3  -8   2   22.70    5.50
   2   8  -2 1129.19   48.80
   2   8  -2 1137.79   48.50
  -2  -8   2 1091.89   42.20
   1   8  -2 4523.55  155.28
   1   8  -2 4340.07  155.38
  -1  -8   2 4393.36  148.19
  -1  -8   2 4288.07  150.98
   0   8  -2  168.88   13.40
   0   8  -2  145.09   13.10
   0  -8   2  147.99    9.00
   0  -8   2  155.88   10.60
  -1   8  -2 1497.15   57.29
   1  -8   2 1376.26   51.39
   1  -8   2 1365.16   50.69
  -2   8  -2  166.68   13.40
   2  -8   2  171.18   10.10
  -3   8  -2   71.09    9.10
   3  -8   2   53.69    7.10
  -4   8  -2   62.89    8.10
   4  -8   2   48.00    6.20
  -5   8  -2    3.90    3.60
   5  -8   2    1.50    3.00
  -6   8  -2   25.40    4.50
   9   7  -2    5.80    3.90
  -9  -7   2   -4.00    3.20
  -9  -7   2    1.80    2.80
   8   7  -2    8.20    6.40
  -8  -7   2    8.50    4.20
  -8  -7   2    2.30    3.50
   7   7  -2   61.69    9.60
  -7  -7   2   67.89    8.50
  -7  -7   2   72.59    8.20
   6   7  -2    1.00    3.80
   6   7  -2    0.20    4.00
  -6  -7   2   -3.10    2.80
  -6  -7   2   -0.20    3.00
   5   7  -2   52.29    9.00
   5   7  -2   49.99    8.80
  -5  -7   2   53.99    8.60
  -5  -7   2   58.09    7.20
   4   7  -2  139.39   12.70
   4   7  -2  131.29   12.40
  -4  -7   2  130.89   13.70
  -4  -7   2  130.59    9.90
   3   7  -2 2739.93  101.19
   3   7  -2 2682.53  101.09
  -3  -7   2 2756.82   99.09
  -3  -7   2 2799.12   97.79
   2   7  -2  850.71   38.20
   2   7  -2  896.11   38.30
  -2  -7   2  828.92   35.70
  -2  -7   2  839.02   33.00
   1   7  -2 4467.55  151.88
  -1  -7   2 4314.97  148.59
  -1  -7   2 4217.08  145.59
   0   7  -2   53.19    8.70
   0  -7   2   52.09    6.00
   0  -7   2   40.50    4.50
  -1   7  -2 1179.48   46.20
   1  -7   2 1058.99   41.10
   1  -7   2 1092.99   40.40
  -2   7  -2   33.50    6.90
   2  -7   2   39.80    4.80
  -3   7  -2  315.27   18.90
   3  -7   2  323.07   15.40
  -4   7  -2   11.00    4.60
   4  -7   2   13.50    3.70
  -5   7  -2    4.30    3.20
   5  -7   2   -4.10    2.70
  -6   7  -2   47.60   10.40
   6  -7   2   31.10    5.00
   9   6  -2   11.40    4.40
  -9  -6   2   12.50    3.80
   8   6  -2  137.89   12.00
  -8  -6   2  139.19   11.10
  -8  -6   2  160.88   12.00
   7   6  -2    8.20    4.40
  -7  -6   2    2.50    3.40
  -7  -6   2   18.40    5.00
   6   6  -2   83.29    9.20
   6   6  -2   81.39   10.10
  -6  -6   2   78.69    9.10
  -6  -6   2   80.09    8.70
   5   6  -2  414.96   23.90
   5   6  -2  448.96   23.50
  -5  -6   2  428.86   21.70
   4   6  -2  702.83   32.80
  -4  -6   2  675.33   28.40
   3   6  -2  811.42   35.90
   3   6  -2  828.12   36.10
  -3  -6   2  813.42   32.50
   2   6  -2  393.96   20.80
   2   6  -2  397.36   20.70
  -2  -6   2  381.86   17.10
   1   6  -2 2953.30  100.79
   1   6  -2 2713.33   95.49
   1   6  -2 2893.11  100.89
  -1  -6   2 2790.62   95.69
  -1  -6   2 2638.64   95.59
  -1  -6   2 2933.91   98.69
   0   6  -2  577.54   26.20
   0   6  -2  559.74   26.10
   0  -6   2  574.84   21.80
   0  -6   2  559.24   29.30
  -1   6  -2 1318.37   50.59
  -1   6  -2 1324.77   50.99
   1  -6   2 1262.37   45.90
   1  -6   2 1321.47   47.30
  -2   6  -2  680.63   29.40
   2  -6   2  682.53   26.40
  -3   6  -2   25.40    6.00
   3  -6   2   21.00    3.90
  -4   6  -2   68.19    8.40
   4  -6   2   55.09    6.20
  -5   6  -2   10.30    4.60
   5  -6   2    6.90    3.30
  -6   6  -2  228.58   15.10
   6  -6   2  236.78   13.50
   7  -6   2    5.90    3.50
   9   5  -2   12.40    4.50
  -9  -5   2   10.90    4.10
   8   5  -2  163.48   13.00
  -8  -5   2  168.88   11.90
  -8  -5   2  187.78   13.60
   7   5  -2   80.79    9.50
  -7  -5   2   71.89    9.00
  -7  -5   2   70.89    7.90
   6   5  -2  133.09   10.70
   6   5  -2  138.09   12.50
  -6  -5   2  125.69   11.20
  -6  -5   2  137.99   12.10
   5   5  -2 1169.48   47.80
   5   5  -2 1209.68   49.80
  -5  -5   2 1160.68   47.80
  -5  -5   2 1251.17   47.70
   4   5  -2    1.00    3.20
   4   5  -2    6.20    3.80
  -4  -5   2    1.90    2.90
  -4  -5   2    5.00    2.80
   3   5  -2   33.80    6.20
   3   5  -2   27.90    5.80
  -3  -5   2   33.10    4.50
  -3  -5   2   32.30    4.70
  -3  -5   2   28.70    5.30
   2   5  -2 1159.88   44.40
   2   5  -2 1126.79   41.90
   2   5  -2 1154.78   44.60
  -2  -5   2 1111.79   39.80
  -2  -5   2 1072.19   41.50
  -2  -5   2 1178.38   43.10
   1   5  -2  703.43   28.60
   1   5  -2  684.13   28.70
   1   5  -2  675.93   25.50
   1   5  -2  646.54   25.30
  -1  -5   2  653.33   25.60
  -1  -5   2  662.53   25.10
   0   5  -2    2.60    2.70
   0   5  -2    5.50    1.90
   0   5  -2    3.40    1.40
   0   5  -2    2.60    2.70
   0  -5   2    7.00    1.70
   0  -5   2    2.50    1.90
   0  -5   2    1.40    1.00
  -1   5  -2   21.50    2.80
  -1   5  -2   17.10    4.20
  -1   5  -2   20.80    3.20
  -1   5  -2   22.40    2.40
  -1   5  -2   17.10    4.30
   1  -5   2   24.10    2.60
   1  -5   2   24.50    2.20
   1  -5   2   18.00    3.10
  -2   5  -2    1.50    2.40
  -2   5  -2    0.60    1.60
  -2   5  -2    3.10    2.80
  -2   5  -2   -1.30    1.80
   2  -5   2   -1.10    1.30
   2  -5   2   -2.40    1.70
  -3   5  -2  363.36   15.90
  -3   5  -2  365.66   16.10
  -3   5  -2  407.56   19.80
   3  -5   2  370.26   16.40
  -4   5  -2  289.47   17.00
   4  -5   2  282.37   18.40
  -5   5  -2    5.30    3.80
   5  -5   2    7.50    3.00
  -6   5  -2    8.40    5.90
   7  -5   2   29.60    5.30
   8  -5   2    9.30    3.30
  -9  -4   2  118.59   12.80
   8   4  -2   76.99    8.90
  -8  -4   2   78.19    8.60
   7   4  -2  206.88   13.00
  -7  -4   2  219.38   14.80
  -7  -4   2  206.48   13.60
  -7  -4   2  194.18   16.00
   6   4  -2  198.58   12.90
   6   4  -2  201.38   12.40
  -6  -4   2  204.78   15.20
  -6  -4   2  225.58   14.80
   5   4  -2   17.40    4.30
  -5  -4   2   11.70    4.40
  -5  -4   2   17.30    4.60
   4   4  -2 1058.79   43.50
   4   4  -2 1083.69   42.70
  -4  -4   2 1121.69   43.00
  -4  -4   2 1103.59   42.10
   3   4  -2 3177.78  110.19
   3   4  -2 3146.09  109.59
  -3  -4   2 3112.39  110.29
  -3  -4   2 3114.59  107.79
  -3  -4   2 3225.08  108.59
   2   4  -2 1756.22   62.19
   2   4  -2 1780.72   64.29
   2   4  -2 1757.02   64.19
  -2  -4   2 1819.02   63.69
  -2  -4   2 1795.12   61.89
  -2  -4   2 1781.22   61.89
   1   4  -2 7378.36  250.87
   1   4  -2 7438.66  248.68
  -1  -4   2 7658.53  247.58
  -1  -4   2 7690.43  248.98
   0   4  -2  904.41   32.70
   0   4  -2  918.01   35.00
   0   4  -2  928.01   35.10
   0   4  -2  966.60   31.80
   0  -4   2  923.11   30.50
   0  -4   2  927.21   30.50
   0  -4   2  833.82   33.30
   0  -4   2  899.71   31.80
  -1   4  -2 1511.85   50.09
  -1   4  -2 1494.15   53.79
  -1   4  -2 1407.66   50.99
  -1   4  -2 1480.55   53.39
  -1   4  -2 1483.35   51.39
   1  -4   2 1487.25   49.20
   1  -4   2 1434.56   49.20
   1  -4   2 1601.34   50.19
   1  -4   2 1483.35   51.39
   1  -4   2 1427.46   50.09
  -2   4  -2   59.39    5.90
  -2   4  -2   51.79    5.40
  -2   4  -2   56.89    4.20
  -2   4  -2   52.39    4.50
  -2   4  -2   61.29    4.70
  -2   4  -2   60.69    4.30
   2  -4   2   57.39    4.00
   2  -4   2   64.09    4.40
   2  -4   2   66.49    3.90
  -3   4  -2   27.70    4.30
  -3   4  -2   34.50    4.20
  -3   4  -2   36.60    5.90
  -3   4  -2   35.60    4.10
   3  -4   2   31.70    4.20
  -4   4  -2  472.45   22.60
  -4   4  -2  481.95   20.70
  -4   4  -2  462.75   21.00
   4  -4   2  470.75   20.20
  -5   4  -2  500.55   24.40
  -5   4  -2  505.45   22.70
  -5   4  -2  484.75   23.30
   5  -4   2  534.05   22.90
  -6   4  -2  109.29    9.40
  -6   4  -2  115.29   10.40
  -6   4  -2  116.69   10.60
   6  -4   2  120.49    9.30
  -7   4  -2    7.80    4.80
   7  -4   2    1.20    2.90
   8  -4   2   18.60    4.70
   9   3  -2   23.80    6.00
   9   3  -2   24.60    5.10
  -9  -3   2   22.90    6.90
   8   3  -2  405.56   20.50
  -8  -3   2  421.66   22.20
   7   3  -2   82.09    8.50
  -7  -3   2   98.89   10.00
  -7  -3   2   89.89   11.70
   6   3  -2    6.70    3.50
  -6  -3   2    7.80    5.00
  -6  -3   2    5.80    4.10
   5   3  -2  143.39    9.40
   5   3  -2  134.99    9.10
  -5  -3   2  129.99   10.20
  -5  -3   2  135.99   11.20
   4   3  -2  101.89    8.00
   4   3  -2  112.29    7.50
  -4  -3   2  124.79    9.60
  -4  -3   2  128.39    8.80
  -4  -3   2  128.59   14.60
   3   3  -2 1125.99   42.20
   3   3  -2 1103.09   40.00
  -3  -3   2 1083.59   46.00
  -3  -3   2 1093.69   43.40
  -3  -3   2 1230.38   43.00
  -3  -3   2 1123.29   41.40
   2   3  -2  138.99    8.90
   2   3  -2  157.08    9.10
   2   3  -2  140.99    8.10
  -2  -3   2  142.29    7.80
  -2  -3   2  148.59    8.50
  -2  -3   2  150.98    8.80
   1   3  -2 5451.15  185.68
   1   3  -2 5781.22  187.18
  -1  -3   2 5614.34  186.58
  -1   3  -2 1592.74   52.59
  -1   3  -2 1613.14   56.69
  -1   3  -2 1514.45   54.09
  -1   3  -2 1559.64   55.69
   1  -3   2 1662.33   52.59
   1  -3   2 1514.75   53.19
  -2   3  -2 1107.79   39.70
  -2   3  -2 1129.69   38.80
  -2   3  -2 1134.69   38.60
  -2   3  -2 1123.69   40.90
  -2   3  -2 1105.29   39.80
  -2   3  -2 1059.39   39.80
   2  -3   2 1066.99   38.10
   2  -3   2 1122.59   37.60
  -3   3  -2 5385.86  180.18
  -3   3  -2 5448.96  178.68
  -3   3  -2 5547.34  179.48
  -3   3  -2 5034.80  178.58
   3  -3   2 5361.56  177.48
  -4   3  -2   88.09    7.60
  -4   3  -2   85.19    7.60
  -4   3  -2   79.19    7.30
  -4   3  -2   76.79    6.80
   4  -3   2   79.89    6.20
  -5   3  -2 1031.90   40.20
  -5   3  -2  959.50   41.20
   5  -3   2 1038.60   39.20
  -6   3  -2  101.99    9.60
  -6   3  -2   84.99    9.30
  -6   3  -2   80.79    8.80
   6  -3   2   83.79    8.20
  -7   3  -2  181.18   12.90
  -7   3  -2  176.38   14.50
   7  -3   2  185.68   12.60
  -8   3  -2   10.70    4.40
   8  -3   2   -0.10    3.50
   9  -3   2   10.70    3.80
   9   2  -2   38.00    5.90
  -9  -2   2   57.39   10.80
   8   2  -2   57.49    7.60
  -8  -2   2   47.20    7.50
   7   2  -2  160.98   11.90
  -7  -2   2  169.48   18.80
  -7  -2   2  160.98   12.60
   6   2  -2    9.60    3.60
  -6  -2   2    0.50    3.60
  -6  -2   2    1.90    3.40
   5   2  -2  952.20   36.40
   5   2  -2  885.11   35.10
  -5  -2   2  976.30   38.00
  -5  -2   2  915.91   39.70
   4   2  -2 1444.96   53.49
   4   2  -2 1462.35   53.29
  -4  -2   2 1572.24   56.89
  -4  -2   2 1477.95   54.79
  -4  -2   2 1578.54   58.49
  -4  -2   2 1448.36   57.59
   3   2  -2 1148.19   42.40
   3   2  -2 1101.19   42.40
  -3  -2   2 1225.38   45.00
  -3  -2   2 1192.48   42.90
  -3  -2   2 1215.78   44.40
  -3  -2   2 1170.98   44.20
   2   2  -2    6.60    2.70
   2   2  -2    5.20    2.20
  -2  -2   2    2.80    1.60
  -2  -2   2    5.40    2.20
  -2  -2   2    3.50    2.30
   1   2  -2 1450.45   50.69
   1   2  -2 1439.26   51.39
  -1  -2   2 1510.35   50.39
  -1  -2   2 1479.25   50.99
   0   2  -2 2446.26   84.09
   0  -2   2 2509.55   83.59
   0  -2   2 2575.24   82.59
  -2   2  -2  313.27   14.40
  -2   2  -2  348.87   13.10
  -2   2  -2  342.27   14.20
  -2   2  -2  329.17   12.90
  -2   2  -2  306.57   13.50
  -3   2  -2 2214.88   80.89
  -3   2  -2 2286.37   80.99
  -3   2  -2 2507.45   80.59
  -3   2  -2 2442.86   80.49
  -3   2  -2 2293.57   80.29
   3  -2   2 2289.37   79.09
  -4   2  -2 1483.05   54.99
  -4   2  -2 1482.45   53.59
  -4   2  -2 1486.75   53.99
  -4   2  -2 1373.16   53.19
  -5   2  -2  246.78   15.00
  -5   2  -2  260.87   14.50
  -5   2  -2  243.98   14.20
   5  -2   2  255.87   13.40
  -6   2  -2   99.29    9.30
  -6   2  -2   88.79    9.50
  -6   2  -2   87.59    8.70
   6  -2   2   86.19    8.30
  -7   2  -2  100.99   10.90
  -7   2  -2   71.19    8.70
   7  -2   2   80.59    8.70
  -8   2  -2   35.80    6.80
  -8   2  -2   26.70    8.10
   8  -2   2   31.50    6.10
  -9   2  -2    1.10    3.80
   9  -2   2    3.60    3.30
   9   1  -2   27.70    5.60
  -9  -1   2   24.80    4.70
   8   1  -2   52.39    7.70
  -8  -1   2   48.50    7.20
  -8  -1   2   28.30    7.20
   7   1  -2   23.60    5.30
  -7  -1   2   26.90    5.90
  -7  -1   2   22.10    9.20
   6   1  -2    2.50    3.30
  -6  -1   2    6.70    3.90
  -6  -1   2   -1.60    3.90
   5   1  -2  182.68   11.00
  -5  -1   2  153.38   13.80
  -5  -1   2  185.88   11.80
  -5  -1   2  171.18   13.20
  -5  -1   2  173.28   13.60
   4   1  -2  249.78   12.20
   4   1  -2  270.17   13.00
  -4  -1   2  270.57   15.20
  -4  -1   2  270.07   15.40
  -4  -1   2  261.37   15.70
  -4  -1   2  277.57   14.10
   3   1  -2 1127.89   40.80
  -3  -1   2 1151.78   43.40
  -3  -1   2 1120.69   42.90
  -3  -1   2 1132.39   41.80
  -3  -1   2 1180.48   43.40
   2   1  -2 2323.07   78.29
  -2  -1   2 2117.49   77.39
  -2  -1   2 2368.46   78.89
  -2  -1   2 2430.66   78.99
  -2  -1   2 2185.38   78.39
   1   1  -2   95.69    6.00
  -1  -1   2  105.49    5.70
  -1  -1   2  115.89    5.80
  -1  -1   2   96.89    6.00
   0   1  -2 1810.92   63.09
   0  -1   2 1963.00   61.89
   0  -1   2 1853.11   62.89
  -1   1  -2 1821.82   61.59
  -2   1  -2  599.34   21.10
  -2   1  -2  583.94   22.10
  -2   1  -2  580.54   22.00
  -2   1  -2  574.94   21.00
   2  -1   2  552.94   24.20
  -3   1  -2  193.98    9.80
  -3   1  -2  200.48    9.90
  -3   1  -2  198.78    9.60
  -3   1  -2  195.48   10.50
  -3   1  -2  194.38   10.10
   3  -1   2  157.68    9.80
  -4   1  -2  101.89    7.40
  -4   1  -2  118.39    8.10
  -4   1  -2  103.69    8.30
  -4   1  -2   99.89    7.50
  -4   1  -2  102.59    7.80
   4  -1   2  109.79    6.90
  -5   1  -2   83.89    8.20
  -5   1  -2   82.49    7.50
  -5   1  -2   78.59    7.60
  -5   1  -2   69.39    7.40
   5  -1   2   72.09    6.50
  -6   1  -2   22.10    5.60
  -6   1  -2   34.10    6.90
   6  -1   2   29.70    5.30
  -7   1  -2  142.29   12.10
  -7   1  -2  146.99   13.50
   7  -1   2  144.59   11.50
  -8   1  -2   65.29   10.30
  -8   1  -2  103.79   16.20
  -9   1  -2    6.30    4.40
   9  -1   2   17.30    5.00
 -10   1  -2   -1.80    4.80
  10  -1   2    8.10    3.30
   9   0  -2   57.99    6.90
  -9   0   2   48.20    7.40
   8   0  -2   16.90    5.00
  -8   0   2   25.80    5.50
  -8   0   2   32.70    7.40
   7   0  -2   87.99    9.30
  -7   0   2   97.59    9.60
  -7   0   2   98.49   12.00
   6   0  -2   11.10    4.30
  -6   0   2   13.50    5.50
  -6   0   2    7.10    4.20
   5   0  -2   60.79    6.60
  -5   0   2   57.19    8.20
  -5   0   2   50.19   10.00
  -5   0   2   62.89    6.90
  -5   0   2   64.49    9.90
   4   0  -2 8408.46  277.77
  -4   0   2 8161.08  280.97
  -4   0   2 8571.44  281.77
   3   0  -2  142.59    8.20
  -3   0   2  144.69    9.60
  -3   0   2  150.68   10.20
  -3   0   2  155.88    9.80
  -3   0   2  142.29    8.60
   1   0  -2 1196.18   42.30
   1   0  -2 1148.49   42.40
  -1   0   2 1236.28   42.30
  -1   0   2 1256.87   42.30
   0   0  -2  114.29    5.00
   0   0  -2  104.49    5.40
   0   0  -2  109.99    5.30
   0   0   2  113.19    5.00
   0   0   2  110.99    5.50
  -1   0  -2  598.44   21.10
  -1   0  -2  587.24   21.80
  -1   0  -2  564.64   21.00
   1   0   2  689.03   21.30
   2   0   2 3340.77  111.79
  -3   0  -2 2082.09   70.99
  -3   0  -2 2030.70   70.09
  -3   0  -2 2037.90   70.49
  -3   0  -2 2125.19   70.79
  -3   0  -2 1987.10   70.29
   3   0   2 1987.10   68.99
  -4   0  -2  655.43   25.80
  -4   0  -2  676.53   26.60
  -4   0  -2  626.64   27.40
  -4   0  -2  705.53   28.10
   4   0   2  683.33   25.70
  -5   0  -2   22.60    3.70
  -5   0  -2   32.10    5.20
  -5   0  -2   30.50    6.00
  -5   0  -2   32.20    5.10
   5   0   2   33.00    4.80
  -6   0  -2   -1.50    2.50
  -6   0  -2    6.60    3.20
  -6   0  -2   -1.20    2.70
   6   0   2    4.30    3.20
  -7   0  -2  412.06   23.00
  -7   0  -2  409.76   24.10
   7   0   2  388.16   20.60
  -8   0  -2   29.10    6.50
  -8   0  -2   42.10    9.00
   8   0   2   33.80    6.60
  -9   0  -2  137.09   11.90
   9   0   2  133.79   11.30
 -10   0  -2  103.19    9.10
  10   0   2  102.99    9.30
   9  -1  -2   38.40    5.90
  -9   1   2   53.69    7.00
   8  -1  -2    8.50    4.20
  -8   1   2    1.90    3.10
  -8   1   2   -3.60    4.60
   7  -1  -2  180.48   13.40
  -7   1   2  191.08   12.90
  -7   1   2  179.98   14.40
  -7   1   2  174.38   15.60
   6  -1  -2 4494.15  155.78
  -6   1   2 4568.74  160.98
   5  -1  -2   93.99    8.30
  -5   1   2  102.69   10.30
  -5   1   2   93.09    8.30
   3  -1  -2  314.37   14.30
  -3   1   2  317.07   16.30
  -3   1   2  334.27   16.40
  -3   1   2  313.77   14.80
   2  -1  -2  925.11   34.60
   2  -1  -2 1001.00   36.70
  -2   1   2  967.30   36.50
  -2   1   2  997.50   36.30
   1  -1  -2 2140.09   73.79
   1  -1  -2 2149.08   73.99
   1  -1  -2 2094.89   72.79
  -1   1   2 2246.78   73.79
  -1   1   2 2228.78   74.29
  -1  -1  -2 1605.14   55.59
  -1  -1  -2 1665.43   56.49
  -1  -1  -2 1717.73   56.09
   1   1   2 1686.63   56.49
  -3  -1  -2   12.90    2.70
  -3  -1  -2    9.90    1.70
  -3  -1  -2   12.80    2.90
  -3  -1  -2   15.10    3.20
   3   1   2   11.90    2.70
   3   1   2   13.80    2.30
  -4  -1  -2 1458.45   51.29
  -4  -1  -2 1311.67   48.00
  -4  -1  -2 1469.25   51.59
  -4  -1  -2 1287.07   46.30
   4   1   2 1341.87   48.40
  -5  -1  -2 1539.75   54.89
  -5  -1  -2 1341.67   53.49
  -5  -1  -2 1314.07   54.19
  -5  -1  -2 1398.26   50.49
   5   1   2 1455.65   51.29
  -6  -1  -2   -2.90    2.70
  -6  -1  -2   -1.30    2.90
   6   1   2    3.60    3.00
  -7  -1  -2  186.88   15.10
  -7  -1  -2  188.38   14.50
  -7  -1  -2  162.48   11.20
   7   1   2  192.48   13.00
  -8  -1  -2   -8.80    3.40
  -8  -1  -2   -4.60    3.10
   8   1   2    6.90    4.00
  -9  -1  -2   50.39    8.80
   9   1   2   67.69    8.50
  10   1   2  130.09   10.60
   9  -2  -2   74.19    7.70
   8  -2  -2  239.08   15.20
  -8   2   2  241.18   15.10
   7  -2  -2  269.37   16.30
  -7   2   2  284.67   18.40
  -7   2   2  248.18   15.10
   6  -2  -2 3256.57  110.49
  -6   2   2 2937.91  113.89
  -6   2   2 3143.99  112.89
  -6   2   2 3105.29  109.79
   5  -2  -2  519.55   23.60
  -5   2   2  499.75   23.40
  -5   2   2  513.75   26.10
   4  -2  -2  780.02   31.00
  -4   2   2  742.93   33.70
  -4   2   2  743.33   34.00
  -4   2   2  827.22   33.90
  -4   2   2  792.82   31.60
   3  -2  -2  384.96   18.90
   3  -2  -2  358.06   16.40
  -3   2   2  389.46   16.00
  -3   2   2  375.66   18.80
  -3   2   2  379.76   17.00
  -3   2   2  382.66   18.40
   2  -2  -2 2362.76   79.59
   2  -2  -2 2301.97   82.29
   2  -2  -2 2287.17   79.99
  -2   2   2 2426.86   82.69
  -2   2   2 2461.55   81.69
  -2   2   2 2304.87   80.59
   1  -2  -2 1063.19   40.80
   1  -2  -2 1137.69   40.10
   1  -2  -2 1199.18   41.90
   1  -2  -2 1126.69   40.30
  -1   2   2 1248.58   41.20
  -1   2   2 1202.08   42.20
   0  -2  -2   22.50    2.00
   0  -2  -2   28.00    2.80
   0  -2  -2   25.20    3.10
   0   2   2   24.20    2.10
   0   2   2   22.40    3.10
   0   2   2   21.20    2.80
  -1  -2  -2   73.09    3.80
  -1  -2  -2   68.19    4.90
  -1  -2  -2   62.99    4.10
   1   2   2   73.89    5.10
  -3  -2  -2  457.25   17.80
  -3  -2  -2  481.45   19.50
  -3  -2  -2  498.15   20.50
  -3  -2  -2  468.15   18.30
   3   2   2  459.05   18.40
   3   2   2  501.85   20.20
  -4  -2  -2  292.57   12.30
  -4  -2  -2  302.87   15.00
  -4  -2  -2  284.27   13.00
  -4  -2  -2  299.67   15.60
   4   2   2  290.27   13.30
   4   2   2  298.87   15.00
  -5  -2  -2   11.90    2.30
  -5  -2  -2    9.30    2.90
  -5  -2  -2    6.80    3.10
  -5  -2  -2    5.90    3.10
   5   2   2   10.20    3.30
  -6  -2  -2   10.10    3.20
  -6  -2  -2    0.30    2.60
   6   2   2   -2.40    2.20
  -7  -2  -2   55.79    6.80
  -7  -2  -2   52.39    9.20
   7   2   2   57.39    7.60
  -8  -2  -2   40.20    8.10
  -8  -2  -2   42.40    6.80
  -8  -2  -2   38.50    8.60
   8   2   2   41.00    7.20
  -9  -2  -2   88.69   13.10
  -9  -2  -2   91.99   10.50
   9   2   2  111.89   10.90
 -10  -2  -2  138.19   14.70
   8  -3  -2   80.19    8.70
  -8   3   2   90.79   12.80
   7  -3  -2   85.99    8.80
  -7   3   2   89.09    8.90
   6  -3  -2  193.18   13.30
  -6   3   2  180.28   14.00
  -6   3   2  191.28   12.50
  -6   3   2  166.68   14.90
   5  -3  -2  182.58   12.40
  -5   3   2  206.18   13.40
  -5   3   2  171.48   11.90
  -5   3   2  196.18   14.30
   4  -3  -2  696.63   28.70
  -4   3   2  693.83   30.80
  -4   3   2  713.53   28.10
  -4   3   2  665.33   28.60
   3  -3  -2 1684.13   59.89
   3  -3  -2 1674.53   58.49
   3  -3  -2 1602.24   62.69
  -3   3   2 1747.73   59.59
  -3   3   2 1651.33   60.29
  -3   3   2 1755.92   62.09
  -3   3   2 1713.23   63.59
   2  -3  -2 3075.49  104.09
   2  -3  -2 3159.68  106.69
   2  -3  -2 3037.30  103.29
  -2   3   2 3083.29  107.09
  -2   3   2 3000.60  104.49
  -2   3   2 3143.79  105.39
  -2   3   2 3063.49  104.99
   1  -3  -2  745.73   27.90
   1  -3  -2  765.12   27.50
   1  -3  -2  744.83   29.40
   1  -3  -2  749.62   27.60
  -1   3   2  727.83   28.10
  -1   3   2  782.62   30.20
  -1   3   2  828.92   28.40
  -1  -3  -2 2498.15   82.79
  -1  -3  -2 2408.66   81.09
  -1  -3  -2 2244.68   79.39
   1   3   2 2500.15   82.89
  -3  -3  -2  771.72   29.60
  -3  -3  -2  869.71   32.60
   3   3   2  821.82   29.90
   3   3   2  790.62   31.70
  -4  -3  -2 1900.31   63.69
  -4  -3  -2 1776.92   63.99
  -4  -3  -2 1650.03   69.29
   4   3   2 1970.80   66.99
   4   3   2 1884.21   64.19
  -5  -3  -2 1186.08   46.80
  -5  -3  -2 1076.69   41.00
  -5  -3  -2 1156.88   44.80
  -5  -3  -2 1102.29   42.10
   5   3   2 1121.49   45.20
   5   3   2 1165.88   42.50
  -6  -3  -2  444.56   23.30
  -6  -3  -2  401.06   18.40
  -6  -3  -2  458.45   20.50
   6   3   2  454.85   20.90
  -7  -3  -2   10.60    5.00
   7   3   2    5.90    3.90
  -8  -3  -2   -4.70    2.90
  -8  -3  -2   -2.10    2.90
  -8  -3  -2   -8.50    3.30
   8   3   2    2.80    3.70
  -9  -3  -2   -2.10    3.30
  -9  -3  -2    6.70    4.50
  -9  -3  -2   -3.80    5.10
   9   3   2    4.60    3.90
 -10  -3  -2   63.59    8.30
   8  -4  -2   52.79    7.00
   7  -4  -2    7.10    3.80
   5  -4  -2   51.89    7.60
  -5   4   2   62.39    8.90
  -5   4   2   52.79    7.10
  -5   4   2   59.19    6.60
   4  -4  -2  153.08   10.50
  -4   4   2  143.19    9.90
  -4   4   2  147.99    9.70
  -4   4   2  153.38    9.90
  -4   4   2  146.39   11.30
   3  -4  -2   10.90    2.50
   3  -4  -2    9.70    3.30
   3  -4  -2    1.70    2.80
  -3   4   2    9.50    2.80
  -3   4   2    8.30    2.50
  -3   4   2   12.30    3.20
  -3   4   2   10.60    3.60
   2  -4  -2  422.36   23.20
   2  -4  -2  461.75   18.60
   2  -4  -2  428.56   17.40
  -2   4   2  423.96   18.50
  -2   4   2  431.96   16.90
  -2   4   2  448.26   18.90
  -2   4   2  405.66   20.90
  -2   4   2  437.56   18.20
   1  -4  -2 3211.78  106.09
   1  -4  -2 3057.99  103.39
   1  -4  -2 3105.69  103.59
  -1   4   2 3191.58  107.09
  -1   4   2 2988.70  100.69
  -1   4   2 2986.30  103.99
  -1   4   2 2924.01  103.59
  -1   4   2 3159.08  103.59
   0  -4  -2   14.40    2.90
   0  -4  -2   18.80    2.90
   0  -4  -2   15.90    2.50
   0   4   2   18.50    2.90
   0   4   2   14.30    2.10
   0   4   2   16.40    2.70
   0   4   2   14.90    3.30
  -1  -4  -2 6121.99  193.78
   1   4   2 5681.53  191.58
   1   4   2 5563.34  191.18
  -2  -4  -2  650.03   24.30
  -2  -4  -2  691.23   25.00
  -2  -4  -2  650.83   23.40
  -2  -4  -2  681.03   26.90
   2   4   2  607.54   23.80
   2   4   2  654.33   26.50
   2   4   2  619.74   25.10
  -3  -4  -2 1747.53   65.59
  -3  -4  -2 1789.02   62.79
  -3  -4  -2 1785.72   62.59
   3   4   2 1841.02   62.89
   3   4   2 1872.41   65.49
  -4  -4  -2 1156.38   43.10
  -4  -4  -2 1188.28   47.00
  -4  -4  -2 1222.68   43.30
   4   4   2 1137.89   45.70
   4   4   2 1215.08   43.40
  -5  -4  -2  144.29    9.30
  -5  -4  -2  140.59    9.00
  -5  -4  -2  153.08   12.50
   5   4   2  149.59    9.50
   5   4   2  144.79   11.10
  -6  -4  -2  252.07   15.80
  -6  -4  -2  228.18   13.40
  -6  -4  -2  227.18   14.10
   6   4   2  232.18   13.70
  -7  -4  -2  439.16   20.60
  -7  -4  -2  451.95   25.60
  -7  -4  -2  488.85   22.70
   7   4   2  468.05   22.90
  -8  -4  -2  101.19    9.40
  -8  -4  -2   87.69   11.00
   8   4   2   91.09    9.40
  -9  -4  -2   34.90    7.10
  -9  -4  -2   33.90    8.60
  -9  -4  -2   20.20    4.30
   9   4   2   26.60    5.90
 -10  -4  -2   90.59   10.60
   8  -5  -2    2.20    2.90
   7  -5  -2    8.60    3.80
   6  -5  -2   65.39    8.10
   5  -5  -2   33.20    6.50
  -5   5   2   38.00    6.20
   4  -5  -2  171.98   11.70
  -4   5   2  190.78   11.60
  -4   5   2  157.38   11.70
   3  -5  -2  263.17   13.90
   3  -5  -2  247.08   11.70
  -3   5   2  260.17   13.70
  -3   5   2  235.38   13.00
  -3   5   2  252.97   13.60
   2  -5  -2  580.04   23.20
   2  -5  -2  574.64   25.90
   2  -5  -2  527.95   21.70
  -2   5   2  547.55   23.10
  -2   5   2  566.74   22.90
  -2   5   2  544.45   22.20
  -2   5   2  552.44   26.60
   1  -5  -2   40.20    5.00
   1  -5  -2   40.30    4.30
   1  -5  -2   34.50    4.00
  -1   5   2   46.50    4.50
  -1   5   2   41.00    3.30
  -1   5   2   36.20    5.40
  -1   5   2   34.10    4.20
   0  -5  -2  991.70   35.70
   0  -5  -2  989.10   38.20
   0  -5  -2 1027.10   36.30
   0   5   2  989.30   39.00
   0   5   2  954.10   35.90
   0   5   2  964.50   33.10
   0   5   2  996.30   36.40
  -1  -5  -2 2201.88   74.49
  -1  -5  -2 2072.59   77.09
  -1  -5  -2 2286.07   75.49
   1   5   2 2230.58   71.99
   1   5   2 2160.18   75.39
   1   5   2 2201.68   77.79
   1   5   2 2150.18   74.59
   1   5   2 2137.49   71.99
  -2  -5  -2 3672.53  124.89
  -2  -5  -2 3754.42  130.29
  -2  -5  -2 3831.12  127.09
  -2  -5  -2 3896.61  127.99
   2   5   2 3757.42  127.09
   2   5   2 3684.03  129.89
   2   5   2 3913.51  128.49
  -3  -5  -2 1612.44   56.09
  -3  -5  -2 1542.65   58.89
  -3  -5  -2 1590.14   55.39
  -3  -5  -2 1546.65   54.59
   3   5   2 1513.65   58.29
   3   5   2 1582.74   55.39
  -4  -5  -2 3269.97  110.99
  -4  -5  -2 3093.09  105.89
  -4  -5  -2 3177.08  106.29
   4   5   2 2844.32  108.49
   4   5   2 3060.69  106.99
  -5  -5  -2  481.85   22.20
  -5  -5  -2  464.05   25.70
  -5  -5  -2  465.05   21.00
  -5  -5  -2  486.65   21.30
   5   5   2  446.66   23.60
  -6  -5  -2    9.10    3.60
  -6  -5  -2   13.20    4.20
  -6  -5  -2    9.20    3.20
   6   5   2   12.10    3.80
  -7  -5  -2   14.80    4.10
  -7  -5  -2   19.50    5.70
  -7  -5  -2   15.00    4.40
   7   5   2   10.90    4.50
  -8  -5  -2  265.87   16.00
  -8  -5  -2  242.48   18.20
   8   5   2  244.18   15.70
  -9  -5  -2   30.50    6.30
  -9  -5  -2   26.60    6.50
 -10  -5  -2   50.79    7.00
 -10  -5  -2   70.99    8.50
  10   5   2   75.69    7.90
   7  -6  -2    6.20    3.70
   6  -6  -2    3.70    2.90
   5  -6  -2   39.90    6.90
  -5   6   2   43.90    6.10
   4  -6  -2   39.10    6.70
  -4   6   2   35.50    6.10
   3  -6  -2   59.19    7.00
   3  -6  -2   59.39    5.90
  -3   6   2   60.79    7.10
   2  -6  -2  439.76   19.20
   2  -6  -2  488.85   21.00
  -2   6   2  467.95   21.10
   1  -6  -2 1670.83   58.19
   1  -6  -2 1627.24   61.99
   1  -6  -2 1672.93   58.39
  -1   6   2 1637.24   59.19
  -1   6   2 1638.14   65.39
  -1   6   2 1590.54   57.99
   0  -6  -2 1813.32   60.69
   0  -6  -2 1742.33   59.89
   0  -6  -2 1633.04   62.89
   0   6   2 1652.93   59.79
   0   6   2 1692.23   63.99
   0   6   2 1679.23   60.89
  -1  -6  -2  166.88    9.70
  -1  -6  -2  158.78    8.90
  -1  -6  -2  167.98   11.00
   1   6   2  161.88   13.80
   1   6   2  152.88   11.20
   1   6   2  151.68    8.80
  -2  -6  -2   64.09    6.90
  -2  -6  -2   74.19    5.70
  -2  -6  -2   73.19    6.50
   2   6   2   71.69    7.10
   2   6   2   66.79    5.50
   2   6   2   67.39    6.60
   2   6   2   59.49    3.10
  -3  -6  -2    2.50    1.40
  -3  -6  -2    7.00    2.70
  -3  -6  -2    6.90    3.10
   3   6   2    7.30    2.80
   3   6   2    2.30    2.20
   3   6   2    5.30    3.10
  -4  -6  -2    6.60    2.30
  -4  -6  -2    1.50    2.50
  -4  -6  -2    3.10    3.40
  -4  -6  -2    3.90    2.40
   4   6   2    5.30    2.50
   4   6   2    6.80    3.80
   4   6   2    1.60    2.60
  -5  -6  -2    9.40    3.20
  -5  -6  -2    0.80    2.30
  -5  -6  -2    2.10    2.60
   5   6   2    1.50    2.40
  -6  -6  -2  605.74   29.00
  -6  -6  -2  663.33   28.50
  -6  -6  -2  636.24   28.30
   6   6   2  626.74   27.90
  -7  -6  -2   49.00    7.70
  -7  -6  -2   49.80    8.40
  -7  -6  -2   40.70    7.00
   7   6   2   38.00    6.60
  -8  -6  -2    7.70    4.20
  -8  -6  -2    4.70    3.30
  -8  -6  -2    1.50    3.60
  -8  -6  -2    7.30    3.60
   8   6   2    0.10    3.20
  -9  -6  -2   42.50    7.50
  -9  -6  -2   45.70    6.80
   9   6   2   36.80    6.60
 -10  -6  -2   16.30    4.80
 -10  -6  -2    7.40    3.70
  10   6   2   12.40    4.80
  10   6   2    7.00    4.70
   6  -7  -2    4.50    3.20
   5  -7  -2  347.27   18.70
  -5   7   2  328.97   17.50
   4  -7  -2   83.79    8.60
  -4   7   2   73.99    8.00
   3  -7  -2   33.10    6.20
  -3   7   2   33.70    6.20
   2  -7  -2  798.82   32.10
   2  -7  -2  889.61   34.60
  -2   7   2  836.82   35.40
   1  -7  -2  342.17   16.20
   1  -7  -2  347.47   16.70
  -1   7   2  338.77   17.30
   0  -7  -2   40.90    5.00
   0  -7  -2   37.10    5.20
   0   7   2   37.20    6.00
  -1  -7  -2   16.60    4.00
  -1  -7  -2   11.50    3.20
   1   7   2   11.40    3.70
   1   7   2   12.50    3.60
  -2  -7  -2   45.40    5.10
  -2  -7  -2   37.10    5.30
   2   7   2   29.00    4.50
   2   7   2   51.49    6.20
  -3  -7  -2   31.50    2.80
  -3  -7  -2   33.20    5.10
  -3  -7  -2   32.50    5.60
   3   7   2   47.70    6.50
   3   7   2   28.30    4.50
  -4  -7  -2    1.40    2.20
  -4  -7  -2    3.70    2.70
  -4  -7  -2   -1.30    1.80
  -4  -7  -2    2.00    3.00
   4   7   2    7.50    3.10
   4   7   2    0.50    3.10
  -5  -7  -2  171.38   11.40
  -5  -7  -2  191.98   12.80
  -5  -7  -2  191.68   12.50
   5   7   2  195.98   14.30
   5   7   2  178.38   11.60
  -6  -7  -2   25.20    5.40
  -6  -7  -2   40.00    7.00
  -6  -7  -2   35.30    6.60
   6   7   2   41.60    6.50
   6   7   2   33.60    7.20
  -7  -7  -2  121.79   10.20
  -7  -7  -2  116.89   10.50
  -7  -7  -2  113.09   11.30
   7   7   2  120.39   12.40
   7   7   2  112.19    9.90
  -8  -7  -2  105.69   13.60
  -8  -7  -2  113.39   10.40
  -8  -7  -2  120.59   10.70
  -8  -7  -2  131.29   11.20
   8   7   2  114.59   10.30
   8   7   2  135.79   13.00
  -9  -7  -2  164.28   11.60
  -9  -7  -2  175.28   12.40
   9   7   2  156.18   13.80
 -10  -7  -2    4.10    3.40
 -10  -7  -2    7.80    4.10
  10   7   2    6.00    4.10
   6  -8  -2   20.30    4.50
   5  -8  -2   25.50    5.30
   4  -8  -2   42.30    6.70
  -4   8   2   39.00    5.90
   3  -8  -2  253.37   15.40
  -3   8   2  264.77   15.40
   2  -8  -2  174.48   11.90
   2  -8  -2  152.68   10.60
  -2   8   2  164.48   11.90
   1  -8  -2  174.28   11.40
   1  -8  -2  165.98   10.50
  -1   8   2  173.68   12.10
   0  -8  -2  615.64   26.20
   0  -8  -2  607.84   26.30
  -1  -8  -2  211.28   13.00
  -1  -8  -2  198.38   12.10
   1   8   2  240.58   14.10
  -2  -8  -2  319.37   15.90
  -2  -8  -2  291.07   16.60
   2   8   2  311.57   17.50
  -3  -8  -2   15.80    4.80
  -3  -8  -2   19.40    4.90
   3   8   2   19.20    6.10
  -4  -8  -2  449.46   20.90
  -4  -8  -2  416.16   21.90
   4   8   2  425.36   23.30
  -5  -8  -2   82.79    9.20
  -5  -8  -2   65.69    7.80
   5   8   2   98.79   10.60
  -6  -8  -2   -0.20    3.30
  -6  -8  -2   -1.20    2.70
  -6  -8  -2    8.40    4.30
  -6  -8  -2    1.70    3.70
   6   8   2    0.70    3.90
   6   8   2    5.00    4.20
  -7  -8  -2 1268.17   49.99
  -7  -8  -2 1147.19   50.79
  -7  -8  -2 1401.56   51.99
  -7  -8  -2 1279.57   51.69
   7   8   2 1335.77   55.19
  -8  -8  -2    2.30    3.80
  -8  -8  -2    1.50    3.40
  -8  -8  -2    3.60    3.40
   8   8   2   11.30    5.90
  -9  -8  -2   35.20    5.80
   9   8   2   53.99    8.80
   5  -9  -2   29.90    5.50
   4  -9  -2   -4.20    2.90
  -4   9   2    0.60    3.50
   3  -9  -2    8.00    3.90
  -3   9   2    3.00    3.30
   2  -9  -2   58.09    7.10
  -2   9   2   39.20    6.80
   1  -9  -2  238.18   14.00
   1  -9  -2  288.57   15.80
  -1   9   2  278.07   16.40
   0  -9  -2  288.87   17.00
   0  -9  -2  307.07   16.30
   0   9   2  293.97   17.40
  -1  -9  -2  559.94   26.10
  -1  -9  -2  571.54   25.30
   1   9   2  581.64   27.50
  -2  -9  -2  896.71   36.00
  -2  -9  -2  863.21   37.30
   2   9   2  910.51   39.00
  -3  -9  -2 1071.19   42.50
   3   9   2 1076.39   45.60
  -4  -9  -2  320.87   18.90
  -4  -9  -2  318.67   17.50
   4   9   2  341.17   20.50
  -5  -9  -2  696.23   32.60
  -5  -9  -2  707.73   31.10
   5   9   2  687.33   33.90
  -6  -9  -2  611.14   29.00
  -6  -9  -2  567.64   27.50
   6   9   2  589.84   30.80
  -7  -9  -2  892.61   37.40
   7   9   2  847.22   40.40
  -8  -9  -2   76.79    8.10
  -8  -9  -2   60.79    8.40
   8   9   2   88.59   10.20
  -9  -9  -2    4.90    3.50
   9   9   2    0.50    3.80
   4 -10  -2    2.10    2.70
   3 -10  -2    2.00    3.20
  -3  10   2    2.30    3.40
   2 -10  -2   -2.20    2.90
  -2  10   2    2.40    2.70
   1 -10  -2    3.50    3.40
  -1  10   2    2.00    3.50
   0 -10  -2   23.50    5.10
   0 -10  -2   32.70    5.50
   0  10   2   27.40    6.00
  -1 -10  -2 1006.90   42.60
  -1 -10  -2 1125.99   43.00
   1  10   2 1068.69   44.90
  -2 -10  -2  358.06   18.30
  -2 -10  -2  338.17   18.90
   2  10   2  342.17   20.40
  -3 -10  -2    2.20    3.10
  -3 -10  -2    2.70    3.40
   3  10   2    7.90    4.70
  -4 -10  -2  623.64   30.00
  -4 -10  -2  647.84   28.60
   4  10   2  623.04   31.40
  -5 -10  -2  898.41   39.20
  -5 -10  -2  879.51   37.70
   5  10   2  873.71   41.00
  -6 -10  -2   10.00    5.10
  -6 -10  -2    6.80    3.90
   6  10   2    8.80    4.90
  -7 -10  -2  117.69   10.90
  -7 -10  -2  122.09   10.40
   7  10   2  112.39   12.00
  -8 -10  -2   84.69    8.40
   8  10   2   85.89   10.40
   3 -11  -2    5.20    4.20
   2 -11  -2    2.70    3.10
  -2  11   2   -2.10    3.20
   1 -11  -2   48.40    6.60
  -1  11   2   43.90    7.60
   0 -11  -2  169.38   11.50
   0  11   2  160.08   12.00
  -1 -11  -2    7.00    3.80
  -1 -11  -2   13.10    4.60
   1  11   2    8.30    4.20
  -2 -11  -2  242.88   20.20
  -2 -11  -2  261.47   15.10
   2  11   2  250.17   16.80
  -3 -11  -2   38.00    6.20
  -3 -11  -2   33.20    9.10
   3  11   2   42.80    8.30
  -4 -11  -2   12.60    5.00
  -4 -11  -2    2.30    3.00
   4  11   2    3.20    4.00
  -5 -11  -2  111.69   11.00
  -5 -11  -2  105.39    9.50
   5  11   2  115.69   12.10
  -6 -11  -2  192.98   13.10
  -6 -11  -2  194.48   13.80
   6  11   2  206.38   15.40
  -7 -11  -2  121.59    9.90
  -7 -11  -2  116.79   10.70
   7  11   2  120.49   11.50
  -8 -11  -2  115.39    8.70
   8  11   2   98.09    9.70
   1 -12  -2   34.60    5.40
   0 -12  -2    5.40    3.30
   0  12   2    6.90    3.80
  -1 -12  -2   59.59    7.50
   1  12   2   54.69    7.40
  -2 -12  -2  338.37   17.20
  -2 -12  -2  309.77   17.40
   2  12   2  374.46   22.70
  -3 -12  -2   55.79    8.90
  -3 -12  -2   74.89    7.50
   3  12   2   87.29    9.50
  -4 -12  -2   -0.80    4.30
  -4 -12  -2    5.40    3.50
   4  12   2    3.90    6.10
  -5 -12  -2    9.60    3.60
  -5 -12  -2    9.00    4.20
   5  12   2    6.50    4.20
  -6 -12  -2    6.90    3.20
   6  12   2    1.80    4.00
  -2 -13  -2    3.50    4.90
  -3 -13  -2   45.80    6.00
   3  13   2   42.00    7.20
  -4 -13  -2   10.90    3.70
   4  13   2    8.40    4.60
   4  11  -3  154.68   12.00
   3  11  -3   36.50    7.40
   2  11  -3   12.80    4.90
   1  11  -3  208.98   14.70
   0  11  -3   30.90    5.80
  -1  11  -3   58.89    7.60
   6  10  -3   33.50    6.10
   5  10  -3   54.69    8.60
  -5 -10   3   42.50    5.60
  -5 -10   3   42.60    7.00
   4  10  -3   -2.60    3.30
  -4 -10   3    3.30    2.90
   3  10  -3   35.30    7.50
  -3 -10   3   20.20    5.50
  -3 -10   3   31.30    6.30
   2  10  -3  230.28   17.20
  -2 -10   3  217.88   14.30
  -2 -10   3  225.18   12.10
   1  10  -3  146.49   13.20
  -1 -10   3  127.39   10.80
   0  10  -3    8.40    5.30
  -1  10  -3   80.89    9.30
  -2  10  -3   -2.80    3.30
  -3  10  -3   28.90    5.30
   7   9  -3    2.80    3.90
  -7  -9   3    2.20    2.90
   6   9  -3   27.00    6.90
  -6  -9   3   28.70    5.10
  -6  -9   3   35.00    7.30
   5   9  -3    8.40    5.60
   5   9  -3   16.10    5.80
  -5  -9   3   11.50    5.00
  -5  -9   3   18.30    4.20
   4   9  -3   17.10    5.90
   4   9  -3   23.70    6.80
  -4  -9   3   31.60    6.30
  -4  -9   3   34.40    5.30
   3   9  -3   45.90    9.00
   3   9  -3   48.20    9.30
  -3  -9   3   47.40    7.90
  -3  -9   3   51.49    5.80
   2   9  -3   91.09   11.30
   2   9  -3   72.79   10.30
  -2  -9   3   62.19    6.90
  -2  -9   3   77.29    8.40
   1   9  -3  293.27   21.80
   1   9  -3  308.17   20.30
  -1  -9   3  267.47   16.30
   0   9  -3  115.59   11.70
   0  -9   3   88.29    9.00
   0  -9   3   93.79    6.90
  -1   9  -3  169.68   14.40
  -2   9  -3    7.80    4.30
  -3   9  -3  176.38   13.30
  -4   9  -3   13.00    3.90
  -8  -8   3    5.40    2.90
   7   8  -3   61.29    8.40
  -7  -8   3   64.49    8.20
  -7  -8   3   59.69    9.10
   6   8  -3  131.39   12.20
  -6  -8   3  150.28   12.00
  -6  -8   3  134.39   10.60
   5   8  -3   33.50    8.30
   5   8  -3   49.99    9.30
  -5  -8   3   60.79    6.70
  -5  -8   3   66.39    8.70
   4   8  -3  108.39   12.00
   4   8  -3   87.29   11.00
  -4  -8   3   86.09    8.00
  -4  -8   3   88.19    9.70
   3   8  -3 1281.77   53.89
   3   8  -3 1266.27   54.19
  -3  -8   3 1246.88   47.40
  -3  -8   3 1220.08   50.89
   2   8  -3   84.79   10.80
   2   8  -3   91.89   11.20
  -2  -8   3  112.29    9.80
  -2  -8   3  102.69    7.80
   1   8  -3  454.55   25.40
   1   8  -3  470.45   25.50
  -1  -8   3  409.56   18.70
  -1  -8   3  447.06   22.00
   0   8  -3   14.70    5.50
   0   8  -3   19.00    5.90
   0  -8   3    8.30    3.20
   0  -8   3   12.60    2.80
  -1   8  -3   53.79    8.70
  -1   8  -3   69.59    9.40
   1  -8   3   56.49    5.40
  -2   8  -3    2.60    3.90
   2  -8   3   -2.20    2.40
  -3   8  -3  429.56   23.50
  -4   8  -3   -1.80    3.10
  -5   8  -3    3.90    3.50
   8   7  -3  126.69   10.80
  -8  -7   3  141.19   10.50
   7   7  -3   75.39    9.20
  -7  -7   3   72.99    8.70
  -7  -7   3   75.09    8.50
   6   7  -3   74.79    9.60
   6   7  -3   50.49    8.50
  -6  -7   3   66.49    7.90
  -6  -7   3   58.59    9.00
   5   7  -3 1154.08   49.50
   5   7  -3 1118.79   48.90
  -5  -7   3 1128.49   47.90
  -5  -7   3 1121.49   45.40
   4   7  -3    2.60    3.80
   4   7  -3   12.30    5.50
  -4  -7   3    3.40    2.70
  -4  -7   3    1.90    3.50
   3   7  -3 3083.59  112.19
   3   7  -3 3042.20  111.39
  -3  -7   3 3000.70  105.69
   2   7  -3 1212.18   49.90
   2   7  -3 1170.68   49.90
  -2  -7   3 1149.98   47.10
   1   7  -3  151.58   12.90
   1   7  -3  175.68   13.90
  -1  -7   3  163.28   11.30
  -1  -7   3  155.88    9.10
   0   7  -3   44.40    7.80
   0   7  -3   41.00    7.60
   0  -7   3   55.09    4.60
   0  -7   3   53.09    5.80
  -1   7  -3  130.59   11.50
  -1   7  -3  125.99   10.90
   1  -7   3  110.69    6.90
   1  -7   3  113.69    8.20
  -2   7  -3    2.40    3.80
   2  -7   3    1.60    2.00
  -3   7  -3   93.19   10.30
   3  -7   3  110.99    7.70
  -4   7  -3   36.50    7.30
   4  -7   3   53.69    5.70
  -5   7  -3   -0.30    2.90
   5  -7   3    0.10    2.90
  -6   7  -3   -0.60    2.60
   6  -7   3    1.10    3.20
   8   6  -3   -3.60    3.50
  -8  -6   3    0.60    4.00
  -8  -6   3   -1.60    2.80
   7   6  -3    6.00    3.60
  -7  -6   3    7.40    4.00
  -7  -6   3    5.50    3.40
   6   6  -3  464.05   25.40
   6   6  -3  449.26   23.90
  -6  -6   3  460.75   23.80
  -6  -6   3  464.55   24.60
   5   6  -3 1180.08   51.69
   5   6  -3 1245.38   51.59
  -5  -6   3 1280.47   49.60
  -5  -6   3 1269.07   60.79
   4   6  -3 6956.80  237.58
   4   6  -3 7184.48  237.98
  -4  -6   3 6363.26  232.48
  -4  -6   3 7241.78  233.88
   3   6  -3 2360.86   83.39
   3   6  -3 2208.08   86.19
  -3  -6   3 1925.61   79.09
  -3  -6   3 2313.77   78.19
   2   6  -3    2.90    3.70
   2   6  -3    6.10    3.80
  -2  -6   3    7.50    2.70
   1   6  -3  703.83   30.80
   1   6  -3  609.74   25.90
   1   6  -3  666.33   30.60
  -1  -6   3  666.13   25.50
  -1  -6   3  669.93   28.50
   0   6  -3   35.00    6.50
   0   6  -3   41.30    7.10
   0   6  -3   44.90    4.70
   0  -6   3   40.80    5.10
   0  -6   3   43.30    3.70
  -1   6  -3   90.89    9.10
  -1   6  -3   88.59    8.70
   1  -6   3   77.49    5.20
   1  -6   3   85.59    6.60
  -2   6  -3  507.65   24.90
  -2   6  -3  505.25   23.60
   2  -6   3  476.45   19.60
  -3   6  -3  241.88   15.80
   3  -6   3  235.18   12.30
  -4   6  -3  114.49   10.90
   4  -6   3  111.99    8.10
  -5   6  -3    6.80    4.00
  -6   6  -3    9.10    4.10
   6  -6   3    1.20    2.80
   7  -6   3   28.30    4.80
  -9  -5   3   37.60    6.10
   8   5  -3   10.80    4.60
  -8  -5   3   17.00    6.60
  -8  -5   3    8.60    3.90
   7   5  -3    4.40    4.00
  -7  -5   3    6.00    4.30
  -7  -5   3    7.10    3.40
   6   5  -3 1500.85   58.79
   6   5  -3 1461.05   60.19
  -6  -5   3 1567.34   59.59
   5   5  -3  476.55   25.60
   5   5  -3  509.15   25.20
  -5  -5   3  523.55   24.70
  -5  -5   3  483.35   25.00
   4   5  -3  147.89   11.90
   4   5  -3  149.39   12.40
  -4  -5   3  157.48   10.80
  -4  -5   3  144.59   10.70
   3   5  -3  458.65   23.30
   3   5  -3  482.35   23.90
  -3  -5   3  466.65   21.10
  -3  -5   3  484.75   21.00
   2   5  -3  496.65   21.40
   2   5  -3  526.35   24.30
   2   5  -3  513.75   24.50
  -2  -5   3  508.65   20.50
  -2  -5   3  511.45   21.60
  -2  -5   3  473.75   20.50
   1   5  -3 2891.11  103.59
   1   5  -3 3076.59  103.59
   1   5  -3 2826.12   99.79
  -1  -5   3 2986.70   98.89
  -1  -5   3 2864.31   97.29
   0   5  -3    5.30    2.50
   0   5  -3    2.90    2.90
   0   5  -3    2.10    2.80
  -1   5  -3 1060.29   41.80
  -1   5  -3 1120.99   42.60
  -1   5  -3 1109.49   39.40
  -1   5  -3 1044.00   38.60
   1  -5   3 1069.19   39.20
   1  -5   3 1005.60   36.90
  -2   5  -3  796.72   32.10
  -2   5  -3  817.62   33.20
  -2   5  -3  730.33   29.50
   2  -5   3  775.72   28.30
   2  -5   3  763.52   28.20
  -3   5  -3   12.20    2.90
  -3   5  -3   -2.30    3.00
  -3   5  -3   17.20    5.30
  -3   5  -3    5.10    2.80
   3  -5   3    4.90    2.40
  -5   5  -3  175.18   13.00
   5  -5   3  153.98   10.30
  -6   5  -3    0.10    3.10
   6  -5   3    2.30    2.80
   9   4  -3   -1.20    4.80
  -9  -4   3    8.00    3.20
   8   4  -3    1.00    3.10
  -8  -4   3   11.80    4.30
  -8  -4   3    0.30    4.80
   7   4  -3   11.80    4.60
  -7  -4   3   19.70    6.00
   6   4  -3    3.00    3.50
   6   4  -3    3.60    3.50
  -6  -4   3    7.50    3.90
  -6  -4   3    3.50    4.50
   5   4  -3 1342.97   52.89
  -5  -4   3 1390.46   60.29
  -5  -4   3 1366.96   53.29
   4   4  -3  354.66   19.10
   4   4  -3  379.36   20.00
  -4  -4   3  355.76   19.10
  -4  -4   3  390.76   18.90
   3   4  -3  290.47   15.80
   3   4  -3  265.57   15.20
  -3  -4   3  287.37   14.10
  -3  -4   3  267.67   15.20
  -3  -4   3  258.97   14.40
   2   4  -3   16.00    3.90
   2   4  -3    9.50    3.30
   2   4  -3   15.40    4.10
  -2  -4   3   10.30    2.80
  -2  -4   3   17.60    3.30
  -2  -4   3    7.10    2.60
   1   4  -3 3442.06  114.79
   1   4  -3 3356.66  117.19
  -1  -4   3 3534.55  113.49
  -1  -4   3 3365.56  113.09
  -1  -4   3 3447.26  113.99
  -1  -4   3 3214.78  113.29
   0   4  -3 2664.33   95.19
   0   4  -3 2675.53   90.49
   0   4  -3 2757.42   98.19
   0  -4   3 2547.65   88.59
   0  -4   3 2667.83   88.99
  -1   4  -3 1045.60   40.10
  -1   4  -3 1055.59   40.50
  -1   4  -3 1078.79   38.60
  -1   4  -3 1034.90   38.00
   1  -4   3 1056.09   36.50
  -2   4  -3 1364.06   47.70
  -2   4  -3 1299.77   47.00
  -2   4  -3 1323.77   49.50
  -2   4  -3 1323.97   48.60
   2  -4   3 1292.37   45.50
   2  -4   3 1317.17   45.30
  -3   4  -3 1268.57   48.60
  -3   4  -3 1274.27   46.20
  -3   4  -3 1243.18   46.60
  -3   4  -3 1267.37   46.20
   3  -4   3 1275.87   44.70
  -4   4  -3 2737.33   97.39
  -4   4  -3 2724.03   96.49
   4  -4   3 2894.71   95.69
  -5   4  -3   26.80    5.40
  -5   4  -3   24.50    6.10
   5  -4   3   20.50    4.70
  -6   4  -3   -2.00    3.00
  -6   4  -3    4.40    3.40
  -6   4  -3    9.00    5.00
   6  -4   3    0.70    2.70
  -7   4  -3    8.30    4.40
  -7   4  -3   -4.00    4.40
   7  -4   3    9.30    3.20
   8  -4   3   21.90    4.50
  -9  -3   3   22.30    4.50
   8   3  -3   50.59    6.90
  -8  -3   3   38.10    6.60
   7   3  -3    2.10    3.80
  -7  -3   3   17.30    5.50
   6   3  -3    3.60    3.30
  -6  -3   3   -0.60    3.90
  -6  -3   3    2.40    3.50
   5   3  -3   32.90    5.60
   5   3  -3   19.80    4.00
  -5  -3   3   19.30    5.20
   4   3  -3  206.48   10.80
   4   3  -3  205.78   12.50
  -4  -3   3  216.48   12.70
  -4  -3   3  209.88   13.60
   3   3  -3 1179.08   48.20
   3   3  -3 1245.08   46.40
  -3  -3   3 1285.87   46.90
  -3  -3   3 1262.07   45.40
  -3  -3   3 1149.98   47.00
   2   3  -3 3785.52  126.69
   2   3  -3 3821.92  127.79
   2   3  -3 3722.93  127.99
  -2  -3   3 3903.81  127.49
  -2  -3   3 3834.32  127.19
  -2  -3   3 3649.03  125.89
  -2  -3   3 3519.75  126.39
   1   3  -3  672.83   27.50
   1   3  -3  646.84   26.90
   1   3  -3  678.93   26.20
  -1  -3   3  723.43   25.60
  -1  -3   3  747.63   26.40
  -1  -3   3  638.74   24.80
  -1  -3   3  687.73   25.00
   0   3  -3  706.73   28.70
   0   3  -3  737.63   28.60
   0   3  -3  745.03   27.40
   0  -3   3  753.12   27.00
  -1   3  -3 4850.51  164.38
  -1   3  -3 5062.69  166.28
  -1   3  -3 4946.71  165.88
  -2   3  -3 6709.63  219.68
  -2   3  -3 6364.46  215.38
  -2   3  -3 6539.95  216.18
   2  -3   3 6422.26  213.68
  -3   3  -3  493.75   20.50
  -3   3  -3  499.15   22.30
  -3   3  -3  487.55   21.90
  -3   3  -3  505.25   21.20
  -3   3  -3  476.05   18.50
   3  -3   3  485.65   18.90
  -4   3  -3  143.69    9.00
  -4   3  -3  150.38   10.20
  -4   3  -3  137.69    9.30
  -4   3  -3  142.99   10.40
   4  -3   3  147.59    8.50
  -5   3  -3  123.79    9.50
  -5   3  -3  122.59   10.10
  -5   3  -3  109.59    9.60
   5  -3   3  132.69    8.80
  -6   3  -3  121.09   10.00
  -6   3  -3   95.49   10.10
  -6   3  -3  103.99   10.20
   6  -3   3  119.89    9.10
  -7   3  -3   21.80    7.30
  -7   3  -3   32.10    6.10
   7  -3   3   36.00    5.70
  -8   3  -3    7.30    4.50
   8  -3   3    3.10    3.10
   9  -3   3   12.40    3.40
  -9  -2   3   10.30    3.90
   8   2  -3    8.50    4.40
  -8  -2   3   20.90    5.00
   7   2  -3   70.69    7.50
  -7  -2   3   68.09    8.60
   6   2  -3   41.00    6.40
  -6  -2   3   41.70    8.10
  -6  -2   3   46.50    7.80
   5   2  -3   77.69    7.30
   5   2  -3   70.79    6.70
  -5  -2   3   96.89    8.80
  -5  -2   3   73.09    8.90
   4   2  -3    2.60    2.40
  -4  -2   3   12.30    4.30
  -4  -2   3   11.30    3.60
  -4  -2   3   11.40    3.60
   3   2  -3  118.79    7.30
   3   2  -3  112.89    7.90
  -3  -2   3  132.59    9.40
  -3  -2   3  115.39    8.80
  -3  -2   3  108.49    8.80
  -3  -2   3  110.49    8.30
   2   2  -3   36.70    4.60
   2   2  -3   39.70    4.30
   2   2  -3   30.40    4.00
  -2  -2   3   35.70    4.00
  -2  -2   3   40.60    4.40
  -2  -2   3   33.50    4.70
  -2  -2   3   34.10    4.00
   1   2  -3 1435.76   53.29
   1   2  -3 1430.26   52.59
   1   2  -3 1436.96   52.29
  -1  -2   3 1605.24   52.19
  -1  -2   3 1568.14   52.99
  -1  -2   3 1542.95   51.79
   0   2  -3 3371.06  109.39
   0   2  -3 3229.98  109.99
   0   2  -3 3207.18  108.89
   0   2  -3 3111.09  109.29
   0  -2   3 3350.76  108.89
  -1   2  -3 3185.68  106.89
  -1   2  -3 3113.09  105.89
  -1   2  -3 3195.78  106.89
  -2   2  -3   69.99    5.20
  -2   2  -3   81.29    6.10
  -2   2  -3   71.99    6.00
  -2   2  -3   74.39    5.20
  -3   2  -3  185.48    9.00
  -3   2  -3  192.18    9.00
  -3   2  -3  207.38   11.00
  -3   2  -3  197.08   10.30
  -3   2  -3  190.58   10.90
   3  -2   3  185.98    8.70
  -4   2  -3 1033.00   40.30
  -4   2  -3 1028.30   39.70
  -4   2  -3 1063.89   39.50
  -4   2  -3 1050.49   40.80
   4  -2   3 1032.80   38.30
  -5   2  -3   23.40    5.00
  -5   2  -3   25.50    5.30
   5  -2   3   37.70    5.20
  -6   2  -3   27.50    5.80
  -6   2  -3   14.60    5.10
  -6   2  -3   20.90    5.20
   6  -2   3   25.20    4.80
  -7   2  -3   61.49    9.90
  -7   2  -3   49.80    7.90
   7  -2   3   61.09    7.30
  -8   2  -3   16.80    5.40
  -8   2  -3   19.50   10.80
   8  -2   3   39.10    6.70
  -9   2  -3   48.90    6.70
   9   1  -3    8.00    4.30
  -9  -1   3   15.90    4.80
   8   1  -3    8.00    4.30
  -8  -1   3   11.50    4.30
   7   1  -3   64.79    7.70
  -7  -1   3   68.29    8.60
   6   1  -3  216.28   13.40
  -6  -1   3  209.38   14.40
  -6  -1   3  218.38   16.20
   5   1  -3    2.50    2.80
   5   1  -3    4.70    2.90
  -5  -1   3    1.80    3.10
  -5  -1   3   -2.70    2.20
   4   1  -3    5.90    2.60
   4   1  -3   10.90    2.90
  -4  -1   3    7.40    3.30
  -4  -1   3    8.40    3.30
  -4  -1   3    6.60    3.10
  -4  -1   3    8.10    4.00
   3   1  -3   18.90    3.40
   3   1  -3   14.60    3.20
  -3  -1   3   16.40    3.70
  -3  -1   3   13.30    4.00
  -3  -1   3   16.50    3.70
  -3  -1   3   20.00    4.10
   2   1  -3  587.24   23.60
   2   1  -3  625.34   23.60
  -2  -1   3  587.74   24.00
  -2  -1   3  607.94   24.40
  -2  -1   3  609.14   24.60
  -2  -1   3  600.34   23.30
   1   1  -3 1198.98   44.70
   1   1  -3 1256.77   45.30
  -1  -1   3 1263.27   45.30
  -1  -1   3 1368.36   44.90
  -1  -1   3 1304.57   44.80
   0   1  -3  140.09    7.80
   0   1  -3  133.59    7.10
   0   1  -3  156.98    7.70
   0  -1   3  144.69    7.50
   0  -1   3  154.48    6.20
   0  -1   3  155.78    6.20
  -1   1  -3 3034.60  101.39
  -2   1  -3 2762.82   95.19
  -2   1  -3 2956.20   95.09
  -2   1  -3 2919.71   97.49
  -3   1  -3  329.77   15.10
  -3   1  -3  340.17   15.50
  -3   1  -3  338.57   15.00
  -3   1  -3  331.47   14.10
  -3   1  -3  351.76   14.10
   3  -1   3  316.17   13.20
  -4   1  -3  136.99    8.80
  -4   1  -3  130.39    9.00
  -4   1  -3  145.89    8.60
  -4   1  -3  136.29    9.70
   4  -1   3  143.19    7.80
  -5   1  -3  351.56   17.60
  -5   1  -3  352.56   18.50
  -5   1  -3  277.27   17.60
  -5   1  -3  354.36   17.40
   5  -1   3  360.46   16.00
  -6   1  -3   48.40    7.90
  -6   1  -3   38.00    7.50
  -6   1  -3   51.09    7.00
   6  -1   3   52.49    6.30
  -7   1  -3   94.99   10.70
  -7   1  -3   97.69   10.20
   7  -1   3   86.79    8.90
  -8   1  -3    2.90    4.40
  -9   1  -3   20.70    5.20
   9  -1   3   22.00    5.30
 -10   1  -3   98.89    8.50
  10  -1   3   83.59    7.70
   9   0  -3    5.90    3.80
  -9   0   3   -1.60    3.00
   8   0  -3   -6.80    2.60
  -8   0   3   -2.60    3.30
   7   0  -3  283.97   17.00
  -7   0   3  291.77   17.60
   6   0  -3  480.95   23.00
  -6   0   3  484.85   26.60
  -6   0   3  468.35   23.80
   5   0  -3  114.39    8.90
  -5   0   3  138.09   12.10
  -5   0   3  138.99   10.60
   4   0  -3   17.80    3.20
   4   0  -3   17.50    3.70
  -4   0   3    6.80    3.30
  -4   0   3   11.00    4.90
  -4   0   3    5.40    4.00
  -4   0   3   10.80    4.70
   3   0  -3 1941.91   67.39
   3   0  -3 1800.22   66.89
  -3   0   3 1903.81   68.39
  -3   0   3 2103.89   70.59
  -3   0   3 1975.20   70.19
  -3   0   3 1934.41   70.39
   2   0  -3 1065.69   40.10
   2   0  -3 1142.09   40.90
   2   0  -3 1120.09   40.70
  -2   0   3 1177.08   42.30
  -2   0   3 1099.79   40.90
  -2   0   3 1246.68   42.70
   1   0  -3 4407.66  145.99
   1   0  -3 4359.96  145.49
   0   0  -3  330.57   13.40
   0   0  -3  334.57   12.80
   0   0  -3  316.27   13.20
   0   0   3  325.17   13.50
   0   0   3  337.07   12.90
  -3   0  -3  125.99    7.10
  -3   0  -3  119.99    7.20
  -3   0  -3  107.59    7.00
  -3   0  -3  125.09    7.90
   3   0   3  103.09    5.80
  -4   0  -3   51.39    5.50
  -4   0  -3   56.19    5.30
  -4   0  -3   55.79    6.00
  -4   0  -3   54.19    5.50
   4   0   3   57.39    4.60
  -5   0  -3   26.60    4.80
  -5   0  -3   17.50    4.60
  -5   0  -3   18.30    4.40
  -5   0  -3   29.30    5.40
   5   0   3   21.40    3.80
  -6   0  -3  129.59   11.00
  -6   0  -3  136.69   11.70
   6   0   3  132.19    9.50
  -7   0  -3   -1.50    3.30
  -7   0  -3   -0.50    3.70
   7   0   3   -0.80    2.70
  -8   0  -3  590.44   31.90
  -8   0  -3  614.14   30.80
   8   0   3  633.14   29.10
  -9   0  -3   76.69    9.20
   9   0   3   74.49    8.30
 -10   0  -3  118.19   10.10
  10   0   3  103.79    9.20
   9  -1  -3    7.50    3.70
   8  -1  -3  552.24   25.20
  -8   1   3  505.45   24.20
   7  -1  -3  140.39   11.30
  -7   1   3  135.59   11.30
   6  -1  -3  918.01   38.20
  -6   1   3  950.20   39.30
  -6   1   3  915.51   42.30
   5  -1  -3 2745.23   92.79
  -5   1   3 2551.84   93.19
  -5   1   3 2541.85   96.09
   4  -1  -3    8.90    3.00
   4  -1  -3    1.50    2.10
  -4   1   3    1.80    2.40
  -4   1   3    5.50    3.70
  -4   1   3    6.70    3.10
  -4   1   3    2.30    2.40
   3  -1  -3 1161.78   44.70
   3  -1  -3 1291.67   46.00
  -3   1   3 1382.16   48.90
  -3   1   3 1304.57   49.20
  -3   1   3 1231.58   46.70
   2  -1  -3    1.50    1.40
   2  -1  -3   -0.40    1.40
   2  -1  -3    0.70    1.70
   2  -1  -3    1.40    1.80
  -2   1   3    5.20    2.50
  -2   1   3    3.40    2.10
  -2   1   3    2.10    2.40
   1  -1  -3  819.42   30.50
   1  -1  -3  793.12   29.60
  -1   1   3  814.22   30.20
  -1   1   3  777.72   29.30
  -1   1   3  864.11   30.90
  -1  -1  -3 1479.15   49.50
  -1  -1  -3 1515.35   49.90
  -1  -1  -3 1468.05   49.70
   1   1   3 1345.97   49.70
  -3  -1  -3  630.14   23.80
  -3  -1  -3  601.44   21.50
  -3  -1  -3  598.24   23.50
  -3  -1  -3  581.14   24.00
   3   1   3  614.84   22.60
   3   1   3  635.14   24.00
  -4  -1  -3  563.44   20.30
  -4  -1  -3  605.14   24.90
  -4  -1  -3  578.54   24.00
  -4  -1  -3  588.64   23.60
  -4  -1  -3  548.45   24.60
   4   1   3  552.04   22.50
   4   1   3  634.24   24.70
  -5  -1  -3  545.65   24.40
  -5  -1  -3  574.14   25.20
  -5  -1  -3  565.54   25.60
  -5  -1  -3  494.05   21.20
   5   1   3  555.24   22.80
  -6  -1  -3 1446.56   56.39
  -6  -1  -3 1539.75   58.29
   6   1   3 1359.36   53.49
  -7  -1  -3  361.86   21.40
  -7  -1  -3  379.96   22.90
   7   1   3  371.46   19.40
  -8  -1  -3  328.37   20.90
  -8  -1  -3  329.27   22.10
   8   1   3  349.96   19.40
  -9  -1  -3    5.30    4.50
   9   1   3    4.80    4.30
 -10  -1  -3   35.90    7.30
  10   1   3   39.10    6.80
   8  -2  -3  836.02   34.40
  -8   2   3  759.52   38.80
   7  -2  -3   54.09    8.00
  -7   2   3   44.00    7.60
  -7   2   3   47.80    8.70
   6  -2  -3 2177.38   77.49
  -6   2   3 2040.20   81.29
  -6   2   3 2071.69   77.09
   5  -2  -3  956.60   37.90
  -5   2   3  899.81   38.00
   4  -2  -3   30.20    5.20
  -4   2   3   36.80    6.90
  -4   2   3   29.70    5.40
  -4   2   3   28.20    5.80
   3  -2  -3  124.39    7.00
   3  -2  -3  125.29    8.10
   3  -2  -3  114.19    9.50
  -3   2   3  117.49    8.40
  -3   2   3  146.99   10.30
   2  -2  -3 2536.05   84.69
   2  -2  -3 2280.47   83.69
   2  -2  -3 2547.25   84.59
   2  -2  -3 2502.55   87.39
  -2   2   3 2400.86   85.19
  -2   2   3 2631.14   86.59
  -2   2   3 2471.85   87.49
   1  -2  -3  823.92   30.40
   1  -2  -3  755.42   28.40
   1  -2  -3  767.72   28.60
  -1   2   3  825.52   30.80
  -1   2   3  762.42   28.80
  -1   2   3  768.52   29.30
   0  -2  -3  325.07   12.90
   0  -2  -3  343.07   13.70
   0  -2  -3  339.07   14.50
   0   2   3  340.57   14.90
   0   2   3  338.67   13.90
  -2  -2  -3 3671.93  127.39
  -2  -2  -3 3983.20  129.49
   2   2   3 3722.43  127.79
   2   2   3 4018.90  129.39
  -3  -2  -3  427.36   19.70
  -3  -2  -3  435.76   18.10
  -3  -2  -3  429.56   16.40
  -3  -2  -3  412.06   17.50
   3   2   3  469.15   22.90
   3   2   3  407.56   16.80
  -4  -2  -3   39.40    4.00
  -4  -2  -3   48.40    5.50
  -4  -2  -3   48.30    5.60
  -4  -2  -3   48.20    3.80
  -4  -2  -3   45.40    5.00
   4   2   3   47.60    5.50
   4   2   3   50.49    4.60
  -5  -2  -3  799.72   34.40
  -5  -2  -3  775.92   28.70
  -5  -2  -3  807.62   32.90
  -5  -2  -3  766.12   30.20
  -5  -2  -3  841.42   34.10
   5   2   3  804.42   33.70
   5   2   3  825.32   31.30
  -6  -2  -3  149.59   12.30
  -6  -2  -3  169.28   12.10
  -6  -2  -3  153.98    9.50
   6   2   3  147.69   10.30
  -7  -2  -3 1198.68   48.90
  -7  -2  -3 1181.08   50.19
  -7  -2  -3 1092.59   43.50
   7   2   3 1146.39   46.00
  -8  -2  -3  414.06   25.30
  -8  -2  -3  415.16   24.30
   8   2   3  421.56   22.20
  -9  -2  -3    1.30    4.40
  -9  -2  -3    6.20    5.50
   9   2   3    1.40    3.70
 -10  -2  -3   23.10    6.20
  10   2   3   14.60    4.40
   8  -3  -3  378.66   22.30
   7  -3  -3   71.69    8.60
  -7   3   3   66.69    8.10
   6  -3  -3  330.17   18.30
  -6   3   3  301.97   17.00
  -6   3   3  296.47   19.00
  -6   3   3  316.57   20.90
   5  -3  -3  129.99   10.20
  -5   3   3  123.49   10.90
  -5   3   3  120.29   11.60
   4  -3  -3 1211.78   44.90
  -4   3   3 1134.49   44.90
  -4   3   3 1143.79   47.10
   3  -3  -3   -2.00    2.50
   3  -3  -3    0.90    1.50
   3  -3  -3    9.50    3.20
  -3   3   3    3.70    1.70
  -3   3   3    3.80    3.70
  -3   3   3    1.40    2.30
  -3   3   3   -1.00    2.20
   2  -3  -3   63.49    5.50
   2  -3  -3   67.49    6.40
   2  -3  -3   66.19    5.20
  -2   3   3   63.49    6.20
  -2   3   3   55.19    6.40
  -2   3   3   57.79    4.30
  -2   3   3   61.59    5.50
   1  -3  -3 1176.38   43.40
   1  -3  -3 1134.09   41.30
   1  -3  -3 1166.78   41.40
  -1   3   3 1135.19   44.10
  -1   3   3 1197.88   42.20
  -1   3   3 1184.78   42.00
   0  -3  -3  509.95   21.30
   0  -3  -3  510.45   20.40
   0   3   3  527.35   21.90
   0   3   3  526.05   21.20
   0   3   3  521.45   19.90
  -2  -3  -3 1902.61   64.19
  -2  -3  -3 1784.02   63.59
  -2  -3  -3 1918.31   66.29
  -2  -3  -3 2003.30   63.99
   2   3   3 1749.12   65.09
   2   3   3 1906.11   66.29
  -3  -3  -3 6609.74  218.78
   3   3   3 6451.25  215.88
  -4  -3  -3 6085.89  202.88
  -4  -3  -3 5992.40  198.58
  -4  -3  -3 5694.33  198.58
  -4  -3  -3 6136.99  200.88
   4   3   3 5928.81  199.18
   4   3   3 6111.29  201.98
  -5  -3  -3 1235.58   45.40
  -5  -3  -3 1312.07   49.40
  -5  -3  -3 1246.48   47.90
   5   3   3 1292.37   47.10
   5   3   3 1291.17   59.19
  -6  -3  -3  265.17   13.60
  -6  -3  -3  236.58   11.80
  -6  -3  -3  257.17   16.30
   6   3   3  243.08   14.00
  -7  -3  -3   85.49   10.20
  -7  -3  -3   70.29    9.10
  -7  -3  -3   75.09    7.50
   7   3   3   89.19    8.60
  -8  -3  -3  184.78   14.70
  -8  -3  -3  144.39   11.00
  -8  -3  -3  161.78   15.40
   8   3   3  180.98   13.30
  -9  -3  -3   10.10    6.00
  -9  -3  -3    2.30    4.10
   9   3   3   -1.70    3.10
 -10  -3  -3  117.29   11.30
  10   3   3  104.29    9.80
   8  -4  -3    9.80    3.70
   7  -4  -3   58.89    8.20
   5  -4  -3    2.80    3.80
  -5   4   3    1.60    3.80
  -5   4   3   -4.30    3.90
  -5   4   3    0.10    3.60
   4  -4  -3   28.00    5.80
  -4   4   3   22.50    5.00
  -4   4   3   38.50    4.60
  -4   4   3   19.10    4.00
  -4   4   3   31.30    6.30
   3  -4  -3   95.29    7.50
   3  -4  -3   86.79   12.20
   3  -4  -3   79.39    5.30
   3  -4  -3   64.19    5.90
  -3   4   3   75.89    7.60
  -3   4   3   77.89    6.00
  -3   4   3   73.29    7.00
  -3   4   3   88.99    9.40
   2  -4  -3  649.93   25.50
   2  -4  -3  654.03   26.10
   2  -4  -3  609.44   28.20
  -2   4   3  661.83   27.10
  -2   4   3  681.23   25.30
  -2   4   3  640.54   29.60
  -2   4   3  682.13   26.70
   1  -4  -3   27.70    4.00
   1  -4  -3   26.60    3.60
   1  -4  -3   16.90    3.20
  -1   4   3   25.00    3.40
  -1   4   3   15.00    3.50
  -1   4   3   19.30    3.70
  -1   4   3   20.00    3.50
   0  -4  -3  184.08    9.20
   0  -4  -3  183.38   10.60
   0  -4  -3  172.28    8.70
   0   4   3  187.08    8.80
   0   4   3  190.48   11.20
   0   4   3  170.48    9.20
   0   4   3  172.48    7.10
  -1  -4  -3  157.78    8.10
  -1  -4  -3  162.48    8.60
  -1  -4  -3  159.38    7.00
  -1  -4  -3  179.28   10.20
   1   4   3  171.28    8.60
   1   4   3  158.38   10.00
  -2  -4  -3  497.85   21.50
  -2  -4  -3  467.55   18.80
  -2  -4  -3  472.05   18.00
  -2  -4  -3  494.85   19.50
   2   4   3  475.25   19.20
   2   4   3  498.95   21.60
  -3  -4  -3 3136.09  111.29
  -3  -4  -3 3176.08  107.89
  -3  -4  -3 3254.37  108.39
  -3  -4  -3 3276.57  108.19
  -3  -4  -3 3152.68  107.69
   3   4   3 3202.78  111.19
   3   4   3 3217.28  108.49
  -4  -4  -3 1184.78   44.30
  -4  -4  -3 1283.87   44.80
  -4  -4  -3 1227.68   45.50
  -4  -4  -3 1243.88   48.50
   4   4   3 1256.17   46.30
   4   4   3 1183.78   47.40
  -5  -4  -3   82.99    7.80
  -5  -4  -3   87.79    6.90
  -5  -4  -3   87.19    9.60
  -5  -4  -3   84.49    6.60
   5   4   3   82.09    8.40
   5   4   3   89.59    7.20
  -6  -4  -3 1423.66   53.19
  -6  -4  -3 1450.25   56.59
  -6  -4  -3 1401.76   52.19
   6   4   3 1471.85   54.09
  -7  -4  -3   32.10    7.20
  -7  -4  -3   30.10    6.80
  -7  -4  -3   37.70    6.10
   7   4   3   35.50    6.30
  -8  -4  -3    2.90    4.10
  -8  -4  -3    9.70    5.10
  -8  -4  -3    4.90    3.40
   8   4   3   13.70    4.70
  -9  -4  -3   18.20    5.90
  -9  -4  -3   21.80    5.30
  -9  -4  -3   45.70    8.30
   9   4   3   31.60    6.60
 -10  -4  -3  136.19   11.80
   7  -5  -3   -2.00    2.70
   6  -5  -3   79.09    9.00
   5  -5  -3  182.58   12.80
  -5   5   3  147.59   16.30
   4  -5  -3  122.19   10.00
  -4   5   3   95.69    9.20
  -4   5   3  114.39    8.60
  -4   5   3  113.49   10.50
   3  -5  -3   98.89    8.20
   3  -5  -3  100.69    7.20
   3  -5  -3   95.29    6.40
  -3   5   3   96.89    8.00
  -3   5   3   90.69    8.30
  -3   5   3  107.79    7.50
   2  -5  -3  959.90   35.70
   2  -5  -3  911.11   39.50
   2  -5  -3 1007.70   36.90
  -2   5   3  898.11   36.40
  -2   5   3  972.60   35.80
  -2   5   3  952.10   41.30
  -2   5   3  952.00   36.60
   1  -5  -3 2598.74   89.79
   1  -5  -3 2694.33   89.69
   1  -5  -3 2668.43   93.29
  -1   5   3 2581.54   94.39
  -1   5   3 2599.24   90.29
  -1   5   3 2571.24   89.39
  -1   5   3 2594.14   89.39
   0  -5  -3  417.06   19.60
   0  -5  -3  392.36   17.00
   0  -5  -3  428.56   17.60
   0   5   3  417.16   17.70
   0   5   3  407.06   20.30
   0   5   3  394.56   16.90
   0   5   3  413.76   16.40
  -1  -5  -3  469.15   19.40
  -1  -5  -3  486.65   21.50
  -1  -5  -3  457.45   18.70
   1   5   3  459.75   18.80
   1   5   3  437.46   18.90
   1   5   3  500.55   21.30
   1   5   3  440.06   21.50
  -2  -5  -3 1769.92   61.29
  -2  -5  -3 1843.02   62.19
  -2  -5  -3 1737.23   58.99
  -2  -5  -3 1767.12   64.69
   2   5   3 1716.33   64.59
   2   5   3 1734.83   61.49
   2   5   3 1761.92   61.89
  -3  -5  -3   32.10    4.00
  -3  -5  -3   32.30    3.50
  -3  -5  -3   34.90    4.60
  -3  -5  -3   31.80    3.50
   3   5   3   45.00    6.00
   3   5   3   33.00    4.70
  -4  -5  -3  748.63   29.70
  -4  -5  -3  791.92   30.50
  -4  -5  -3  801.52   30.70
  -4  -5  -3  781.52   30.20
  -4  -5  -3  751.32   34.10
   4   5   3  762.62   33.50
   4   5   3  787.42   30.60
  -5  -5  -3    6.50    2.90
  -5  -5  -3    9.70    3.30
  -5  -5  -3   11.80    4.80
   5   5   3   12.50    5.00
  -6  -5  -3   19.50    4.60
  -6  -5  -3   18.10    4.70
  -6  -5  -3   20.30    4.40
   6   5   3   13.70    4.10
  -7  -5  -3  217.98   13.30
  -7  -5  -3  199.88   14.30
  -7  -5  -3  193.08   12.10
  -7  -5  -3  193.68   14.80
   7   5   3  202.18   13.60
  -8  -5  -3  351.16   22.10
  -8  -5  -3  358.76   21.30
  -8  -5  -3  359.46   19.10
   8   5   3  340.77   19.70
  -9  -5  -3   55.09    7.30
  -9  -5  -3   49.10    9.20
  -9  -5  -3   58.39    9.20
  10   5   3  226.48   17.80
   7  -6  -3   13.90    3.80
   6  -6  -3   13.90    4.80
   4  -6  -3  930.81   38.70
  -4   6   3  939.21   37.10
   3  -6  -3 1197.28   45.30
   3  -6  -3 1093.69   42.30
  -3   6   3 1166.18   43.90
   2  -6  -3  206.48   11.50
   2  -6  -3  214.28   12.60
  -2   6   3  202.78   11.70
  -2   6   3  206.58   11.60
   1  -6  -3  570.34   23.80
   1  -6  -3  578.44   23.60
  -1   6   3  567.54   23.60
  -1   6   3  561.94   23.80
  -1   6   3  538.85   21.40
  -1   6   3  627.04   36.00
   0  -6  -3  652.33   24.50
   0  -6  -3  577.84   27.20
   0  -6  -3  623.94   24.70
   0   6   3  597.74   28.30
   0   6   3  601.54   24.40
   0   6   3  584.34   21.30
   0   6   3  568.84   24.40
  -1  -6  -3  603.74   22.90
  -1  -6  -3  594.34   23.70
  -1  -6  -3  549.74   25.70
   1   6   3  547.45   19.90
   1   6   3  558.54   23.00
   1   6   3  551.04   23.00
   1   6   3  557.54   20.00
   1   6   3  541.95   26.20
  -2  -6  -3 1450.45   50.99
  -2  -6  -3 1405.46   54.09
  -2  -6  -3 1421.46   49.80
   2   6   3 1358.56   49.90
   2   6   3 1411.86   53.89
   2   6   3 1362.06   50.59
   2   6   3 1289.57   47.90
  -3  -6  -3  196.78    9.10
  -3  -6  -3  198.98   13.90
  -3  -6  -3  197.08   10.80
   3   6   3  201.38   13.50
   3   6   3  209.78   12.00
   3   6   3  196.08   11.10
  -4  -6  -3  999.50   37.60
  -4  -6  -3  948.61   35.80
  -4  -6  -3  980.30   36.70
  -4  -6  -3  909.51   35.20
  -4  -6  -3  920.31   41.40
   4   6   3  915.91   40.30
   4   6   3  973.50   37.00
  -5  -6  -3   16.40    3.90
  -5  -6  -3   22.60    4.20
  -5  -6  -3   18.40    4.50
  -5  -6  -3   20.50    4.30
   5   6   3   22.00    4.80
  -6  -6  -3   61.39    7.00
  -6  -6  -3   51.39    7.60
  -6  -6  -3   45.30    6.30
  -6  -6  -3   60.39    6.70
  -7  -6  -3   12.00    4.50
  -7  -6  -3    2.00    3.20
  -7  -6  -3    2.30    3.30
  -7  -6  -3    1.30    3.00
   7   6   3    2.20    2.90
  -8  -6  -3  159.58   11.70
  -8  -6  -3  164.88   12.80
  -8  -6  -3  155.38   13.60
  -8  -6  -3  156.08   11.30
   8   6   3  147.29   12.10
  -9  -6  -3  278.67   17.40
  -9  -6  -3  262.67   15.30
   9   6   3  272.37   16.40
 -10  -6  -3   94.69    9.40
  10   6   3   95.69    9.40
   6  -7  -3   66.39   10.30
   5  -7  -3   18.70    5.10
   4  -7  -3  180.28   13.00
  -4   7   3  190.98   11.90
   3  -7  -3  108.89    9.50
  -3   7   3   99.29    8.20
   2  -7  -3   21.20    4.80
   2  -7  -3   12.00    3.20
  -2   7   3   18.30    4.50
   1  -7  -3  707.23   28.90
   1  -7  -3  721.43   29.50
  -1   7   3  707.43   29.50
   0  -7  -3  414.46   18.80
   0  -7  -3  431.36   19.20
   0   7   3  416.96   19.20
   0   7   3  386.56   18.40
  -1  -7  -3 1192.58   43.80
  -1  -7  -3 1173.28   42.80
   1   7   3 1082.79   42.40
   1   7   3 1129.89   43.50
  -2  -7  -3    8.50    3.30
  -2  -7  -3    4.10    2.60
   2   7   3    4.80    2.90
   2   7   3   13.40    6.90
   2   7   3    2.90    2.60
  -3  -7  -3 1645.24   60.99
  -3  -7  -3 1701.83   60.09
   3   7   3 1596.64   59.69
   3   7   3 1690.03   61.89
  -4  -7  -3  103.09    7.00
  -4  -7  -3  134.39    9.30
  -4  -7  -3  133.29   10.00
   4   7   3  127.89    9.00
   4   7   3  135.29   10.70
  -5  -7  -3  261.27   13.70
  -5  -7  -3  291.27   16.20
  -5  -7  -3  280.07   14.70
  -5  -7  -3  272.37   17.20
   5   7   3  291.37   22.80
   5   7   3  263.37   15.00
  -6  -7  -3    0.60    2.90
  -6  -7  -3    5.10    3.70
  -6  -7  -3   15.30    4.50
   6   7   3    1.90    3.60
   6   7   3    6.40    3.50
  -7  -7  -3   22.10    5.20
  -7  -7  -3   13.60    4.90
  -7  -7  -3   21.30    5.20
   7   7   3    9.80    4.20
  -8  -7  -3  486.05   26.30
  -8  -7  -3  485.65   23.60
  -8  -7  -3  525.35   28.20
  -8  -7  -3  508.35   32.90
  -9  -7  -3   71.99    7.70
  -9  -7  -3   57.59    7.40
   9   7   3   67.59    8.30
   9   7   3   75.79   10.10
 -10  -7  -3  108.69   14.40
 -10  -7  -3  132.69   10.40
  10   7   3  138.19   12.70
  10   7   3  135.39   11.80
   6  -8  -3   10.20    3.40
   5  -8  -3    4.30    3.30
   4  -8  -3    6.20    3.70
  -4   8   3    6.00    3.30
   3  -8  -3   10.10    4.10
  -3   8   3    1.00    2.80
   2  -8  -3   87.39    7.60
   2  -8  -3   94.09    9.10
  -2   8   3   81.49    7.90
   1  -8  -3   88.99    8.10
   1  -8  -3   73.09    6.90
  -1   8   3   83.79    8.00
   0  -8  -3    2.60    2.70
   0  -8  -3    7.90    3.40
   0   8   3    3.60    3.20
  -1  -8  -3 2390.36   85.29
   1   8   3 2377.66   85.19
  -2  -8  -3   28.00    5.00
  -2  -8  -3   27.00    5.40
   2   8   3   34.50    5.40
   2   8   3   34.50    5.90
  -3  -8  -3    5.30    3.40
   3   8   3   14.20    4.70
   3   8   3    0.30    3.00
  -4  -8  -3 1349.96   52.39
  -4  -8  -3 1359.06   51.29
   4   8   3 1267.57   50.19
   4   8   3 1405.36   53.99
  -5  -8  -3 1298.67   50.29
  -5  -8  -3 1313.97   51.59
   5   8   3 1407.26   53.89
   5   8   3 1192.88   49.30
  -6  -8  -3  361.96   19.90
  -6  -8  -3  367.56   19.20
  -6  -8  -3  344.97   16.90
   6   8   3  316.97   17.90
   6   8   3  370.86   21.80
  -7  -8  -3  339.47   17.50
  -7  -8  -3  364.26   18.90
  -7  -8  -3  351.06   19.20
  -7  -8  -3  281.17   18.30
   7   8   3  296.77   17.70
   7   8   3  341.57   21.40
  -8  -8  -3   53.29    7.90
  -8  -8  -3   54.09    7.30
  -8  -8  -3   44.30    6.70
   8   8   3   73.19    8.50
   8   8   3   50.19    8.80
  -9  -8  -3   26.30    5.70
  -9  -8  -3   25.40    5.90
   9   8   3   32.90    7.20
   9   8   3   17.50    6.00
  10   8   3   25.50    5.50
   5  -9  -3    5.10    3.30
   4  -9  -3    9.40    4.30
   3  -9  -3   22.90    5.60
  -3   9   3   24.30    4.60
   2  -9  -3   47.60    9.50
  -2   9   3   37.90    6.20
   1  -9  -3   27.80    5.70
   1  -9  -3   24.10    4.70
  -1   9   3   23.00    5.10
   0  -9  -3  343.77   18.00
   0   9   3  340.07   18.30
  -1  -9  -3    0.60    2.60
   1   9   3    1.90    2.90
  -2  -9  -3  259.37   14.80
  -2  -9  -3  251.37   15.40
   2   9   3  259.77   16.00
  -3  -9  -3 1225.18   50.29
  -3  -9  -3 1285.17   48.70
   3   9   3 1255.17   50.79
  -4  -9  -3  244.98   14.80
  -4  -9  -3  234.38   15.50
   4   9   3  256.07   16.70
  -5  -9  -3 2044.10   74.69
  -5  -9  -3 1994.10   75.99
   5   9   3 2026.90   77.79
  -6  -9  -3  316.87   18.80
  -6  -9  -3  324.77   18.30
   6   9   3  315.47   20.20
  -7  -9  -3  312.57   18.10
  -7  -9  -3  319.77   18.90
   7   9   3  302.87   20.10
  -8  -9  -3    3.00    4.00
  -8  -9  -3    4.90    3.20
   8   9   3    0.80    4.60
  -9  -9  -3   74.49    7.70
   9   9   3   77.39    8.90
   4 -10  -3   66.49    7.10
   3 -10  -3    2.50    3.50
   2 -10  -3   20.40    5.30
  -2  10   3   19.50    4.60
   1 -10  -3    8.30    3.70
  -1  10   3    1.10    3.20
   0 -10  -3  139.39   10.90
   0 -10  -3  140.99   10.80
   0  10   3  139.89   11.10
  -1 -10  -3  163.88   11.80
  -1 -10  -3  161.48   11.70
   1  10   3  149.29   11.90
  -2 -10  -3   58.89    7.40
  -2 -10  -3   69.49    8.50
   2  10   3   68.59    8.20
  -3 -10  -3 1113.99   47.00
  -3 -10  -3 1195.48   46.00
   3  10   3 1159.78   48.10
  -4 -10  -3   74.29    8.20
  -4 -10  -3   72.99    8.80
   4  10   3   74.29    9.20
  -5 -10  -3   23.00    5.30
  -5 -10  -3   27.10    6.30
   5  10   3   26.50    6.50
  -6 -10  -3   82.39    9.30
  -6 -10  -3   83.49    8.90
   6  10   3   81.59   10.50
  -7 -10  -3   53.69    8.50
  -7 -10  -3   53.79    8.00
   7  10   3   40.90    8.00
  -8 -10  -3    6.30    4.00
   8  10   3   17.60    9.00
  -9 -10  -3   75.19    7.30
   9  10   3   82.89    8.50
   3 -11  -3   -1.30    3.10
   2 -11  -3   19.00    4.70
   1 -11  -3   11.10    4.50
  -1  11   3    4.10    3.90
   0 -11  -3   44.00    6.60
   0 -11  -3   52.29    7.60
   0  11   3   75.39    7.90
  -1 -11  -3  141.29   10.80
  -1 -11  -3  116.29   10.20
   1  11   3  137.99   10.70
  -2 -11  -3  334.07   17.60
  -2 -11  -3  272.27   18.20
   2  11   3  305.77   18.10
  -3 -11  -3   61.59    8.70
  -3 -11  -3   88.59    8.50
   3  11   3   81.69    9.00
  -4 -11  -3   11.60    4.40
   4  11   3   14.50    5.50
  -5 -11  -3   58.89    8.50
  -5 -11  -3   73.59    8.10
   5  11   3   66.69   10.10
  -6 -11  -3   19.70    4.90
  -6 -11  -3   17.60    4.90
   6  11   3   12.30    5.60
  -7 -11  -3   86.49   13.10
  -7 -11  -3   79.49    8.90
   7  11   3   58.49   10.10
  -8 -11  -3   80.79    7.60
   8  11   3   95.99    9.70
   1 -12  -3   28.70    5.10
   0 -12  -3  100.19    8.80
   0  12   3  102.69    8.90
  -1 -12  -3  338.57   18.40
   1  12   3  352.06   18.20
  -2 -12  -3    6.20    3.90
  -2 -12  -3    2.80    5.10
   2  12   3   -4.70    3.80
  -3 -12  -3  130.59   10.30
  -3 -12  -3  122.09   10.90
   3  12   3  124.49   11.30
  -4 -12  -3  252.57   14.60
  -4 -12  -3  254.77   16.00
   4  12   3  238.28   15.80
  -5 -12  -3   87.19   10.70
  -5 -12  -3   78.99    9.80
   5  12   3  101.09    9.60
  -6 -12  -3   36.30    5.40
   6  12   3   37.90    6.70
  -7 -12  -3   -0.80    2.70
   7  12   3   -0.10    2.90
  -2 -13  -3    1.10    3.20
  -3 -13  -3   11.10    3.60
   3  13   3    9.70    3.80
  -4 -13  -3    4.00    3.00
   4  13   3    5.20    5.30
   2  11  -4    7.90    3.90
   1  11  -4   58.49    8.20
   5  10  -4   10.70    5.10
   4  10  -4   26.30    6.50
   3  10  -4    3.50    4.10
  -3 -10   4    0.20    5.20
   2  10  -4  148.59   13.20
   1  10  -4  199.58   15.00
   0  10  -4   35.30    7.90
  -1  10  -4  148.19   12.00
  -2  10  -4  695.93   31.00
   6   9  -4   99.09    9.40
  -6  -9   4   93.09    7.50
   5   9  -4    5.50    6.00
   5   9  -4    3.50    3.70
  -5  -9   4   -0.60    5.10
  -5  -9   4    1.20    2.80
   4   9  -4   -2.40    4.10
   4   9  -4    7.90    4.40
  -4  -9   4    9.80    4.20
  -4  -9   4   10.40    3.40
   3   9  -4   -4.50    3.60
   3   9  -4   -2.70    3.90
  -3  -9   4   -0.70    2.50
  -3  -9   4    3.20    3.30
   2   9  -4   67.89   11.00
   2   9  -4   68.49    9.50
  -2  -9   4   63.09    5.90
  -2  -9   4   59.29    8.20
   1   9  -4   47.50    8.70
   1   9  -4   51.59    8.90
   0   9  -4  261.27   17.70
   0   9  -4  257.67   17.70
  -1   9  -4   11.40    5.60
  -2   9  -4   22.30    5.70
  -3   9  -4   11.00    6.20
  -4   9  -4   59.29    7.30
   7   8  -4   19.10    6.90
  -7  -8   4   36.80    5.40
   6   8  -4  195.38   14.40
   6   8  -4  194.08   18.40
  -6  -8   4  185.78   13.80
  -6  -8   4  205.58   15.20
   5   8  -4  141.89   13.40
   5   8  -4  164.58   13.80
  -5  -8   4  160.38   13.20
  -5  -8   4  146.19   10.70
   4   8  -4  496.85   27.10
   4   8  -4  507.45   28.10
  -4  -8   4  477.65   22.50
  -4  -8   4  500.05   26.00
   3   8  -4  107.89   17.50
  -3  -8   4  103.99   10.40
  -3  -8   4  117.79   10.30
   2   8  -4   -0.60    4.00
   2   8  -4   -1.80    3.60
  -2  -8   4    5.10    3.00
  -2  -8   4    3.30    3.20
   1   8  -4   21.40    6.40
   1   8  -4   10.20    5.40
  -1  -8   4    9.20    3.80
  -1  -8   4    8.80    2.80
   0   8  -4    4.10    4.00
   0   8  -4    4.70    4.20
   0  -8   4   11.80    3.70
  -1   8  -4    2.70    3.40
  -2   8  -4  277.27   18.20
  -3   8  -4   40.50    7.90
  -4   8  -4   25.80    6.70
  -5   8  -4    8.70    3.30
   7   7  -4   92.09    9.40
  -7  -7   4  117.79   10.10
   6   7  -4  114.59   11.10
   6   7  -4  135.59   11.80
  -6  -7   4  138.09   11.60
  -6  -7   4  137.49   10.70
   5   7  -4  646.34   31.10
   5   7  -4  583.44   30.80
  -5  -7   4  598.44   30.20
  -5  -7   4  626.84   28.00
   4   7  -4  107.49   12.10
   4   7  -4  132.29   12.50
  -4  -7   4  131.89   11.70
  -4  -7   4  116.89    9.40
   3   7  -4  567.24   29.40
   3   7  -4  590.84   30.50
  -3  -7   4  553.94   24.50
  -3  -7   4  558.74   27.90
   2   7  -4  768.02   35.20
   2   7  -4  737.33   35.50
  -2  -7   4  709.13   28.70
  -2  -7   4  691.83   32.30
   1   7  -4  150.98   13.40
   1   7  -4  136.89   13.10
  -1  -7   4  163.88   11.50
   0   7  -4  570.64   29.30
   0   7  -4  613.34   29.90
   0  -7   4  576.44   25.80
  -1   7  -4   -3.70    2.90
  -1   7  -4    1.80    3.60
   1  -7   4    1.10    2.60
  -2   7  -4  396.36   21.60
  -2   7  -4  432.46   23.50
  -3   7  -4    7.20    4.40
  -4   7  -4  105.19   10.60
  -5   7  -4    7.80    3.70
  -6   7  -4    0.90    2.70
   8   6  -4  229.08   19.60
  -8  -6   4  219.58   13.30
   7   6  -4  895.41   39.40
  -7  -6   4 1014.20   40.40
   6   6  -4  541.25   27.40
   6   6  -4  533.65   26.90
  -6  -6   4  516.45   27.20
  -6  -6   4  598.94   27.10
   5   6  -4 4622.34  165.28
   5   6  -4 4698.03  165.18
  -5  -6   4 4785.02  162.58
   4   6  -4   36.80    7.50
   4   6  -4   26.30    7.10
  -4  -6   4   35.00    6.10
   3   6  -4   10.00    4.50
   3   6  -4   17.70    5.70
  -3  -6   4   13.80    3.90
   2   6  -4   68.69    9.20
   2   6  -4   59.69    9.30
  -2  -6   4   52.39    5.50
   1   6  -4   42.80    7.90
   1   6  -4   42.10    5.70
   1   6  -4   33.40    6.80
  -1  -6   4   40.80    4.20
   0   6  -4  730.13   30.70
   0   6  -4  859.01   36.00
   0   6  -4  802.42   35.60
   0  -6   4  838.22   33.00
   0  -6   4  770.82   28.80
  -1   6  -4  533.35   25.90
  -1   6  -4  547.95   26.60
   1  -6   4  506.45   22.30
  -2   6  -4   76.19    9.10
  -2   6  -4   71.79    8.10
  -3   6  -4   45.70    8.10
  -4   6  -4  147.79   12.70
   4  -6   4  146.29    9.00
  -5   6  -4   17.20    5.50
   5  -6   4   13.80    3.00
  -6   6  -4   73.49    8.50
   6  -6   4   74.49    6.90
   8   5  -4  398.86   20.10
  -8  -5   4  406.46   23.30
   7   5  -4  785.72   35.80
  -7  -5   4  913.21   37.60
   6   5  -4  292.57   17.80
   6   5  -4  269.57   16.80
  -6  -5   4  256.87   16.80
   5   5  -4  201.18   15.00
   5   5  -4  204.48   14.80
  -5  -5   4  217.68   14.30
  -5  -5   4  217.48   15.20
   4   5  -4   73.69    8.80
   4   5  -4   79.89    9.50
  -4  -5   4   75.39    8.40
  -4  -5   4   86.99    8.20
   3   5  -4 2154.78   90.59
   3   5  -4 2254.37   82.19
  -3  -5   4 2247.18   78.59
  -3  -5   4 2178.88   79.29
   2   5  -4  741.13   31.70
   2   5  -4  711.93   32.00
   2   5  -4  693.33   28.90
  -2  -5   4  682.53   27.80
  -2  -5   4  662.83   27.30
   1   5  -4  210.28   11.70
   1   5  -4  227.58   14.20
   1   5  -4  206.08   13.80
  -1  -5   4  199.68   10.00
   0   5  -4  117.19    9.70
   0   5  -4  130.39   10.20
   0   5  -4  113.39    7.80
   0  -5   4  113.89    6.10
   0  -5   4  101.79    5.60
  -1   5  -4   92.59    7.30
  -1   5  -4   85.79    8.70
  -1   5  -4   92.09    8.60
  -1   5  -4   90.39    6.80
   1  -5   4   96.29    7.00
  -2   5  -4  533.35   25.10
  -2   5  -4  517.05   22.10
  -2   5  -4  511.25   21.50
  -2   5  -4  510.55   23.70
   2  -5   4  507.25   20.10
  -3   5  -4  116.59    8.60
  -3   5  -4  132.09   11.00
  -3   5  -4  120.19    8.20
  -3   5  -4  107.09    8.80
   3  -5   4  117.39    6.80
  -4   5  -4   11.30    4.40
   4  -5   4   12.90    3.50
  -5   5  -4   -0.60    6.50
  -5   5  -4   12.50    4.70
   5  -5   4    8.90    3.10
  -6   5  -4   32.00    7.10
   6  -5   4   31.50    4.70
  -7   5  -4   11.20    4.30
   7  -5   4    5.30    3.70
   8   4  -4  134.49   11.20
  -8  -4   4  145.59   11.60
   7   4  -4   28.40    6.00
  -7  -4   4   42.10    7.80
   6   4  -4   17.90    4.80
   6   4  -4   15.40    4.70
  -6  -4   4   10.90    4.30
  -6  -4   4   26.30    7.10
   5   4  -4   35.80    7.00
   5   4  -4   50.09    8.00
  -5  -4   4   44.00    8.20
  -5  -4   4   55.29    7.40
   4   4  -4  211.18   14.40
   4   4  -4  203.48   14.10
  -4  -4   4  202.08   18.70
  -4  -4   4  217.98   14.30
   3   4  -4  158.28   11.40
   3   4  -4  154.58   11.90
  -3  -4   4  151.28   10.00
  -3  -4   4  158.78   11.00
   2   4  -4  111.19    9.40
   2   4  -4  111.19    8.90
   2   4  -4   99.89    7.70
  -2  -4   4   99.69    7.10
  -2  -4   4  101.09    7.70
  -2  -4   4  108.29    7.70
   1   4  -4  492.15   21.10
   1   4  -4  491.55   23.20
   1   4  -4  493.85   22.70
  -1  -4   4  534.35   19.40
  -1  -4   4  482.25   19.40
  -1  -4   4  492.35   20.60
   0   4  -4 2546.25   87.09
   0   4  -4 2409.96   86.99
   0   4  -4 2429.26   87.29
   0  -4   4 2390.26   82.09
   0  -4   4 2513.55   83.89
  -1   4  -4  216.58   10.90
  -1   4  -4  191.48   11.90
  -1   4  -4  195.78   12.20
  -1   4  -4  214.28   11.40
   1  -4   4  200.48    9.70
  -2   4  -4   28.70    5.40
  -2   4  -4   22.50    4.00
  -2   4  -4   29.50    4.20
  -2   4  -4   34.70    5.30
   2  -4   4   22.40    3.10
   2  -4   4   30.10    3.00
  -3   4  -4  562.54   23.40
  -3   4  -4  522.65   23.30
  -3   4  -4  545.05   24.00
  -3   4  -4  615.94   26.30
   3  -4   4  552.44   21.10
  -4   4  -4  966.20   39.80
  -4   4  -4  928.91   37.00
  -4   4  -4  947.41   38.10
   4  -4   4  966.20   35.30
  -5   4  -4   26.80    5.90
  -5   4  -4   17.30    4.60
  -5   4  -4   34.50    5.40
   5  -4   4   36.10    5.00
  -6   4  -4   -6.00    4.70
  -6   4  -4   -2.80    3.00
  -6   4  -4    9.40    4.20
   6  -4   4    2.50    2.80
  -7   4  -4   -4.20    4.30
  -7   4  -4    8.80    4.40
   7  -4   4    8.00    3.50
   8  -4   4   56.59    6.10
  -9  -3   4   40.00    5.90
  -8  -3   4    8.30    4.10
   7   3  -4   68.09    8.30
  -7  -3   4   64.79    8.90
   6   3  -4  264.27   14.60
   6   3  -4  234.28   15.50
  -6  -3   4  278.37   17.10
  -6  -3   4  249.28   19.60
   5   3  -4   47.70    7.70
   5   3  -4   59.89    7.40
  -5  -3   4   62.29    9.30
  -5  -3   4   68.89    7.90
   4   3  -4   82.29    8.10
   4   3  -4   75.39    7.80
  -4  -3   4   79.19    8.90
  -4  -3   4   81.39    7.80
   3   3  -4  845.32   34.50
   3   3  -4  844.42   34.90
   3   3  -4  823.12   33.80
  -3  -3   4  852.51   35.10
  -3  -3   4  874.71   33.80
   2   3  -4  108.09    8.80
   2   3  -4  115.29    8.40
   2   3  -4  112.79    7.90
  -2  -3   4  106.59    7.50
  -2  -3   4  112.69    7.20
  -2  -3   4  106.19    8.00
   1   3  -4   51.79    5.60
   1   3  -4   55.79    6.00
   1   3  -4   48.90    4.90
  -1  -3   4   47.40    4.20
  -1  -3   4   54.59    3.80
  -1  -3   4   52.69    4.00
  -1  -3   4   58.99    5.30
   0   3  -4  208.68   13.70
   0   3  -4  228.68   11.30
   0   3  -4  221.98   12.00
   0   3  -4  231.48   11.90
   0  -3   4  248.68   11.30
  -1   3  -4   33.20    4.50
  -1   3  -4   32.50    3.90
  -1   3  -4   29.30    4.70
  -1   3  -4   28.20    3.90
   1  -3   4   27.20    3.50
  -2   3  -4  609.64   26.00
  -2   3  -4  639.34   24.80
  -2   3  -4  622.14   25.40
  -2   3  -4  629.44   25.40
  -3   3  -4 1482.55   54.59
  -3   3  -4 1461.65   53.79
  -3   3  -4 1496.65   52.59
  -3   3  -4 1468.35   53.09
   3  -3   4 1420.56   50.19
  -4   3  -4  235.78   13.60
  -4   3  -4  211.78   13.50
  -4   3  -4  211.48   12.40
   4  -3   4  226.28   10.80
  -5   3  -4  113.39   10.10
  -5   3  -4  103.19    9.00
  -5   3  -4  118.59   10.10
   5  -3   4  116.59    8.00
  -6   3  -4  217.88   14.90
  -6   3  -4  230.48   14.30
  -6   3  -4  204.98   15.10
   6  -3   4  227.28   12.80
  -7   3  -4   29.90    7.10
  -7   3  -4   19.20    5.40
   7  -3   4   27.90    7.70
  -8   3  -4    1.20    4.30
   8  -3   4    4.40    3.30
   9  -3   4   19.50    4.00
  -9  -2   4    7.30    3.70
  -8  -2   4    2.00    2.90
  -7  -2   4   22.60    6.70
   6   2  -4    8.10    3.80
  -6  -2   4   13.60    6.10
  -6  -2   4   10.60    4.40
   5   2  -4  561.24   24.30
   5   2  -4  563.94   25.20
  -5  -2   4  565.74   29.10
  -5  -2   4  615.84   27.50
   4   2  -4  330.77   15.30
   4   2  -4  340.37   17.20
   4   2  -4  337.17   17.10
  -4  -2   4  337.57   17.60
  -4  -2   4  357.66   19.50
   3   2  -4  800.92   32.50
   3   2  -4  759.42   31.70
   3   2  -4  814.12   32.20
  -3  -2   4  799.82   33.70
  -3  -2   4  797.12   33.30
  -3  -2   4  838.22   32.20
   2   2  -4  143.49    9.70
   2   2  -4  141.19    8.70
   2   2  -4  151.58    9.20
  -2  -2   4  149.39    9.80
  -2  -2   4  144.89    8.40
  -2  -2   4  141.79    8.70
  -2  -2   4  151.88    9.30
   0   2  -4 2177.48   76.09
   0   2  -4 2173.28   74.79
   0   2  -4 2257.77   75.59
   0   2  -4 2033.00   74.79
   0  -2   4 2254.07   75.19
  -2   2  -4 1789.62   63.29
  -2   2  -4 1720.23   62.89
  -2   2  -4 1804.52   64.09
  -2   2  -4 1927.01   64.09
  -3   2  -4  208.98   10.60
  -3   2  -4  212.78   12.10
  -3   2  -4  223.28   12.20
  -3   2  -4  235.68   12.80
  -4   2  -4   15.70    4.20
  -4   2  -4   10.10    3.30
  -4   2  -4    9.30    2.30
  -4   2  -4   10.60    3.60
   4  -2   4   13.80    2.60
  -5   2  -4  229.28   13.90
  -5   2  -4  226.08   14.50
  -5   2  -4  230.78   13.90
   5  -2   4  223.08   11.80
  -6   2  -4    7.40    4.40
  -6   2  -4    8.50    4.40
  -6   2  -4   15.90    4.90
   6  -2   4    8.30    3.40
  -7   2  -4   14.30    4.80
  -7   2  -4    2.30    4.10
   7  -2   4    6.10    3.60
  -8   2  -4   76.09    9.00
   8  -2   4   87.29    8.60
  -9   2  -4   84.69    8.60
   9  -2   4   85.39    8.00
  -9  -1   4   23.70    5.10
   8   1  -4   26.70    6.40
  -8  -1   4   15.90    4.80
   7   1  -4  141.19   13.70
   6   1  -4   92.59    8.40
  -6  -1   4   87.59    9.40
  -6  -1   4   77.19   10.40
   5   1  -4  113.69    8.60
   5   1  -4  102.49    8.00
  -5  -1   4  123.39   10.20
  -5  -1   4  103.89   11.10
   4   1  -4  351.66   16.70
   4   1  -4  373.26   17.50
  -4  -1   4  359.06   18.40
  -4  -1   4  389.26   20.60
   3   1  -4 3707.23  128.29
   3   1  -4 3883.21  128.59
   3   1  -4 3671.83  126.49
  -3  -1   4 3942.31  130.59
  -3  -1   4 3983.20  131.49
  -3  -1   4 3449.85  132.59
  -3  -1   4 3713.33  128.39
   2   1  -4  195.58   11.00
   2   1  -4  202.38   10.70
   2   1  -4  185.28    9.90
  -2  -1   4  202.68   11.20
  -2  -1   4  205.08   11.00
  -2  -1   4  213.28   11.90
  -2  -1   4  190.98   10.10
   1   1  -4 2084.79   72.39
   1   1  -4 2172.08   71.69
  -1  -1   4 2157.38   72.49
  -1  -1   4 2219.18   71.59
  -1  -1   4 1745.83   71.09
  -1  -1   4 2068.69   71.29
   0   1  -4   75.29    5.80
   0   1  -4   70.09    5.80
   0   1  -4   67.19    5.00
   0  -1   4   81.39    4.20
   0  -1   4   76.79    4.20
   0  -1   4   67.09    5.60
  -1   1  -4 1171.08   42.20
  -1   1  -4 1096.59   41.20
  -1   1  -4 1284.87   42.50
  -1   1  -4 1137.69   41.50
  -3   1  -4  661.83   24.90
  -3   1  -4  551.94   24.80
  -3   1  -4  638.74   24.90
  -3   1  -4  604.14   22.50
  -3   1  -4  606.74   23.20
  -3   1  -4  662.73   25.70
   3  -1   4  591.44   22.20
  -4   1  -4   -0.30    2.20
  -4   1  -4    2.10    2.50
  -4   1  -4    5.00    2.60
   4  -1   4    1.30    1.50
  -5   1  -4  335.47   17.20
  -5   1  -4  317.47   17.10
  -5   1  -4  329.07   25.00
   5  -1   4  324.07   15.00
  -6   1  -4  189.68   13.60
  -6   1  -4  193.88   13.20
  -6   1  -4  192.48   14.40
  -7   1  -4   14.20    5.10
   7  -1   4    1.20    3.30
  -8   1  -4    8.20    5.20
  -8   1  -4   15.40    5.20
   8  -1   4    2.10    3.10
  -9   1  -4   50.19    7.60
   9  -1   4   46.70    6.80
 -10   1  -4   57.99    8.20
  10  -1   4   45.70    6.60
  -9   0   4   18.50    5.80
   8   0  -4    4.80    4.80
  -8   0   4   -0.10    3.80
   7   0  -4   17.60    6.80
  -7   0   4   15.10    5.00
   6   0  -4    6.20    3.60
  -6   0   4    8.80    4.30
  -6   0   4   -2.50    4.50
   5   0  -4  366.06   18.50
  -5   0   4  401.96   20.50
  -5   0   4  371.46   22.10
   4   0  -4   24.10    4.50
   4   0  -4   32.50    4.90
  -4   0   4   21.10    5.80
  -4   0   4   25.00    5.20
   3   0  -4 1636.64   56.99
   3   0  -4 1525.85   56.09
  -3   0   4 1584.64   59.39
  -3   0   4 1539.85   59.59
  -3   0   4 1575.44   57.69
  -3   0   4 1692.53   60.59
   2   0  -4 4352.56  142.39
   2   0  -4 4302.27  142.59
   2   0  -4 4048.70  140.89
  -2   0   4 4459.45  144.29
  -2   0   4 4001.00  143.69
  -2   0   4 4252.87  142.39
   1   0  -4  339.37   14.70
   1   0  -4  311.57   14.40
   1   0  -4  318.87   14.00
  -1   0   4  320.07   14.90
  -1   0   4  311.57   13.60
  -1   0   4  337.27   14.70
   0   0  -4  758.32   29.20
   0   0  -4  782.12   29.00
   0   0  -4  807.62   28.30
   0   0  -4  736.63   28.40
   0   0   4  814.62   28.60
   0   0   4  779.62   29.40
  -2   0  -4 1252.57   45.30
  -2   0  -4 1254.67   43.30
  -2   0  -4 1243.18   44.80
  -2   0  -4 1208.68   44.30
  -2   0  -4 1265.07   44.60
   2   0   4 1357.46   43.50
  -3   0  -4 3066.79  104.69
  -3   0  -4 3184.48  104.19
  -3   0  -4 3093.99  105.79
  -3   0  -4 3149.68  105.09
   3   0   4 2940.91  102.79
  -4   0  -4  254.57   13.00
  -4   0  -4  267.67   14.30
  -4   0  -4  247.88   18.00
  -4   0  -4  273.27   12.90
  -4   0  -4  254.77   13.40
   4   0   4  249.68   11.50
  -5   0  -4  273.67   15.70
  -5   0  -4  249.18   14.20
  -5   0  -4  259.67   14.10
  -5   0  -4  248.88   14.50
   5   0   4  264.67   12.80
  -6   0  -4   44.20    7.70
  -6   0  -4   38.30    7.20
   6   0   4   40.50    5.50
  -7   0  -4  151.38   13.80
  -7   0  -4  150.98   13.00
   7   0   4  176.08   11.90
  -8   0  -4  364.86   21.60
  -8   0  -4  328.07   22.20
   8   0   4  367.16   19.70
  -9   0  -4   20.80    5.20
   9   0   4   11.10    4.30
 -10   0  -4   22.90    5.30
  10   0   4   22.50    5.00
  -8   1   4  209.18   13.30
   7  -1  -4  150.48   11.40
  -7   1   4  130.69   11.20
   6  -1  -4  152.68   11.40
  -6   1   4  158.88   12.20
   5  -1  -4   10.50    4.60
  -5   1   4   11.40    4.30
  -5   1   4   16.70    5.40
   4  -1  -4  208.98   11.20
   4  -1  -4  243.88   12.90
  -4   1   4  217.08   14.90
  -4   1   4  233.98   13.70
   3  -1  -4  160.18    9.30
  -3   1   4  180.38   10.60
  -3   1   4  168.58   11.90
  -3   1   4  174.98   11.70
   2  -1  -4 1452.85   50.89
   2  -1  -4 1461.15   53.29
   2  -1  -4 1426.56   50.39
   2  -1  -4 1353.46   50.59
  -2   1   4 1490.25   52.79
  -2   1   4 1396.36   51.19
  -2   1   4 1418.26   53.09
   1  -1  -4 3916.51  128.09
   1  -1  -4 3847.61  127.89
   1  -1  -4 3890.01  128.79
   1  -1  -4 3924.71  129.49
   1  -1  -4 3752.12  128.29
  -1   1   4 3756.02  129.09
  -1   1   4 3594.14  127.79
  -1   1   4 3907.31  129.79
   0  -1  -4 1923.61   73.39
   0  -1  -4 2166.98   72.19
   0  -1  -4 2230.18   72.79
   0  -1  -4 2127.49   72.99
   0  -1  -4 2110.09   71.69
   0   1   4 2043.70   71.29
   0   1   4 2225.28   73.09
   0   1   4 2101.99   76.49
  -2  -1  -4  208.58   10.50
  -2  -1  -4  219.48   10.10
  -2  -1  -4  213.58   10.10
  -2  -1  -4  211.48    9.60
  -2  -1  -4  215.08   10.10
   2   1   4  233.18   10.40
  -3  -1  -4 1985.10   66.19
  -3  -1  -4 1951.40   68.29
  -3  -1  -4 1861.91   68.19
  -3  -1  -4 2135.99   69.19
  -3  -1  -4 1884.91   67.39
   3   1   4 1972.40   68.09
   3   1   4 1955.40   66.69
  -4  -1  -4   36.20    4.50
  -4  -1  -4   47.20    6.00
  -4  -1  -4   44.10    5.50
  -4  -1  -4   40.50    4.90
   4   1   4   38.60    4.20
   4   1   4   44.00    4.70
  -5  -1  -4  703.53   30.30
  -5  -1  -4  761.12   31.60
  -5  -1  -4  739.73   30.70
   5   1   4  688.43   28.20
  -6  -1  -4 2084.79   77.19
  -6  -1  -4 1973.40   75.39
   6   1   4 2059.69   73.09
  -7  -1  -4   18.00    5.90
  -7  -1  -4    4.50    4.10
   7   1   4    7.00    3.60
  -8  -1  -4  173.18   15.60
  -8  -1  -4  188.98   15.00
   8   1   4  175.28   13.00
  -9  -1  -4   -2.80    3.60
   9   1   4   -3.60    3.00
 -10  -1  -4   54.19    8.30
  10   1   4   48.10    7.30
   8  -2  -4  237.78   13.90
   7  -2  -4   94.79    9.50
  -7   2   4   81.19    8.90
   6  -2  -4  397.46   19.90
  -6   2   4  338.87   22.70
  -6   2   4  363.26   19.80
   5  -2  -4  105.29    9.30
  -5   2   4   98.19    9.50
  -5   2   4   99.39   10.80
   4  -2  -4    0.70    2.70
   4  -2  -4   -0.10    2.40
  -4   2   4    1.40    3.40
  -4   2   4    2.10    3.00
   3  -2  -4  477.95   24.40
   3  -2  -4  499.65   20.40
   3  -2  -4  498.85   21.40
  -3   2   4  513.15   25.00
  -3   2   4  498.25   23.50
  -3   2   4  505.25   22.10
   2  -2  -4  568.74   23.60
   2  -2  -4  591.24   23.40
   2  -2  -4  603.74   23.60
   2  -2  -4  577.64   26.20
   2  -2  -4  628.84   24.50
  -2   2   4  620.24   26.90
  -2   2   4  601.74   24.50
  -2   2   4  619.94   25.70
   1  -2  -4 1059.79   38.30
   1  -2  -4 1045.20   37.50
   1  -2  -4 1081.79   39.80
   1  -2  -4 1060.09   37.90
  -1   2   4 1015.00   38.00
  -1   2   4 1063.79   39.00
  -1   2   4  999.70   39.90
   0  -2  -4 1070.59   36.60
   0  -2  -4  932.01   37.30
   0  -2  -4 1052.79   37.20
   0  -2  -4 1064.09   38.10
   0  -2  -4 1001.50   36.10
   0   2   4  998.10   36.50
   0   2   4 1013.20   38.40
   0   2   4 1097.79   37.80
  -1  -2  -4  721.93   27.50
  -1  -2  -4  780.82   26.60
  -1  -2  -4  741.43   26.70
   1   2   4  672.63   26.00
   1   2   4  696.73   27.70
  -2  -2  -4   68.99    4.70
  -2  -2  -4   65.09    5.00
  -2  -2  -4   70.79    6.20
  -2  -2  -4   57.19    4.40
   2   2   4   70.39    5.60
   2   2   4   64.99    4.50
  -3  -2  -4 4731.73  162.68
  -3  -2  -4 5355.66  164.78
  -3  -2  -4 4840.92  161.58
   3   2   4 4833.32  163.98
   3   2   4 4646.64  161.88
  -4  -2  -4 2651.63   86.89
  -4  -2  -4 2524.55   87.39
  -4  -2  -4 2447.06   88.09
  -4  -2  -4 2228.08   83.79
  -4  -2  -4 2483.75   83.99
   4   2   4 2473.05   85.29
   4   2   4 2676.63   87.99
  -5  -2  -4 4282.37  140.59
  -5  -2  -4 4066.99  139.09
  -5  -2  -4 3863.01  135.49
  -5  -2  -4 3932.61  134.39
   5   2   4 4141.79  137.39
  -6  -2  -4 4091.89  136.49
  -6  -2  -4 3963.50  134.69
  -6  -2  -4 3448.46  129.29
   6   2   4 3908.41  132.19
  -7  -2  -4   12.30    5.50
  -7  -2  -4   13.60    5.30
  -8  -2  -4    7.30    5.10
  -8  -2  -4    1.40    3.80
   8   2   4    1.00    3.20
  -9  -2  -4   17.20    7.10
  -9  -2  -4    7.40    5.10
   9   2   4    8.30    4.60
 -10  -2  -4    8.20    4.50
  10   2   4   10.20    4.30
   8  -3  -4   52.89    7.10
   7  -3  -4   -1.60    2.90
  -7   3   4    2.50    3.90
  -7   3   4   -6.80    4.20
   6  -3  -4  175.08   12.90
  -6   3   4  173.28   14.20
  -6   3   4  166.48   12.30
   5  -3  -4  372.56   19.40
  -5   3   4  337.27   20.90
  -5   3   4  329.57   18.60
   4  -3  -4  213.18   13.10
  -4   3   4  200.08   14.70
  -4   3   4  218.58   13.30
   3  -3  -4   26.00    3.60
   3  -3  -4   17.80    4.00
   3  -3  -4   23.40    5.60
  -3   3   4   23.20    5.40
  -3   3   4   20.60    4.20
  -3   3   4   12.30    4.90
   2  -3  -4   49.00    5.30
   2  -3  -4   43.00    5.90
   2  -3  -4   50.59    4.60
   2  -3  -4   47.20    5.20
  -2   3   4   49.30    5.50
  -2   3   4   51.99    6.00
  -2   3   4   71.59    7.20
   1  -3  -4  775.22   29.40
   1  -3  -4  741.53   31.10
   1  -3  -4  758.92   28.00
   1  -3  -4  783.42   29.00
  -1   3   4  776.42   29.60
  -1   3   4  785.42   30.20
   0  -3  -4  996.50   34.90
   0  -3  -4 1006.40   36.50
   0  -3  -4  845.52   33.70
   0   3   4  890.31   34.40
   0   3   4 1015.70   37.40
   0   3   4  948.01   34.90
  -1  -3  -4  123.19    6.60
  -1  -3  -4  135.99    6.60
  -1  -3  -4  145.69    8.70
  -1  -3  -4  133.09    7.40
   1   3   4  123.09    7.00
   1   3   4  136.79    8.80
  -2  -3  -4  275.17   12.40
  -2  -3  -4  286.47   11.80
  -2  -3  -4  301.47   12.50
  -2  -3  -4  271.77   11.80
  -2  -3  -4  290.77   14.20
   2   3   4  288.47   12.50
   2   3   4  271.67   15.20
  -3  -3  -4 4816.72  166.18
  -3  -3  -4 4978.60  166.78
  -3  -3  -4 5083.49  169.88
  -3  -3  -4 4879.61  166.98
  -3  -3  -4 5131.39  167.98
   3   3   4 5225.08  169.78
  -4  -3  -4 3257.37  107.39
  -4  -3  -4 3026.50  104.69
  -4  -3  -4 3079.99  106.39
  -4  -3  -4 3163.18  104.99
  -4  -3  -4 2961.50  108.69
   4   3   4 3007.70  108.19
   4   3   4 3281.97  105.99
  -5  -3  -4  101.99    8.20
  -5  -3  -4  102.69    6.60
  -5  -3  -4   97.69    6.90
  -5  -3  -4   99.79    9.60
  -5  -3  -4  110.99    9.00
   5   3   4  103.49    7.50
   5   3   4  113.09    9.70
  -6  -3  -4   52.79    6.90
  -6  -3  -4   64.59    4.90
  -6  -3  -4   60.39    8.10
  -6  -3  -4   64.99    5.90
   6   3   4   58.89    6.60
  -7  -3  -4  213.78   12.20
  -7  -3  -4  220.98   16.30
  -7  -3  -4  228.68   15.50
   7   3   4  205.28   13.60
  -8  -3  -4  467.85   26.20
  -8  -3  -4  484.45   27.80
   8   3   4  504.65   25.00
  -9  -3  -4  131.49   13.90
  -9  -3  -4  131.69   12.40
   9   3   4  119.59   11.00
 -10  -3  -4    5.90    4.20
  10   3   4    6.00    3.30
   8  -4  -4   23.60    5.70
   7  -4  -4   20.40    5.20
  -6   4   4    5.40    3.80
  -6   4   4   17.70    8.70
   5  -4  -4  170.58   12.30
  -5   4   4  151.48   12.00
  -5   4   4  146.29   14.00
  -5   4   4  173.58   12.10
   4  -4  -4  162.18   11.50
  -4   4   4  147.19   12.20
   3  -4  -4  300.87   15.40
   3  -4  -4  269.97   13.20
  -3   4   4  289.07   15.30
  -3   4   4  286.67   16.40
   2  -4  -4  535.95   22.20
   2  -4  -4  537.65   25.30
   2  -4  -4  518.85   21.80
  -2   4   4  491.25   23.20
  -2   4   4  512.75   26.00
  -2   4   4  508.55   22.50
   1  -4  -4   63.99    6.50
   1  -4  -4   62.79    5.80
  -1   4   4   60.19    7.00
  -1   4   4   63.09    5.90
  -1   4   4   63.29    5.80
   0  -4  -4    7.60    2.70
   0  -4  -4    7.70    2.40
   0  -4  -4    3.60    2.00
   0   4   4    2.20    2.40
   0   4   4    5.90    2.50
  -1  -4  -4   92.69    6.50
  -1  -4  -4   86.39    5.60
  -1  -4  -4   89.69    7.30
  -1  -4  -4   83.49    4.70
   1   4   4   98.29    6.20
   1   4   4   95.39    6.30
   1   4   4   86.49    7.40
  -2  -4  -4   51.09    5.80
  -2  -4  -4   54.29    5.00
  -2  -4  -4   55.09    4.00
  -2  -4  -4   51.39    4.30
   2   4   4   49.60    4.60
   2   4   4   52.89    6.00
  -3  -4  -4  958.90   37.20
  -3  -4  -4  925.91   34.90
  -3  -4  -4  987.10   38.60
  -3  -4  -4  970.50   35.60
  -3  -4  -4  981.30   35.10
   3   4   4  981.30   35.80
   3   4   4  943.21   38.20
  -4  -4  -4   96.49    6.60
  -4  -4  -4   88.69    6.70
  -4  -4  -4   93.59    8.90
  -4  -4  -4  120.69    7.40
  -4  -4  -4  104.69    7.50
   4   4   4   93.19    8.50
  -5  -4  -4   46.10    4.70
  -5  -4  -4   43.80    5.50
  -5  -4  -4   59.89    5.40
  -5  -4  -4   38.30    6.10
  -5  -4  -4   52.89    7.70
   5   4   4   53.09    6.80
   5   4   4   44.90    5.30
  -6  -4  -4   -0.60    3.30
  -6  -4  -4    0.30    2.90
  -6  -4  -4    7.10    2.60
  -6  -4  -4    0.50    2.60
   6   4   4    3.00    2.80
  -7  -4  -4   73.79    7.30
  -7  -4  -4   90.19    9.60
  -7  -4  -4   82.59    9.80
   7   4   4   70.29    8.30
  -8  -4  -4   42.30    8.20
  -8  -4  -4   36.60    7.80
  -8  -4  -4   30.50    5.40
   8   4   4   31.00    6.20
  -9  -4  -4   58.89    9.80
  -9  -4  -4   59.69    9.20
   9   4   4   73.69    9.10
 -10  -4  -4    9.40    4.40
   7  -5  -4    7.10    3.80
   6  -5  -4   23.10    5.60
   5  -5  -4   21.90    5.70
  -5   5   4   20.40   11.00
  -5   5   4   18.40    4.90
   4  -5  -4    4.50    3.50
  -4   5   4    9.10    3.90
  -4   5   4    4.40    4.50
   3  -5  -4  122.09    9.50
   3  -5  -4  108.99    8.30
   3  -5  -4  121.09    7.70
  -3   5   4  121.99    7.60
  -3   5   4  116.39    9.30
  -3   5   4  118.99    9.80
   2  -5  -4  297.77   14.90
  -2   5   4  269.17   14.60
  -2   5   4  272.67   12.70
  -2   5   4  275.27   15.10
   1  -5  -4 1787.52   62.99
   1  -5  -4 1823.22   63.19
   1  -5  -4 1832.62   66.99
  -1   5   4 1682.73   67.69
  -1   5   4 1715.63   61.29
  -1   5   4 1753.32   63.59
  -1   5   4 1832.12   63.49
   0  -5  -4  741.43   33.50
   0  -5  -4  856.21   31.70
   0  -5  -4  846.12   31.20
   0   5   4  809.52   31.60
   0   5   4  871.71   31.30
   0   5   4  812.32   30.00
   0   5   4  806.42   35.10
  -1  -5  -4  371.76   16.40
  -1  -5  -4  374.36   15.80
  -1  -5  -4  361.26   18.30
   1   5   4  381.16   15.70
   1   5   4  340.97   16.10
   1   5   4  358.56   15.10
   1   5   4  374.76   19.20
  -2  -5  -4  564.84   22.80
  -2  -5  -4  545.85   21.90
  -2  -5  -4  554.94   25.10
  -2  -5  -4  547.45   20.10
   2   5   4  541.35   25.30
   2   5   4  567.24   22.60
   2   5   4  546.15   21.90
  -3  -5  -4 2071.39   74.79
  -3  -5  -4 2078.89   71.29
  -3  -5  -4 2016.50   69.69
   3   5   4 1942.21   74.19
  -4  -5  -4 2681.63   93.99
  -4  -5  -4 2887.91   95.29
  -4  -5  -4 2781.22   94.39
  -4  -5  -4 2662.83   99.19
  -4  -5  -4 2778.72   94.79
   4   5   4 2797.42   95.19
   4   5   4 2639.24   98.49
  -5  -5  -4  243.48   14.00
  -5  -5  -4  243.08   17.10
  -5  -5  -4  248.88   12.90
  -5  -5  -4  237.08   13.10
   5   5   4  238.88   15.90
   5   5   4  263.57   14.00
  -6  -5  -4   17.50    4.90
  -6  -5  -4   27.70    4.90
  -6  -5  -4    9.90    3.60
  -6  -5  -4   21.20    5.20
  -7  -5  -4  199.28   14.00
  -7  -5  -4  209.28   12.60
  -7  -5  -4  176.58   11.30
  -7  -5  -4  197.38   14.70
   7   5   4  209.58   13.70
  -8  -5  -4  124.49   12.10
  -8  -5  -4  131.29   12.20
  -8  -5  -4  137.09   10.00
  -9  -5  -4   52.89    8.60
  -9  -5  -4   60.19    7.60
  -9  -5  -4   54.49    9.30
 -10  -5  -4  656.33   30.60
  10   5   4  627.64   29.80
   7  -6  -4    0.70    2.80
   6  -6  -4  195.38   13.20
   5  -6  -4  242.98   15.40
   3  -6  -4   75.39    6.80
   3  -6  -4   54.49    5.40
   3  -6  -4   64.49    7.50
  -3   6   4   58.69    7.30
  -3   6   4   54.89    5.80
   2  -6  -4  482.75   21.70
   2  -6  -4  490.95   24.10
  -2   6   4  490.15   22.20
  -2   6   4  505.85   22.70
  -2   6   4  499.25   20.90
   1  -6  -4  172.78   10.50
   1  -6  -4  158.48   10.00
  -1   6   4  162.68    9.00
  -1   6   4  145.09    9.20
  -1   6   4  155.08   10.10
   0  -6  -4  886.21   37.10
   0  -6  -4  845.92   34.80
   0  -6  -4  863.11   33.10
   0   6   4  854.51   32.20
   0   6   4  842.72   33.50
   0   6   4  831.52   37.80
   0   6   4  855.51   31.80
  -1  -6  -4 3848.21  131.59
  -1  -6  -4 4015.60  132.99
  -1  -6  -4 3884.41  136.19
   1   6   4 3895.41  130.39
   1   6   4 3935.91  137.29
   1   6   4 3942.41  132.49
   1   6   4 3759.32  131.29
  -2  -6  -4 1604.54   60.89
  -2  -6  -4 1609.74   58.89
  -2  -6  -4 1631.54   56.29
   2   6   4 1564.44   56.69
   2   6   4 1515.25   60.49
   2   6   4 1547.35   54.89
   2   6   4 1550.24   56.19
  -3  -6  -4  417.46   18.70
  -3  -6  -4  352.86   15.60
  -3  -6  -4  400.66   21.70
  -3  -6  -4  403.46   15.80
  -3  -6  -4  417.26   17.80
   3   6   4  383.76   19.70
   3   6   4  418.96   18.40
   3   6   4  371.86   20.90
  -4  -6  -4  856.31   37.80
  -4  -6  -4  833.92   33.10
  -4  -6  -4  804.32   31.40
  -4  -6  -4  839.52   32.30
  -4  -6  -4  794.12   30.80
   4   6   4  860.31   33.10
   4   6   4  761.92   36.10
  -5  -6  -4   14.70    3.40
  -5  -6  -4   12.70    3.60
  -5  -6  -4   11.00    3.00
  -5  -6  -4   10.40    3.70
   5   6   4   17.50    6.50
   5   6   4    9.00    3.70
  -6  -6  -4  659.93   30.50
  -6  -6  -4  699.73   29.90
  -6  -6  -4  722.73   30.20
   6   6   4  708.43   30.50
  -7  -6  -4   22.60    5.60
  -7  -6  -4   20.40    4.80
  -7  -6  -4   20.70    5.50
  -7  -6  -4   29.40    5.60
   7   6   4   21.50    5.70
  -8  -6  -4 1010.00   45.90
  -8  -6  -4 1090.09   42.70
  -8  -6  -4 1126.99   45.30
   8   6   4 1027.40   44.20
  -9  -6  -4   60.99    8.90
  -9  -6  -4   57.89    7.40
   9   6   4   57.69    8.70
 -10  -6  -4  753.12   33.40
   6  -7  -4   90.69    8.40
   5  -7  -4    8.00    4.10
   3  -7  -4  146.29   11.70
   3  -7  -4  169.68   12.40
  -3   7   4  160.28   10.00
   2  -7  -4  145.59   10.70
   2  -7  -4  123.89    9.20
  -2   7   4  126.79    8.80
  -2   7   4  120.79    9.60
   1  -7  -4    4.20    3.20
   1  -7  -4    6.70    3.00
  -1   7   4    4.30    3.10
  -1   7   4    5.20    2.60
   0  -7  -4  112.89    8.50
   0  -7  -4  105.69    8.10
   0   7   4  117.69    8.90
   0   7   4   94.29    7.40
  -1  -7  -4  528.75   22.40
  -1  -7  -4  519.45   23.00
   1   7   4  497.15   21.90
   1   7   4  517.25   22.60
  -2  -7  -4 1549.45   55.59
  -2  -7  -4 1472.85   54.19
   2   7   4 1487.25   54.79
   2   7   4 1469.85   51.49
   2   7   4 1475.75   54.59
  -3  -7  -4  248.58   14.00
  -3  -7  -4  244.68   13.20
   3   7   4  244.18   13.80
   3   7   4  233.18   13.20
  -4  -7  -4 1318.77   48.20
  -4  -7  -4 1175.48   45.30
  -4  -7  -4 1326.77   49.40
   4   7   4 1277.87   49.60
   4   7   4 1297.47   48.50
  -5  -7  -4  127.99    8.10
  -5  -7  -4  127.89   10.20
  -5  -7  -4  122.29    8.70
   5   7   4  133.39   10.10
   5   7   4  137.29   11.10
  -6  -7  -4  111.99    8.90
  -6  -7  -4  116.99    9.90
  -6  -7  -4  123.59    9.60
  -6  -7  -4  104.19    9.10
   6   7   4  112.49   10.00
  -7  -7  -4 1694.23   70.19
  -7  -7  -4 1812.02   66.89
  -7  -7  -4 1827.42   66.79
  -7  -7  -4 1812.62   66.99
   7   7   4 1787.72   67.59
  -8  -7  -4  407.36   29.60
  -8  -7  -4  466.45   24.30
   8   7   4  392.46   30.60
  -9  -7  -4    1.30    3.30
  -9  -7  -4    4.90    4.10
   9   7   4    4.40    4.40
 -10  -7  -4  141.59   10.90
  10   7   4  154.18   12.00
  10   7   4  126.79   10.60
   5  -8  -4    1.60    4.80
   4  -8  -4    2.70    3.70
   3  -8  -4  102.49   11.60
   2  -8  -4   -0.10    2.80
  -2   8   4   -2.60    2.30
   1  -8  -4   31.40    5.30
   1  -8  -4   34.00    6.20
   0  -8  -4 1118.19   42.40
   0  -8  -4 1127.19   42.60
   0   8   4 1033.00   41.40
   0   8   4 1031.10   41.30
  -1  -8  -4  115.89    8.70
  -1  -8  -4  103.89    8.80
   1   8   4  102.19    8.40
   1   8   4  106.49    8.80
  -2  -8  -4   12.30    4.20
   2   8   4    9.20    4.00
   2   8   4   11.40    3.50
  -3  -8  -4 1245.68   47.40
  -3  -8  -4 1211.28   48.10
   3   8   4 1232.38   48.20
   3   8   4 1243.18   47.20
  -4  -8  -4  199.58   13.10
  -4  -8  -4  207.98   12.50
   4   8   4  174.68   18.20
   4   8   4  185.98   12.20
  -5  -8  -4  278.37   16.70
  -5  -8  -4  264.57   15.50
   5   8   4  289.17   17.60
   5   8   4  276.37   15.70
  -6  -8  -4   39.70    5.60
  -6  -8  -4   41.30    6.60
  -6  -8  -4   58.09    7.10
  -6  -8  -4   45.50    7.20
   6   8   4   51.79    8.80
   6   8   4   55.09    7.80
  -7  -8  -4   10.30    3.60
  -7  -8  -4   -1.30    3.10
  -7  -8  -4    6.00    3.60
   7   8   4   -1.00    3.30
   7   8   4   -1.20    3.20
  -8  -8  -4  191.28   13.00
  -8  -8  -4  220.28   14.20
   8   8   4  202.68   13.90
   8   8   4  230.28   16.70
  -9  -8  -4  229.48   18.00
  -9  -8  -4  198.38   12.80
   9   8   4  199.58   18.60
   9   8   4  215.98   15.90
 -10  -8  -4   76.49    9.90
  10   8   4   61.99    8.20
   5  -9  -4    3.20    3.10
   4  -9  -4    8.90    4.20
   3  -9  -4  186.68   13.10
   2  -9  -4  118.09   10.50
   1  -9  -4   31.40    6.30
   1  -9  -4   46.80    6.10
  -1   9   4   47.60    6.20
   0  -9  -4  229.48   14.40
   0  -9  -4  254.57   14.60
   0   9   4  223.38   13.70
  -1  -9  -4  300.57   18.50
  -1  -9  -4  321.37   17.20
   1   9   4  295.67   16.60
  -2  -9  -4   27.00    5.40
  -2  -9  -4   32.70    6.10
   2   9   4   32.70    6.20
  -3  -9  -4  322.47   17.20
  -3  -9  -4  343.07   19.00
   3   9   4  300.87   16.60
   3   9   4  323.17   18.10
  -4  -9  -4   94.29    8.80
  -4  -9  -4   91.19    9.30
   4   9   4   82.09    9.10
   4   9   4   74.19    8.60
  -5  -9  -4  139.49   11.60
  -5  -9  -4  148.19   11.00
   5   9   4  132.89   11.70
   5   9   4  112.09    9.70
  -6  -9  -4  129.29   10.70
  -6  -9  -4  111.89   10.70
   6   9   4  114.59   10.10
   6   9   4  145.79   12.50
  -7  -9  -4    4.20    3.60
  -7  -9  -4    7.40    3.60
   7   9   4    0.60    3.90
  -8  -9  -4   -3.90    3.30
  -8  -9  -4    3.30    3.20
   8   9   4    7.60    5.50
   8   9   4    5.50    4.50
  -9  -9  -4    6.60    3.40
   9   9   4    6.80    4.70
   4 -10  -4    0.90    2.80
   2 -10  -4   20.00    5.30
   1 -10  -4    4.40    3.70
   1 -10  -4   -2.80    6.20
  -1  10   4    2.20    3.10
   0 -10  -4  538.25   25.40
   0 -10  -4  555.84   27.60
   0  10   4  582.84   25.70
  -1 -10  -4  962.30   39.60
  -1 -10  -4  968.80   39.30
   1  10   4  925.61   39.10
  -2 -10  -4  214.18   13.60
  -2 -10  -4  214.38   14.20
   2  10   4  197.38   13.70
  -3 -10  -4  536.05   26.60
  -3 -10  -4  552.84   25.40
   3  10   4  530.05   26.30
  -4 -10  -4   19.20    5.00
  -4 -10  -4   12.60    4.20
   4  10   4   10.70    4.40
  -5 -10  -4    5.30    3.50
  -5 -10  -4   -3.30    2.60
   5  10   4    3.50    3.60
  -6 -10  -4   30.50    6.40
  -6 -10  -4   37.10    6.60
   6  10   4   26.70    6.60
  -7 -10  -4   31.80    6.40
  -7 -10  -4   23.00    5.50
   7  10   4   14.50    5.40
  -8 -10  -4  139.29   11.50
  -8 -10  -4  173.48   11.80
   8  10   4  168.48   13.10
  -9 -10  -4   11.10    4.00
   9  10   4    7.20    3.70
   2 -11  -4    5.50    3.90
   1 -11  -4   42.00    6.80
   0 -11  -4  142.29   11.40
   0 -11  -4  127.49   10.80
   0  11   4  141.89   10.20
  -1 -11  -4  602.04   28.00
  -1 -11  -4  673.23   28.70
   1  11   4  587.34   27.60
  -2 -11  -4  118.29   10.70
  -2 -11  -4  121.89   10.20
   2  11   4  113.09   10.00
  -3 -11  -4    0.20    3.70
  -3 -11  -4    4.30    3.20
   3  11   4    3.10    4.00
  -4 -11  -4  104.39    9.50
  -4 -11  -4   91.89   11.20
   4  11   4  107.09   10.10
  -5 -11  -4  469.25   24.50
  -5 -11  -4  479.95   23.20
   5  11   4  478.45   25.00
  -6 -11  -4  170.18   12.00
  -6 -11  -4  176.08   12.80
   6  11   4  150.08   13.10
  -7 -11  -4   45.80    6.90
  -7 -11  -4   51.39   11.30
  -8 -11  -4    7.30    3.50
   8  11   4    7.00    3.90
   1 -12  -4  159.28   10.80
   0 -12  -4   -1.40    2.90
  -1 -12  -4   27.50    5.50
   1  12   4   22.70    5.00
  -2 -12  -4   31.20    5.90
  -2 -12  -4   41.40    5.90
   2  12   4   25.20    5.70
  -3 -12  -4  635.34   29.00
  -3 -12  -4  669.43   28.90
   3  12   4  622.84   30.10
  -4 -12  -4  485.65   22.90
  -4 -12  -4  458.75   23.60
   4  12   4  486.45   25.60
  -5 -12  -4    4.20    3.20
  -5 -12  -4   -2.70    3.10
  -6 -12  -4    3.70    3.20
  -6 -12  -4    3.50    3.70
   6  12   4    5.00    3.50
  -7 -12  -4  170.88   10.80
   7  12   4  152.08   11.50
  -1 -13  -4   73.19    8.00
  -2 -13  -4    8.40    3.50
  -3 -13  -4   39.90    5.80
  -4 -13  -4   11.90    3.70
   4  13   4   24.20    5.10
  -5 -13  -4  184.08   11.20
   3  10  -5    7.00    4.60
   2  10  -5  163.18   12.50
   1  10  -5   60.59    8.10
   0  10  -5  220.68   14.50
  -1  10  -5   69.39    8.20
   5   9  -5   41.00    7.70
  -5  -9   5   51.39    6.10
   4   9  -5   36.20    6.80
   4   9  -5   27.50    6.80
  -4  -9   5   40.60    4.90
  -4  -9   5   29.50    5.90
   3   9  -5   15.00    6.00
   3   9  -5    7.50    4.90
  -3  -9   5   19.50    5.40
   2   9  -5    8.90    5.00
   2   9  -5   -3.40    3.30
   1   9  -5  156.18   13.70
   1   9  -5  157.18   13.40
  -1  -9   5  173.48   15.80
   0   9  -5   49.50    8.50
   0   9  -5   56.39    9.10
  -1   9  -5  256.77   16.90
  -2   9  -5  128.39   16.60
  -3   9  -5  109.09   10.00
   6   8  -5   -9.70    3.80
   5   8  -5  105.89   10.60
   5   8  -5   85.99   10.20
  -5  -8   5   99.79   10.10
  -5  -8   5   91.39    7.60
   4   8  -5   42.00    7.20
   4   8  -5   39.00    8.30
  -4  -8   5   37.60    5.60
  -4  -8   5   27.90    6.20
   3   8  -5  328.87   22.00
   3   8  -5  335.77   20.90
  -3  -8   5  335.87   19.30
  -3  -8   5  333.87   15.90
   2   8  -5  175.88   14.90
   2   8  -5  198.58   16.50
  -2  -8   5  198.58   13.70
   1   8  -5   31.20    7.80
   1   8  -5   30.50    7.30
  -1  -8   5   43.10    6.60
   0   8  -5  320.97   19.80
   0   8  -5  282.77   19.20
   0  -8   5  285.67   15.80
  -1   8  -5  184.88   14.90
  -1   8  -5  187.38   14.60
  -2   8  -5   -0.90    3.50
  -3   8  -5  148.59   12.60
  -4   8  -5   60.39    8.90
  -5   8  -5    4.20    2.80
  -7  -7   5  280.47   15.00
   6   7  -5   36.20    6.80
   6   7  -5   26.60    5.50
  -6  -7   5   29.50    5.90
  -6  -7   5   33.60    6.60
   5   7  -5   15.90    5.50
   5   7  -5   18.00    6.00
  -5  -7   5   21.40    5.90
  -5  -7   5   12.70    4.00
   4   7  -5    1.70    4.10
   4   7  -5   -0.20    4.10
  -4  -7   5   -2.20    2.70
  -4  -7   5    3.70    2.90
   3   7  -5   90.69   10.90
   3   7  -5   79.49    9.90
  -3  -7   5  103.89    8.00
  -3  -7   5   80.09    9.50
   2   7  -5   68.29    9.00
   2   7  -5   43.20    8.70
  -2  -7   5   58.09    5.80
  -2  -7   5   52.49    7.40
   1   7  -5  235.38   17.10
   1   7  -5  221.28   16.70
  -1  -7   5  251.97   15.10
   0   7  -5   -4.60    3.30
   0   7  -5    7.70    4.70
   0  -7   5    1.10    3.00
  -1   7  -5   86.19   10.10
  -1   7  -5   81.79   10.00
  -2   7  -5   53.19    8.90
  -2   7  -5   44.10    7.60
  -3   7  -5   55.99    9.00
  -4   7  -5   74.29    9.40
  -5   7  -5  110.29   10.00
  -6   7  -5    5.00    3.30
  -7  -6   5  555.14   24.90
  -7  -6   5  499.75   25.70
   6   6  -5    0.70    3.90
   6   6  -5   -0.10    3.90
  -6  -6   5   -3.80    2.90
  -6  -6   5    0.80    3.30
   5   6  -5    8.40    4.60
   5   6  -5   20.20    5.90
  -5  -6   5   22.30    4.80
   4   6  -5  100.59   10.60
   4   6  -5  104.39   11.40
  -4  -6   5   91.99    8.30
   3   6  -5  249.38   18.00
   3   6  -5  274.07   17.90
  -3  -6   5  247.78   13.80
   2   6  -5    9.10    5.20
   2   6  -5   -4.20    3.60
  -2  -6   5   -2.00    2.10
   1   6  -5  619.84   28.00
   1   6  -5  692.03   32.80
   1   6  -5  704.43   32.20
  -1  -6   5  650.63   25.30
   0   6  -5  695.33   29.00
   0   6  -5  717.63   33.30
   0   6  -5  706.83   33.40
   0  -6   5  714.03   30.30
  -1   6  -5  160.18   13.20
  -1   6  -5  156.18   12.50
  -1   6  -5  148.69    9.80
   1  -6   5  172.48   10.30
  -2   6  -5  181.18   13.10
  -2   6  -5  168.18   13.80
  -5   6  -5    7.10    5.00
  -6   6  -5   93.79    9.20
  -8  -5   5  150.98   10.50
  -7  -5   5  140.79   11.30
  -7  -5   5  156.18   11.70
   6   5  -5   42.20    7.10
   6   5  -5   32.10    5.90
  -6  -5   5   34.70    6.40
   5   5  -5   81.99    9.90
   5   5  -5   73.69    9.20
  -5  -5   5   78.99    8.50
   4   5  -5   28.40    6.20
   4   5  -5   47.00    8.90
  -4  -5   5   36.50    6.80
  -4  -5   5   49.90    6.40
   3   5  -5  186.58   14.40
   3   5  -5  171.28   13.00
  -3  -5   5  173.28   11.10
  -3  -5   5  150.18   11.80
   2   5  -5  625.24   30.20
   2   5  -5  585.54   29.30
   2   5  -5  597.54   26.50
  -2  -5   5  563.04   25.30
  -2  -5   5  601.84   24.50
   1   5  -5  153.68   12.70
   1   5  -5  154.68   11.90
   1   5  -5  135.99    9.80
  -1  -5   5  139.59    8.80
  -1  -5   5  141.29    8.00
   0   5  -5  703.83   29.20
   0   5  -5  694.83   32.20
   0   5  -5  730.53   32.00
  -1   5  -5  882.41   35.30
  -1   5  -5  929.41   38.60
  -2   5  -5  124.79   10.20
  -2   5  -5  121.69    9.30
  -2   5  -5  137.79   11.50
  -2   5  -5  128.69    8.90
  -3   5  -5  366.96   18.70
  -3   5  -5  373.46   22.10
  -3   5  -5  347.07   18.00
  -3   5  -5  382.36   20.80
  -4   5  -5   27.60    4.70
  -4   5  -5   24.20    6.00
  -4   5  -5   33.90    7.10
  -5   5  -5   10.80    4.10
  -5   5  -5   19.50    5.60
  -6   5  -5  102.59   10.00
  -7   5  -5   -2.30    3.70
  -8  -4   5   -0.30    3.10
  -7  -4   5   14.80    4.90
   6   4  -5   -2.20    4.20
  -6  -4   5   -1.40    3.00
   5   4  -5  527.25   27.00
   5   4  -5  598.24   28.80
  -5  -4   5  649.93   38.90
  -5  -4   5  634.54   28.80
   4   4  -5   43.20    7.80
   4   4  -5   37.40    7.00
  -4  -4   5   36.80    7.10
  -4  -4   5   38.40    6.50
   3   4  -5   22.50    5.90
   3   4  -5   20.70    5.30
  -3  -4   5   27.70    5.70
  -3  -4   5   34.30    5.40
   2   4  -5  819.52   33.30
   2   4  -5  766.32   31.90
   2   4  -5  767.32   34.20
  -2  -4   5  731.53   31.70
  -2  -4   5  781.22   30.30
   1   4  -5    0.90    2.60
   1   4  -5   14.70    4.90
   1   4  -5    2.40    2.60
  -1  -4   5    1.80    2.10
  -1  -4   5    1.70    2.20
   0   4  -5  197.88   13.20
   0   4  -5  206.18   11.70
   0   4  -5  213.18   13.10
   0  -4   5  217.48   11.30
  -1   4  -5 1206.58   45.10
  -1   4  -5 1249.28   47.30
  -1   4  -5 1188.78   47.20
  -1   4  -5 1222.28   45.90
   1  -4   5 1187.88   44.00
  -2   4  -5    6.40    2.90
  -2   4  -5   -2.00    2.60
  -2   4  -5    2.30    2.50
  -2   4  -5    1.50    2.00
   2  -4   5    5.80    2.00
   2  -4   5   -3.00    1.60
  -3   4  -5  304.37   15.30
  -3   4  -5  312.97   21.90
  -3   4  -5  286.77   15.80
  -3   4  -5  289.57   15.50
  -4   4  -5  107.29   10.20
  -4   4  -5   95.29    8.80
  -4   4  -5   93.49    8.30
   4  -4   5   89.49    6.10
  -5   4  -5    7.90    4.00
  -5   4  -5    7.80    4.90
  -5   4  -5    1.30    3.10
   5  -4   5    3.60    2.60
  -6   4  -5   24.60    8.70
  -6   4  -5   52.69   12.40
  -7   4  -5   38.70    7.20
  -7   4  -5   36.20    6.30
   7  -4   5   49.20    6.10
  -8  -3   5   42.60    6.60
  -7  -3   5  658.93   30.70
   6   3  -5   46.40    6.90
   6   3  -5   41.40    6.50
  -6  -3   5   49.80    7.90
   5   3  -5   28.50    5.50
   5   3  -5   17.80    5.20
  -5  -3   5   17.10    6.10
  -5  -3   5   10.70    4.50
   4   3  -5  357.66   18.60
  -4  -3   5  369.16   19.00
  -4  -3   5  337.77   20.00
   3   3  -5  835.12   33.70
   3   3  -5  801.42   34.90
   3   3  -5  817.12   33.80
  -3  -3   5  787.82   34.70
  -3  -3   5  819.32   33.10
   2   3  -5 1994.10   70.79
   2   3  -5 2080.49   72.99
   2   3  -5 1969.30   70.59
  -2  -3   5 1922.11   71.19
  -2  -3   5 1950.01   69.19
  -2  -3   5 1877.81   69.69
   1   3  -5  735.93   30.00
   1   3  -5  678.93   31.80
   1   3  -5  795.42   32.30
  -1  -3   5  746.23   28.10
  -1  -3   5  783.82   30.50
   0   3  -5   33.50    5.30
   0   3  -5   31.40    5.20
   0   3  -5   30.20    4.80
   0   3  -5   36.40    5.80
   0  -3   5   31.20    3.20
   0  -3   5   31.20    4.10
  -1   3  -5    2.70    2.50
  -1   3  -5    5.40    2.70
  -1   3  -5    4.30    3.00
  -1   3  -5    4.10    2.10
   1  -3   5    0.10    1.70
  -2   3  -5  232.18   13.50
  -2   3  -5  234.58   13.10
  -2   3  -5  245.08   13.30
  -2   3  -5  231.48   12.30
   2  -3   5  242.48   12.30
  -3   3  -5  724.33   30.20
  -3   3  -5  673.93   28.20
  -3   3  -5  714.73   29.50
  -3   3  -5  682.83   28.40
  -4   3  -5   56.39    6.90
  -4   3  -5   54.19    6.40
   4  -3   5   60.09    4.60
  -5   3  -5  343.87   18.20
  -5   3  -5  341.17   19.10
  -5   3  -5  333.17   18.80
   5  -3   5  339.27   15.50
  -6   3  -5  282.87   17.00
  -6   3  -5  277.27   17.90
  -6   3  -5  294.97   17.90
   6  -3   5  314.27   15.30
  -7   3  -5   49.80    9.20
  -7   3  -5   56.19    8.00
  -7   3  -5   70.29    8.60
   7  -3   5   58.39    6.60
  -8   3  -5   19.50    5.00
   9  -3   5    6.60    4.60
  -8  -2   5    9.30    4.10
  -7  -2   5    5.20    4.20
   5   2  -5  778.52   34.00
   5   2  -5  834.92   34.30
  -5  -2   5  772.72   37.40
  -5  -2   5  866.01   36.00
   4   2  -5  729.53   30.70
   4   2  -5  755.92   32.10
  -4  -2   5  740.43   34.40
   3   2  -5 2224.78   79.59
   3   2  -5 2225.18   78.89
  -3  -2   5 2159.88   80.09
  -3  -2   5 2175.38   78.29
   2   2  -5 2922.71  101.49
   2   2  -5 2851.91  102.09
   2   2  -5 3015.00  103.69
  -2  -2   5 2994.80  102.59
  -2  -2   5 2944.51  103.49
  -2  -2   5 2975.20  101.29
   1   2  -5   32.10    4.90
   1   2  -5   32.70    5.40
   1   2  -5   28.70    4.00
  -1  -2   5   31.30    4.10
  -1  -2   5   31.50    4.70
  -1  -2   5   37.90    3.50
   0   2  -5   30.00    4.10
   0   2  -5   37.10    5.60
   0   2  -5   36.40    4.90
   0  -2   5   31.50    3.10
   0  -2   5   31.00    4.30
  -1   2  -5  866.51   33.90
  -1   2  -5  907.21   33.80
  -1   2  -5  860.41   33.00
  -1   2  -5  815.62   32.70
   1  -2   5  874.61   33.20
  -2   2  -5   49.90    5.50
  -2   2  -5   53.99    5.30
  -2   2  -5   55.49    5.20
  -2   2  -5   55.19    6.10
  -3   2  -5  208.68   12.20
  -3   2  -5  204.18   11.50
  -3   2  -5  227.28   12.60
  -3   2  -5  198.28   11.00
  -4   2  -5  121.99    9.00
  -4   2  -5  121.49   10.00
  -4   2  -5  126.69    9.70
  -4   2  -5  126.29    8.00
   4  -2   5  124.79    7.50
  -5   2  -5   12.80    4.20
  -5   2  -5   24.60    5.60
  -5   2  -5   16.30    4.60
   5  -2   5   12.70    3.20
  -6   2  -5  381.76   21.60
  -6   2  -5  371.96   20.60
  -6   2  -5  375.26   20.70
   6  -2   5  402.16   18.40
  -7   2  -5   20.80    6.00
  -7   2  -5   18.20    6.10
   7  -2   5   19.80    4.60
  -8   2  -5   -1.50    3.50
   8  -2   5    3.80    3.20
  -9   2  -5  108.29   10.10
   9  -2   5  124.09    9.20
  -8  -1   5   -4.60    2.70
  -7  -1   5   10.20    4.60
   6   1  -5    7.80    3.90
  -6  -1   5   20.70    5.60
   5   1  -5  644.04   27.90
   5   1  -5  677.03   28.60
  -5  -1   5  655.53   32.80
  -5  -1   5  738.13   31.70
   4   1  -5  391.56   18.70
   4   1  -5  419.46   19.50
   4   1  -5  449.95   20.90
  -4  -1   5  441.46   23.50
  -4  -1   5  473.55   22.10
   3   1  -5  473.95   22.20
   3   1  -5  501.15   22.40
   3   1  -5  479.85   20.60
  -3  -1   5  500.45   22.10
  -3  -1   5  493.75   23.90
   2   1  -5 1535.45   54.29
   2   1  -5 1526.15   54.99
  -2  -1   5 1470.35   53.29
  -2  -1   5 1421.76   55.19
  -2  -1   5 1470.05   55.29
   1   1  -5   14.40    3.80
   1   1  -5    8.20    2.20
  -1  -1   5    8.50    3.30
  -1  -1   5   11.30    2.50
  -1  -1   5    8.20    2.00
  -1  -1   5    9.20    2.30
   0   1  -5 4704.03  154.58
   0   1  -5 4601.44  155.68
   0   1  -5 4882.11  155.48
   0   1  -5 4323.57  153.08
   0  -1   5 4365.46  152.38
   0  -1   5 4787.42  152.38
   0  -1   5 4600.74  152.48
   0  -1   5 4612.84  155.28
  -1   1  -5 6371.56  209.28
  -1   1  -5 6226.78  208.58
  -2   1  -5  101.59    6.90
  -2   1  -5  102.69    7.00
  -2   1  -5  106.39    7.30
  -2   1  -5  114.19    7.80
  -3   1  -5  304.47   14.30
  -3   1  -5  325.57   16.40
  -3   1  -5  312.67   15.10
  -3   1  -5  319.87   16.00
   3  -1   5  328.87   14.00
  -4   1  -5  436.96   18.10
  -4   1  -5  417.96   19.90
  -4   1  -5  447.06   20.30
  -4   1  -5  425.56   17.00
  -4   1  -5  468.55   21.40
   4  -1   5  429.46   17.40
  -5   1  -5  206.48   12.90
  -5   1  -5  190.98   12.60
  -5   1  -5  217.18   14.00
   5  -1   5  196.78   10.60
  -6   1  -5  334.47   19.80
  -6   1  -5  326.97   18.10
  -6   1  -5  305.77   18.10
   6  -1   5  320.97   16.00
  -7   1  -5   -0.20    3.50
  -7   1  -5   -0.30    4.90
   7  -1   5   -3.30    2.50
  -8   1  -5  113.39   13.30
  -8   1  -5  178.88   13.60
   8  -1   5  159.08   11.20
  -9   1  -5   53.09    7.90
   9  -1   5   72.89    7.30
  -8   0   5   11.70    4.30
   7   0  -5   91.09    9.40
  -7   0   5  114.89   10.50
   6   0  -5    5.70    3.90
  -6   0   5   -1.40    2.80
   5   0  -5  796.42   34.90
  -5   0   5  856.01   36.00
  -5   0   5  792.42   37.80
   4   0  -5   -2.30    2.40
   4   0  -5   -0.10    2.30
  -4   0   5    1.20    2.90
  -4   0   5    1.70    3.70
   3   0  -5   36.10    4.80
   3   0  -5   40.30    5.10
   3   0  -5   36.80    5.70
   3   0  -5   27.00    4.10
  -3   0   5   32.70    8.20
  -3   0   5   45.90    7.50
  -3   0   5   39.90    5.10
   2   0  -5   26.00    3.60
   2   0  -5   36.40    4.70
  -2   0   5   31.80    4.70
  -2   0   5   34.00    5.00
  -2   0   5   37.50    6.00
  -2   0   5   34.20    4.70
   1   0  -5    5.80    2.20
   1   0  -5    2.10    2.50
   1   0  -5    6.40    2.50
  -1   0   5    7.10    2.50
  -1   0   5    7.20    3.20
  -1   0   5    6.80    2.40
   0   0  -5 1080.49   39.10
   0   0  -5 1012.90   37.50
   0   0  -5 1010.40   37.90
   0   0  -5 1082.89   38.70
   0   0   5 1044.50   39.10
   0   0   5 1028.50   37.70
  -1   0  -5   47.50    4.90
  -1   0  -5   53.79    3.50
  -1   0  -5   37.60    4.60
  -1   0  -5   44.30    4.40
   1   0   5   40.20    3.40
  -2   0  -5 2367.36   81.59
  -2   0  -5 2309.07   81.19
  -2   0  -5 2544.15   82.49
  -2   0  -5 2328.27   81.49
  -2   0  -5 2248.38   78.99
   2   0   5 2414.26   79.29
  -3   0  -5 3144.99  109.79
  -3   0  -5 3192.98  109.39
  -3   0  -5 3294.87  110.09
  -3   0  -5 3312.67  110.99
  -3   0  -5 3224.98  108.99
   3   0   5 3163.08  107.39
  -4   0  -5 1426.96   51.99
  -4   0  -5 1385.86   51.29
  -4   0  -5 1297.77   49.10
  -4   0  -5 1490.85   53.29
   4   0   5 1434.46   49.30
  -5   0  -5  355.86   17.70
  -5   0  -5  353.16   18.10
  -5   0  -5  365.06   19.40
   5   0   5  335.37   15.70
  -6   0  -5  334.97   18.10
  -6   0  -5  305.07   19.40
  -6   0  -5  312.57   18.30
   6   0   5  337.77   16.30
  -7   0  -5    4.00    4.60
  -7   0  -5    2.70    3.80
   7   0   5   -0.10    3.00
  -8   0  -5  121.19   11.80
  -8   0  -5  104.59   12.00
   8   0   5  106.59    9.60
  -9   0  -5   12.30    5.00
   9   0   5   14.20    4.60
 -10   0  -5   -2.10    3.20
  10   0   5    4.50    3.20
   8  -1  -5   11.30    6.00
  -8   1   5    8.70    3.70
   7  -1  -5    3.50    3.80
  -7   1   5    0.90    3.10
   6  -1  -5    5.40    4.00
  -6   1   5   11.60    4.30
   5  -1  -5    2.80    3.10
  -5   1   5    5.60    4.00
  -5   1   5    7.50    4.80
   4  -1  -5   34.70    4.80
   4  -1  -5   40.70    5.90
  -4   1   5   37.80    6.40
  -4   1   5   36.60    7.40
   3  -1  -5   39.70    5.70
   3  -1  -5   37.30    4.70
  -3   1   5   35.10    6.20
  -3   1   5   47.10    5.50
   2  -1  -5   35.20    4.50
   2  -1  -5   30.80    4.70
   2  -1  -5   29.70    4.10
   2  -1  -5   32.60    5.00
  -2   1   5   31.10    5.40
  -2   1   5   37.90    4.90
  -2   1   5   35.70    5.30
   1  -1  -5 2473.65   84.69
   1  -1  -5 2375.36   86.19
   1  -1  -5 2534.75   85.59
  -1   1   5 2481.75   86.69
  -1   1   5 2528.25   86.39
  -1   1   5 2403.86   84.49
   0  -1  -5  950.50   35.10
   0  -1  -5  968.50   35.60
   0  -1  -5  920.61   34.30
   0  -1  -5  953.70   35.00
   0  -1  -5  976.00   35.60
   0   1   5  866.81   33.70
   0   1   5  962.60   35.60
   0   1   5  941.11   35.80
  -1  -1  -5  316.27   13.70
  -1  -1  -5  325.07   14.70
  -1  -1  -5  331.97   14.40
  -1  -1  -5  308.07   13.70
  -1  -1  -5  320.37   14.30
   1   1   5  297.27   12.80
   1   1   5  337.67   14.30
  -2  -1  -5 1084.99   39.20
  -2  -1  -5 1092.19   39.70
  -2  -1  -5 1123.29   40.30
  -2  -1  -5 1129.09   40.00
  -2  -1  -5 1022.50   38.70
   2   1   5 1085.69   38.00
   2   1   5 1056.09   39.00
  -3  -1  -5   62.69    5.20
  -3  -1  -5   55.39    4.80
  -3  -1  -5   61.09    4.60
  -3  -1  -5   57.59    4.90
  -3  -1  -5   60.89    5.50
  -3  -1  -5   58.49    5.90
   3   1   5   65.79    4.50
   3   1   5   65.79    5.20
  -4  -1  -5 5530.75  190.88
  -4  -1  -5 5850.41  190.08
  -4  -1  -5 5668.23  186.18
  -4  -1  -5 5534.75  188.88
   4   1   5 5676.93  187.68
  -5  -1  -5   11.50    3.80
  -5  -1  -5   14.60    4.30
  -5  -1  -5   12.80    3.30
   5   1   5    9.60    2.80
  -6  -1  -5   41.70    7.10
  -6  -1  -5   76.29    8.90
   6   1   5   64.49    6.40
  -7  -1  -5  137.49   13.10
  -7  -1  -5  137.29   12.00
   7   1   5  123.69   10.10
  -8  -1  -5   36.50    8.00
  -8  -1  -5   38.90    8.10
   8   1   5   37.00    6.60
  -9  -1  -5   87.29    9.70
   9   1   5   76.29    8.30
 -10  -1  -5    5.10    3.30
  10   1   5    5.30    3.70
   8  -2  -5   56.49    9.90
  -8   2   5   46.80    6.80
  -8   2   5   42.30    9.20
   7  -2  -5   21.80    5.50
   6  -2  -5   51.59    7.90
  -6   2   5   51.59    7.90
   5  -2  -5    3.10    3.60
  -5   2   5   -3.40    3.60
  -5   2   5    1.40    3.10
   4  -2  -5   60.29    6.60
   4  -2  -5   44.80    5.20
  -4   2   5   49.00    8.10
   3  -2  -5   -0.50    2.40
   3  -2  -5   -2.40    1.70
  -3   2   5    1.90    3.10
  -3   2   5    1.40    2.30
   2  -2  -5   77.89    6.30
   2  -2  -5   77.19    9.00
   2  -2  -5   68.19    5.90
   2  -2  -5   80.39    6.30
  -2   2   5   74.19    6.70
  -2   2   5   77.59    7.40
   1  -2  -5  209.18   10.20
   1  -2  -5  197.88   11.70
   1  -2  -5  179.58    9.60
   1  -2  -5  203.28   11.10
   1  -2  -5  199.28   10.80
  -1   2   5  193.88   10.50
  -1   2   5  192.48   12.20
  -1   2   5  211.48   11.80
   0  -2  -5  483.15   19.80
   0  -2  -5  446.46   18.10
   0  -2  -5  476.95   18.70
   0  -2  -5  471.05   19.70
   0  -2  -5  472.85   19.10
   0  -2  -5  487.65   20.30
   0   2   5  436.96   20.50
   0   2   5  477.75   20.20
   0   2   5  451.25   18.80
  -1  -2  -5  190.68   10.00
  -1  -2  -5  178.38    8.90
  -1  -2  -5  191.18    9.90
  -1  -2  -5  174.68   10.60
  -1  -2  -5  183.68    9.90
   1   2   5  186.58   10.40
   1   2   5  175.68    8.80
  -3  -2  -5 5618.74  202.38
  -3  -2  -5 6108.19  201.58
  -3  -2  -5 6194.08  201.78
  -3  -2  -5 6051.99  200.78
   3   2   5 6133.99  200.78
   3   2   5 6274.87  203.08
  -4  -2  -5 1051.39   39.00
  -4  -2  -5 1003.60   39.70
  -4  -2  -5  980.20   37.30
  -4  -2  -5 1103.79   37.90
  -4  -2  -5  953.70   39.60
   4   2   5 1054.29   37.70
   4   2   5 1032.50   39.70
  -5  -2  -5    1.90    2.40
  -5  -2  -5    4.40    1.80
  -5  -2  -5    2.00    2.60
  -5  -2  -5    1.30    2.20
   5   2   5    0.00    1.80
  -6  -2  -5   -0.60    2.60
  -6  -2  -5    2.10    3.30
   6   2   5    3.30    2.70
  -7  -2  -5   35.30    7.80
  -7  -2  -5   39.00    7.90
   7   2   5   34.90    6.10
  -8  -2  -5   29.10    7.50
  -8  -2  -5   18.80    5.60
   8   2   5   24.60    5.70
  -9  -2  -5   18.40    7.60
  -9  -2  -5   26.20    6.90
   9   2   5   23.50    5.50
 -10  -2  -5   13.90    7.80
  10   2   5   13.00    6.10
   7  -3  -5   -1.10    3.40
  -7   3   5   -4.10    7.10
   6  -3  -5   31.90    5.80
  -6   3   5   38.40    6.20
   5  -3  -5  195.28   13.30
  -5   3   5  198.18   16.00
  -5   3   5  220.88   14.40
   4  -3  -5  294.17   15.90
  -4   3   5  266.37   16.10
  -4   3   5  267.07   17.70
   3  -3  -5  125.69    9.40
   3  -3  -5  128.09    8.40
  -3   3   5  125.99   10.80
  -3   3   5  136.39    9.90
   2  -3  -5  245.88   15.70
   2  -3  -5  264.27   13.20
   2  -3  -5  267.77   13.90
  -2   3   5  255.27   14.70
  -2   3   5  246.08   13.60
  -2   3   5  251.37   16.20
   1  -3  -5 3359.06  114.99
   1  -3  -5 3470.35  116.79
   1  -3  -5 3304.17  115.59
   1  -3  -5 3272.67  118.59
   1  -3  -5 3368.26  116.19
  -1   3   5 3413.16  120.19
  -1   3   5 3586.64  116.89
  -1   3   5 3587.64  117.89
   0  -3  -5   21.00    3.40
   0  -3  -5   13.00    2.60
   0  -3  -5   13.90    3.40
   0  -3  -5   11.90    3.00
   0   3   5   13.30    3.00
   0   3   5   16.30    3.70
   0   3   5   11.60    3.30
  -1  -3  -5 3801.82  125.09
  -1  -3  -5 3478.55  123.39
  -1  -3  -5 3660.83  126.39
  -1  -3  -5 3916.71  124.29
   1   3   5 3834.32  125.69
   1   3   5 3551.84  124.29
   1   3   5 3708.33  127.29
  -2  -3  -5  277.77   12.40
  -2  -3  -5  298.37   14.10
  -2  -3  -5  272.57   12.00
  -2  -3  -5  287.57   14.50
  -2  -3  -5  298.97   13.30
   2   3   5  281.37   14.70
   2   3   5  296.47   13.00
  -3  -3  -5  224.88   10.80
  -3  -3  -5  218.48   10.90
  -3  -3  -5  225.88   11.60
  -3  -3  -5  218.48   12.50
  -3  -3  -5  206.18   10.20
   3   3   5  222.38   12.60
   3   3   5  221.68   10.90
  -4  -3  -5  792.52   30.40
  -4  -3  -5  879.91   33.60
  -4  -3  -5  874.51   35.20
  -4  -3  -5  837.92   31.30
   4   3   5  820.02   34.30
   4   3   5  842.72   32.00
  -5  -3  -5   37.20    4.20
  -5  -3  -5   29.70    3.90
  -5  -3  -5   41.60    4.10
  -5  -3  -5   40.90    5.10
  -5  -3  -5   41.10    6.60
   5   3   5   46.00    4.90
  -6  -3  -5  233.58   12.30
  -6  -3  -5  254.47   15.20
  -6  -3  -5  270.47   16.60
   6   3   5  275.87   14.60
  -7  -3  -5   21.00    5.70
  -7  -3  -5   27.20    6.50
   7   3   5   29.10    5.70
  -8  -3  -5    4.60    5.20
  -8  -3  -5   -0.20    3.80
   8   3   5    3.50    3.80
  -9  -3  -5   19.10    7.10
  -9  -3  -5   26.20    6.60
   9   3   5   30.00    6.30
 -10  -3  -5    9.40    5.00
  10   3   5    7.70    4.10
   7  -4  -5   -3.40    3.10
   6  -4  -5   -5.70    2.80
  -6   4   5   -3.80    3.40
   5  -4  -5    8.30    4.20
  -5   4   5    2.70    3.10
  -5   4   5   17.00    6.30
   4  -4  -5   20.80    5.20
  -4   4   5   23.40    6.40
  -4   4   5   18.50    5.30
   3  -4  -5 1863.51   68.89
   3  -4  -5 2003.10   70.89
  -3   4   5 2010.90   71.69
  -3   4   5 1951.30   73.29
   2  -4  -5  463.65   24.80
   2  -4  -5  469.15   20.50
   2  -4  -5  473.25   21.40
   2  -4  -5  481.35   21.00
  -2   4   5  461.55   25.70
  -2   4   5  486.55   21.90
  -2   4   5  494.65   22.90
   1  -4  -5  638.24   29.00
   1  -4  -5  651.23   26.10
   1  -4  -5  670.73   26.80
  -1   4   5  647.14   30.30
  -1   4   5  642.84   26.80
  -1   4   5  655.53   27.30
   0  -4  -5  574.04   25.70
   0  -4  -5  576.14   21.70
   0  -4  -5  581.44   23.70
   0  -4  -5  571.14   22.80
   0   4   5  572.64   24.00
   0   4   5  576.24   24.90
   0   4   5  582.64   26.70
  -1  -4  -5 3538.25  121.99
  -1  -4  -5 3674.63  118.09
  -1  -4  -5 3517.95  117.69
  -1  -4  -5 3390.36  118.59
  -1  -4  -5 3475.25  119.69
   1   4   5 3579.54  119.99
   1   4   5 3515.75  119.59
   1   4   5 3574.04  123.19
  -2  -4  -5 3782.72  127.69
  -2  -4  -5 3621.54  123.59
  -2  -4  -5 3462.15  123.39
  -2  -4  -5 3847.31  125.09
   2   4   5 3693.23  127.89
   2   4   5 3758.62  124.79
  -3  -4  -5 1210.58   42.60
  -3  -4  -5 1167.78   46.30
  -3  -4  -5 1226.88   43.60
  -3  -4  -5 1150.28   43.20
  -3  -4  -5 1189.68   42.80
   3   4   5 1145.69   49.30
   3   4   5 1257.77   46.70
  -4  -4  -5  502.65   21.70
  -4  -4  -5  511.15   20.80
  -4  -4  -5  533.55   21.70
  -4  -4  -5  527.25   25.10
  -4  -4  -5  537.65   22.70
   4   4   5  537.75   22.30
   4   4   5  508.25   24.50
  -5  -4  -5   87.89    6.70
  -5  -4  -5   84.69    6.50
  -5  -4  -5   97.49    8.30
  -5  -4  -5   95.89    7.70
   5   4   5   92.79    7.50
  -6  -4  -5  467.85   20.60
  -6  -4  -5  518.95   23.60
  -6  -4  -5  480.65   20.90
  -6  -4  -5  504.25   24.70
   6   4   5  489.45   22.70
  -7  -4  -5    0.60    3.00
  -7  -4  -5   -0.60    2.70
  -7  -4  -5   -0.40    3.00
   7   4   5    2.10    3.20
  -8  -4  -5   -3.60    3.20
  -8  -4  -5   -1.80    3.40
   8   4   5    2.30    3.60
  -9  -4  -5    0.20    3.90
  -9  -4  -5    5.40    5.60
   9   4   5   -0.30    3.40
 -10  -4  -5   26.30    6.70
   7  -5  -5    5.80    3.50
   6  -5  -5   -0.70    3.30
  -5   5   5   34.80    8.40
   4  -5  -5  179.58   12.70
  -4   5   5  181.68   12.70
  -4   5   5  174.68   14.30
   3  -5  -5    1.50    3.20
  -3   5   5   -0.60    2.80
  -3   5   5   -1.60    2.90
   2  -5  -5    4.80    2.90
   2  -5  -5    5.90    2.50
   2  -5  -5    4.60    3.20
  -2   5   5    2.20    2.80
  -2   5   5   13.10    4.20
   1  -5  -5  275.47   17.10
   1  -5  -5  277.97   14.50
   1  -5  -5  275.27   14.30
  -1   5   5  282.17   18.70
  -1   5   5  278.37   14.70
  -1   5   5  280.87   15.10
   0  -5  -5  231.48   14.70
   0  -5  -5  254.17   12.60
   0  -5  -5  238.18   12.90
   0   5   5  249.18   15.90
   0   5   5  263.17   13.10
   0   5   5  247.98   13.20
  -1  -5  -5    7.90    2.70
  -1  -5  -5    9.20    3.00
  -1  -5  -5    5.90    2.50
   1   5   5    1.00    2.80
   1   5   5    4.80    2.60
   1   5   5   10.70    3.30
  -2  -5  -5 2420.76   81.69
  -2  -5  -5 2263.37   78.69
  -2  -5  -5 2301.27   84.49
  -2  -5  -5 2350.96   78.99
   2   5   5 2266.57   79.59
   2   5   5 2353.86   81.39
   2   5   5 2416.96   85.49
  -3  -5  -5 3622.54  118.79
  -3  -5  -5 3584.54  117.79
  -3  -5  -5 3458.15  116.59
  -3  -5  -5 3204.08  121.59
  -3  -5  -5 3579.94  117.19
   3   5   5 3474.65  118.59
   3   5   5 3378.06  121.89
  -4  -5  -5 5005.90  164.38
  -4  -5  -5 5012.80  164.18
  -4  -5  -5 4922.61  163.18
  -4  -5  -5 4631.34  162.98
  -4  -5  -5 4760.02  169.38
   4   5   5 4904.01  164.58
   4   5   5 4825.02  168.48
  -5  -5  -5  280.57   14.70
  -5  -5  -5  291.17   14.70
  -5  -5  -5  282.17   15.40
  -5  -5  -5  290.87   14.20
   5   5   5  281.27   15.20
  -6  -5  -5 1306.07   51.69
  -6  -5  -5 1295.27   49.20
  -6  -5  -5 1359.46   50.79
  -6  -5  -5 1310.27   48.90
  -7  -5  -5  213.28   12.40
  -7  -5  -5  189.48   11.40
  -7  -5  -5  205.98   14.10
  -7  -5  -5  209.68   14.90
  -8  -5  -5  486.45   22.70
  -8  -5  -5  512.45   26.20
  -8  -5  -5  510.05   27.40
  -9  -5  -5  532.35   30.50
  -9  -5  -5  583.24   29.10
   9   5   5  589.74   28.30
 -10  -5  -5  286.87   17.50
  10   5   5  284.17   17.00
   5  -6  -5  126.79   10.70
   4  -6  -5   30.80    6.50
  -4   6   5   16.50    4.70
   3  -6  -5  181.48   10.40
   3  -6  -5  192.38   13.20
  -3   6   5  192.08   12.60
  -3   6   5  166.58   13.10
   2  -6  -5  315.97   16.40
   2  -6  -5  310.57   16.90
  -2   6   5  316.57   17.20
  -2   6   5  307.27   16.90
   1  -6  -5  211.38   12.50
   1  -6  -5  225.78   12.80
  -1   6   5  208.88   12.80
  -1   6   5  213.68   12.30
   0  -6  -5 1537.15   54.19
   0  -6  -5 1512.15   59.09
   0  -6  -5 1568.94   54.89
   0   6   5 1501.35   53.79
   0   6   5 1365.06   59.39
   0   6   5 1363.16   51.89
   0   6   5 1508.15   54.89
  -1  -6  -5  569.34   23.50
  -1  -6  -5  599.54   24.50
  -1  -6  -5  574.54   27.30
   1   6   5  535.35   21.90
   1   6   5  570.04   24.30
   1   6   5  568.54   23.20
   1   6   5  531.35   27.80
  -2  -6  -5  111.19   10.10
  -2  -6  -5  126.29    8.80
  -2  -6  -5  121.79    5.40
  -2  -6  -5  123.49    8.00
   2   6   5  119.89    7.80
   2   6   5  112.99    7.50
   2   6   5  128.79    8.70
   2   6   5  104.79   10.30
  -3  -6  -5   14.50    3.90
  -3  -6  -5   18.40    3.70
  -3  -6  -5   16.00    4.80
  -3  -6  -5   12.70    2.30
   3   6   5   14.70    3.20
   3   6   5   15.30    3.80
   3   6   5   14.70    4.60
  -4  -6  -5   95.59    7.20
  -4  -6  -5  108.59   10.30
  -4  -6  -5   95.79    6.40
  -4  -6  -5   88.09    7.70
  -4  -6  -5  101.29    7.00
   4   6   5   94.99    8.10
   4   6   5   80.69   10.30
  -5  -6  -5 3255.37  107.09
  -5  -6  -5 3036.40  107.29
  -5  -6  -5 2926.61  106.19
  -5  -6  -5 3111.69  107.79
   5   6   5 3120.09  108.29
  -6  -6  -5 2723.13  100.49
  -6  -6  -5 2811.22   99.59
  -6  -6  -5 2862.71   99.79
  -6  -6  -5 2912.51  101.49
   6   6   5 2837.02  100.69
  -7  -6  -5  364.26   18.40
  -7  -6  -5  363.96   19.40
  -7  -6  -5  343.27   18.10
  -7  -6  -5  337.67   19.90
   7   6   5  383.76   20.30
  -8  -6  -5 2814.92  107.09
  -8  -6  -5 2934.11  105.79
  -8  -6  -5 2905.51  102.89
   8   6   5 3039.30  106.09
  -9  -6  -5  211.38   14.90
   9   6   5  217.28   15.20
 -10  -6  -5  287.77   17.00
  10   6   5  277.67   17.50
   6  -7  -5   18.20    4.40
   5  -7  -5    0.30    3.50
   4  -7  -5  153.88   12.00
   3  -7  -5  168.58   12.40
  -3   7   5  126.79   10.70
   2  -7  -5   -1.30    3.20
   2  -7  -5   -1.00    2.60
  -2   7   5    5.40    3.60
   1  -7  -5   28.80    5.50
   1  -7  -5   28.80    5.70
  -1   7   5   27.80    5.40
   0  -7  -5    4.50    3.10
   0  -7  -5   -0.70    2.60
   0   7   5    4.60    3.30
   0   7   5   -0.60    2.00
   0   7   5   -1.20    2.40
  -1  -7  -5   10.30    3.50
  -1  -7  -5    6.50    3.20
   1   7   5   10.40    2.50
   1   7   5    7.60    3.70
   1   7   5    1.00    2.40
  -2  -7  -5   91.49    8.10
  -2  -7  -5   87.99    7.30
   2   7   5   93.59    6.40
   2   7   5   91.69    7.90
   2   7   5   83.49    6.80
  -3  -7  -5 1153.38   42.70
  -3  -7  -5 1121.09   43.80
   3   7   5 1090.09   42.50
   3   7   5 1122.99   43.50
  -4  -7  -5  188.98   12.50
  -4  -7  -5  185.18    9.60
  -4  -7  -5  209.98   11.90
   4   7   5  200.68   12.40
   4   7   5  194.58   12.30
  -5  -7  -5  442.26   20.10
  -5  -7  -5  456.45   21.80
  -5  -7  -5  431.46   19.10
   5   7   5  441.96   22.10
  -6  -7  -5 1382.96   53.79
  -6  -7  -5 1469.25   53.29
  -6  -7  -5 1359.76   53.29
   6   7   5 1379.46   54.19
  -7  -7  -5    4.80    3.60
  -7  -7  -5    0.70    5.30
  -7  -7  -5    7.60    3.60
  -7  -7  -5    5.00    3.30
   7   7   5    8.10    4.50
  -8  -7  -5  459.95   25.20
  -8  -7  -5  560.44   27.20
  -8  -7  -5  499.55   23.40
  -9  -7  -5   -0.80    3.20
  -9  -7  -5   -5.70    3.70
   9   7   5    6.90    4.20
 -10  -7  -5    5.80    3.80
  10   7   5   -2.20    3.50
  10   7   5    6.20    4.20
   5  -8  -5   14.00    4.50
   4  -8  -5    2.60    3.40
   3  -8  -5   63.69    8.50
   2  -8  -5   81.29    8.90
   2  -8  -5   63.89    7.50
   1  -8  -5   52.89    6.90
   1  -8  -5   53.89    8.20
  -1   8   5   45.30    6.90
   0  -8  -5  574.84   25.90
   0  -8  -5  606.54   26.20
   0   8   5  536.45   23.70
   0   8   5  560.34   25.50
  -1  -8  -5  132.09   10.00
  -1  -8  -5  130.49   10.30
   1   8   5  125.29    8.80
   1   8   5  127.89   10.30
  -2  -8  -5  223.78   12.90
  -2  -8  -5  218.48   13.60
   2   8   5  201.68   13.00
   2   8   5  200.48   12.00
  -3  -8  -5   31.90    5.50
  -3  -8  -5   43.50    7.30
   3   8   5   41.90    6.40
   3   8   5   39.70    6.60
  -4  -8  -5   49.60    6.30
  -4  -8  -5   46.20    7.20
   4   8   5   49.10    6.90
  -5  -8  -5    5.80    3.70
  -5  -8  -5    8.40    3.50
   5   8   5    6.70    4.00
   5   8   5    0.50    3.30
  -6  -8  -5  889.01   35.90
  -6  -8  -5  768.02   32.90
  -6  -8  -5  879.21   36.90
   6   8   5  873.21   38.10
   6   8   5  872.11   36.50
  -7  -8  -5  125.09   10.50
  -7  -8  -5  123.79    9.60
  -7  -8  -5  120.89   10.20
   7   8   5  122.49   11.30
   7   8   5  128.29   11.20
  -8  -8  -5   62.59    7.30
  -8  -8  -5   63.59    7.30
   8   8   5   71.49    9.70
   8   8   5   71.79    8.10
  -9  -8  -5    7.40    5.70
  -9  -8  -5   10.00    6.20
   9   8   5    3.30    3.70
   9   8   5   13.50    5.30
  10   8   5    1.80    3.70
   4  -9  -5   14.60    4.20
   3  -9  -5   62.29    8.10
   2  -9  -5   13.80    5.10
   2  -9  -5    5.20    3.50
   1  -9  -5   59.89    8.20
   1  -9  -5   61.79    7.30
   0  -9  -5   -0.60    3.50
   0  -9  -5    1.20    3.00
   0   9   5   -0.40    2.70
  -1  -9  -5  452.45   22.60
  -1  -9  -5  464.25   22.20
   1   9   5  440.96   20.60
   1   9   5  447.46   21.80
  -2  -9  -5  605.14   26.90
   2   9   5  593.84   27.00
   2   9   5  597.74   26.30
  -3  -9  -5    7.10    4.20
  -3  -9  -5    4.50    3.80
   3   9   5    6.00    3.40
   3   9   5    2.70    3.20
  -4  -9  -5  105.09   10.00
  -4  -9  -5  110.19    9.40
   4   9   5   82.89    9.00
   4   9   5  103.59    9.60
  -5  -9  -5  126.89   11.20
  -5  -9  -5  133.49   10.60
   5   9   5  116.59   10.60
   5   9   5  116.09   10.20
  -6  -9  -5   -3.90    2.60
  -6  -9  -5    2.10    3.00
   6   9   5    3.70    3.30
   6   9   5   -4.50    2.70
  -7  -9  -5   89.29    8.70
  -7  -9  -5   75.79    8.70
   7   9   5   99.19   10.30
   7   9   5   85.89    9.00
  -8  -9  -5   18.20    4.70
  -8  -9  -5   12.00    4.00
   8   9   5    7.50    4.40
   8   9   5   17.00    5.70
  -9  -9  -5   35.90    5.90
   9   9   5   19.00    5.70
   9   9   5   43.00    7.40
   3 -10  -5   18.90    5.00
   2 -10  -5  151.48   11.80
   1 -10  -5  963.70   38.90
   1 -10  -5  858.61   36.70
   0 -10  -5   84.39    8.60
   0 -10  -5   93.79    9.90
  -1 -10  -5  422.56   21.70
  -1 -10  -5  423.86   21.70
   1  10   5  417.66   20.10
  -2 -10  -5   -1.60    3.10
  -2 -10  -5    5.50    3.60
   2  10   5    2.80    3.40
  -3 -10  -5  551.54   25.70
  -3 -10  -5  552.24   26.80
   3  10   5  526.45   25.20
  -4 -10  -5   65.69    7.60
  -4 -10  -5   63.79    8.70
   4  10   5   66.09    8.10
  -5 -10  -5   81.59    8.40
  -5 -10  -5   85.49    9.70
   5  10   5   79.19    8.80
  -6 -10  -5   15.10    4.80
  -6 -10  -5   14.90    4.50
   6  10   5    4.70    3.80
   6  10   5   -0.60    4.90
  -7 -10  -5   31.80    6.00
  -7 -10  -5   29.70    5.80
   7  10   5   25.40    6.60
   7  10   5   14.90    6.20
  -8 -10  -5   52.49    6.60
  -8 -10  -5   26.80    6.10
   8  10   5   31.70    6.60
  -9 -10  -5   36.60    6.00
   2 -11  -5    1.70    3.10
   1 -11  -5  259.87   15.60
   0 -11  -5   17.70    5.00
   0 -11  -5    3.00    5.00
  -1 -11  -5  137.69   10.80
  -1 -11  -5  128.69   10.90
  -2 -11  -5   13.60    4.40
  -2 -11  -5    7.40    5.60
   2  11   5    7.70    3.80
  -3 -11  -5   62.99    7.80
  -3 -11  -5   51.49    8.10
   3  11   5   61.99    8.30
  -4 -11  -5    9.00    4.30
  -4 -11  -5   15.40    5.90
   4  11   5   17.10    4.80
  -5 -11  -5  415.36   20.70
  -5 -11  -5  381.16   21.50
   5  11   5  396.06   21.30
  -6 -11  -5  199.08   13.70
  -6 -11  -5  186.38   12.60
   6  11   5  197.18   13.90
  -7 -11  -5    0.60    4.70
  -7 -11  -5    2.60    3.40
   7  11   5    1.50    4.90
  -8 -11  -5    3.80    3.20
   8  11   5    5.40    3.60
   1 -12  -5   26.40    4.60
   0 -12  -5    7.80    3.90
  -1 -12  -5   28.60    6.00
  -2 -12  -5  108.59    9.40
  -2 -12  -5   94.89    9.40
  -3 -12  -5  254.27   16.10
  -3 -12  -5  256.97   15.10
   3  12   5  256.17   14.70
  -4 -12  -5    5.60    3.70
  -4 -12  -5    3.10    3.50
   4  12   5   -3.80    4.10
  -5 -12  -5   56.29    7.90
  -5 -12  -5   53.59    7.60
   5  12   5   55.99    7.30
  -6 -12  -5   66.79    8.40
  -6 -12  -5   66.19    7.10
   6  12   5   48.10    7.10
  -7 -12  -5   86.69    7.90
   7  12   5   78.59   10.50
  -2 -13  -5    3.20    3.20
  -3 -13  -5  107.89    8.80
  -4 -13  -5   40.00    5.80
  -5 -13  -5    0.80    2.80
   4   9  -6  125.89   11.40
   3   9  -6  116.79   10.50
   3   9  -6  107.09   11.00
   2   9  -6  862.81   38.50
   2   9  -6  822.42   36.10
   1   9  -6   18.60    5.60
   1   9  -6   12.80    5.30
   0   9  -6   61.39    8.70
   0   9  -6   77.19    9.20
  -1   9  -6   26.50    5.80
  -2   9  -6   -4.80    3.10
   5   8  -6   27.30    8.20
   5   8  -6   30.80    6.40
  -5  -8   6   41.00    7.10
   4   8  -6  545.35   26.40
  -4  -8   6  642.84   32.50
  -4  -8   6  556.54   23.40
   3   8  -6   54.09    8.00
   3   8  -6   43.10    8.00
  -3  -8   6   32.70    6.20
   2   8  -6   14.90    5.80
   2   8  -6    5.00    4.10
  -2  -8   6   16.10    5.10
   1   8  -6   21.90    7.00
   1   8  -6   31.50    7.00
  -1  -8   6   19.80    5.20
   0   8  -6  336.47   21.00
   0   8  -6  342.37   20.80
  -1   8  -6   78.89    9.70
  -1   8  -6   85.39   10.00
  -2   8  -6    4.40    4.70
  -3   8  -6  163.38   15.10
  -4   8  -6   -1.40    3.00
   6   7  -6    3.20    4.90
  -6  -7   6    0.10    2.50
   5   7  -6    1.10    4.80
   5   7  -6   -3.80    4.20
  -5  -7   6   -1.10    3.20
  -5  -7   6   -3.00    3.50
   4   7  -6   30.90    6.50
   4   7  -6   15.70    5.70
  -4  -7   6   16.50    4.30
  -4  -7   6   10.00    4.50
   3   7  -6    9.40    5.00
   3   7  -6    3.90    4.40
  -3  -7   6   -1.90    3.00
   2   7  -6  320.57   20.90
   2   7  -6  298.47   19.10
  -2  -7   6  301.67   18.10
  -1  -7   6   20.50    4.90
   0   7  -6  303.27   24.90
   0   7  -6  266.47   27.20
   0  -7   6  293.37   16.20
  -1   7  -6   77.09    9.80
  -1   7  -6   84.09   10.20
  -2   7  -6  189.18   13.70
  -2   7  -6  196.28   14.90
  -3   7  -6  185.58   14.20
  -4   7  -6   -5.10    3.30
  -5   7  -6   25.90    5.00
  -7  -6   6  121.69    9.30
   6   6  -6    5.80    4.40
  -6  -6   6    7.20    4.80
   5   6  -6    3.70    4.00
   5   6  -6   -1.70    4.10
  -5  -6   6    0.90    3.00
   4   6  -6    2.20    4.00
   4   6  -6    4.20    4.20
  -4  -6   6    0.60    2.80
   3   6  -6  198.08   14.70
   3   6  -6  201.28   16.60
  -3  -6   6  222.18   12.50
   2   6  -6  461.45   26.60
   2   6  -6  477.75   25.00
  -2  -6   6  462.45   20.10
   1   6  -6   87.99   10.60
   1   6  -6   79.99    9.50
   1   6  -6   84.29    8.30
   0   6  -6  130.29   12.40
   0   6  -6   98.99    8.60
   0   6  -6  116.99   11.20
   0  -6   6  113.99    9.50
  -1   6  -6   82.19    9.70
  -1   6  -6  104.69    8.50
  -1   6  -6   97.89   10.30
   1  -6   6   69.89    9.80
  -2   6  -6    1.30    3.40
  -2   6  -6    1.10    3.70
  -3   6  -6  101.69   12.30
  -4   6  -6  679.53   32.10
  -5   6  -6  219.18   15.00
  -6   6  -6    8.80    4.10
  -7  -5   6   48.70    6.20
   6   5  -6   -9.30    3.80
  -6  -5   6    4.00    3.40
   5   5  -6   66.59    8.70
   5   5  -6   68.89    8.80
  -5  -5   6   63.69    7.60
   4   5  -6   20.80    7.00
   4   5  -6   23.00    5.70
  -4  -5   6   25.90    4.90
   3   5  -6  187.98   15.00
   3   5  -6  188.98   14.00
  -3  -5   6  187.28   11.60
   2   5  -6  186.58   14.50
   2   5  -6  145.89   11.40
   2   5  -6  173.88   12.80
  -2  -5   6  147.19    9.60
   1   5  -6   11.50    4.60
   1   5  -6    4.80    4.10
   1   5  -6    5.60    3.20
  -1  -5   6    5.20    2.40
   0   5  -6    7.60    4.00
   0   5  -6    4.80    3.80
   0   5  -6    2.00    2.70
  -1   5  -6  110.29   10.40
  -1   5  -6  108.99   10.90
  -1   5  -6  116.39    9.40
  -2   5  -6  634.94   28.70
  -2   5  -6  668.33   30.30
  -2   5  -6  649.83   30.50
  -2   5  -6  638.84   27.70
  -3   5  -6  165.28   11.70
  -3   5  -6  159.18   10.70
  -3   5  -6  150.68   11.60
  -3   5  -6  163.28   13.20
  -4   5  -6    0.80    5.90
  -4   5  -6    1.90    4.00
  -4   5  -6    5.40    3.60
  -6   5  -6    1.30    3.70
  -7  -4   6    4.10    3.90
   6   4  -6   70.19    8.20
  -6  -4   6   59.59    7.80
   5   4  -6   74.39    9.00
  -5  -4   6   80.69    9.20
   4   4  -6   56.79    8.00
   4   4  -6   68.09    8.00
  -4  -4   6   68.19    8.90
  -4  -4   6   64.09    7.60
   3   4  -6 1003.10   42.80
   3   4  -6  979.80   39.80
  -3  -4   6  906.51   40.70
  -3  -4   6  967.10   38.70
   2   4  -6  128.19   10.60
   2   4  -6  115.39   11.00
   2   4  -6  113.19    9.60
  -2  -4   6  110.99    8.00
  -2  -4   6  110.79    9.50
   1   4  -6   32.10    5.70
   1   4  -6   33.30    6.80
   1   4  -6   29.90    5.50
  -1  -4   6   42.80    5.60
  -1  -4   6   32.40    4.30
   0   4  -6    8.60    3.50
   0   4  -6    7.10    4.20
   0   4  -6   -0.10    3.10
   0  -4   6    2.90    2.70
  -1   4  -6   10.30    4.20
  -1   4  -6    5.90    4.00
  -1   4  -6   13.20    3.70
  -1   4  -6   14.60    4.20
   1  -4   6    7.70    3.10
  -2   4  -6  284.37   16.40
  -2   4  -6  247.98   15.00
  -2   4  -6  275.77   14.90
   2  -4   6  294.67   14.30
  -3   4  -6    4.60    4.00
  -3   4  -6    4.40    2.90
  -3   4  -6   -5.20    2.00
  -3   4  -6    0.90    2.50
  -4   4  -6  171.18   12.50
  -4   4  -6  177.58   13.40
  -4   4  -6  189.08   12.20
  -5   4  -6   44.30    7.50
  -5   4  -6   49.99    6.60
  -5   4  -6   39.30    6.70
  -6   4  -6   98.39   10.20
  -6   4  -6   91.49    8.90
  -7   4  -6   41.60    6.80
  -8  -3   6    0.10    2.80
  -7  -3   6   18.10    5.00
  -6  -3   6    3.30    3.80
   5   3  -6  159.78   11.80
  -5  -3   6  129.19   11.40
   4   3  -6  233.68   15.80
  -4  -3   6  219.98   16.30
  -4  -3   6  233.88   14.60
   3   3  -6 1586.94   60.59
   3   3  -6 1614.44   62.39
  -3  -3   6 1592.54   62.29
   2   3  -6  555.74   24.90
   2   3  -6  561.94   26.80
   2   3  -6  519.65   23.90
  -2  -3   6  529.65   25.40
  -2  -3   6  536.25   23.20
   1   3  -6  450.85   21.20
   1   3  -6  464.85   23.20
   1   3  -6  448.76   20.70
  -1  -3   6  451.15   18.90
  -1  -3   6  446.16   21.40
   0   3  -6 2402.76   85.99
   0   3  -6 2382.56   83.79
   0   3  -6 2409.46   83.99
   0  -3   6 2364.16   83.79
   0  -3   6 2277.67   79.89
  -1   3  -6  570.14   25.20
  -1   3  -6  608.04   25.90
  -1   3  -6  555.24   24.70
  -1   3  -6  571.04   26.40
   1  -3   6  603.44   25.00
  -2   3  -6   46.50    6.80
  -2   3  -6   37.70    7.10
  -2   3  -6   44.10    6.00
  -2   3  -6   49.30    5.80
   2  -3   6   48.30    5.50
  -3   3  -6  104.99    8.50
  -3   3  -6  103.19    8.60
  -3   3  -6  107.79    8.90
  -3   3  -6  105.49    9.30
  -4   3  -6   90.49    8.90
  -4   3  -6  110.49    9.00
  -4   3  -6   98.89    9.70
  -5   3  -6  278.47   16.60
  -5   3  -6  248.68   15.00
  -5   3  -6  235.78   15.90
   5  -3   6  254.67   12.00
  -6   3  -6   11.90    4.70
  -6   3  -6    7.40    4.20
  -6   3  -6    9.10    3.90
   6  -3   6    7.70    3.00
  -7   3  -6  109.79    9.60
  -7   3  -6   99.39   10.20
   7  -3   6  105.79    7.90
  -8   3  -6    4.40    4.50
   8  -3   6   11.80    3.70
  -8  -2   6    7.20    3.50
  -7  -2   6   98.39    9.50
  -6  -2   6   96.59    9.90
   5   2  -6   22.00    5.20
  -5  -2   6   11.70    5.80
  -5  -2   6   16.20    5.00
   4   2  -6  113.89   10.10
  -4  -2   6  104.49   11.30
  -4  -2   6  111.99    9.80
   3   2  -6  117.39   10.30
   3   2  -6  124.59   10.70
   3   2  -6  128.09    9.20
  -3  -2   6  127.69    9.90
  -3  -2   6  135.09   11.30
   2   2  -6   12.90    4.50
   2   2  -6   13.60    4.20
   2   2  -6    9.50    2.90
  -2  -2   6   15.30    4.30
  -2  -2   6   15.30    3.50
   1   2  -6 2825.82   95.49
   1   2  -6 2658.83   93.59
   1   2  -6 2772.92   97.19
  -1  -2   6 2632.74   92.49
  -1  -2   6 2721.03   96.19
   0   2  -6  769.42   32.10
   0   2  -6  780.42   31.50
   0   2  -6  774.62   30.60
   0   2  -6  755.92   29.70
   0  -2   6  743.73   31.10
   0  -2   6  718.33   27.60
  -1   2  -6   41.50    4.80
  -1   2  -6   41.10    6.30
  -1   2  -6   44.50    4.90
  -1   2  -6   38.40    5.30
   1  -2   6   35.10    4.80
  -2   2  -6 1664.73   62.19
  -2   2  -6 1716.33   62.29
  -2   2  -6 1681.13   62.99
  -2   2  -6 1801.02   63.69
   2  -2   6 1790.22   63.09
  -3   2  -6  736.03   30.70
  -3   2  -6  753.42   31.10
  -3   2  -6  766.22   30.60
  -4   2  -6    0.00    3.10
  -4   2  -6    0.60    2.50
  -4   2  -6    7.30    3.50
  -4   2  -6   -3.50    2.50
   4  -2   6   -1.40    1.60
  -5   2  -6  203.18   13.60
  -5   2  -6  213.88   13.50
  -5   2  -6  189.98   14.20
   5  -2   6  196.88   10.40
  -6   2  -6  257.07   16.30
  -6   2  -6  250.27   16.10
  -6   2  -6  260.27   17.20
   6  -2   6  252.07   13.20
  -7   2  -6   59.09   10.10
  -7   2  -6   78.79   11.50
  -8   2  -6   -3.70    3.10
   8  -2   6    2.60    2.60
   9  -2   6  310.97   15.80
  -8  -1   6   15.70    4.00
  -7  -1   6  259.37   16.20
  -6  -1   6   16.70    5.10
   5   1  -6  393.06   19.60
  -5  -1   6  424.76   22.00
  -5  -1   6  355.96   24.00
  -4  -1   6   16.30    5.00
  -4  -1   6   36.90    8.00
   3   1  -6  686.43   30.10
   3   1  -6  723.03   30.70
  -3  -1   6  669.03   31.70
  -3  -1   6  709.53   29.90
   2   1  -6  277.37   13.00
   2   1  -6  286.87   15.10
   2   1  -6  277.87   15.80
  -2  -1   6  283.77   16.10
  -2  -1   6  263.37   14.10
   1   1  -6   30.60    3.90
   1   1  -6   27.40    4.80
   1   1  -6   28.40    5.50
  -1  -1   6   27.40    3.70
  -1  -1   6   34.00    5.80
  -1  -1   6   23.70    3.60
   0   1  -6  198.18   11.70
   0   1  -6  197.98   12.00
   0   1  -6  202.18   11.20
   0  -1   6  183.08    9.30
   0  -1   6  207.28   12.10
   0  -1   6  193.98    8.90
  -1   1  -6 1699.83   60.09
  -1   1  -6 1730.33   62.49
  -1   1  -6 1746.63   61.39
  -1   1  -6 1821.12   62.39
   1  -1   6 1764.82   64.79
   1  -1   6 1546.85   57.99
  -2   1  -6  106.69    7.40
  -2   1  -6  117.39    8.30
  -2   1  -6  113.29    8.60
  -2   1  -6  116.79    8.00
   2  -1   6  109.49    5.50
  -3   1  -6  321.77   15.60
  -3   1  -6  333.17   16.80
  -3   1  -6  321.97   15.80
   3  -1   6  309.47   12.80
  -4   1  -6 1169.48   45.00
  -4   1  -6 1164.88   46.30
  -4   1  -6 1187.98   43.20
  -4   1  -6 1189.58   45.30
   4  -1   6 1155.08   42.10
  -5   1  -6  653.13   29.20
  -5   1  -6  658.03   30.10
   5  -1   6  606.04   25.00
  -6   1  -6 1055.79   43.10
  -6   1  -6 1074.19   43.90
  -6   1  -6 1025.30   44.90
   6  -1   6 1036.80   39.90
  -7   1  -6   46.50    8.30
  -7   1  -6   50.89    8.60
   7  -1   6   53.49    6.50
  -8   1  -6  316.37   19.10
   8  -1   6  315.87   16.90
  -9   1  -6  490.55   24.30
   9  -1   6  505.05   22.70
  -8   0   6   -4.20    2.40
  -7   0   6  364.76   19.80
  -6   0   6   49.60    8.40
   5   0  -6   84.59    8.30
  -5   0   6   97.39    9.90
  -5   0   6   98.79   12.70
   4   0  -6   39.60    6.50
  -4   0   6   42.00    7.20
  -4   0   6   37.50    8.20
   3   0  -6   48.40    7.10
   3   0  -6   45.20    5.40
   3   0  -6   48.40    6.10
  -3   0   6   43.80    5.90
  -3   0   6   41.20    7.20
   2   0  -6  139.09    9.60
   2   0  -6  139.79    9.90
  -2   0   6  131.39    9.10
  -2   0   6  122.79   10.00
  -2   0   6  141.19   13.70
   1   0  -6  351.76   16.80
   1   0  -6  373.06   18.00
  -1   0   6  358.26   18.10
   0   0  -6   92.79    7.40
   0   0  -6   94.69    7.80
   0   0  -6   89.99    6.80
   0   0  -6   86.19    6.20
   0   0   6   85.89    7.80
   0   0   6   96.09    6.50
   0   0   6   77.39    5.60
  -1   0  -6   25.20    4.20
  -1   0  -6   30.70    4.60
  -1   0  -6   24.10    2.80
  -1   0  -6   26.40    5.20
   1   0   6   23.20    2.90
   1   0   6   27.50    3.00
   1   0   6   30.50    5.10
  -2   0  -6 1315.37   45.00
  -2   0  -6 1398.36   49.20
  -2   0  -6 1269.57   46.70
  -2   0  -6 1346.77   48.80
  -2   0  -6 1306.77   48.10
   2   0   6 1401.46   45.20
   2   0   6 1219.58   46.30
  -3   0  -6  314.47   15.70
  -3   0  -6  285.37   13.90
  -3   0  -6  304.27   14.70
  -3   0  -6  289.87   14.70
   3   0   6  295.87   12.50
  -4   0  -6 1440.76   54.19
  -4   0  -6 1574.24   56.69
  -4   0  -6 1501.55   55.19
  -4   0  -6 1468.75   53.09
  -4   0  -6 1481.25   51.99
   4   0   6 1455.65   51.99
  -5   0  -6   11.10    4.20
  -5   0  -6   15.70    4.30
  -5   0  -6   12.80    4.10
   5   0   6   12.80    3.00
  -6   0  -6  369.16   19.60
  -6   0  -6  380.46   20.60
  -6   0  -6  366.56   21.30
   6   0   6  367.46   17.70
  -7   0  -6  489.85   27.20
  -7   0  -6  505.85   26.30
   7   0   6  511.25   23.20
  -8   0  -6    4.00    4.60
   8   0   6   14.80    4.20
  -9   0  -6    9.20    4.40
   9   0   6    3.10    3.30
 -10   0  -6    9.50    3.90
  10   0   6   16.80    3.90
  -8   1   6    0.10    3.70
  -7   1   6   50.19    7.60
   6  -1  -6    7.00    4.10
  -6   1   6   -2.20    2.70
   5  -1  -6  174.58   11.80
  -5   1   6  176.98   14.80
  -5   1   6  195.98   13.80
   4  -1  -6  458.95   21.20
   4  -1  -6  491.65   21.90
  -4   1   6  455.35   25.30
  -4   1   6  483.55   23.80
   3  -1  -6   17.20    4.10
   3  -1  -6   17.00    3.70
  -3   1   6   22.00    5.70
  -3   1   6   19.70    4.70
   2  -1  -6  196.48   11.40
   2  -1  -6  174.18    9.90
   2  -1  -6  210.68   12.10
  -2   1   6  211.98   11.90
  -2   1   6  188.78   12.80
   1  -1  -6 1252.37   44.80
   1  -1  -6 1211.88   45.60
  -1   1   6 1196.08   44.40
  -1   1   6 1164.18   46.10
   0  -1  -6  160.18    9.50
   0  -1  -6  177.78   10.10
   0  -1  -6  163.18    9.20
   0  -1  -6  162.88   11.60
   0   1   6  146.89    9.60
   0   1   6  157.58    8.60
  -1  -1  -6  667.33   26.10
  -1  -1  -6  670.83   27.30
  -1  -1  -6  614.24   28.20
  -1  -1  -6  687.03   26.80
  -1  -1  -6  691.33   27.00
   1   1   6  650.03   26.10
   1   1   6  645.34   24.80
   1   1   6  690.83   27.70
  -2  -1  -6   49.10    5.30
  -2  -1  -6   59.39    5.80
  -2  -1  -6   52.29    4.90
  -2  -1  -6   47.80    4.20
   2   1   6   46.90    4.30
   2   1   6   41.50    3.90
  -3  -1  -6   27.90    4.40
  -3  -1  -6   29.70    4.60
  -3  -1  -6   26.30    4.70
  -3  -1  -6   29.70    3.70
  -3  -1  -6   23.30    3.40
  -3  -1  -6   26.00    3.50
   3   1   6   19.40    4.30
  -4  -1  -6  218.88   12.60
  -4  -1  -6  220.38   11.90
  -4  -1  -6  229.88   11.60
  -4  -1  -6  244.18   13.80
   4   1   6  217.28   14.60
  -5  -1  -6   58.59    7.30
  -5  -1  -6   39.90    6.40
   5   1   6   51.89    5.10
  -6  -1  -6  138.69   11.20
  -6  -1  -6  139.99   12.30
   6   1   6  133.19    9.20
  -7  -1  -6   85.09   13.40
  -7  -1  -6   68.49    8.80
   7   1   6   65.69    7.20
  -8  -1  -6  221.88   16.40
  -8  -1  -6  203.88   16.90
   8   1   6  218.38   14.00
  -9  -1  -6    2.50    3.90
   9   1   6   -2.70    2.50
 -10  -1  -6   -3.80    3.10
  10   1   6    2.50    3.00
   7  -2  -6    2.30    4.40
  -7   2   6   11.60    5.80
   6  -2  -6    7.80    3.90
  -6   2   6    4.60    3.50
   5  -2  -6   15.70    4.60
  -5   2   6    6.70    5.10
  -5   2   6   12.00    4.30
   4  -2  -6  207.98   12.60
   4  -2  -6  205.48   12.00
  -4   2   6  210.08   15.20
  -4   2   6  204.08   14.00
   3  -2  -6 1691.63   61.39
   3  -2  -6 1706.93   60.89
  -3   2   6 1630.04   64.29
  -3   2   6 1680.33   62.59
   2  -2  -6   31.20    5.00
   2  -2  -6   32.70    5.00
   2  -2  -6   32.30    4.70
  -2   2   6   34.40    6.40
  -2   2   6   27.20    4.90
   1  -2  -6  201.58   10.70
   1  -2  -6  180.68    9.70
   1  -2  -6  199.18   11.90
   1  -2  -6  193.78   11.30
   1  -2  -6  177.98   11.90
  -1   2   6  192.08   11.00
  -1   2   6  209.98   12.50
  -1   2   6  187.28   12.70
   0  -2  -6  203.38   11.40
   0  -2  -6  198.98   10.70
   0  -2  -6  182.98   11.00
   0  -2  -6  167.68    8.90
   0  -2  -6  189.08   10.00
   0  -2  -6  201.28   12.70
   0   2   6  177.18   11.50
   0   2   6  179.58    9.90
  -1  -2  -6 2869.11   98.79
  -1  -2  -6 3025.40   99.59
  -1  -2  -6 2988.10  100.39
  -1  -2  -6 2779.42   99.69
  -1  -2  -6 3048.79  100.19
   1   2   6 2979.90  100.89
   1   2   6 2767.52  103.99
   1   2   6 2773.22   98.29
  -2  -2  -6 6042.10  197.78
  -2  -2  -6 6056.89  197.38
  -2  -2  -6 5693.43  196.28
   2   2   6 5869.91  195.88
   2   2   6 5862.61  197.88
  -3  -2  -6 1100.09   41.00
  -3  -2  -6 1142.39   41.50
  -3  -2  -6 1058.39   41.60
  -3  -2  -6 1068.49   41.30
  -3  -2  -6 1099.69   40.40
   3   2   6 1141.69   42.00
   3   2   6 1115.49   40.00
  -4  -2  -6  212.18   12.60
  -4  -2  -6  211.38   12.00
  -4  -2  -6  198.58   11.10
  -4  -2  -6  216.98   10.60
   4   2   6  214.98   10.80
  -5  -2  -6  370.16   19.40
  -5  -2  -6  352.16   15.80
  -5  -2  -6  364.96   18.20
  -5  -2  -6  353.46   14.60
   5   2   6  352.76   16.60
  -6  -2  -6   19.30    5.90
  -6  -2  -6   19.70    5.50
   6   2   6   16.80    4.30
  -7  -2  -6    7.30    4.70
  -7  -2  -6   19.30    6.20
   7   2   6   10.70    4.00
  -8  -2  -6   22.10    6.50
  -8  -2  -6   23.30    6.50
   8   2   6   15.50    4.50
   9   2   6   -1.90    3.00
 -10  -2  -6   -3.50    3.80
  10   2   6   -5.20    2.10
   7  -3  -6   -2.60    4.10
  -7   3   6   16.50    4.50
   6  -3  -6    1.60    3.60
  -6   3   6    5.00    3.40
   5  -3  -6  213.18   13.60
  -5   3   6  211.48   14.70
   4  -3  -6  489.75   21.90
   4  -3  -6  516.85   23.80
  -4   3   6  526.75   25.30
  -4   3   6  495.85   26.80
   3  -3  -6   47.50    6.00
  -3   3   6   43.50    8.10
  -3   3   6   56.39    8.70
   2  -3  -6    4.40    2.60
   2  -3  -6    3.10    2.60
  -2   3   6    8.60    4.00
  -2   3   6    4.00    3.00
   1  -3  -6 3604.44  122.19
   1  -3  -6 3498.15  121.49
   1  -3  -6 3410.66  123.69
   1  -3  -6 3687.83  120.29
   1  -3  -6 3601.14  121.69
  -1   3   6 3557.74  121.69
  -1   3   6 3521.85  125.49
  -1   3   6 3468.55  122.79
   0  -3  -6 8390.96  277.07
   0  -3  -6 8331.17  276.87
   0   3   6 8535.25  282.07
   0   3   6 8298.97  277.97
  -1  -3  -6 4869.61  164.88
  -1  -3  -6 5139.99  166.68
  -1  -3  -6 4767.32  167.28
  -1  -3  -6 4878.81  164.28
  -1  -3  -6 5000.20  165.48
   1   3   6 5196.38  167.48
   1   3   6 4910.61  168.68
   1   3   6 4810.02  165.38
  -2  -3  -6 1081.59   39.60
  -2  -3  -6 1173.88   41.90
  -2  -3  -6 1156.78   43.40
  -2  -3  -6 1185.78   41.60
  -2  -3  -6 1072.69   40.60
   2   3   6 1098.09   40.90
  -3  -3  -6 3333.77  112.79
  -3  -3  -6 3155.68  110.69
  -3  -3  -6 3402.66  113.79
  -3  -3  -6 3367.06  112.99
  -3  -3  -6 3419.86  115.29
   3   3   6 3232.48  115.09
  -4  -3  -6 1603.04   56.49
  -4  -3  -6 1552.14   55.09
  -4  -3  -6 1378.96   52.19
  -4  -3  -6 1530.95   55.29
  -4  -3  -6 1517.45   54.19
   4   3   6 1546.25   54.79
  -5  -3  -6  261.07   17.10
  -5  -3  -6  263.07   12.60
  -5  -3  -6  252.47   13.00
  -5  -3  -6  286.17   14.90
   5   3   6  266.67   13.80
  -6  -3  -6   25.60    6.10
  -6  -3  -6   29.40    5.90
   6   3   6   29.10    5.20
  -7  -3  -6    9.90    4.70
  -7  -3  -6   15.00    5.80
   7   3   6   17.00    4.70
  -8  -3  -6   19.20    5.90
  -8  -3  -6   34.50    7.70
   8   3   6   12.30    4.40
  -9  -3  -6   11.30    5.40
   9   3   6   19.80    5.50
 -10  -3  -6   -5.70    4.10
   7  -4  -6    7.40    4.70
   6  -4  -6    6.20    3.70
  -6   4   6   12.90    4.40
   4  -4  -6  646.74   28.80
  -4   4   6  635.84   31.90
  -4   4   6  649.43   29.80
   3  -4  -6 1009.50   39.30
   3  -4  -6  922.81   37.80
  -3   4   6  991.20   42.10
  -3   4   6  983.40   40.10
   2  -4  -6  132.39   10.10
   2  -4  -6  140.59    9.50
   2  -4  -6  131.59    9.60
  -2   4   6  138.99   10.30
  -2   4   6  131.79   11.00
   1  -4  -6 3042.90  104.19
   1  -4  -6 3108.69  105.79
   1  -4  -6 2956.40  108.39
   1  -4  -6 2940.81  104.79
   1  -4  -6 3105.99  103.19
  -1   4   6 2994.70  106.39
  -1   4   6 3025.30  110.49
  -1   4   6 3073.19  105.69
   0  -4  -6 1092.59   40.10
   0  -4  -6 1086.19   41.00
   0   4   6 1136.09   42.20
   0   4   6 1086.29   45.90
   0   4   6 1178.98   43.40
  -1  -4  -6  848.42   32.50
  -1  -4  -6  848.32   30.80
  -1  -4  -6  810.12   33.90
  -1  -4  -6  835.12   30.80
  -1  -4  -6  815.22   30.30
   1   4   6  840.42   33.00
   1   4   6  756.02   34.60
   1   4   6  813.02   31.90
  -2  -4  -6 1117.99   42.30
  -2  -4  -6 1165.88   42.50
  -2  -4  -6 1221.78   44.20
  -2  -4  -6 1177.68   43.00
  -2  -4  -6 1306.77   47.30
   2   4   6 1161.18   43.70
  -3  -4  -6  141.69    7.80
  -3  -4  -6  149.29    9.20
  -3  -4  -6  145.49   10.50
  -3  -4  -6  142.19    8.40
  -3  -4  -6  132.09    8.50
   3   4   6  140.29    8.90
   3   4   6  156.38   10.90
  -4  -4  -6  240.98   11.40
  -4  -4  -6  244.98   13.40
  -4  -4  -6  249.28   12.80
  -4  -4  -6  239.48   12.60
   4   4   6  257.97   13.20
  -5  -4  -6  668.53   26.90
  -5  -4  -6  738.93   30.80
  -5  -4  -6  666.93   28.00
  -5  -4  -6  709.53   29.40
   5   4   6  740.63   29.60
  -6  -4  -6  438.56   22.50
  -6  -4  -6  436.26   18.80
  -6  -4  -6  404.86   18.20
  -6  -4  -6  427.06   18.80
  -6  -4  -6  435.86   21.50
  -7  -4  -6   -2.70    3.60
  -7  -4  -6    4.80    3.60
   7   4   6    3.90    3.10
  -8  -4  -6  309.87   20.70
  -8  -4  -6  314.77   19.50
   8   4   6  315.97   18.30
  -9  -4  -6   12.30    6.00
  -9  -4  -6   -0.30    6.50
 -10  -4  -6   -2.50    3.70
  10   4   6    0.60    3.30
  -6   5   6  -10.30    8.30
   5  -5  -6   95.79    9.10
  -5   5   6   82.79    8.60
   4  -5  -6   20.50    4.90
  -4   5   6    8.20    5.50
  -4   5   6   22.10    5.70
   3  -5  -6  264.27   15.00
   3  -5  -6  221.78   13.00
  -3   5   6  226.08   14.70
  -3   5   6  227.48   15.90
   2  -5  -6   55.19    6.10
   2  -5  -6   54.09    6.80
   2  -5  -6   65.09    7.90
  -2   5   6   68.09    7.80
   1  -5  -6  251.47   13.60
   1  -5  -6  269.07   14.70
   1  -5  -6  247.48   13.60
  -1   5   6  257.67   14.60
  -1   5   6  233.88   14.40
   0  -5  -6   14.70    4.00
   0  -5  -6   20.00    4.00
   0  -5  -6   19.70    3.20
   0  -5  -6   14.20    4.40
   0   5   6   14.30    4.90
   0   5   6   21.30    4.40
   0   5   6   14.20    3.90
  -1  -5  -6  422.36   22.40
  -1  -5  -6  422.06   18.20
  -1  -5  -6  446.06   19.70
  -1  -5  -6  420.36   16.90
   1   5   6  456.15   19.60
   1   5   6  377.26   27.30
   1   5   6  384.26   22.50
  -2  -5  -6 1284.67   46.90
  -2  -5  -6 1262.17   45.80
  -2  -5  -6 1354.56   46.40
  -2  -5  -6 1313.57   49.50
   2   5   6 1322.47   53.99
   2   5   6 1304.27   48.40
  -3  -5  -6 1382.06   51.79
  -3  -5  -6 1322.77   46.70
  -3  -5  -6 1272.57   46.90
  -3  -5  -6 1215.68   51.49
  -3  -5  -6 1305.67   47.20
   3   5   6 1404.06   49.00
   3   5   6 1310.87   52.19
   3   5   6 1265.67   46.60
  -4  -5  -6  895.21   34.50
  -4  -5  -6  927.11   35.10
  -4  -5  -6  900.61   35.60
  -4  -5  -6  953.70   36.10
   4   5   6  926.71   36.30
  -5  -5  -6  267.87   14.90
  -5  -5  -6  213.78   14.70
  -5  -5  -6  274.37   14.20
  -5  -5  -6  268.87   14.20
   5   5   6  287.77   15.20
  -6  -5  -6  716.33   29.50
  -6  -5  -6  707.33   30.10
  -6  -5  -6  747.63   33.00
  -6  -5  -6  776.22   32.10
   6   5   6  789.62   32.60
  -7  -5  -6  799.32   36.90
  -7  -5  -6  837.52   36.00
   7   5   6  826.52   35.80
  -8  -5  -6    4.20    4.60
  -8  -5  -6    7.20    4.10
   8   5   6    3.50    3.30
  -9  -5  -6    3.60    3.90
   9   5   6    3.10    3.80
 -10  -5  -6   12.80    6.10
  10   5   6    5.60    3.50
   6  -6  -6   -3.70    3.00
   5  -6  -6    4.40    3.50
  -5   6   6   -2.10    4.80
   4  -6  -6    2.60    5.60
   3  -6  -6  647.74   28.40
   3  -6  -6  751.02   31.60
  -3   6   6  722.13   31.40
  -3   6   6  693.83   32.80
   2  -6  -6  284.27   16.20
   2  -6  -6  282.87   16.40
   2  -6  -6  315.37   16.80
  -2   6   6  297.37   17.50
  -2   6   6  316.47   17.50
   1  -6  -6  135.89   10.50
   1  -6  -6  143.39   11.30
  -1   6   6  139.29   10.60
  -1   6   6  142.99   10.70
   0  -6  -6  127.69    9.90
   0  -6  -6  133.89    9.50
   0   6   6  140.79    9.90
   0   6   6  140.69   10.20
  -1  -6  -6  267.07   14.70
  -1  -6  -6  276.67   13.80
  -1  -6  -6  260.27   16.80
   1   6   6  274.77   14.80
   1   6   6  247.98   18.10
   1   6   6  266.07   14.20
  -2  -6  -6  658.63   30.90
  -2  -6  -6  663.33   27.60
  -2  -6  -6  641.94   26.10
  -2  -6  -6  637.14   23.70
   2   6   6  627.84   26.80
   2   6   6  654.13   27.50
   2   6   6  622.94   31.50
  -3  -6  -6   73.99    7.30
  -3  -6  -6   71.09    5.10
  -3  -6  -6   85.09    6.40
  -3  -6  -6   73.39    5.30
  -3  -6  -6   88.09    9.30
   3   6   6   82.89    9.70
   3   6   6   75.79    7.30
   3   6   6   63.09    5.80
  -4  -6  -6 1513.05   55.19
  -4  -6  -6 1531.65   53.79
  -4  -6  -6 1386.76   52.49
  -4  -6  -6 1425.06   53.29
   4   6   6 1466.75   54.09
   4   6   6 1549.74   55.59
  -5  -6  -6 3884.71  133.19
  -5  -6  -6 3869.11  134.09
  -5  -6  -6 3830.82  134.49
  -5  -6  -6 4046.30  133.49
  -6  -6  -6 1512.55   55.19
  -6  -6  -6 1433.46   55.79
  -6  -6  -6 1464.25   56.99
   6   6   6 1548.05   57.59
  -7  -6  -6  750.12   32.30
  -7  -6  -6  722.13   30.10
  -7  -6  -6  719.83   33.20
  -7  -6  -6  692.63   30.30
   7   6   6  757.52   33.00
  -8  -6  -6  408.66   21.60
  -8  -6  -6  383.46   22.80
   8   6   6  414.06   22.20
  -9  -6  -6    0.70    2.80
   9   6   6   -8.50    3.30
 -10  -6  -6  181.68   12.90
  10   6   6  168.58   13.00
   4  -7  -6   19.60    5.10
   3  -7  -6    0.50    3.10
  -3   7   6    3.30    4.10
   2  -7  -6   43.70    5.70
   2  -7  -6   23.90    5.50
   2  -7  -6   25.40    5.20
  -2   7   6   28.60    5.80
   1  -7  -6  228.18   14.10
   1  -7  -6  224.68   14.00
  -1   7   6  214.78   14.00
   0  -7  -6  131.89   10.00
   0  -7  -6  137.69   10.60
   0   7   6  127.69    9.70
   0   7   6  133.69   10.40
  -1  -7  -6   44.50    6.10
  -1  -7  -6   49.80    6.60
   1   7   6   45.60    5.50
   1   7   6   48.00    6.40
  -2  -7  -6  320.77   15.70
  -2  -7  -6  318.97   16.80
   2   7   6  337.17   17.00
   2   7   6  296.67   15.10
   2   7   6  273.27   13.70
  -3  -7  -6    6.60    3.50
  -3  -7  -6   11.20    3.20
   3   7   6   -2.80    2.10
   3   7   6    3.40    2.20
   3   7   6    2.90    3.20
  -4  -7  -6 2455.65   88.79
  -4  -7  -6 2673.63   91.39
  -4  -7  -6 2679.53   92.99
   4   7   6 2605.34   91.69
   4   7   6 2617.24   92.89
  -5  -7  -6  311.67   15.90
  -5  -7  -6  343.07   17.10
  -5  -7  -6  301.67   15.10
  -5  -7  -6  345.97   18.10
   5   7   6  326.47   17.50
   5   7   6  330.17   18.00
  -6  -7  -6 3113.49  108.19
  -6  -7  -6 3004.10  108.89
  -6  -7  -6 3008.90  107.49
  -6  -7  -6 3148.89  109.59
   6   7   6 3232.48  110.69
  -7  -7  -6   17.70    4.60
  -7  -7  -6   15.10    4.90
  -7  -7  -6   17.40    4.90
  -7  -7  -6   16.50    4.00
   7   7   6   18.30    5.30
  -8  -7  -6  404.96   21.50
  -8  -7  -6  398.46   22.60
   8   7   6  415.66   22.40
  -9  -7  -6  221.28   14.20
   9   7   6  220.48   15.00
 -10  -7  -6    4.00    3.80
  10   7   6   -7.20    3.50
  10   7   6   -0.30    3.50
   5  -8  -6   -2.50    2.80
   4  -8  -6    4.50    3.20
   3  -8  -6   11.50    4.50
   2  -8  -6  246.48   14.10
   2  -8  -6  271.67   16.10
   2  -8  -6  254.37   15.30
  -2   8   6  244.28   15.30
   1  -8  -6   48.20    7.20
   1  -8  -6   39.70    7.00
  -1   8   6   44.40    6.80
   0  -8  -6  435.46   22.10
   0  -8  -6  452.85   22.00
   0   8   6  425.36   21.90
  -1  -8  -6  538.75   24.80
  -1  -8  -6  538.35   25.70
   1   8   6  564.04   25.90
  -2  -8  -6  317.67   16.90
  -2  -8  -6  320.77   17.70
   2   8   6  330.37   17.90
   2   8   6  307.47   15.10
  -3  -8  -6 2168.68   78.09
  -3  -8  -6 2248.18   79.99
   3   8   6 2288.77   79.89
   3   8   6 2022.30   76.79
  -4  -8  -6 2733.93   97.89
  -4  -8  -6 2762.12   96.19
   4   8   6 2526.75   95.79
   4   8   6 2903.01   98.19
  -5  -8  -6  535.55   24.90
  -5  -8  -6  550.64   26.50
   5   8   6  592.74   26.60
   5   8   6  538.25   25.70
  -6  -8  -6  134.09   10.90
  -6  -8  -6  141.49   10.60
   6   8   6  150.48   11.90
   6   8   6  115.09   10.70
  -7  -8  -6   87.99    8.80
  -7  -8  -6   88.19    7.70
  -7  -8  -6   81.29    8.10
   7   8   6   71.89    9.10
   7   8   6   83.19    9.20
  -8  -8  -6  171.48   12.90
  -8  -8  -6  171.38   11.60
  -8  -8  -6  169.18   11.30
   8   8   6  158.68   12.70
   8   8   6  192.58   14.00
  -9  -8  -6   13.50    5.10
  -9  -8  -6    1.50    3.60
   9   8   6   10.60    4.50
   9   8   6    9.00    4.60
 -10  -8  -6   11.80    5.50
  10   8   6    6.60    4.00
  10   8   6    0.20    3.30
   4  -9  -6   63.99    6.80
   3  -9  -6   14.30    4.80
   2  -9  -6   93.79    9.10
   2  -9  -6   63.99    7.50
   2  -9  -6   87.19   11.30
   1  -9  -6   58.49    7.70
   1  -9  -6   52.59    8.60
   0  -9  -6  244.38   15.20
   0  -9  -6  225.18   14.40
   0   9   6  207.58   14.00
  -1  -9  -6  696.33   30.40
  -1  -9  -6  692.63   30.70
   1   9   6  642.14   29.90
  -2  -9  -6   55.39    7.50
  -2  -9  -6   49.40    7.90
   2   9   6   48.60    7.60
  -3  -9  -6  366.36   18.90
  -3  -9  -6  368.86   20.00
   3   9   6  349.27   18.90
   3   9   6  338.37   17.40
  -4  -9  -6  307.27   16.60
  -4  -9  -6  301.67   17.70
   4   9   6  288.97   16.80
   4   9   6  262.87   15.80
  -5  -9  -6   95.29    9.60
  -5  -9  -6   73.19    7.80
   5   9   6   91.79    9.10
   5   9   6   81.09    8.60
  -6  -9  -6  456.55   23.30
  -6  -9  -6  455.45   22.10
   6   9   6  454.45   22.80
   6   9   6  435.46   23.20
  -7  -9  -6    7.00    3.80
  -7  -9  -6   14.00    4.40
   7   9   6   13.50    4.70
   7   9   6    4.90    3.80
  -8  -9  -6    2.90    4.70
  -8  -9  -6   15.80    4.40
   8   9   6   24.30    5.80
  -9  -9  -6   66.39    7.90
   9   9   6   64.89    8.50
   9   9   6   69.79    7.90
   3 -10  -6  119.39    9.50
   2 -10  -6    0.80    4.00
   1 -10  -6    2.60    4.10
   1 -10  -6   10.10    3.80
   1 -10  -6    4.10    3.90
   0 -10  -6    1.30    3.80
   0 -10  -6   -3.70    3.10
  -1 -10  -6   -0.80    3.60
  -1 -10  -6    5.20    3.80
  -2 -10  -6  776.72   34.40
  -2 -10  -6  759.22   33.30
  -3 -10  -6  192.38   13.00
  -3 -10  -6  184.88   13.30
   3  10   6  147.69   11.20
   3  10   6  175.28   12.60
  -4 -10  -6  138.89   10.60
  -4 -10  -6  133.29   11.40
   4  10   6  117.19   10.60
   4  10   6  110.29    9.80
  -5 -10  -6   80.29   13.60
  -5 -10  -6   90.79    9.60
   5  10   6   64.09    8.50
   5  10   6   72.89    9.40
  -6 -10  -6   40.30    6.90
  -6 -10  -6   36.80    6.20
   6  10   6   19.30    5.70
   6  10   6   28.50    5.80
  -7 -10  -6  246.78   14.60
  -7 -10  -6  243.38   15.40
   7  10   6  238.58   15.10
   7  10   6  258.07   16.20
  -8 -10  -6  192.78   13.10
  -8 -10  -6  219.48   18.10
   8  10   6  184.48   13.00
   8  10   6  215.88   18.80
  -9 -10  -6   65.79    7.60
   9  10   6   70.19    8.20
   2 -11  -6   12.80    4.10
   1 -11  -6   81.99   13.60
   0 -11  -6   -1.70    3.20
   0 -11  -6   -4.10    4.20
  -1 -11  -6    2.20    4.10
  -1 -11  -6    1.70    3.60
  -2 -11  -6  185.78   13.20
  -2 -11  -6  181.88   13.50
  -3 -11  -6   37.10    6.40
  -4 -11  -6  339.57   22.40
  -4 -11  -6  341.07   18.40
   4  11   6  318.37   17.50
  -5 -11  -6  258.37   15.50
  -5 -11  -6  265.97   16.60
   5  11   6  246.18   15.40
  -6 -11  -6  130.19   10.10
  -6 -11  -6  131.29   11.00
   6  11   6  114.09   10.60
  -7 -11  -6  103.19   11.90
  -7 -11  -6  104.99   11.00
   7  11   6  101.79   10.20
  -8 -11  -6  277.77   14.90
   8  11   6  282.57   16.20
   0 -12  -6    6.60    3.70
  -1 -12  -6   -5.60    5.00
  -2 -12  -6    4.80    3.40
  -2 -12  -6   -5.30    4.30
  -3 -12  -6  140.99   10.60
  -3 -12  -6  107.19   10.40
  -4 -12  -6    4.00    3.50
  -4 -12  -6    6.00    4.20
  -5 -12  -6   24.10    5.60
  -5 -12  -6   20.80    4.80
   5  12   6   27.20    5.90
  -6 -12  -6  243.48   14.60
  -6 -12  -6  238.28   13.70
   6  12   6  221.08   13.70
  -7 -12  -6   85.09    7.50
   7  12   6   85.29   13.10
  -2 -13  -6    1.20    3.30
  -3 -13  -6    1.50    3.10
  -4 -13  -6    2.50    3.10
  -5 -13  -6   29.90    4.90
   2   9  -7    3.20    3.30
   1   9  -7  187.48   12.20
   1   9  -7  171.28   13.30
   0   9  -7   61.39    9.80
  -1   9  -7   21.30    5.00
   4   8  -7   82.09    9.50
   3   8  -7  204.18   15.00
   3   8  -7  206.68   15.40
   2   8  -7  142.59   17.10
   2   8  -7  132.09   11.50
   1   8  -7   25.80    5.70
   1   8  -7   34.00    7.00
   0   8  -7  135.29   13.10
   0   8  -7   87.89   11.90
  -1   8  -7  126.29   11.80
  -1   8  -7  160.48   12.00
  -3   8  -7    5.90    3.50
   5   7  -7   -0.90    3.70
  -5  -7   7    3.50    4.20
  -4  -7   7   20.50    6.60
  -4  -7   7   31.40    4.40
   3   7  -7    4.40    5.10
   3   7  -7   12.70    5.20
  -3  -7   7    7.80    3.80
   2   7  -7   -0.10    4.00
   2   7  -7   30.10    6.90
  -2  -7   7    7.90    4.10
   1   7  -7  199.48   15.90
   1   7  -7  198.68   14.20
  -1  -7   7  179.68   13.10
   0   7  -7   33.70    6.90
   0   7  -7   54.19    9.30
  -1   7  -7   57.79    9.20
  -1   7  -7   60.09    9.60
  -2   7  -7  336.47   19.70
  -2   7  -7  322.77   19.00
  -3   7  -7  178.78   13.40
  -4   7  -7   11.00    4.20
  -5   7  -7   59.69    7.40
  -6  -6   7   24.00    4.30
   5   6  -7   34.70    6.60
  -5  -6   7   46.80    6.10
   4   6  -7   74.49   10.00
  -4  -6   7   78.39    7.40
   3   6  -7  225.68   14.90
   3   6  -7  242.48   17.90
  -3  -6   7  244.98   12.90
   2   6  -7   -3.70    3.80
   1   6  -7  189.78   12.80
   1   6  -7  169.28   15.20
   1   6  -7  183.48   13.70
   0   6  -7   -0.60    3.60
   0   6  -7   -1.90    3.50
   0   6  -7   -3.40    3.10
   0  -6   7    0.20    2.90
  -1   6  -7   77.59    8.20
  -1   6  -7   80.69    9.70
  -1   6  -7   75.49    9.50
  -2   6  -7   13.50    5.00
  -2   6  -7   -5.80    3.60
  -2   6  -7    3.60    3.80
  -3   6  -7   50.19    8.30
  -4   6  -7   37.30    6.70
  -5   6  -7    7.40    4.10
  -6   6  -7   51.79    6.80
   6   5  -7   42.40    7.80
  -6  -5   7   34.00    5.50
   5   5  -7   46.10    8.00
  -5  -5   7   38.70    6.30
   4   5  -7    2.00    4.00
  -4  -5   7   -3.10    2.70
   3   5  -7  967.00   43.20
   3   5  -7  925.41   38.60
  -3  -5   7  913.51   37.10
   2   5  -7  397.36   21.20
   2   5  -7  403.56   21.20
   2   5  -7  438.46   24.80
  -2  -5   7  398.66   18.40
   1   5  -7  266.27   16.30
   1   5  -7  269.97   18.40
   1   5  -7  251.57   15.50
   0   5  -7   23.00    5.60
   0   5  -7   23.00    6.50
   0   5  -7   28.90    6.20
  -1   5  -7   57.59    7.10
  -1   5  -7   65.89    9.20
  -1   5  -7   45.60    7.70
  -2   5  -7  316.77   19.20
  -2   5  -7  330.37   17.30
  -2   5  -7  317.57   19.00
  -3   5  -7   47.20    8.40
  -3   5  -7   37.70    6.10
  -3   5  -7   38.00    7.10
  -3   5  -7   43.50    6.90
  -4   5  -7  199.58   12.90
  -4   5  -7  213.38   15.10
  -5   5  -7    2.30    3.40
  -6   5  -7    6.80    3.90
  -7  -4   7   17.40    4.40
  -6  -4   7    8.20    4.10
   5   4  -7  128.99   11.90
  -5  -4   7  137.69   10.90
   4   4  -7    3.10    3.30
  -4  -4   7    3.50    3.30
   3   4  -7   54.69    9.50
  -3  -4   7   46.00    6.10
  -3  -4   7   48.90    8.90
   2   4  -7   58.79    9.70
   2   4  -7   53.79    8.10
   2   4  -7   62.79    7.40
  -2  -4   7   59.59    8.10
  -2  -4   7   45.10    5.90
   1   4  -7  516.95   24.30
   1   4  -7  556.34   27.60
   1   4  -7  494.95   24.20
  -1  -4   7  493.85   20.80
  -1  -4   7  487.75   24.20
   0   4  -7  665.43   31.30
   0   4  -7  604.14   30.30
   0   4  -7  662.83   28.80
   0  -4   7  620.54   27.80
  -1   4  -7   66.39    8.20
  -1   4  -7   76.49    7.70
  -1   4  -7   85.09    9.60
   1  -4   7   72.19    7.20
  -2   4  -7 1446.16   55.39
  -2   4  -7 1462.35   56.69
  -2   4  -7 1496.65   57.69
  -2   4  -7 1444.86   56.69
  -3   4  -7  170.98   13.10
  -3   4  -7  164.48   12.20
  -3   4  -7  154.98   11.70
  -3   4  -7  162.68   11.40
  -4   4  -7    4.40    3.70
  -4   4  -7   -0.30    3.20
  -4   4  -7   -0.30    3.20
  -5   4  -7   -4.60    3.40
  -5   4  -7    2.00    3.40
  -5   4  -7    1.50    5.50
  -6   4  -7   76.39    8.80
  -6   4  -7   63.99    8.50
  -7  -3   7   -0.90    2.80
  -6  -3   7   22.70    5.60
   5   3  -7   30.80    6.80
  -5  -3   7   32.20    6.20
   4   3  -7   73.39    8.80
  -4  -3   7   81.99   10.90
  -4  -3   7   67.19    8.00
   3   3  -7  595.24   29.60
  -3  -3   7  571.04   29.20
  -3  -3   7  606.44   26.90
   2   3  -7  423.76   21.00
   2   3  -7  339.07   18.30
   2   3  -7  434.26   23.20
  -2  -3   7  409.36   21.80
   1   3  -7  437.66   21.00
   1   3  -7  396.96   22.40
   1   3  -7  401.26   19.40
  -1  -3   7  408.56   18.00
  -1  -3   7  409.56   21.00
   0   3  -7  483.55   23.60
   0   3  -7  444.86   21.40
   0   3  -7  486.65   24.80
   0  -3   7  476.25   22.70
  -1   3  -7 1464.55   54.09
  -1   3  -7 1417.66   53.79
  -1   3  -7 1348.47   54.59
  -1   3  -7 1440.46   56.49
   1  -3   7 1450.25   54.39
  -2   3  -7  361.06   19.30
  -2   3  -7  356.26   19.50
  -2   3  -7  362.76   18.70
   2  -3   7  367.86   18.60
  -3   3  -7   15.50    4.60
  -3   3  -7   20.50    5.30
  -3   3  -7   21.20    5.10
  -3   3  -7   21.80    5.50
   3  -3   7   24.80    5.50
  -4   3  -7  152.18   12.00
  -4   3  -7  162.18   12.30
  -4   3  -7  148.19   11.20
   4  -3   7  145.49   11.40
  -5   3  -7  717.33   31.40
  -5   3  -7  704.73   31.90
  -5   3  -7  666.63   32.20
  -6   3  -7   15.20    6.90
  -6   3  -7    3.90    3.90
  -6   3  -7    7.20    4.00
  -7   3  -7    9.60    4.60
  -8   3  -7    0.40    8.00
  -7  -2   7   26.80    5.70
  -6  -2   7   15.20    5.20
   4   2  -7   46.10    7.60
  -4  -2   7   44.90    9.40
  -4  -2   7   56.09    7.10
   3   2  -7   34.00    6.90
   3   2  -7   42.20    7.60
  -3  -2   7   42.80    7.00
  -3  -2   7   36.00    7.80
   2   2  -7  388.96   21.60
   2   2  -7  402.96   20.20
  -2  -2   7  379.36   21.30
  -2  -2   7  370.76   18.50
   1   2  -7 2407.96   85.89
   1   2  -7 2380.86   83.79
   1   2  -7 2220.38   80.49
  -1  -2   7 2332.87   80.99
  -1  -2   7 2279.57   84.69
   0   2  -7   37.50    7.30
   0   2  -7   17.00    4.40
   0  -2   7   23.50    3.70
   0  -2   7   15.20    4.20
  -1   2  -7  505.95   23.90
  -1   2  -7  486.75   22.30
  -1   2  -7  479.25   23.00
  -1   2  -7  482.05   21.20
   1  -2   7  483.65   22.80
  -2   2  -7    1.80    3.10
  -2   2  -7    3.70    3.50
  -2   2  -7    4.90    3.30
  -2   2  -7    7.10    3.60
   2  -2   7    5.60    2.60
  -3   2  -7 1507.05   57.79
  -3   2  -7 1528.75   56.69
  -3   2  -7 1536.15   56.89
  -3   2  -7 1459.95   56.19
  -4   2  -7   49.60    6.80
  -4   2  -7   50.79    6.50
  -4   2  -7   52.59    7.80
  -4   2  -7   46.10    5.90
  -5   2  -7  124.89   11.20
  -5   2  -7  139.09   11.20
  -5   2  -7  144.49   11.00
   5  -2   7  115.99    7.80
  -6   2  -7   41.30    7.70
  -6   2  -7   48.60    8.00
  -6   2  -7   56.59    8.20
   6  -2   7   52.19    5.30
  -7   2  -7  520.65   25.80
   7  -2   7  523.95   22.40
   8  -2   7   -3.60    2.60
  -7  -1   7   40.50    6.50
  -6  -1   7   41.60    7.50
   5   1  -7   60.29    8.20
  -5  -1   7   67.99    8.60
   4   1  -7   21.50    5.20
  -4  -1   7   21.10    5.60
  -4  -1   7   21.60    7.30
   3   1  -7    8.00    4.30
   3   1  -7   12.00    4.60
  -3  -1   7   12.90    5.00
  -3  -1   7    9.40    3.90
   2   1  -7   32.10    6.00
   2   1  -7   25.00    6.00
  -2  -1   7   46.50    8.10
  -2  -1   7   39.70    6.10
   1   1  -7  154.78   10.80
   1   1  -7  157.08   11.90
  -1  -1   7  162.28    9.70
  -1  -1   7  156.38   11.80
   0   1  -7  105.89    8.40
   0   1  -7  111.59    7.10
   0   1  -7  100.49    9.10
   0  -1   7  102.89    9.10
   0  -1   7   98.09    6.00
  -1   1  -7  479.65   20.50
  -1   1  -7  513.95   24.00
  -1   1  -7  525.35   22.70
  -1   1  -7  529.95   23.70
   1  -1   7  488.35   19.60
   1  -1   7  527.35   24.00
  -2   1  -7    6.20    3.40
  -2   1  -7   12.70    3.70
   2  -1   7   13.20    3.80
   2  -1   7    7.60    1.90
  -3   1  -7  850.51   33.90
  -3   1  -7  813.32   32.80
  -3   1  -7  850.61   34.90
  -3   1  -7  847.22   33.90
   3  -1   7  781.52   29.60
  -4   1  -7   -3.90    2.00
  -4   1  -7    0.20    2.40
  -4   1  -7    3.40    2.60
  -4   1  -7    2.40    2.60
   4  -1   7   -0.80    1.70
  -5   1  -7 2295.47   82.09
  -5   1  -7 2259.77   81.29
  -5   1  -7 2189.18   82.99
   5  -1   7 2201.48   77.19
  -6   1  -7   67.09    8.20
  -6   1  -7   61.79    9.80
  -6   1  -7   61.49    9.30
   6  -1   7   53.69    5.70
  -7   1  -7 1601.94   66.29
   7  -1   7 1723.83   61.19
  -8   1  -7   39.70    7.00
   8  -1   7   39.00    5.70
  -9   1  -7  197.98   13.20
   9  -1   7  204.38   11.40
  -7   0   7   44.40    6.70
  -6   0   7   43.30    7.50
   5   0  -7  183.78   12.30
  -5   0   7  197.88   14.40
   4   0  -7   40.60    6.90
  -4   0   7   57.79    7.90
  -4   0   7   48.70    8.40
   3   0  -7  480.35   23.20
   3   0  -7  478.65   24.60
  -3   0   7  469.45   25.10
  -3   0   7  473.45   23.20
   2   0  -7  375.56   19.70
   2   0  -7  380.06   19.00
  -2   0   7  376.56   18.60
  -2   0   7  373.56   20.60
   1   0  -7  559.24   24.80
   1   0  -7  569.64   26.30
  -1   0   7  566.74   26.50
  -1   0   7  572.84   24.00
   0   0  -7  424.26   20.20
   0   0  -7  416.56   19.40
   0   0  -7  417.06   20.70
   0   0   7  421.66   20.90
   0   0   7  409.56   17.90
  -1   0  -7  174.28   11.50
  -1   0  -7  151.58    9.90
  -1   0  -7  175.18   11.00
   1   0   7  151.78    8.30
   1   0   7  169.08   11.50
  -2   0  -7    4.90    2.20
  -2   0  -7    7.20    3.30
  -2   0  -7    9.00    3.20
  -2   0  -7    6.00    3.10
   2   0   7   11.00    2.20
  -3   0  -7 1740.93   66.99
  -3   0  -7 1824.92   66.29
  -3   0  -7 1850.41   65.99
   3   0   7 1867.71   62.79
  -4   0  -7  876.11   35.10
  -4   0  -7  912.71   35.40
  -4   0  -7  941.71   37.90
  -4   0  -7  856.91   36.10
   4   0   7  900.71   33.10
  -5   0  -7  356.16   19.20
  -5   0  -7  363.26   20.40
  -5   0  -7  363.46   18.50
   5   0   7  366.56   16.40
  -6   0  -7   35.30    7.10
  -6   0  -7   30.50    6.80
   6   0   7   28.30    4.60
  -7   0  -7  100.89   10.50
  -7   0  -7   90.99   10.90
   7   0   7   87.89    8.00
  -8   0  -7  288.07   21.40
  -8   0  -7  309.57   18.90
   8   0   7  297.47   16.10
  -9   0  -7   -2.80    4.00
   9   0   7   -0.70    4.30
  -7   1   7   12.80    4.00
  -6   1   7   52.89    8.00
  -5   1   7   35.60    6.90
   4  -1  -7   -2.10    2.70
  -4   1   7   -9.50    4.00
  -4   1   7    6.50    4.10
   3  -1  -7  232.68   14.30
  -3   1   7  227.78   16.00
  -3   1   7  237.78   14.60
   2  -1  -7  301.07   16.30
   2  -1  -7  270.27   15.20
  -2   1   7  268.87   15.30
  -2   1   7  285.77   17.20
   1  -1  -7  614.64   25.80
   1  -1  -7  585.94   26.60
  -1   1   7  615.04   27.70
  -1   1   7  588.04   25.40
   0  -1  -7 2692.73   92.79
   0  -1  -7 2742.73   93.79
   0  -1  -7 2598.34   91.49
   0   1   7 2552.84   90.59
   0   1   7 2569.64   93.69
  -1  -1  -7    1.30    2.80
  -1  -1  -7    2.50    2.40
  -1  -1  -7   -1.70    1.90
   1   1   7    4.20    3.00
   1   1   7   -1.70    1.50
  -2  -1  -7   16.70    3.70
  -2  -1  -7   20.90    4.50
  -2  -1  -7   13.70    3.80
   2   1   7   13.20    2.70
  -3  -1  -7 4492.25  151.98
  -3  -1  -7 4436.56  152.48
  -3  -1  -7 4466.55  151.38
  -3  -1  -7 4393.06  149.09
   3   1   7 4508.15  149.19
  -4  -1  -7  401.36   18.20
  -4  -1  -7  425.56   19.00
  -4  -1  -7  393.06   19.50
  -4  -1  -7  412.36   20.60
  -5  -1  -7   39.60    7.20
  -5  -1  -7   53.69    6.60
  -5  -1  -7   41.80    7.20
   5   1   7   44.50    4.90
  -6  -1  -7   30.70    6.70
  -6  -1  -7   38.70    7.50
   6   1   7   30.00    5.00
  -7  -1  -7   21.10    5.80
  -7  -1  -7   18.00    6.10
   7   1   7   17.70    4.10
  -8  -1  -7   59.69   13.50
  -8  -1  -7   88.49   10.00
   8   1   7   82.59    7.90
  -9  -1  -7   -1.90    3.20
   9   1   7    3.90    2.80
 -10  -1  -7   15.20    4.70
  10   1   7   17.50    4.10
  -7   2   7    6.60    4.30
  -6   2   7   -2.10    2.90
   5  -2  -7    8.30    4.50
   4  -2  -7  452.65   21.50
   4  -2  -7  477.75   22.10
  -4   2   7  465.75   26.70
  -4   2   7  525.15   25.00
   3  -2  -7   88.39    8.40
   3  -2  -7   85.59    7.80
  -3   2   7   88.99   10.20
  -3   2   7   98.29    9.20
   2  -2  -7  660.83   27.70
   2  -2  -7  760.22   30.10
   2  -2  -7  745.73   30.70
  -2   2   7  659.13   31.70
  -2   2   7  719.73   30.50
   1  -2  -7  804.42   32.60
   1  -2  -7  882.71   34.70
   1  -2  -7  906.51   36.20
  -1   2   7  909.61   37.40
  -1   2   7  920.01   35.50
   0  -2  -7  499.35   22.90
   0  -2  -7  516.95   23.00
   0  -2  -7  498.65   21.50
   0   2   7  485.55   21.30
   0   2   7  493.25   23.50
  -1  -2  -7  965.80   37.40
  -1  -2  -7  954.50   36.00
  -1  -2  -7  941.71   37.70
  -1  -2  -7  968.30   36.80
   1   2   7  925.91   35.40
   1   2   7  924.11   38.20
  -2  -2  -7 1032.20   39.10
  -2  -2  -7  996.50   38.10
  -2  -2  -7 1003.90   39.00
  -2  -2  -7 1024.60   39.80
   2   2   7 1002.10   39.30
  -3  -2  -7  113.59    8.60
  -3  -2  -7  102.79    7.70
  -3  -2  -7  115.49    8.50
  -3  -2  -7  105.19    7.90
   3   2   7  102.09    7.10
  -4  -2  -7    5.00    2.90
  -4  -2  -7   10.70    3.50
  -4  -2  -7    8.20    3.00
  -4  -2  -7   14.10    3.50
   4   2   7    9.00    2.70
  -5  -2  -7 1088.99   44.70
  -5  -2  -7 1100.69   43.70
  -5  -2  -7 1110.19   41.40
  -6  -2  -7 1260.27   49.10
  -6  -2  -7 1172.68   49.80
   6   2   7 1205.08   46.20
  -7  -2  -7   26.50    6.60
  -7  -2  -7   26.40    6.30
   7   2   7   27.30    5.10
  -8  -2  -7    0.90    4.70
  -8  -2  -7    0.80    3.50
   8   2   7   -4.70    2.10
  -9  -2  -7    8.50    4.60
   9   2   7    3.80    3.70
 -10  -2  -7   -1.80    3.40
  10   2   7    1.80    3.10
  -7   3   7   -2.00    3.90
   6  -3  -7  -13.10    5.80
  -6   3   7   -2.50    3.10
   5  -3  -7   70.19    7.50
  -5   3   7   71.29    8.50
   4  -3  -7  162.18   11.40
   4  -3  -7  177.18   11.20
  -4   3   7  185.48   15.10
  -4   3   7  176.58   13.40
   3  -3  -7  296.77   18.20
   3  -3  -7  232.38   16.50
  -3   3   7  310.97   19.00
  -3   3   7  345.77   18.10
   2  -3  -7 1598.04   59.19
   2  -3  -7 1668.33   61.19
  -2   3   7 1691.53   64.59
  -2   3   7 1608.24   63.19
   1  -3  -7    2.50    2.70
   1  -3  -7    3.40    2.80
   1  -3  -7    3.60    3.10
  -1   3   7    0.60    2.70
  -1   3   7    3.70    3.50
   0  -3  -7  241.48   13.90
   0  -3  -7  241.48   12.50
   0  -3  -7  245.78   14.10
   0  -3  -7  229.28   11.70
   0   3   7  258.67   14.90
   0   3   7  254.37   13.40
  -1  -3  -7 1672.03   62.59
  -1  -3  -7 1608.64   58.29
  -1  -3  -7 1409.66   56.09
  -1  -3  -7 1607.34   57.59
  -1  -3  -7 1672.83   59.89
   1   3   7 1682.93   58.39
   1   3   7 1699.43   60.79
  -2  -3  -7 1152.88   44.20
  -2  -3  -7 1113.39   42.30
  -2  -3  -7 1171.38   43.80
  -2  -3  -7 1165.48   43.30
   2   3   7 1156.08   42.60
  -3  -3  -7   26.30    4.70
  -3  -3  -7   23.50    4.80
  -3  -3  -7   24.60    4.40
  -3  -3  -7   29.70    5.00
   3   3   7   18.90    3.60
  -4  -3  -7  437.96   20.40
  -4  -3  -7  431.16   20.00
  -4  -3  -7  434.36   19.60
  -4  -3  -7  449.66   21.20
   4   3   7  457.35   19.80
  -5  -3  -7   76.79    7.20
  -5  -3  -7   90.69    8.70
  -5  -3  -7   84.29    6.80
  -5  -3  -7   87.59    7.90
   5   3   7   95.89    7.90
  -6  -3  -7   81.79    8.30
  -6  -3  -7   73.79    8.80
  -7  -3  -7   43.30    7.80
   7   3   7   33.50    5.90
  -8  -3  -7  395.76   24.20
  -8  -3  -7  437.66   23.80
   8   3   7  409.06   21.30
  -9  -3  -7   61.39    9.80
 -10  -3  -7   -1.30    3.70
  10   3   7    0.00    3.20
   6  -4  -7   -5.60    4.10
  -6   4   7   18.60    4.80
   5  -4  -7   71.09    7.40
  -5   4   7   59.79    8.70
   4  -4  -7   80.79    8.40
  -4   4   7   89.29    9.50
   3  -4  -7 1117.79   44.50
   3  -4  -7 1107.39   44.20
  -3   4   7 1204.38   46.80
  -3   4   7 1151.68   48.60
   2  -4  -7  610.14   26.20
   2  -4  -7  561.04   25.00
  -2   4   7  514.95   34.20
  -2   4   7  610.44   27.30
   1  -4  -7  177.78   11.70
   1  -4  -7  178.08   10.80
   1  -4  -7  181.68   12.30
   1  -4  -7  167.88   10.10
  -1   4   7  181.38   12.70
  -1   4   7  174.28   11.90
   0  -4  -7  166.28   11.10
   0  -4  -7  171.78   11.00
   0  -4  -7  154.58    9.00
   0  -4  -7  153.28    9.40
   0   4   7  148.99   10.30
   0   4   7  158.78   11.40
  -1  -4  -7  661.83   28.60
  -1  -4  -7  636.24   26.30
  -1  -4  -7  679.13   26.70
  -1  -4  -7  698.43   28.90
  -1  -4  -7  675.53   27.10
   1   4   7  714.73   28.30
   1   4   7  699.83   29.50
  -2  -4  -7   63.49    6.40
  -2  -4  -7   64.29    6.20
  -2  -4  -7   56.19    5.10
  -2  -4  -7   69.09    5.90
   2   4   7   69.89    6.30
   2   4   7   55.49    6.60
  -3  -4  -7    1.80    2.70
  -3  -4  -7    6.20    2.30
  -3  -4  -7    3.70    2.20
  -3  -4  -7    4.50    2.30
   3   4   7    4.60    2.60
  -4  -4  -7 2230.48   77.89
  -4  -4  -7 2224.78   76.69
  -4  -4  -7 2222.78   77.79
  -4  -4  -7 2012.50   73.99
  -4  -4  -7 1919.01   79.89
   4   4   7 2386.66   77.49
  -5  -4  -7  127.99    9.10
  -5  -4  -7  131.49   10.30
  -5  -4  -7  142.69   10.00
  -5  -4  -7  130.39    9.40
   5   4   7  147.09   10.10
  -6  -4  -7    9.70    4.20
  -6  -4  -7   12.50    3.00
  -6  -4  -7   10.80    4.30
  -6  -4  -7    9.80    3.50
   6   4   7    5.70    3.30
  -7  -4  -7    3.90    3.80
  -7  -4  -7    4.50    3.80
   7   4   7    8.60    4.10
  -8  -4  -7   18.70    5.20
  -8  -4  -7   22.90    6.80
   8   4   7   17.40    5.40
  -9  -4  -7  236.38   16.30
   9   4   7  208.18   14.80
 -10  -4  -7   22.40    5.70
  10   4   7   17.70    5.20
  -6   5   7   -0.10    9.40
   5  -5  -7   62.29    7.40
  -5   5   7   74.99    7.90
   3  -5  -7  194.98   11.90
   3  -5  -7  197.08   13.00
  -3   5   7  183.68   13.60
  -3   5   7  189.08   15.00
   2  -5  -7   49.80    6.40
   2  -5  -7   40.10    6.30
   2  -5  -7   32.80    6.30
  -2   5   7   50.99    7.70
  -2   5   7   30.50    6.70
   1  -5  -7    5.80    3.30
   1  -5  -7    7.20    3.70
   1  -5  -7    9.70    4.20
   0  -5  -7  421.06   20.70
   0  -5  -7  443.96   21.40
   0  -5  -7  428.36   18.10
   0  -5  -7  452.75   19.90
   0   5   7  442.96   21.60
   0   5   7  424.96   20.90
  -1  -5  -7 1002.60   37.30
  -1  -5  -7 1071.49   40.70
  -1  -5  -7 1000.60   38.40
   1   5   7 1014.40   40.10
   1   5   7 1024.70   40.80
  -2  -5  -7  203.98   10.90
  -2  -5  -7  220.38   12.90
  -2  -5  -7  218.98   11.20
  -2  -5  -7  217.08   10.70
   2   5   7  196.28   12.50
   2   5   7  221.48   12.70
  -3  -5  -7   23.30    4.80
  -3  -5  -7   28.50    4.00
  -3  -5  -7   22.20    4.10
  -3  -5  -7   20.80    3.70
   3   5   7   23.40    4.60
  -4  -5  -7   17.20    3.30
  -4  -5  -7   23.30    4.20
  -4  -5  -7   20.00    3.80
  -4  -5  -7   20.90    4.40
   4   5   7   16.50    4.40
  -5  -5  -7   91.59    8.00
  -5  -5  -7  101.59    7.00
  -5  -5  -7   98.39    8.20
  -5  -5  -7  101.69    8.50
   5   5   7  110.79    9.20
  -6  -5  -7  101.59    8.80
  -6  -5  -7  104.49    8.50
  -6  -5  -7  101.89    9.30
  -6  -5  -7   94.09    8.00
   6   5   7  104.79    9.30
  -7  -5  -7  245.58   15.40
   7   5   7  248.38   15.60
  -8  -5  -7   -3.10    2.50
  -8  -5  -7    9.60    4.70
   8   5   7    0.10    3.70
  -9  -5  -7  214.58   15.00
   9   5   7  211.08   14.80
 -10  -5  -7    5.60    3.70
  10   5   7    0.10    3.10
   5  -6  -7   52.39    9.70
  -5   6   7   50.89    6.90
   4  -6  -7  189.28   13.20
  -4   6   7  193.88   13.20
   3  -6  -7   11.20    4.10
   3  -6  -7   18.60    5.20
  -3   6   7   11.20    8.20
  -3   6   7   17.30    4.80
   2  -6  -7   26.40    5.60
   2  -6  -7   27.40    5.90
   2  -6  -7   19.70    4.80
  -2   6   7   26.10    6.00
  -2   6   7   18.50    5.70
   1  -6  -7  728.73   31.70
   1  -6  -7  779.92   33.00
   1  -6  -7  753.82   31.60
  -1   6   7  715.83   32.80
  -1   6   7  764.52   32.90
   0  -6  -7 1167.98   46.60
   0  -6  -7 1183.28   45.20
   0   6   7 1181.58   46.60
  -1  -6  -7  378.76   17.80
  -1  -6  -7  376.66   19.20
   1   6   7  358.66   18.70
   1   6   7  358.16   18.60
  -2  -6  -7  353.26   17.50
  -2  -6  -7  284.37   14.70
  -2  -6  -7  325.27   14.20
  -2  -6  -7  326.27   15.60
   2   6   7  323.47   17.10
   2   6   7  328.17   17.20
  -3  -6  -7    4.10    2.30
  -3  -6  -7    6.30    2.50
  -3  -6  -7    8.00    2.80
   3   6   7    3.00    3.00
  -4  -6  -7 1107.99   41.50
  -4  -6  -7 1108.09   43.50
  -4  -6  -7 1105.39   41.00
  -4  -6  -7 1112.89   41.80
   4   6   7 1187.78   44.10
   4   6   7 1029.80   41.00
  -5  -6  -7  315.37   17.20
  -5  -6  -7  322.87   16.80
  -5  -6  -7  333.67   16.20
  -5  -6  -7  320.47   15.70
   5   6   7  349.37   18.30
  -6  -6  -7  471.35   21.40
  -6  -6  -7  485.15   23.00
  -6  -6  -7  501.65   23.90
  -6  -6  -7  489.05   22.90
   6   6   7  505.85   24.30
  -7  -6  -7   82.99    8.10
  -7  -6  -7   76.49    8.10
  -7  -6  -7   90.99    9.50
   7   6   7   80.19    9.20
  -8  -6  -7   14.80    5.40
  -9  -6  -7  257.07   16.00
   9   6   7  272.57   17.10
 -10  -6  -7   -1.60    3.30
  10   6   7    7.70    4.40
   5  -7  -7    2.30    3.40
   4  -7  -7   39.50    6.50
   3  -7  -7   68.49    8.40
  -3   7   7   83.09    8.60
   2  -7  -7  328.67   18.50
   2  -7  -7  345.87   18.90
   2  -7  -7  333.07   17.90
  -2   7   7  340.67   19.10
   1  -7  -7  107.99   10.00
   1  -7  -7  106.19    9.20
   1  -7  -7  123.99   10.20
  -1   7   7  125.69   10.50
  -1   7   7   99.49   10.80
   0  -7  -7   53.09    7.50
   0  -7  -7   43.30    7.00
   0   7   7   36.40    6.10
   0   7   7   41.90    7.40
  -1  -7  -7  426.66   20.70
  -1  -7  -7  443.56   22.00
   1   7   7  437.06   21.10
   1   7   7  431.66   21.90
  -2  -7  -7 2009.60   71.89
  -2  -7  -7 2066.89   74.09
   2   7   7 1957.20   79.29
   2   7   7 1995.00   72.89
  -3  -7  -7 1111.99   42.80
  -3  -7  -7 1127.59   44.90
   3   7   7 1098.69   44.00
   3   7   7 1163.98   45.80
  -4  -7  -7 5020.20  168.88
  -4  -7  -7 4986.80  166.68
   4   7   7 4682.53  165.78
   4   7   7 4998.90  168.98
  -5  -7  -7  322.27   16.00
  -5  -7  -7  295.97   15.60
  -5  -7  -7  319.47   17.60
  -5  -7  -7  308.97   15.00
   5   7   7  329.07   18.00
   5   7   7  304.37   16.60
  -6  -7  -7   11.50    3.80
  -6  -7  -7   -0.10    2.80
  -6  -7  -7    2.80    3.30
  -6  -7  -7    2.70    2.60
   6   7   7    7.10    4.30
  -7  -7  -7   37.10    6.40
  -7  -7  -7   17.80    4.80
  -7  -7  -7   17.90    4.80
  -7  -7  -7   27.50    5.30
   7   7   7   20.10    5.60
  -8  -7  -7   -5.50    4.80
  -8  -7  -7    3.40    3.30
  -8  -7  -7    3.80    4.40
   8   7   7    4.90    4.40
  -9  -7  -7   22.60    4.90
   9   7   7   10.20    4.60
 -10  -7  -7    9.60    4.30
  10   7   7    8.10    4.30
  10   7   7   15.50    4.50
   4  -8  -7    3.90    3.40
   3  -8  -7   -1.00    2.80
  -3   8   7   -5.60    7.00
   2  -8  -7   26.30    4.90
   2  -8  -7   31.50    5.90
   2  -8  -7   42.10    6.90
  -2   8   7   35.40    6.10
   1  -8  -7  543.65   25.90
   1  -8  -7  534.25   25.20
   1  -8  -7  538.25   25.70
  -1   8   7  519.65   25.60
   0  -8  -7  293.17   16.70
   0  -8  -7  267.27   16.80
   0   8   7  287.27   17.30
  -1  -8  -7    1.80    3.40
   1   8   7    5.90    4.00
  -2  -8  -7 6995.10  242.38
  -2  -8  -7 7224.88  240.78
   2   8   7 7270.97  242.58
  -3  -8  -7  254.87   14.70
  -3  -8  -7  269.47   16.40
   3   8   7  262.37   16.20
  -4  -8  -7   86.49    9.10
  -4  -8  -7   87.69    7.90
   4   8   7   74.49    7.30
   4   8   7   77.69    8.70
   4   8   7   80.49    8.80
  -5  -8  -7  265.47   14.90
  -5  -8  -7  266.57   16.50
   5   8   7  294.17   17.00
   5   8   7  258.57   15.00
  -6  -8  -7   37.70    6.50
  -6  -8  -7   37.40    6.00
   6   8   7   29.20    5.50
   6   8   7   23.10    5.80
  -7  -8  -7  586.84   28.00
  -7  -8  -7  620.24   26.50
  -7  -8  -7  629.34   26.90
   7   8   7  621.34   29.20
   7   8   7  623.74   29.30
  -8  -8  -7   20.60    4.90
  -8  -8  -7   20.30    5.40
  -8  -8  -7   30.80    5.10
   8   8   7   34.70    6.60
   8   8   7   39.70    7.20
  -9  -8  -7  218.48   13.10
   9   8   7  211.98   18.50
   9   8   7  217.38   14.30
  10   8   7    7.20    4.70
  10   8   7    7.20    3.80
   4  -9  -7   -2.50    3.60
   3  -9  -7    7.00    5.40
   2  -9  -7  147.99   11.60
   1  -9  -7   43.00    6.40
   1  -9  -7   55.59    8.40
   1  -9  -7   51.49    6.60
  -1   9   7   62.29    8.40
   0  -9  -7  549.45   26.50
   0  -9  -7  556.54   26.80
   0   9   7  555.44   26.20
  -1  -9  -7    3.90    3.80
  -1  -9  -7   16.50    4.90
   1   9   7    5.10    4.10
  -2  -9  -7    5.60    3.60
  -2  -9  -7    5.80    4.00
   2   9   7    0.50    3.90
  -3  -9  -7   35.10    6.50
  -3  -9  -7   41.90    7.70
   3   9   7   42.60    6.90
  -4  -9  -7  151.18   12.30
  -4  -9  -7  160.18   11.30
   4   9   7  143.99   11.80
   4   9   7  138.79    9.80
  -5  -9  -7  749.33   33.60
  -5  -9  -7  752.52   31.90
   5   9   7  794.92   34.00
   5   9   7  706.13   31.70
  -6  -9  -7   17.30    4.60
  -6  -9  -7   11.50    4.20
   6   9   7   10.60    4.30
   6   9   7   13.80    5.20
  -7  -9  -7   76.99    7.50
  -7  -9  -7   72.99   14.30
   7   9   7   63.69    7.80
   7   9   7   74.79    8.30
  -8  -9  -7   10.40    5.00
  -8  -9  -7   13.30    4.40
   8   9   7   19.40    4.70
   8   9   7    7.70    4.30
   9   9   7   -0.70    3.90
   9   9   7    8.30    4.20
   3 -10  -7    0.60    3.00
   2 -10  -7   13.20    5.10
   1 -10  -7   37.70    6.60
   1 -10  -7   28.00    6.20
   1 -10  -7   30.20    5.40
   0 -10  -7  107.39   10.60
   0 -10  -7  132.89   11.10
  -1 -10  -7  133.09   11.80
  -1 -10  -7  155.68   11.90
   1  10   7  150.68   11.90
  -2 -10  -7   18.20    5.00
  -2 -10  -7   32.10    9.10
   2  10   7   24.90    6.60
  -3 -10  -7   28.90    5.70
  -3 -10  -7   28.40    6.40
   3  10   7   11.00    4.80
  -4 -10  -7   25.40    6.10
  -4 -10  -7   32.70    6.60
   4  10   7   12.20    4.40
  -5 -10  -7    1.20    3.10
  -5 -10  -7    3.30    3.90
   5  10   7    3.40    3.90
   5  10   7    3.30    3.90
  -6 -10  -7  148.29   16.60
  -6 -10  -7  163.58   11.30
   6  10   7  162.38   12.40
   6  10   7  161.88   11.70
  -7 -10  -7  179.08   11.60
  -7 -10  -7  171.48   12.50
   7  10   7  162.68   12.40
   7  10   7  174.78   12.50
  -8 -10  -7    7.40    4.10
   8  10   7    9.20    4.80
   8  10   7    0.40    4.10
   9  10   7   24.60    8.70
   9  10   7   35.90    5.80
   1 -11  -7    1.80    3.10
   0 -11  -7    0.60    3.90
   0 -11  -7   -2.50    4.20
   0 -11  -7    0.70    3.70
  -1 -11  -7   -1.40    3.30
  -1 -11  -7    2.80    3.90
  -2 -11  -7   82.89    8.60
  -2 -11  -7   69.39    9.00
  -3 -11  -7  150.98   11.40
  -3 -11  -7  139.39   11.80
  -4 -11  -7   38.40    7.30
  -4 -11  -7   39.60    6.40
   4  11   7   19.40    6.80
  -5 -11  -7   46.90    7.10
  -5 -11  -7   47.30    7.90
   5  11   7   40.20    7.40
  -6 -11  -7  215.88   14.60
  -6 -11  -7  217.38   13.30
   6  11   7  227.58   17.60
   6  11   7  218.28   13.90
  -7 -11  -7   71.29    7.50
  -7 -11  -7   57.39    7.80
   7  11   7   52.59    7.50
  -8 -11  -7   19.70    8.10
   8  11   7   11.50    7.30
   0 -12  -7    3.70    3.70
  -1 -12  -7  170.38   11.80
  -2 -12  -7   76.49    8.90
  -3 -12  -7    6.00    5.00
  -3 -12  -7   13.70    4.40
  -4 -12  -7  130.19   10.80
  -4 -12  -7  152.48   10.70
  -5 -12  -7    7.20    5.80
  -5 -12  -7    5.30    4.00
  -6 -12  -7   97.29    8.40
  -7 -12  -7   72.99    7.30
  -3 -13  -7  171.18   11.30
  -4 -13  -7  267.97   14.30
  -5 -13  -7    4.50    3.40
   2   8  -8   -2.00    3.20
   1   8  -8    3.40    4.20
   0   8  -8   17.90    5.10
   0   8  -8   16.50    5.60
  -1   8  -8  104.29   12.40
  -2   8  -8    8.70    5.00
   4   7  -8   81.99    9.20
   3   7  -8  241.28   16.60
   2   7  -8    2.20    4.00
  -2  -7   8   14.70    4.30
   1   7  -8  174.88   14.30
   1   7  -8  176.48   12.50
  -1  -7   8  162.28   13.20
   0   7  -8   40.40    8.80
   0   7  -8   27.30    6.00
  -1   7  -8    9.50    6.70
  -2   7  -8  -11.60    4.30
  -2   7  -8    9.00    4.90
  -3   7  -8  126.89   10.60
  -4   7  -8   11.60    5.60
   5   6  -8   11.80    7.20
   4   6  -8   68.09    9.20
  -4  -6   8  106.19    7.60
   3   6  -8    5.20    3.90
   2   6  -8  104.89   11.30
   2   6  -8   90.19   11.40
   1   6  -8  270.47   16.60
   1   6  -8  286.37   19.80
   0   6  -8  292.37   20.00
   0   6  -8  296.67   17.60
   0   6  -8  282.37   16.30
   0  -6   8  319.17   17.10
  -1   6  -8    7.80    5.00
  -1   6  -8   14.40    5.10
  -1   6  -8   12.20    4.50
  -2   6  -8  361.76   18.40
  -2   6  -8  358.86   20.40
  -2   6  -8  343.27   19.80
  -3   6  -8   44.70    6.90
  -4   6  -8   -0.30    3.10
  -5   6  -8  200.48   13.00
   5   5  -8   90.39    9.70
  -5  -5   8   99.09    8.10
   4   5  -8  103.09   11.10
  -4  -5   8   86.99    8.10
   3   5  -8   38.30    7.80
  -3  -5   8   37.40    5.40
   1   5  -8  185.48   13.20
   1   5  -8  189.88   13.70
   0   5  -8  928.61   41.60
   0   5  -8  866.81   37.20
   0   5  -8  868.61   37.40
  -1   5  -8  533.65   25.20
  -1   5  -8  505.95   25.70
  -1   5  -8  563.44   28.80
  -3   5  -8   88.49    9.60
  -3   5  -8   78.29    8.80
  -3   5  -8   84.69    9.80
  -4   5  -8   80.19    9.50
  -4   5  -8  111.49    9.20
  -5   5  -8  126.59   10.60
  -6   5  -8   -1.30    2.90
  -6  -4   8    3.80    3.30
   5   4  -8   60.69   13.10
  -5  -4   8   39.60    6.20
   4   4  -8    7.20    4.30
  -4  -4   8   -1.30    2.80
   3   4  -8  103.79   11.30
  -3  -4   8   93.49    8.80
   2   4  -8  731.83   33.20
   2   4  -8  732.33   36.10
  -2  -4   8  750.02   30.20
   1   4  -8  166.28   12.60
   1   4  -8  181.98   15.00
   0   4  -8    7.00    4.10
   0   4  -8    5.40    5.00
   0   4  -8    2.90    3.60
  -1   4  -8  155.08   11.90
  -1   4  -8  176.18   14.30
  -1   4  -8  155.78   11.70
  -2   4  -8    2.30    3.20
  -2   4  -8    1.10    3.70
  -2   4  -8    0.50    3.30
  -3   4  -8  416.96   20.40
  -3   4  -8  360.36   20.50
  -3   4  -8  362.96   20.70
  -3   4  -8  371.86   20.40
  -4   4  -8    5.30    4.60
  -4   4  -8   -1.30    3.90
  -4   4  -8   -4.30    3.60
  -5   4  -8    4.30    4.20
  -5   4  -8    4.70    3.50
  -6   4  -8    4.40    4.80
  -6   4  -8    8.70    4.20
  -6  -3   8   18.70    4.70
   5   3  -8  125.29   10.90
  -5  -3   8  126.09   10.60
   4   3  -8   28.10    6.30
  -4  -3   8   21.70    4.90
   3   3  -8   39.70    8.30
  -3  -3   8   40.50    6.40
   2   3  -8   93.39    9.90
   2   3  -8   94.39   10.70
  -2  -3   8   98.29   10.50
  -2  -3   8   91.29    7.90
   1   3  -8  233.78   14.90
   1   3  -8  228.38   16.80
  -1  -3   8  232.18   15.80
  -1  -3   8  216.48   12.00
   0   3  -8   52.39    9.30
   0   3  -8   44.50    7.60
   0   3  -8   48.00    6.50
   0  -3   8   44.70    7.40
  -1   3  -8  639.24   29.10
  -1   3  -8  701.73   32.00
  -1   3  -8  615.54   30.10
   1  -3   8  623.24   29.40
  -2   3  -8    4.10    3.20
  -2   3  -8    1.80    3.70
  -2   3  -8    2.00    3.60
  -2   3  -8    0.00    3.00
   2  -3   8    0.10    3.80
  -3   3  -8  317.07   17.90
  -3   3  -8  352.16   19.20
  -3   3  -8  311.37   18.80
  -3   3  -8  334.27   18.20
   3  -3   8  309.67   18.30
  -4   3  -8    9.10    4.40
  -4   3  -8   20.00    5.20
  -4   3  -8   12.10    3.90
  -5   3  -8  202.78   14.90
  -6   3  -8   96.49    9.40
  -6   3  -8   78.69    8.80
  -7   3  -8   39.50    6.70
  -6  -2   8   -3.00    4.60
   5   2  -8  190.48   13.40
  -5  -2   8  186.08   13.50
   4   2  -8    5.00    5.40
   3   2  -8   -1.70    3.70
  -3  -2   8   -4.00    3.30
  -3  -2   8   -1.50    2.30
   2   2  -8   51.69    9.10
   2   2  -8   62.59    7.80
  -2  -2   8   46.20    8.10
  -2  -2   8   50.49    6.70
   1   2  -8  169.78   12.20
   1   2  -8  172.18   13.80
  -1  -2   8  147.79   10.00
  -1  -2   8  161.08   12.90
   0   2  -8   92.79    8.70
   0   2  -8   58.29    9.30
   0  -2   8   72.69    9.70
   0  -2   8   67.49    5.90
  -1   2  -8  323.57   16.20
  -1   2  -8  357.96   20.20
  -1   2  -8  343.77   18.30
  -1   2  -8  336.67   19.00
   1  -2   8  332.17   19.00
  -2   2  -8    1.40    2.80
  -2   2  -8    1.70    3.20
  -2   2  -8    4.30    3.20
  -2   2  -8    0.50    2.90
   2  -2   8    2.70    3.20
  -3   2  -8  186.48   13.10
  -3   2  -8  155.88   12.00
  -3   2  -8  162.98   12.00
   3  -2   8  159.78   12.40
  -4   2  -8  352.46   19.10
  -4   2  -8  321.27   19.40
  -4   2  -8  353.26   18.50
  -4   2  -8  350.56   18.00
   4  -2   8  331.37   19.30
  -5   2  -8  329.67   18.70
  -5   2  -8  322.17   18.20
  -5   2  -8  305.07   19.10
  -6   2  -8    7.70    4.10
  -6   2  -8   12.50    4.90
  -6   2  -8    6.30    3.70
  -7   2  -8  214.68   14.30
  -8   2  -8   45.00    6.60
  -7  -1   8   10.00    3.80
  -6  -1   8   39.60    7.00
   5   1  -8   13.00    4.60
  -5  -1   8    2.20    3.00
   4   1  -8   42.50    6.90
  -4  -1   8   41.70    7.30
   3   1  -8  170.48   13.20
  -3  -1   8  171.98   12.30
  -3  -1   8  140.89   12.80
   2   1  -8  444.26   22.60
   2   1  -8  447.86   23.90
  -2  -1   8  426.16   21.30
  -2  -1   8  457.55   24.60
   1   1  -8  705.03   31.00
   1   1  -8  713.83   32.90
  -1  -1   8  702.03   29.10
  -1  -1   8  697.73   32.60
   0  -1   8  396.46   21.00
   0  -1   8  378.06   17.30
  -1   1  -8   28.10    5.60
  -1   1  -8   22.30    5.20
  -1   1  -8   19.50    5.70
   1  -1   8   26.00    4.00
   1  -1   8   25.80    5.60
  -2   1  -8  810.22   34.60
  -2   1  -8  837.52   34.50
  -2   1  -8  807.42   33.30
  -2   1  -8  725.53   30.30
   2  -1   8  813.02   34.80
   2  -1   8  748.43   28.70
  -3   1  -8   -1.90    2.50
  -3   1  -8    0.10    2.90
  -3   1  -8    0.00    2.70
  -3   1  -8    1.10    3.20
   3  -1   8    1.00    3.30
  -4   1  -8   43.00    7.40
  -4   1  -8   42.80    6.40
  -4   1  -8   45.10    7.20
  -5   1  -8 1702.33   66.49
  -5   1  -8 1641.64   61.79
  -5   1  -8 1628.44   60.59
   5  -1   8 1435.16   57.19
  -6   1  -8   21.20    5.50
  -6   1  -8   14.60    5.10
  -6   1  -8   16.90    5.10
  -7   1  -8  150.28   12.00
  -7   1  -8  127.39   12.80
  -8   1  -8   -2.30    3.80
  -9   1  -8   29.50    5.30
  -7   0   8   56.29    7.40
  -6   0   8   12.40    4.50
  -5   0   8    5.30    3.20
   4   0  -8  470.55   23.80
  -4   0   8  504.45   25.20
   3   0  -8  364.56   20.40
  -3   0   8  362.26   21.80
  -3   0   8  357.66   19.70
   2   0  -8  155.88   11.20
   2   0  -8  133.49   11.60
  -2   0   8  150.68   10.80
  -2   0   8  144.49   12.40
  -1   0   8  241.28   17.50
  -1   0   8  245.68   13.80
   0   0  -8   53.99    8.60
   0   0  -8   51.69    6.60
   0   0   8   68.69    7.90
   0   0   8   55.79    5.90
  -1   0  -8 1446.36   54.89
  -1   0  -8 1414.86   53.69
  -1   0  -8 1460.15   55.99
   1   0   8 1463.95   55.99
   1   0   8 1371.96   50.99
  -2   0  -8  739.93   29.80
  -2   0  -8  831.02   33.30
  -2   0  -8  819.22   34.60
  -2   0  -8  773.22   33.60
   2   0   8  838.52   35.20
   2   0   8  783.52   29.70
  -3   0  -8 3489.85  122.99
  -3   0  -8 3792.32  126.99
  -3   0  -8 3572.04  125.89
  -3   0  -8 3777.12  127.59
   3   0   8 3530.95  121.89
  -4   0  -8  775.22   33.10
  -4   0  -8  763.02   34.00
  -4   0  -8  809.32   32.60
  -4   0  -8  747.03   31.10
   4   0   8  776.12   29.50
  -5   0  -8 2398.06   88.19
  -5   0  -8 2471.55   91.59
  -5   0  -8 2686.73   90.89
   5   0   8 2382.06   85.69
  -6   0  -8  180.08   13.50
  -6   0  -8  165.78   13.80
  -7   0  -8  490.85   26.90
  -8   0  -8    5.40    3.80
  -9   0  -8   -2.30    3.20
   9   0   8   11.70    3.60
  -6   1   8   -0.60    3.10
  -5   1   8   13.80    4.70
   4  -1  -8  111.99    9.80
  -4   1   8  123.99   11.30
   3  -1  -8   10.30    4.50
  -3   1   8   11.20    5.70
  -3   1   8   14.10    4.90
   2  -1  -8  269.17   16.20
   2  -1  -8  270.37   15.70
  -2   1   8  249.58   17.30
  -2   1   8  268.37   15.70
   1  -1  -8 1262.77   49.90
   1  -1  -8 1228.38   48.00
  -1   1   8 1228.48   50.69
  -1   1   8 1260.97   47.70
   0  -1  -8  462.75   23.30
   0  -1  -8  461.25   21.80
   0   1   8  485.05   21.30
   0   1   8  483.05   24.20
  -1  -1  -8   49.99    6.80
  -1  -1  -8   54.59    6.40
  -1  -1  -8   57.49    6.20
   1   1   8   49.00    7.00
   1   1   8   43.40    4.90
  -2  -1  -8 1813.22   67.19
  -2  -1  -8 1941.71   69.29
  -2  -1  -8 1804.82   67.99
   2   1   8 1911.21   69.89
   2   1   8 1808.62   64.89
  -3  -1  -8 2219.58   79.99
  -3  -1  -8 2159.38   78.99
  -3  -1  -8 2235.48   80.29
   3   1   8 2215.08   76.49
  -4  -1  -8   30.50    5.60
  -4  -1  -8   25.80    5.30
  -4  -1  -8   38.30    6.80
   4   1   8   36.80    4.60
  -5  -1  -8   48.40    5.90
  -5  -1  -8   55.69    7.80
  -5  -1  -8   47.70    7.30
   5   1   8   45.70    5.20
  -6  -1  -8   60.79    8.00
  -6  -1  -8   45.40   10.90
  -7  -1  -8  463.65   24.10
  -7  -1  -8  410.46   24.60
  -8  -1  -8  210.88   15.60
  -8  -1  -8  214.68   25.20
  -9  -1  -8   75.99    8.80
   9   1   8   65.59   10.00
  10   1   8    1.10    3.40
  -5   2   8   79.79    9.10
   4  -2  -8    1.20    2.90
  -4   2   8    2.10    3.90
   3  -2  -8   30.90    6.00
  -3   2   8   28.20    5.80
  -3   2   8   33.10    7.70
   2  -2  -8   -2.10    2.80
   2  -2  -8   -2.40    2.80
  -2   2   8    0.90    3.30
  -2   2   8   -3.40    2.60
   1  -2  -8   31.80    5.60
   1  -2  -8   32.10    6.20
  -1   2   8   28.90    5.40
  -1   2   8   27.40    6.00
   0  -2  -8  369.06   18.00
   0  -2  -8  368.76   19.60
   0   2   8  348.67   17.60
   0   2   8  373.36   20.20
  -1  -2  -8  775.82   32.20
  -1  -2  -8  803.02   33.30
  -1  -2  -8  792.82   34.30
   1   2   8  875.41   35.60
   1   2   8  794.42   31.90
  -2  -2  -8  241.38   13.60
  -2  -2  -8  260.77   15.40
  -2  -2  -8  249.38   14.50
  -2  -2  -8  250.77   14.50
   2   2   8  270.47   15.90
   2   2   8  255.17   12.90
  -3  -2  -8   10.00    3.50
  -3  -2  -8   14.90    4.50
  -3  -2  -8   13.80    4.30
  -3  -2  -8   13.30    3.80
   3   2   8    9.70    2.90
  -4  -2  -8 2412.86   86.99
  -4  -2  -8 2424.46   88.29
  -4  -2  -8 2445.16   87.49
   4   2   8 2495.65   85.39
  -5  -2  -8  363.26   18.80
  -5  -2  -8  339.17   19.40
  -5  -2  -8  338.47   17.10
   5   2   8  333.07   16.60
  -6  -2  -8  302.37   19.50
  -6  -2  -8  370.56   19.60
   6   2   8  327.17   16.90
  -7  -2  -8    3.90    4.60
  -7  -2  -8    3.60    3.50
  -8  -2  -8    1.70    4.80
  -8  -2  -8    7.80    4.30
  -9  -2  -8   44.20    7.60
   9   2   8   46.20    6.80
 -10  -2  -8   50.59    7.00
  10   2   8   57.79    6.60
  -6   3   8   26.70    5.30
  -5   3   8   29.10    6.10
   4  -3  -8  274.97   15.40
  -4   3   8  304.07   18.60
   3  -3  -8   -2.60    3.20
   3  -3  -8    5.10    3.40
  -3   3   8   -0.70    2.70
  -3   3   8    6.50    6.50
   2  -3  -8  499.75   21.60
   2  -3  -8  488.35   24.00
  -2   3   8  488.35   26.10
  -2   3   8  511.15   24.70
   1  -3  -8   80.39    8.40
   1  -3  -8   86.99    7.50
   1  -3  -8   80.99    6.80
  -1   3   8   68.59   14.20
  -1   3   8   82.79   13.60
   0  -3  -8  187.88   12.60
   0  -3  -8  178.88   11.20
   0  -3  -8  195.38   13.10
   0   3   8  188.38   12.00
   0   3   8  188.68   13.40
  -1  -3  -8  422.76   20.80
  -1  -3  -8  416.16   18.90
  -1  -3  -8  416.36   20.80
  -1  -3  -8  405.36   19.60
   1   3   8  403.26   19.30
   1   3   8  412.56   21.40
  -2  -3  -8  909.31   38.10
  -2  -3  -8  918.71   36.10
  -2  -3  -8  938.21   37.70
  -2  -3  -8  937.41   37.00
   2   3   8  959.00   36.30
   2   3   8  909.91   38.80
  -3  -3  -8   20.00    6.90
  -3  -3  -8   27.00    4.70
  -3  -3  -8   22.70    5.30
  -3  -3  -8   19.40    4.60
   3   3   8   33.00    5.00
  -4  -3  -8  460.75   21.40
  -4  -3  -8  452.95   22.40
  -4  -3  -8  483.95   22.70
  -4  -3  -8  454.35   21.70
   4   3   8  500.85   21.50
  -5  -3  -8   75.79    8.20
  -5  -3  -8   68.99    7.80
  -5  -3  -8   79.69    7.70
  -5  -3  -8   72.79    7.50
   5   3   8   67.99    6.90
  -6  -3  -8  354.36   19.60
  -6  -3  -8  352.56   20.70
   6   3   8  368.06   18.60
  -7  -3  -8  327.47   18.90
  -7  -3  -8  289.97   19.50
   7   3   8  310.77   17.30
  -8  -3  -8    4.90    6.20
  -8  -3  -8   -1.00    2.50
   8   3   8   -5.30    2.60
  -9  -3  -8    3.70    4.00
   9   3   8    7.70    3.60
 -10  -3  -8   65.39    8.00
  10   3   8   52.89    7.00
  -6   4   8    2.10    3.50
   5  -4  -8  183.98   16.60
   4  -4  -8  466.25   22.40
  -4   4   8  514.35   25.50
   3  -4  -8   69.79    7.60
   3  -4  -8   74.89    7.60
  -3   4   8   75.99   11.20
  -3   4   8   67.79    8.50
   2  -4  -8  106.39    8.90
   2  -4  -8  125.29   10.40
  -2   4   8  114.89   10.40
  -2   4   8  113.19   11.60
   1  -4  -8  430.86   21.40
   1  -4  -8  380.66   21.40
   1  -4  -8  410.76   19.00
   1  -4  -8  437.66   19.70
  -1   4   8  439.66   21.90
  -1   4   8  424.36   22.60
   0  -4  -8   43.00    5.30
   0  -4  -8   45.10    5.50
   0  -4  -8   53.49    7.90
   0  -4  -8   51.19    7.00
   0   4   8   40.10    6.60
   0   4   8   52.29    7.20
  -1  -4  -8   86.39    7.30
  -1  -4  -8   77.99    6.50
  -1  -4  -8   94.59    8.80
  -1  -4  -8   87.29    6.90
  -1  -4  -8   95.09    8.70
   1   4   8   95.99    9.20
   1   4   8   85.69    8.00
  -2  -4  -8  258.97   13.70
  -2  -4  -8  242.88   12.90
  -2  -4  -8  276.57   15.20
  -2  -4  -8  216.78   11.80
  -2  -4  -8  267.37   15.20
   2   4   8  254.97   14.00
   2   4   8  257.17   15.50
  -3  -4  -8    3.60    2.60
  -3  -4  -8    4.00    3.00
  -3  -4  -8    1.00    2.10
  -3  -4  -8   -1.30    2.60
   3   4   8    2.50    2.70
  -4  -4  -8    4.60    2.70
  -4  -4  -8   -2.20    2.10
  -4  -4  -8    1.40    2.70
  -4  -4  -8   -0.80    2.70
   4   4   8    3.60    2.80
  -5  -4  -8  123.99    9.40
  -5  -4  -8  117.69   10.10
  -5  -4  -8  116.69    9.80
   5   4   8  125.59   10.70
  -6  -4  -8   78.19    8.40
  -6  -4  -8   69.99    8.50
  -6  -4  -8   64.19    7.30
   6   4   8   76.89    8.00
  -7  -4  -8  108.59   10.00
  -7  -4  -8   97.69   10.70
   7   4   8  103.49    9.40
  -8  -4  -8   68.19   10.30
  -8  -4  -8   77.79    9.30
   8   4   8   86.29    8.90
  -9  -4  -8   36.60    7.10
   9   4   8   19.30    4.70
 -10  -4  -8   -2.40    3.00
  10   4   8    1.90    3.50
   5  -5  -8   38.20    6.10
  -5   5   8   53.69    6.90
   4  -5  -8   14.80    4.40
  -4   5   8   13.80    4.70
   3  -5  -8  235.88   13.90
   3  -5  -8  225.08   14.10
  -3   5   8  255.37   16.20
   2  -5  -8    7.30    4.10
   2  -5  -8    9.90    3.80
  -2   5   8    3.40    4.20
  -2   5   8   10.80    4.60
   1  -5  -8   19.00    5.20
   1  -5  -8   25.90    5.60
   1  -5  -8   18.60    5.20
  -1   5   8   22.40    5.30
  -1   5   8   19.10    5.10
   0  -5  -8   39.90    5.00
   0  -5  -8   55.19    7.50
   0  -5  -8   51.99    6.90
   0  -5  -8   58.49    6.20
   0   5   8   59.89    7.50
   0   5   8   55.89    7.40
  -1  -5  -8  327.87   17.70
  -1  -5  -8  312.97   15.00
  -1  -5  -8  332.37   17.80
  -1  -5  -8  293.87   15.00
   1   5   8  326.47   17.40
   1   5   8  313.37   18.00
  -2  -5  -8  580.34   23.90
  -2  -5  -8  606.84   27.10
  -2  -5  -8  566.34   23.80
  -2  -5  -8  585.24   26.60
  -2  -5  -8  577.54   24.40
   2   5   8  575.84   27.20
   2   5   8  603.04   26.30
  -3  -5  -8   69.29    7.30
  -3  -5  -8   65.79    5.90
  -3  -5  -8   60.29    7.50
  -3  -5  -8   59.29    6.00
  -3  -5  -8   59.59    5.60
   3   5   8   58.59    6.80
  -4  -5  -8  107.69    7.90
  -4  -5  -8  101.99    9.30
  -4  -5  -8  105.09    8.40
  -4  -5  -8   94.89    7.60
  -4  -5  -8  117.79    9.10
   4   5   8   93.09    9.30
  -5  -5  -8   37.60    6.20
  -5  -5  -8   39.30    6.50
  -5  -5  -8   41.70    6.50
   5   5   8   40.10    6.40
  -6  -5  -8  234.78   14.20
  -6  -5  -8  244.08   14.60
  -6  -5  -8  250.47   15.70
  -6  -5  -8  241.78   14.00
   6   5   8  243.68   15.20
  -7  -5  -8  118.79   10.90
  -7  -5  -8  123.19   10.50
   7   5   8  116.39   10.70
  -8  -5  -8   -4.70    4.70
  -8  -5  -8   12.10    4.60
   8   5   8   -2.20    3.00
  -9  -5  -8   16.90    4.80
   9   5   8    6.00    4.30
 -10  -5  -8   48.60    7.20
  10   5   8   46.10    7.20
   5  -6  -8    4.90    4.30
  -5   6   8   -9.60    9.10
   4  -6  -8   -3.10    3.60
  -4   6   8   -0.40    3.30
   3  -6  -8    5.40    3.50
   3  -6  -8    5.80    3.90
  -3   6   8    5.30    3.90
   2  -6  -8  819.02   34.40
   2  -6  -8  821.52   34.20
  -2   6   8  752.42   36.90
  -2   6   8  859.61   36.50
   1  -6  -8  764.92   33.80
   1  -6  -8  758.42   34.60
  -1   6   8  830.32   35.20
  -1   6   8  784.42   35.40
   0  -6  -8  384.46   18.90
   0  -6  -8  379.06   20.20
   0  -6  -8  384.26   20.70
   0   6   8  402.06   21.00
   0   6   8  366.36   20.70
  -1  -6  -8   30.70    6.30
  -1  -6  -8   32.10    5.50
  -1  -6  -8   24.90    5.70
   1   6   8   32.40    6.40
   1   6   8   38.80    6.70
  -2  -6  -8  696.53   27.80
  -2  -6  -8  682.63   29.00
  -2  -6  -8  722.33   31.50
   2   6   8  746.43   31.60
   2   6   8  752.52   32.10
  -3  -6  -8 1042.30   39.40
  -3  -6  -8  997.10   38.50
  -3  -6  -8 1083.89   42.40
  -3  -6  -8  992.20   39.10
   3   6   8 1084.99   42.20
   3   6   8 1033.20   42.60
  -4  -6  -8  450.25   20.40
  -4  -6  -8  461.35   21.30
  -4  -6  -8  491.35   20.90
  -4  -6  -8  479.55   23.00
   4   6   8  504.55   23.50
  -5  -6  -8   30.30    4.70
  -5  -6  -8   35.50    5.70
  -5  -6  -8   42.00    6.60
   5   6   8   32.60    6.40
  -6  -6  -8  101.69    9.00
  -6  -6  -8  100.99    8.90
  -6  -6  -8   96.09    9.00
  -6  -6  -8   83.79    8.10
   6   6   8  106.69    9.80
  -7  -6  -8   14.70    4.90
  -7  -6  -8   18.60    4.30
   7   6   8   23.20    6.00
  -8  -6  -8   -5.70    4.10
  -8  -6  -8   -4.80    2.30
   8   6   8   -0.80    3.10
  -9  -6  -8  116.09   10.00
   9   6   8  110.69   10.50
 -10  -6  -8    6.90    3.70
  10   6   8    4.80    3.80
   4  -7  -8  108.09    9.20
  -4   7   8  118.99    9.80
   3  -7  -8    1.70    3.20
  -3   7   8    5.00    3.90
   1  -7  -8  392.46   20.30
   1  -7  -8  387.76   19.90
   1  -7  -8  374.36   20.80
  -1   7   8  392.36   21.30
  -1   7   8  375.66   23.50
   0  -7  -8 1183.08   47.30
   0  -7  -8 1171.58   45.40
   0  -7  -8 1142.99   46.40
   0   7   8 1098.09   46.50
   0   7   8 1146.09   47.20
  -1  -7  -8 1403.26   53.99
  -1  -7  -8 1408.46   56.09
   1   7   8 1489.95   56.39
  -2  -7  -8  126.79    9.60
  -2  -7  -8  112.39   10.70
   2   7   8  135.09   11.00
   2   7   8  123.89   10.70
  -3  -7  -8   66.19    7.00
  -3  -7  -8   65.79    8.00
   3   7   8   69.19    8.30
   3   7   8   62.59    7.50
  -4  -7  -8   54.79    7.30
  -4  -7  -8   53.39    6.50
  -4  -7  -8   59.29    7.00
  -4  -7  -8   69.09    5.60
   4   7   8   56.59    7.50
   4   7   8   57.89    7.50
  -5  -7  -8  657.33   27.90
  -5  -7  -8  652.83   30.20
  -5  -7  -8  628.64   29.10
  -5  -7  -8  672.23   27.60
   5   7   8  636.84   27.30
   5   7   8  738.13   31.20
  -6  -7  -8    5.40    3.60
  -6  -7  -8    2.50    3.20
  -6  -7  -8    2.80    3.30
  -6  -7  -8    6.20    3.20
   6   7   8   -1.40    3.50
   6   7   8    4.00    3.40
  -7  -7  -8   42.10    6.30
  -7  -7  -8   43.30    7.10
  -7  -7  -8   34.40    5.90
  -7  -7  -8   51.49    7.00
   7   7   8   46.70    8.00
  -8  -7  -8   -3.90    3.00
   8   7   8    1.50    3.90
  -9  -7  -8   13.90    4.50
   9   7   8   16.20    5.50
 -10  -7  -8   19.60    5.20
  10   7   8   24.40    7.40
  10   7   8   12.70    4.60
   4  -8  -8    4.70    3.60
   3  -8  -8   13.80    3.80
  -3   8   8   18.10    5.30
   2  -8  -8  314.77   17.20
   2  -8  -8  335.67   18.10
  -2   8   8  324.67   18.20
   1  -8  -8  289.17   17.50
   0  -8  -8 2507.15   89.09
   0  -8  -8 2414.46   90.39
   0  -8  -8 2382.86   89.59
   0   8   8 2555.24   90.69
  -1  -8  -8    7.30    4.10
  -1  -8  -8    2.30    4.10
   1   8   8    6.70    4.30
  -2  -8  -8 1382.76   53.69
  -2  -8  -8 1281.67   51.09
   2   8   8 1359.46   53.39
  -3  -8  -8  513.45   23.70
  -3  -8  -8  542.65   25.90
   3   8   8  482.15   24.50
   3   8   8  549.95   26.10
  -4  -8  -8  235.38   15.20
  -4  -8  -8  216.58   13.40
   4   8   8  219.58   15.00
   4   8   8  238.68   15.40
  -5  -8  -8   12.90    4.30
  -5  -8  -8    8.40    4.00
   5   8   8   17.20    5.50
   5   8   8   13.60    5.00
  -6  -8  -8  214.28   14.00
  -6  -8  -8  205.18   12.60
   6   8   8  221.58   14.70
   6   8   8  192.08   12.70
  -7  -8  -8 1144.89   45.60
  -7  -8  -8 1114.39   45.70
  -7  -8  -8 1152.38   43.50
   7   8   8 1170.18   47.30
   7   8   8 1123.29   45.60
  -8  -8  -8  163.68   10.80
   8   8   8  174.58   12.90
   8   8   8  143.89   12.20
  -9  -8  -8   12.70    4.70
   9   8   8    3.70    5.30
   9   8   8    5.60    4.10
  10   8   8   -2.90    2.90
   3  -9  -8  219.78   12.90
   1  -9  -8    5.40    3.90
   1  -9  -8   -1.20    3.10
   1  -9  -8   -4.00    3.40
  -1   9   8    4.70    4.40
   0  -9  -8  395.66   20.60
   0  -9  -8  379.46   20.50
   0  -9  -8  393.46   21.20
   0   9   8  378.76   20.80
  -1  -9  -8   26.00    6.40
  -1  -9  -8   24.70    5.70
   1   9   8   37.80    6.90
  -2  -9  -8   -0.40    3.20
  -2  -9  -8    0.20    3.30
   2   9   8    8.10    3.90
  -3  -9  -8  208.28   13.20
  -3  -9  -8  201.68   14.20
   3   9   8  196.58   14.00
  -4  -9  -8   10.20    3.70
  -4  -9  -8   12.70    5.00
   4   9   8   15.50    5.10
  -5  -9  -8  144.59   12.00
  -5  -9  -8  131.39   10.30
   5   9   8  153.38   12.00
  -6  -9  -8   83.89    8.10
  -6  -9  -8   80.79    8.90
   6   9   8  102.29   10.00
   6   9   8   85.49    8.80
  -7  -9  -8  108.49   10.30
  -7  -9  -8  128.19    9.60
   7   9   8  123.19   11.10
   7   9   8  116.19   10.20
   8   9   8   11.80    4.40
   8   9   8   13.50    6.80
   9   9   8  195.08   14.00
   9   9   8  162.88   11.80
   2 -10  -8  178.58   11.50
   1 -10  -8   21.50    5.00
   1 -10  -8   21.70    5.30
   1 -10  -8   15.90    5.60
   0 -10  -8   58.69    8.20
   0 -10  -8   82.39    7.90
   0 -10  -8   82.49    8.90
   0  10   8   59.29    8.50
  -1 -10  -8    6.00    4.30
  -1 -10  -8    8.10    4.10
   1  10   8   -5.00    4.00
  -2 -10  -8  165.18   12.70
  -2 -10  -8  165.78   12.20
   2  10   8  138.69   11.90
  -3 -10  -8    1.30    3.30
  -3 -10  -8    4.70    4.20
   3  10   8    7.60    4.40
  -4 -10  -8   12.50    4.40
  -4 -10  -8    7.50    4.40
   4  10   8   22.90    5.30
  -5 -10  -8    4.10    3.20
  -5 -10  -8    6.40    4.30
   5  10   8    3.20    3.60
  -6 -10  -8   14.50    5.00
  -6 -10  -8    9.90    4.00
   6  10   8   11.00    5.00
  -7 -10  -8   55.89    7.70
  -7 -10  -8   64.39    7.10
   7  10   8   48.50    7.60
   8  10   8   61.59    7.90
   9  10   8    8.30    4.70
   1 -11  -8    4.00    3.20
   0 -11  -8  130.49   10.20
   0 -11  -8  115.79    9.40
  -1 -11  -8   64.89    8.50
  -1 -11  -8   67.99    7.70
  -1 -11  -8   60.79    7.90
  -2 -11  -8   -1.10    4.20
  -2 -11  -8    8.80    4.30
  -3 -11  -8  114.19    9.80
  -3 -11  -8  110.59   10.60
   3  11   8  105.59   11.30
  -4 -11  -8  112.19   10.60
  -4 -11  -8  121.59    9.90
   4  11   8  122.69   10.90
  -5 -11  -8  275.17   15.70
  -5 -11  -8  296.27   17.30
   5  11   8  283.27   16.40
  -6 -11  -8   21.30    5.40
  -6 -11  -8   10.00    4.60
   6  11   8   14.70    5.40
  -7 -11  -8    5.70    3.70
   7  11   8   -1.60    4.90
  -1 -12  -8  118.89    9.40
  -1 -12  -8  119.09    9.50
  -2 -12  -8  137.29   10.30
  -3 -12  -8   56.39    7.80
  -3 -12  -8   39.00    6.20
  -4 -12  -8  118.79   10.20
  -4 -12  -8  145.39   10.60
  -5 -12  -8  212.28   12.70
  -5 -12  -8  198.78   13.50
  -6 -12  -8    6.50    3.40
   2   7  -9    8.10    4.40
   1   7  -9    4.80    4.20
   0   7  -9  221.38   15.40
  -1   7  -9   28.40    6.10
   4   6  -9   36.90    6.80
   3   6  -9    7.90    5.10
  -2  -6   9  423.66   23.20
   1   6  -9  137.69   12.80
  -1  -6   9  103.19    9.80
   0   6  -9  122.89   12.10
  -1   6  -9    5.80    4.40
  -1   6  -9   -1.50    4.50
  -1   6  -9   -0.70    4.70
  -2   6  -9  140.09   12.00
  -2   6  -9  145.19   11.20
  -3   6  -9  163.38   11.70
  -4   6  -9    3.60    5.70
   4   5  -9   16.60    5.40
  -4  -5   9    8.70    5.10
   3   5  -9   33.90    7.90
   2   5  -9   20.60    6.80
   1   5  -9   70.79   11.20
   1   5  -9   77.29    8.40
   0   5  -9   28.50    6.30
   0   5  -9   55.79   10.00
  -1   5  -9  200.28   13.50
  -1   5  -9  227.28   16.50
  -1   5  -9  211.48   13.80
  -2   5  -9   -7.60    2.90
  -2   5  -9   -3.30    3.80
  -2   5  -9    3.40    4.40
  -3   5  -9   80.89    9.90
  -3   5  -9   88.29    9.30
  -3   5  -9  108.29    9.80
  -4   5  -9  241.58   14.70
   5   4  -9   -3.80    6.80
  -5  -4   9    2.60    3.30
   4   4  -9  106.59   13.80
  -4  -4   9  110.49    8.50
   3   4  -9   60.69    9.40
  -3  -4   9   58.99    6.90
   2   4  -9  452.15   25.70
  -2  -4   9  426.26   19.40
   1   4  -9  117.89   13.00
   1   4  -9  130.39   11.10
   0   4  -9   47.10   10.50
  -1   4  -9  111.39   13.40
  -1   4  -9  118.59   10.90
  -2   4  -9   40.70    9.70
  -2   4  -9   53.69   10.00
  -3   4  -9  116.39   10.90
  -3   4  -9  107.29    9.90
  -3   4  -9   96.09    9.60
  -4   4  -9  100.49    9.50
  -4   4  -9   88.89    9.20
  -5   4  -9    3.70    3.10
  -5   4  -9    4.80    6.70
  -6   4  -9   14.40    6.50
   5   3  -9   13.70    4.70
  -5  -3   9   10.30    3.80
  -4  -3   9  487.05   23.20
   3   3  -9   -2.90    3.60
  -3  -3   9    2.90    2.80
  -2  -3   9    2.70    4.20
   1   3  -9  279.07   17.30
   1   3  -9  300.37   20.10
  -1  -3   9  248.08   20.00
  -1  -3   9  284.17   14.10
   0   3  -9  318.57   20.80
   0   3  -9  312.97   18.50
  -1   3  -9    0.50    4.10
  -1   3  -9   -0.20    3.90
  -1   3  -9    2.30    3.70
   1  -3   9   -7.80    4.90
  -2   3  -9  268.37   17.50
  -2   3  -9  265.37   15.10
  -2   3  -9  283.67   16.90
  -2   3  -9  293.07   18.50
  -3   3  -9   20.10    4.90
  -3   3  -9   24.40    5.90
  -3   3  -9   18.10    5.10
  -3   3  -9   11.60    4.60
  -4   3  -9   13.60    4.60
  -4   3  -9   14.20    6.40
  -4   3  -9    7.70    4.40
  -5   3  -9    3.50    3.80
  -5   3  -9   -3.90    2.70
  -6   3  -9  137.29   11.10
  -7   3  -9    5.10    4.70
  -6  -2   9   34.90    5.60
   5   2  -9   -7.70    4.20
  -5  -2   9   -0.60    3.70
   4   2  -9   93.79    9.80
  -4  -2   9   96.89    9.20
   3   2  -9  226.48   16.10
  -3  -2   9  215.68   13.90
   2   2  -9   25.10    6.20
  -2  -2   9   26.80    4.60
   1   2  -9  253.37   18.00
   1   2  -9  275.37   16.60
  -1  -2   9  228.28   17.00
  -1  -2   9  252.67   13.90
   0   2  -9    1.70    4.20
   0   2  -9   -1.80    3.10
   0  -2   9    5.40    4.80
   0  -2   9   -3.30    2.40
  -1   2  -9  268.07   18.20
  -1   2  -9  265.47   16.10
   1  -2   9  240.38   16.50
  -2   2  -9    3.20    3.50
  -2   2  -9    4.80    5.60
  -2   2  -9    6.80    4.40
   2  -2   9   -0.70    4.20
  -3   2  -9  113.99   10.20
  -3   2  -9  116.19   10.90
  -3   2  -9   98.19   10.30
  -3   2  -9  108.19    8.90
   3  -2   9  137.09   11.80
  -4   2  -9  240.68   15.00
  -4   2  -9  249.97   15.80
  -4   2  -9  230.08   14.10
  -4   2  -9  242.98   16.60
   4  -2   9  234.58   16.60
  -5   2  -9  136.69   12.30
  -6   2  -9   32.90    6.60
  -7   2  -9    8.50    4.50
  -8   2  -9    7.90    4.10
  -6  -1   9   35.30    5.60
   5   1  -9   96.39   10.30
  -5  -1   9  112.99    9.80
   4   1  -9   -1.10    3.50
  -4  -1   9    0.40    2.60
   3   1  -9   22.50    5.60
  -3  -1   9   14.20    4.20
   2   1  -9  440.46   23.20
   2   1  -9  470.35   25.00
  -2  -1   9  426.86   21.70
  -2  -1   9  438.86   25.20
   1   1  -9 1642.74   62.29
   1   1  -9 1648.54   64.69
  -1  -1   9 1584.74   59.49
  -1  -1   9 1570.04   64.19
   0   1  -9  542.05   25.40
   0   1  -9  512.55   27.10
   0  -1   9  477.75   26.20
  -1   1  -9   10.90    4.20
  -1   1  -9    8.50    4.80
  -1   1  -9   11.90    4.20
   1  -1   9    9.00    2.80
   1  -1   9   11.60    4.30
  -2   1  -9   35.10    7.20
  -2   1  -9   16.40    5.10
  -2   1  -9   14.50    4.90
   2  -1   9   16.40    5.00
  -3   1  -9 3199.98  109.09
  -3   1  -9 2945.21  109.49
  -3   1  -9 3026.00  109.39
   3  -1   9 3019.80  110.59
  -4   1  -9   93.39    9.10
  -4   1  -9   82.49    9.30
  -4   1  -9   65.49    7.40
  -4   1  -9   81.39    9.00
   4  -1   9   74.99    9.00
  -5   1  -9  213.78   15.50
  -5   1  -9  222.38   13.50
  -5   1  -9  231.68   15.40
  -6   1  -9    6.70    4.00
  -6   1  -9    9.80    6.50
  -7   1  -9   35.20    6.70
  -8   1  -9   -1.70    3.10
  -6   0   9   32.90    5.70
  -5   0   9    9.00    4.10
   4   0  -9   19.00    5.00
  -4   0   9   22.20    5.50
   3   0  -9  271.87   17.50
  -3   0   9  291.27   17.40
   2   0  -9    3.40    3.70
   2   0  -9    4.70    3.80
  -2   0   9   -2.90    2.30
  -2   0   9    3.60    5.20
   1   0  -9  104.69   11.00
   1   0  -9   97.19    9.20
  -1   0   9   77.59   10.30
  -1   0   9   83.29    8.10
   0   0  -9  744.63   33.00
   0   0  -9  792.62   35.50
   0   0   9  704.53   34.60
   0   0   9  796.62   32.00
  -1   0  -9 9999.00  326.47
  -1   0  -9 9776.02  327.57
  -1   0  -9 9680.13  328.67
   1   0   9 9739.13  329.07
   1   0   9 9584.14  322.87
  -2   0  -9    3.20    4.20
  -2   0  -9    1.30    3.20
  -2   0  -9    9.10    4.30
   2   0   9    4.50    2.30
   2   0   9    3.10    3.60
  -3   0  -9 2660.33   94.29
  -3   0  -9 2657.53   95.39
  -3   0  -9 2681.53   95.59
   3   0   9 2456.75   89.39
   3   0   9 2642.84   96.59
  -4   0  -9    8.50    3.10
  -4   0  -9   17.40    5.30
  -4   0  -9   17.90    5.10
  -4   0  -9   19.10    5.30
   4   0   9   14.90    2.70
  -5   0  -9   -0.70    3.40
  -5   0  -9    5.50    3.80
  -5   0  -9   -2.90    3.20
   5   0   9   10.20    2.80
  -6   0  -9  122.49   11.70
  -6   0  -9  136.39   11.70
   6   0   9  130.79    8.80
  -7   0  -9   -3.10    3.20
  -7   0  -9   -0.80    5.00
   7   0   9    3.70    2.80
  -8   0  -9   77.19    9.10
   8   0   9   73.89    7.00
  -9   0  -9    6.30    3.60
  -6   1   9    0.00    3.10
  -5   1   9   11.80    4.20
   4  -1  -9   16.30    4.00
  -4   1   9    7.50    3.80
   3  -1  -9   27.90    5.70
  -3   1   9   35.60    7.00
   2  -1  -9   41.90    7.50
   2  -1  -9   47.20    8.20
  -2   1   9   34.50    7.10
  -2   1   9   48.30    7.90
   1  -1  -9  533.15   27.20
   1  -1  -9  567.74   26.00
  -1   1   9  552.44   25.40
  -1   1   9  524.45   28.10
   0  -1  -9  156.68   12.90
   0  -1  -9  149.59   11.30
   0   1   9  149.39   11.70
   0   1   9  162.48   13.40
  -1  -1  -9  294.27   17.40
  -1  -1  -9  285.37   16.30
  -1  -1  -9  321.97   18.80
   1   1   9  294.77   15.20
   1   1   9  297.47   18.60
  -2  -1  -9  149.69   11.10
  -2  -1  -9  144.59   11.40
   2   1   9  157.38    9.70
   2   1   9  186.28   14.50
  -3  -1  -9   23.60    5.40
  -3  -1  -9   18.40    5.20
   3   1   9   25.10    6.40
   3   1   9   27.00    4.20
  -4  -1  -9  971.00   42.60
  -4  -1  -9 1008.80   40.70
  -4  -1  -9  986.60   41.60
   4   1   9  955.40   37.10
  -5  -1  -9  214.58   13.70
  -5  -1  -9  237.58   16.00
  -5  -1  -9  240.18   15.10
   5   1   9  236.68   12.60
  -6  -1  -9   43.70    7.60
  -6  -1  -9   59.09    9.10
   6   1   9   54.89    6.00
  -7  -1  -9  132.19   14.30
  -7  -1  -9  118.59   11.10
   7   1   9  107.19    8.70
  -8  -1  -9    2.00    3.90
   8   1   9    2.30    2.70
  -9  -1  -9   11.40    4.50
   9   1   9   -1.00    3.20
  -6   2   9    3.70    3.00
  -5   2   9    4.00    3.70
   4  -2  -9   65.19    8.10
  -4   2   9   74.49    9.20
   3  -2  -9   79.79    9.00
  -3   2   9   90.29    9.60
   2  -2  -9  302.37   18.10
   2  -2  -9  294.67   17.00
  -2   2   9  316.57   18.10
  -2   2   9  282.47   19.60
   1  -2  -9    8.50    4.40
   1  -2  -9   19.80    5.30
  -1   2   9   13.40    4.30
  -1   2   9   14.60    5.70
   0  -2  -9   98.49    8.60
   0  -2  -9   81.59    9.30
   0   2   9   89.89    8.30
   0   2   9   73.19    9.40
  -1  -2  -9  820.92   34.90
  -1  -2  -9  769.22   35.90
  -1  -2  -9  828.32   34.00
   1   2   9  785.22   32.90
   1   2   9  871.11   39.30
  -2  -2  -9  201.58   12.50
  -2  -2  -9  187.18   13.80
  -2  -2  -9  199.08   13.10
   2   2   9  193.28   20.00
   2   2   9  195.88   11.60
  -3  -2  -9   27.90    5.80
  -3  -2  -9   28.90    5.70
  -3  -2  -9   33.50    6.60
   3   2   9   26.30    4.80
   3   2   9   30.10    6.30
  -4  -2  -9   16.10    5.00
  -4  -2  -9   19.10    4.90
  -4  -2  -9    6.20    4.10
   4   2   9   19.50    4.10
  -5  -2  -9  479.85   24.40
  -5  -2  -9  479.25   23.10
  -5  -2  -9  430.36   23.20
   5   2   9  442.96   20.80
  -6  -2  -9   12.00    4.60
  -6  -2  -9   -0.40    3.00
   6   2   9    0.30    2.80
  -7  -2  -9   55.39    9.70
  -7  -2  -9   86.39    9.50
   7   2   9   62.69    6.80
  -8  -2  -9  228.88   15.30
   8   2   9  171.08   11.70
  -9  -2  -9   87.49   10.00
   9   2   9   71.29    7.60
  -5   3   9   14.40    4.40
   4  -3  -9    2.60    6.80
  -4   3   9    1.40    3.60
   3  -3  -9  316.87   18.00
  -3   3   9  331.87   19.40
   2  -3  -9    5.60    3.40
  -2   3   9    7.20    4.20
   1  -3  -9  342.27   19.60
   1  -3  -9  360.06   18.20
  -1   3   9  368.96   19.40
  -1   3   9  305.37   20.00
   0  -3  -9    1.30    3.20
   0   3   9   -2.40    3.40
   0   3   9   -0.10    2.80
  -1  -3  -9   32.60    5.70
  -1  -3  -9   30.80    6.90
  -1  -3  -9   43.00    7.40
  -1  -3  -9   35.70    5.90
   1   3   9   30.60    6.60
   1   3   9   45.10    6.50
  -2  -3  -9  431.66   22.30
  -2  -3  -9  453.85   21.00
  -2  -3  -9  457.05   24.90
  -2  -3  -9  437.26   21.60
   2   3   9  441.26   25.70
   2   3   9  446.06   20.90
  -3  -3  -9   36.00    6.30
  -3  -3  -9   33.70    6.60
  -3  -3  -9   41.30    6.80
  -3  -3  -9   36.90    5.90
   3   3   9   30.40    6.80
   3   3   9   36.40    5.70
  -4  -3  -9  121.59    9.70
  -4  -3  -9  122.09   11.60
  -4  -3  -9  116.89   10.10
  -4  -3  -9  134.09   10.20
  -5  -3  -9  310.57   17.70
  -5  -3  -9  344.77   18.30
  -5  -3  -9  326.47   19.00
   5   3   9  334.77   17.20
  -6  -3  -9   24.60    6.10
  -6  -3  -9   17.30    5.20
   6   3   9   26.20    5.10
  -7  -3  -9   30.50    7.40
  -7  -3  -9   26.00    6.10
   7   3   9   34.80    6.00
  -8  -3  -9    2.60    6.80
  -8  -3  -9   -2.30    3.00
   8   3   9    6.00    3.30
  -9  -3  -9   51.89    8.50
   9   3   9   32.40    5.90
 -10  -3  -9    4.10    3.90
  10   3   9   26.20    4.50
  -5   4   9   16.80    4.20
  -4   4   9   23.60    5.80
  -3   4   9   39.00    7.90
   2  -4  -9  120.99   10.00
  -2   4   9   99.69   12.10
  -2   4   9  111.79   11.10
   1  -4  -9  232.18   13.40
   1  -4  -9  226.08   15.20
  -1   4   9  225.88   15.20
  -1   4   9  217.68   16.30
   0  -4  -9  918.21   39.40
   0  -4  -9 1006.10   41.40
   0  -4  -9  941.61   40.40
   0   4   9 1028.30   40.60
   0   4   9  900.51   41.10
  -1  -4  -9   37.80    5.80
  -1  -4  -9   32.10    6.50
  -1  -4  -9   24.80    5.90
   1   4   9   27.90    5.60
   1   4   9   22.40    5.80
  -2  -4  -9  219.48   13.00
  -2  -4  -9  204.98   14.00
  -2  -4  -9  212.98   12.30
  -2  -4  -9  219.68   14.70
   2   4   9  206.08   19.60
  -3  -4  -9  147.09   12.00
  -3  -4  -9  136.99   10.60
  -3  -4  -9  155.08   10.10
  -3  -4  -9  151.18   11.50
   3   4   9  150.48   12.50
  -4  -4  -9  559.64   26.30
  -4  -4  -9  584.84   27.50
  -4  -4  -9  562.44   26.30
  -4  -4  -9  560.54   25.40
   4   4   9  592.94   25.90
  -5  -4  -9  305.47   17.40
  -5  -4  -9  295.77   16.60
  -5  -4  -9  293.97   17.50
  -5  -4  -9  303.77   16.40
   5   4   9  311.87   16.90
  -6  -4  -9  131.89   10.70
  -6  -4  -9  146.99   10.80
  -6  -4  -9  120.69   12.50
   6   4   9  141.29   10.90
  -7  -4  -9  284.87   17.50
  -7  -4  -9  310.37   19.40
   7   4   9  287.67   17.00
  -8  -4  -9  153.08   12.40
  -8  -4  -9  144.69   13.40
   8   4   9  153.88   12.00
  -9  -4  -9   51.29    8.30
   9   4   9   46.20    7.10
 -10  -4  -9    3.40    3.40
  10   4   9    9.50    4.10
  -5   5   9    7.80    3.80
  -4   5   9   49.20    7.80
   3  -5  -9   20.00    4.90
   3  -5  -9   20.00    5.10
  -3   5   9   18.90    5.40
   2  -5  -9  147.29   10.40
   2  -5  -9  148.29   11.50
  -2   5   9  136.59   12.40
   1  -5  -9   24.20    4.60
   1  -5  -9   15.70    4.70
  -1   5   9   23.40    5.70
  -1   5   9   20.60    5.70
   0  -5  -9  139.09   12.50
   0  -5  -9  145.79   11.60
   0  -5  -9  129.99    9.30
   0  -5  -9  116.69    9.20
   0   5   9  117.09   11.20
   0   5   9  140.99   11.60
  -1  -5  -9  478.25   24.40
  -1  -5  -9  496.85   24.70
  -1  -5  -9  479.65   21.50
   1   5   9  491.95   24.10
   1   5   9  478.05   25.10
  -2  -5  -9  762.02   32.10
  -2  -5  -9  784.22   34.30
  -2  -5  -9  778.42   31.30
  -2  -5  -9  774.32   34.60
   2   5   9  786.62   35.30
   2   5   9  812.72   33.90
  -3  -5  -9   33.60    6.70
  -3  -5  -9   18.00    3.90
  -3  -5  -9   18.30    3.90
  -3  -5  -9   24.70    5.60
   3   5   9   14.50    4.60
   3   5   9   18.00    5.50
  -4  -5  -9  151.08   11.90
  -4  -5  -9  127.19   10.60
  -4  -5  -9  142.29   10.00
  -4  -5  -9  137.09   10.30
   4   5   9  133.59   10.80
  -5  -5  -9  658.13   28.50
  -5  -5  -9  622.84   29.20
  -5  -5  -9  630.94   29.10
  -5  -5  -9  682.93   30.60
   5   5   9  694.53   30.00
  -6  -5  -9  105.09    9.60
  -6  -5  -9  127.09   11.00
  -6  -5  -9  119.09    9.80
  -6  -5  -9  120.59    9.60
   6   5   9  116.19   10.20
  -7  -5  -9    6.60    3.40
  -7  -5  -9    5.40    3.50
   7   5   9    2.90    3.60
  -8  -5  -9   48.30    9.90
  -8  -5  -9   53.49    8.40
   8   5   9   55.59    8.30
  -9  -5  -9   36.30    6.80
   9   5   9   23.70    5.10
 -10  -5  -9   54.89    6.60
  10   5   9   36.30    5.70
   4  -6  -9   27.50    8.70
  -4   6   9   23.80    5.00
   3  -6  -9   39.70    6.20
  -3   6   9   28.20    5.90
   2  -6  -9  266.97   19.90
  -2   6   9  243.18   17.10
   1  -6  -9   19.10    6.20
   1  -6  -9   21.80    5.20
   1  -6  -9   20.00    4.80
  -1   6   9   12.30    4.70
  -1   6   9   11.30    5.80
   0  -6  -9   21.10    5.70
   0  -6  -9   27.60    6.60
   0  -6  -9   12.10    4.60
   0   6   9   14.40    5.40
   0   6   9   21.10    5.60
  -1  -6  -9    7.30    4.20
  -1  -6  -9    9.10    4.30
   1   6   9    5.70    3.90
   1   6   9    5.10    4.80
  -2  -6  -9  464.95   21.80
  -2  -6  -9  528.25   25.70
  -2  -6  -9  509.45   25.30
  -2  -6  -9  493.05   21.40
   2   6   9  511.25   25.60
   2   6   9  531.55   25.30
  -3  -6  -9 1641.54   62.39
  -3  -6  -9 1521.15   57.39
  -3  -6  -9 1651.73   61.89
  -3  -6  -9 1551.94   57.59
  -3  -6  -9 1557.44   58.49
   3   6   9 1624.64   62.89
   3   6   9 1663.93   61.59
  -4  -6  -9  261.97   15.50
  -4  -6  -9  287.37   17.40
  -4  -6  -9  278.67   15.20
  -4  -6  -9  275.47   16.70
   4   6   9  269.47   17.30
   4   6   9  288.67   16.90
  -5  -6  -9    1.60    2.70
  -5  -6  -9   -4.60    2.00
  -5  -6  -9    2.90    3.60
  -5  -6  -9    1.20    3.00
   5   6   9   -3.30    2.90
  -6  -6  -9   64.89    7.20
  -6  -6  -9   68.29    8.40
  -6  -6  -9   71.99    8.20
  -6  -6  -9   83.89    8.60
   6   6   9   84.89    8.80
  -7  -6  -9  195.68   14.10
  -7  -6  -9  228.98   13.90
   7   6   9  221.48   14.90
  -8  -6  -9   73.99    7.60
   8   6   9   48.90    7.90
  -9  -6  -9   -0.20    3.50
   9   6   9    0.50    3.40
 -10  -6  -9   47.20    6.50
  10   6   9   29.30    5.60
  -4   7   9   -5.20    4.70
   3  -7  -9    2.10    6.50
  -3   7   9    0.80    3.40
   2  -7  -9    6.50    4.30
   2  -7  -9    2.60    3.70
  -2   7   9    5.70    4.10
   1  -7  -9  130.59   10.20
   1  -7  -9  126.69   11.30
   1  -7  -9  146.09   12.40
  -1   7   9  120.39   11.40
   0  -7  -9   70.89    8.40
   0  -7  -9   75.79    7.80
   0  -7  -9   86.89    9.80
   0   7   9   65.89    8.90
  -1  -7  -9    4.20    3.40
  -1  -7  -9    8.50    4.60
  -1  -7  -9    6.30    3.80
   1   7   9    2.60    3.80
   1   7   9    1.30    4.40
  -2  -7  -9    2.00    3.50
  -2  -7  -9    4.40    3.50
  -2  -7  -9    8.30    4.60
   2   7   9    7.20    4.50
   2   7   9   -3.50    4.60
  -3  -7  -9   62.09    8.10
  -3  -7  -9   56.19    6.80
  -3  -7  -9   59.49    8.40
   3   7   9   66.69    8.40
   3   7   9   58.29    8.10
  -4  -7  -9   19.40    4.90
  -4  -7  -9   26.30    5.00
   4   7   9   15.80    5.30
   4   7   9   30.30    6.60
  -5  -7  -9  479.95   24.80
  -5  -7  -9  460.25   23.60
  -5  -7  -9  438.46   21.80
  -5  -7  -9  478.15   21.00
   5   7   9  520.35   24.90
  -6  -7  -9  101.99    9.40
  -6  -7  -9   94.79    7.80
  -6  -7  -9   75.09    8.20
  -6  -7  -9   92.99    9.40
   6   7   9   89.79    9.70
  -7  -7  -9    6.50    5.00
  -7  -7  -9   13.00    3.70
  -7  -7  -9   -2.80    3.50
   7   7   9    3.30    3.70
   7   7   9    4.10    4.00
  -8  -7  -9   21.40    4.10
   8   7   9   12.10    4.60
   8   7   9   15.70    4.70
  -9  -7  -9  152.98   10.40
   9   7   9  145.79   11.30
   9   7   9  144.49   11.50
  10   7   9   58.79    7.00
   3  -8  -9    9.10    4.00
  -3   8   9    3.60    4.70
   2  -8  -9 1063.29   42.60
  -2   8   9 1116.09   44.30
   1  -8  -9  225.98   14.00
   1  -8  -9  201.78   14.20
   1  -8  -9  213.38   15.40
  -1   8   9  245.78   15.40
   0  -8  -9 1140.69   47.60
  -1  -8  -9  129.59   11.70
  -1  -8  -9  119.59   11.10
  -1  -8  -9  126.29   10.30
   1   8   9  134.29   11.70
  -2  -8  -9  110.79   10.40
  -2  -8  -9   96.89    9.20
  -2  -8  -9  110.09   11.00
   2   8   9  120.69   11.30
  -3  -8  -9   21.40    4.90
  -3  -8  -9   15.20    5.10
   3   8   9   20.90    5.70
   3   8   9   14.60    7.20
  -4  -8  -9  105.89    8.70
  -4  -8  -9  125.39   11.10
   4   8   9   99.69   13.00
   4   8   9  113.89   10.90
  -5  -8  -9   97.99   10.10
  -5  -8  -9   91.09    8.40
   5   8   9   87.39   11.70
   5   8   9  108.59   10.50
  -6  -8  -9  255.17   16.00
  -6  -8  -9  226.78   16.90
  -7  -8  -9   40.60    7.00
  -7  -8  -9   33.20    6.00
  -7  -8  -9   37.90    6.80
   7   8   9   37.40    7.10
   8   8   9   10.20    4.90
   9   8   9   66.49    8.00
   2  -9  -9  484.35   22.30
   1  -9  -9   40.30    6.50
   1  -9  -9   36.80    6.30
  -1   9   9   32.80    6.10
   0  -9  -9   22.90    5.60
   0  -9  -9   17.60    5.50
   0  -9  -9   16.90    4.50
   0   9   9   18.10    5.00
  -1  -9  -9  493.05   25.60
  -1  -9  -9  515.75   25.70
  -1  -9  -9  496.15   24.00
   1   9   9  513.75   25.80
  -2  -9  -9   26.70    6.70
  -3  -9  -9   27.20    6.50
  -3  -9  -9   23.90    5.20
   3   9   9   30.20    6.70
  -4  -9  -9  142.19   10.60
  -4  -9  -9  145.09   12.20
   4   9   9  145.19   13.00
  -5  -9  -9  114.09   10.90
  -5  -9  -9  124.49   10.10
   5   9   9  115.19   10.90
  -6  -9  -9   43.40    6.80
   6   9   9   37.90    7.70
  -7  -9  -9  122.99   10.50
  -7  -9  -9  122.49   10.90
   7   9   9  138.99   11.80
   8   9   9   62.69    8.00
   9   9   9   92.29    9.00
   2 -10  -9   -4.10    3.40
   1 -10  -9    3.80    4.50
   1 -10  -9    4.30    3.70
   0 -10  -9   -1.40    3.00
   0 -10  -9   -1.50    4.00
   0 -10  -9    2.50    3.40
   0  10   9    1.50    4.70
  -1 -10  -9   30.10    6.60
  -1 -10  -9   21.00    5.20
  -1 -10  -9   26.50    5.40
   1  10   9   28.50    6.00
  -2 -10  -9   -1.40    3.80
  -2 -10  -9    5.00    3.50
   2  10   9    5.30    4.00
  -3 -10  -9  502.15   26.90
  -3 -10  -9  530.85   24.50
   3  10   9  520.55   25.80
  -4 -10  -9   37.70    6.90
  -4 -10  -9   50.39    7.20
   4  10   9   59.59    8.60
  -5 -10  -9    6.00    3.60
  -5 -10  -9    3.80    3.20
   5  10   9    9.10    4.00
  -6 -10  -9  133.29   10.00
  -6 -10  -9  128.99   11.00
   6  10   9  122.89   10.80
  -7 -10  -9  136.29   12.10
  -7 -10  -9  200.08   16.50
   7  10   9  160.98   11.90
   8  10   9   49.70    6.80
   0 -11  -9    6.80    3.80
   0 -11  -9   14.70    5.20
  -1 -11  -9    8.70    5.00
  -1 -11  -9   13.80    4.50
  -1 -11  -9    1.30    3.60
  -2 -11  -9   94.29   10.00
  -2 -11  -9   96.59    9.30
  -2 -11  -9   96.79    9.50
   2  11   9   93.29   10.50
  -3 -11  -9   49.60    7.00
  -3 -11  -9   58.49    7.30
  -4 -11  -9  349.96   19.20
  -4 -11  -9  341.77   17.60
   4  11   9  282.07   22.50
  -5 -11  -9  145.99   12.00
   5  11   9  176.38   16.40
  -6 -11  -9   -2.70    3.30
  -6 -11  -9    9.10    3.80
   6  11   9    0.50    3.80
  -7 -11  -9    8.80    3.80
   7  11   9   11.00    5.00
  -1 -12  -9   14.20    4.50
  -2 -12  -9   10.50    3.80
  -2 -12  -9    3.80    3.60
  -3 -12  -9  101.19    8.90
  -3 -12  -9  112.39    9.00
  -4 -12  -9   -0.30    3.70
  -5 -12  -9   19.80    4.80
   2   6 -10   32.90    7.00
   1   6 -10  356.56   20.40
   0   6 -10    2.40    3.80
  -1   6 -10   15.30    5.30
  -2   6 -10  179.38   18.00
   3   5 -10    5.30    4.10
   2   5 -10    9.90    4.40
   1   5 -10  216.08   16.00
   0   5 -10   -1.70    3.70
  -1   5 -10  239.58   16.60
  -2   5 -10   45.20    7.00
  -2   5 -10   52.39    8.50
  -3   5 -10   17.20    5.30
   4   4 -10   -3.90    3.30
   3   4 -10  155.98   13.10
   2   4 -10   56.69    9.30
   1   4 -10    8.80    5.10
   1   4 -10    8.80    4.70
   0   4 -10   31.60    7.90
   0   4 -10   24.40    5.80
  -1   4 -10   62.19    7.60
  -1   4 -10   72.49    9.70
  -2   4 -10  152.38   13.30
  -2   4 -10  139.89   11.50
  -3   4 -10   87.19    9.00
  -3   4 -10   94.59    9.90
  -4   4 -10  150.68   12.20
  -4   4 -10  132.79   10.60
   4   3 -10   27.20    5.90
  -4  -3  10   25.20    5.00
   3   3 -10   19.60    5.50
  -3  -3  10   16.80    6.40
   2   3 -10   85.59   10.70
  -2  -3  10   76.19    7.60
   1   3 -10  152.78   14.40
   1   3 -10  171.88   12.80
   0   3 -10   70.29    9.90
   0   3 -10   70.69    9.00
  -1   3 -10   33.50    6.80
  -1   3 -10   29.80    7.80
  -2   3 -10   63.49    9.70
  -2   3 -10   71.09    8.60
  -3   3 -10   64.59    8.10
  -3   3 -10   69.09    9.00
  -4   3 -10   68.09    8.00
  -4   3 -10   81.99    8.60
  -5   3 -10   11.40    4.40
  -5  -2  10   -3.10    2.80
   4   2 -10   39.50    6.60
  -4  -2  10   33.40    6.10
   3   2 -10  370.76   21.60
  -3  -2  10  362.26   18.80
   2   2 -10    6.00    4.00
   2   2 -10    2.10    3.50
  -2  -2  10    5.60    3.20
   1   2 -10  108.49   13.60
   1   2 -10  130.79   16.40
   0   2 -10  100.89   10.10
   0   2 -10   80.39   12.50
  -1   2 -10  795.42   35.20
  -1   2 -10  768.72   37.30
  -2   2 -10   50.39    9.10
  -2   2 -10   50.39    8.10
  -3   2 -10   23.30    6.30
  -3   2 -10   23.50    6.60
  -3   2 -10   26.30    5.90
  -4   2 -10   67.89    8.40
  -4   2 -10   63.09    8.90
  -4   2 -10   61.49    8.20
  -5   2 -10  187.98   13.20
  -6   2 -10   93.69    9.20
  -7   2 -10   10.80    4.30
  -5  -1  10   17.20    4.60
  -4  -1  10   74.39    8.10
   3   1 -10    3.20    4.30
  -3  -1  10    2.90    3.10
   2   1 -10    2.20    3.40
   2   1 -10    3.50    4.40
  -2  -1  10    0.00    2.70
   1   1 -10  128.99   11.30
   1   1 -10  129.89   12.40
  -1  -1  10  125.49    9.70
   0   1 -10   18.90    5.70
   0   1 -10   11.50    5.70
   0  -1  10   20.30    6.30
   0  -1  10   15.60    3.90
  -1   1 -10  241.78   15.30
  -1   1 -10  212.18   16.40
   1  -1  10  205.58   11.30
   1  -1  10  151.68   19.50
  -2   1 -10    6.70    4.70
  -2   1 -10    6.80    3.80
  -2   1 -10   -2.00    3.10
  -3   1 -10  318.57   19.60
  -3   1 -10  326.77   20.10
  -3   1 -10  358.36   19.70
   3  -1  10  336.27   20.80
  -4   1 -10  103.39    9.90
  -4   1 -10  100.89    9.80
  -4   1 -10   83.69   10.20
  -5   1 -10  169.68   12.90
  -6   1 -10   15.00    4.50
  -7   1 -10   96.79    9.60
  -8   1 -10   21.60    5.10
  -5   0  10    6.40    3.10
   4   0 -10    9.70    4.30
  -4   0  10   14.40    4.80
   3   0 -10   41.90    7.30
  -3   0  10   32.30    6.50
   2   0 -10    2.00    3.90
   2   0 -10   -4.90    2.70
  -2   0  10    2.30    3.30
   1   0 -10  972.30   41.40
   1   0 -10 1059.99   44.50
  -1   0  10  920.91   43.80
  -1   0  10  971.20   39.70
   0   0 -10  196.58   15.50
   0   0 -10  208.48   14.10
   0   0  10  182.88   12.00
   0   0  10  179.68   17.60
  -1   0 -10  615.24   30.80
  -1   0 -10  612.14   28.50
   1   0  10  578.84   25.10
   1   0  10  581.24   30.10
  -2   0 -10  182.38   13.20
  -2   0 -10  182.38   14.80
   2   0  10  179.48   10.50
   2   0  10  179.28   14.50
  -3   0 -10   27.80    6.90
  -3   0 -10   19.70    5.60
  -3   0 -10   43.50    7.30
   3   0  10   29.00    6.70
   3   0  10   37.90    4.60
  -4   0 -10    6.10    4.00
  -4   0 -10    1.40    3.20
  -4   0 -10   17.40    5.20
   4   0  10   10.10    4.70
  -5   0 -10  684.93   33.50
  -5   0 -10  736.93   32.90
  -6   0 -10  158.58   13.80
  -6   0 -10  153.78   12.70
  -7   0 -10   -5.80    2.80
  -5   1  10   54.19    7.30
   4  -1 -10    0.40    5.90
  -4   1  10    1.60    3.80
   3  -1 -10  122.29   11.20
  -3   1  10  143.39   12.00
   2  -1 -10   67.59    8.50
   2  -1 -10   61.69    9.90
  -2   1  10   75.79    8.60
   1  -1 -10 2214.38   82.69
   1  -1 -10 2319.17   85.69
  -1   1  10 2286.67   82.39
  -1   1  10 2171.18   86.69
   0  -1 -10 1586.14   63.99
   0  -1 -10 1627.24   61.59
   0   1  10 1636.84   60.19
   0   1  10 1538.95   64.39
  -1  -1 -10 1008.90   44.70
  -1  -1 -10 1012.60   42.10
   1   1  10 1028.50   40.30
   1   1  10 1024.30   45.50
  -2  -1 -10  308.07   18.50
  -2  -1 -10  328.27   18.00
  -2  -1 -10  290.17   18.90
   2   1  10  308.57   15.50
   2   1  10  288.97   19.50
  -3  -1 -10  252.27   17.20
  -3  -1 -10  285.97   16.70
  -3  -1 -10  268.07   17.30
   3   1  10  268.57   18.50
   3   1  10  271.37   13.90
  -4  -1 -10   13.30    5.00
  -4  -1 -10   24.80    5.80
  -4  -1 -10   16.90    5.40
   4   1  10   11.50    3.40
   4   1  10    5.70    3.90
  -5  -1 -10  226.38   14.10
  -5  -1 -10  207.28   15.50
  -5  -1 -10  239.08   15.50
   5   1  10  224.68   12.30
  -6  -1 -10   71.29    9.10
  -7  -1 -10   10.90    4.80
   7   1  10    8.00    3.30
  -8  -1 -10    5.20    4.00
   8   1  10   14.10    4.10
  -9  -1 -10   28.10    4.80
  -5   2  10   24.80    5.20
   4  -2 -10  247.68   15.40
  -4   2  10  299.87   17.40
   3  -2 -10  477.05   24.30
  -3   2  10  513.95   25.60
   2  -2 -10 1332.47   53.49
  -2   2  10 1290.87   52.39
   1  -2 -10  792.02   36.30
   1  -2 -10  798.82   34.40
  -1   2  10  820.12   35.00
  -1   2  10  734.63   37.40
   0  -2 -10    5.30    4.30
   0  -2 -10   18.50    6.10
   0   2  10   16.00    5.80
   0   2  10   10.90    4.10
  -1  -2 -10  130.59   12.20
  -1  -2 -10  132.29   10.80
   1   2  10  121.39   12.40
   1   2  10  133.59   10.30
  -2  -2 -10    2.20    3.80
  -2  -2 -10   -2.70    2.60
  -2  -2 -10    0.40    2.70
   2   2  10   -0.20    3.80
   2   2  10   -1.00    2.50
  -3  -2 -10  988.00   40.50
  -3  -2 -10  965.50   41.50
  -3  -2 -10  988.30   42.40
   3   2  10  958.70   38.40
   3   2  10  995.80   44.10
  -4  -2 -10   43.90    7.60
  -4  -2 -10   48.10    7.50
  -4  -2 -10   35.40    6.70
   4   2  10   35.70    7.20
   4   2  10   47.20    5.60
  -5  -2 -10   28.80    6.20
  -5  -2 -10   29.00    5.60
  -5  -2 -10   20.60    5.60
   5   2  10   30.20    4.90
  -6  -2 -10    3.00    3.40
  -6  -2 -10    2.50    3.20
   6   2  10    2.10    2.80
  -7  -2 -10    0.20    2.90
  -7  -2 -10   -3.70    3.70
   7   2  10   -1.20    2.60
  -8  -2 -10   32.70    6.90
   8   2  10   21.40    4.70
  -9  -2 -10  101.99    9.30
   9   2  10   92.39    8.20
  -5   3  10    6.30    3.60
  -4   3  10   78.19    8.90
   3  -3 -10   39.40    6.50
  -3   3  10   46.40    8.00
   2  -3 -10  316.87   18.50
  -2   3  10  304.57   18.60
   1  -3 -10   47.90    8.30
   1  -3 -10   52.59    6.60
  -1   3  10   44.10    7.40
  -1   3  10   45.90    9.30
   0  -3 -10   40.50    6.90
   0  -3 -10   46.90    8.00
   0   3  10   42.10    8.80
   0   3  10   43.60    7.20
  -1  -3 -10  889.51   39.20
  -1  -3 -10  900.51   36.50
   1   3  10  806.92   39.40
   1   3  10  881.81   36.70
  -2  -3 -10  243.48   15.20
  -2  -3 -10  233.78   14.20
  -2  -3 -10  232.28   16.50
   2   3  10  221.08   16.70
   2   3  10  248.98   14.50
  -3  -3 -10  132.59   12.00
  -3  -3 -10  126.69   10.30
  -3  -3 -10  128.79   10.90
   3   3  10  128.19   12.50
   3   3  10  135.49   10.10
  -4  -3 -10   39.90    7.20
  -4  -3 -10   41.50    7.80
  -4  -3 -10   32.70    6.30
   4   3  10   37.80    7.40
   4   3  10   49.40    6.20
  -5  -3 -10   38.40    6.60
  -5  -3 -10   60.79    8.00
  -5  -3 -10   44.20    7.40
   5   3  10   43.10    5.70
  -6  -3 -10   10.10    4.40
  -6  -3 -10   14.10    4.00
  -6  -3 -10    7.90    4.10
   6   3  10    5.60    3.00
  -7  -3 -10   -6.70    3.30
  -7  -3 -10    6.40    3.50
   7   3  10   -1.20    2.60
  -8  -3 -10    7.80    4.50
   8   3  10   14.50    3.90
  -9  -3 -10   19.70    4.70
   9   3  10   11.90    3.90
  -5   4  10   -3.90    3.20
  -4   4  10   -0.60    3.40
   3  -4 -10  149.59   10.80
  -3   4  10  135.89   11.70
   2  -4 -10   22.10    6.70
  -2   4  10   35.40    7.60
   1  -4 -10    2.10    2.80
   1  -4 -10    4.60    3.60
  -1   4  10    8.30    5.00
  -1   4  10    9.30    4.60
   0  -4 -10  250.37   14.60
   0  -4 -10  275.47   17.50
   0   4  10  258.77   16.40
   0   4  10  229.78   17.40
  -1  -4 -10  139.09   12.40
  -1  -4 -10  136.49   10.30
   1   4  10  133.59   11.10
   1   4  10  139.09   12.80
  -2  -4 -10  186.48   12.80
  -2  -4 -10  185.98   13.90
  -2  -4 -10  181.58   12.10
  -2  -4 -10  181.68   14.00
   2   4  10  195.98   13.20
   2   4  10  186.68   14.80
  -3  -4 -10  612.24   29.20
  -3  -4 -10  637.14   30.40
  -3  -4 -10  576.74   27.80
  -3  -4 -10  627.54   27.50
   3   4  10  649.24   28.40
   3   4  10  597.54   31.10
  -4  -4 -10  926.51   39.80
  -4  -4 -10  876.71   38.10
  -4  -4 -10  908.81   37.30
  -4  -4 -10  876.81   38.10
   4   4  10  937.01   37.70
   4   4  10  884.61   41.10
  -5  -4 -10   39.40    6.90
  -5  -4 -10   43.90    7.30
  -5  -4 -10   45.30    7.60
  -5  -4 -10   33.50    5.60
   5   4  10   48.60    6.40
  -6  -4 -10  597.64   29.60
  -6  -4 -10  638.54   29.10
  -6  -4 -10  613.64   28.10
   6   4  10  649.04   28.60
  -7  -4 -10   17.00    5.10
  -7  -4 -10   15.80    9.10
   7   4  10   23.00    4.90
  -8  -4 -10   19.70    5.20
   8   4  10   12.40    4.00
  -9  -4 -10   56.19    7.80
   9   4  10   50.39    6.80
  -4   5  10   34.10    6.10
   3  -5 -10   23.00    4.90
  -3   5  10    9.80    4.50
   2  -5 -10    1.70    3.10
  -2   5  10    3.30    3.40
   1  -5 -10   93.89    9.70
  -1   5  10   82.99    9.40
   0  -5 -10  341.77   17.30
   0  -5 -10  349.67   20.40
   0   5  10  318.97   21.40
   0   5  10  396.36   21.20
  -1  -5 -10   77.19    9.60
  -1  -5 -10   87.39    7.70
  -1  -5 -10   98.19   10.00
   1   5  10   97.49   10.70
   1   5  10  103.89    9.80
  -2  -5 -10    1.00    3.40
  -2  -5 -10    2.60    2.60
  -2  -5 -10    0.70    3.40
   2   5  10   -5.30    3.40
   2   5  10    1.90    3.30
  -3  -5 -10    9.20    3.50
  -3  -5 -10    3.70    3.20
  -3  -5 -10   14.00    5.20
   3   5  10   10.50    4.40
   3   5  10    4.40    4.20
  -4  -5 -10  287.37   18.10
  -4  -5 -10  279.97   15.80
  -4  -5 -10  270.47   16.20
   4   5  10  291.77   19.30
   4   5  10  313.57   17.50
  -5  -5 -10   22.80    5.00
  -5  -5 -10   13.80    4.70
  -5  -5 -10   16.70    4.70
  -5  -5 -10   21.40    5.40
   5   5  10   21.70    5.50
  -6  -5 -10  412.36   21.20
  -6  -5 -10  401.36   20.70
  -6  -5 -10  389.96   21.50
   6   5  10  403.66   21.10
  -7  -5 -10  539.95   24.50
  -7  -5 -10  417.26   26.10
   7   5  10  500.75   24.40
  -8  -5 -10   28.30    6.10
   8   5  10   38.90    7.00
  -9  -5 -10   77.59    8.10
   9   5  10   76.99    8.30
  -4   6  10    4.00    3.50
  -3   6  10    9.60    4.10
   2  -6 -10   22.90    5.10
  -2   6  10   17.30    5.20
   1  -6 -10    6.10    4.30
  -1   6  10    2.20    3.60
   0  -6 -10  124.09   12.20
   0  -6 -10  146.49   12.00
   0   6  10  133.99   12.00
  -1  -6 -10  133.79   12.10
  -1  -6 -10  136.69   11.80
   1   6  10  124.69   11.40
   1   6  10   83.69   15.80
  -2  -6 -10  293.87   18.80
  -2  -6 -10  325.67   19.30
  -2  -6 -10  309.67   15.40
   2   6  10  320.97   18.60
   2   6  10  277.17   18.90
  -3  -6 -10   14.30    5.40
  -3  -6 -10   22.20    4.80
  -3  -6 -10   21.20    5.60
  -3  -6 -10   16.60    4.20
   3   6  10   16.40    4.70
   3   6  10   15.90    5.30
  -4  -6 -10    2.30    3.80
  -4  -6 -10    5.20    3.40
  -4  -6 -10    4.80    3.90
  -4  -6 -10   -0.80    3.60
   4   6  10    3.00    3.30
  -5  -6 -10    3.90    3.80
  -5  -6 -10    0.90    3.40
  -5  -6 -10    6.50    3.00
   5   6  10    4.40    3.50
  -6  -6 -10  184.98   12.00
  -6  -6 -10  159.08   12.40
  -6  -6 -10  171.68   12.80
  -6  -6 -10  172.88   12.90
   6   6  10  189.38   13.40
  -7  -6 -10   -2.70    3.80
  -7  -6 -10   -3.10    4.20
  -7  -6 -10   -4.40    2.40
   7   6  10    3.60    3.40
  -8  -6 -10   72.89    7.50
   8   6  10   66.89    8.30
  -9  -6 -10   33.20    5.30
   9   6  10   28.90    5.50
  -3   7  10   67.09    7.90
   2  -7 -10   49.60    7.90
  -2   7  10   43.60    7.00
   1  -7 -10   21.00    4.90
   1  -7 -10   -0.30    2.80
  -1   7  10    6.10    4.30
   0  -7 -10   60.89   10.00
   0  -7 -10   55.29    8.60
   0   7  10   41.10    9.10
  -1  -7 -10   33.30    7.00
  -1  -7 -10   31.40    6.70
   1   7  10   24.30    6.40
  -2  -7 -10   -3.70    2.90
  -2  -7 -10   -5.10    3.30
  -2  -7 -10    0.50    4.20
   2   7  10    5.80    4.30
   2   7  10    9.00    6.00
  -3  -7 -10   18.60    5.90
  -3  -7 -10   16.80    5.20
   3   7  10    6.30    4.60
   3   7  10    8.00    5.70
  -4  -7 -10  264.37   17.30
  -4  -7 -10  260.07   16.80
  -4  -7 -10  231.78   13.90
   4   7  10  246.48   17.50
   4   7  10  277.57   17.20
  -5  -7 -10    5.50    4.30
  -5  -7 -10   -5.80    2.70
  -5  -7 -10    8.10    3.30
   5   7  10   -0.40    3.40
  -6  -7 -10   43.90    7.30
   6   7  10   48.40    8.20
  -7  -7 -10   91.19    9.50
  -7  -7 -10  105.49    8.70
   7   7  10   92.49    9.90
  -8  -7 -10   87.89    8.20
   8   7  10   93.69    9.50
  -9  -7 -10   15.60    4.30
   9   7  10    7.00    4.00
   2  -8 -10   19.60    6.10
  -2   8  10   12.20    4.50
   1  -8 -10   14.20    4.50
   1  -8 -10   24.90    5.10
  -1   8  10   19.50    5.40
   0  -8 -10   -0.30    4.30
   0  -8 -10   -0.30    3.10
   0  -8 -10    3.70    3.90
   0   8  10    1.60    4.20
  -1  -8 -10   46.00    7.80
  -1  -8 -10   37.90    6.10
  -1  -8 -10   43.80    7.80
   1   8  10   42.40    8.00
  -2  -8 -10   77.29    9.60
  -2  -8 -10   83.29    9.60
  -2  -8 -10   57.89    7.80
   2   8  10   93.99   11.40
  -3  -8 -10  547.95   28.10
  -3  -8 -10  537.25   24.40
  -3  -8 -10  568.64   28.10
   3   8  10  591.34   28.30
  -4  -8 -10   22.00    5.90
  -4  -8 -10   22.20    5.80
   4   8  10   20.00    5.90
  -5  -8 -10   -4.70    3.50
   5   8  10    3.20    3.30
  -6  -8 -10   14.90    5.40
   6   8  10    6.60    4.10
  -7  -8 -10   19.60    5.00
  -7  -8 -10   14.00    5.70
   7   8  10   17.10    5.10
   8   8  10   61.29    7.60
   9   8  10   -1.90    3.20
   1  -9 -10   69.09    8.10
   1  -9 -10   65.89    8.00
  -1   9  10   82.49    8.90
   0  -9 -10  191.48   13.70
   0  -9 -10  191.98   12.10
   0  -9 -10  172.98   12.80
   0   9  10  195.08   13.70
  -1  -9 -10  406.86   21.60
  -1  -9 -10  371.76   19.40
  -1  -9 -10  380.56   21.80
   1   9  10  414.76   22.10
  -2  -9 -10   18.10    5.10
  -2  -9 -10   14.70    8.50
  -2  -9 -10   17.90    5.10
   2   9  10   26.60    6.30
  -3  -9 -10   46.40    8.20
  -3  -9 -10   40.60    7.40
  -3  -9 -10   71.49    7.80
   3   9  10   50.79    8.30
  -4  -9 -10  401.26   22.80
  -4  -9 -10  392.96   20.20
  -4  -9 -10  466.85   24.00
   4   9  10  458.45   23.60
  -5  -9 -10  285.27   18.30
  -5  -9 -10  279.27   17.90
   5   9  10  287.77   17.70
  -6  -9 -10  110.49   10.40
  -6  -9 -10  121.19   10.90
   6   9  10  120.79   10.80
  -7  -9 -10   46.30   10.70
   7   9  10   26.00    5.80
   8   9  10   45.20    7.20
   9   9  10  141.89   10.80
   0 -10 -10    1.40    3.60
   0 -10 -10    5.80    3.80
   0  10  10   11.40    4.90
  -1 -10 -10    1.70    3.80
  -1 -10 -10    7.00    4.30
  -1 -10 -10   13.10    4.60
   1  10  10   -4.80    5.90
  -2 -10 -10  157.18   12.30
  -2 -10 -10  124.49   12.10
  -2 -10 -10  157.38   10.90
   2  10  10  150.78   12.20
  -3 -10 -10   22.10    5.60
  -3 -10 -10   18.60    5.20
  -3 -10 -10   23.90    5.80
   3  10  10   21.30    5.90
  -4 -10 -10   12.70    5.10
  -4 -10 -10   13.30    4.80
  -4 -10 -10    9.20    4.60
   4  10  10   13.10    4.90
  -5 -10 -10  217.18   18.20
  -5 -10 -10  235.08   16.10
  -5 -10 -10  273.57   16.70
   5  10  10  265.57   16.20
  -6 -10 -10  183.58   12.90
  -6 -10 -10  175.48   12.50
   6  10  10  159.38   12.70
  -7 -10 -10  199.18   12.80
   7  10  10  183.08   13.00
   8  10  10   14.20    4.30
  -1 -11 -10   82.79   10.90
  -1 -11 -10   65.29    7.80
  -2 -11 -10   73.59    9.60
  -2 -11 -10   64.79    8.00
  -2 -11 -10   78.99    8.10
   2  11  10   70.59    9.60
  -3 -11 -10  179.28   14.00
  -3 -11 -10  183.88   12.00
   3  11  10  196.78   13.00
  -4 -11 -10   14.10    5.60
  -4 -11 -10    8.20    8.00
  -4 -11 -10   18.60    4.80
   4  11  10   18.30    5.40
  -5 -11 -10    6.10    4.30
  -5 -11 -10   -7.90    4.70
  -5 -11 -10   -0.60    4.10
   5  11  10    8.60    4.10
  -6 -11 -10   50.69    6.80
   6  11  10   51.89    7.30
  -7 -11 -10  144.89   10.80
   7  11  10  108.79   11.20
  -3 -12 -10   -0.60    3.10
  -4 -12 -10   19.00    4.90
  -5 -12 -10  199.68   12.70
   1   5 -11   81.09    9.20
   0   5 -11    3.90    4.80
  -1   5 -11   17.40    5.30
  -1   5 -11   20.20    7.50
  -2   5 -11   85.19    9.80
   2   4 -11  162.48   12.80
   1   4 -11   68.49    9.30
   0   4 -11  583.74   26.40
   0   4 -11  549.35   33.30
  -1   4 -11   47.50   11.50
  -1   4 -11   89.59    8.90
  -2   4 -11   49.60    7.80
  -2   4 -11   43.80    6.70
  -3   4 -11   -8.20    3.20
  -3   4 -11   -0.70    5.70
  -4   4 -11   21.70    6.30
   3   3 -11   69.29    8.50
   2   3 -11   45.90    8.90
   1   3 -11   12.60    4.80
   1   3 -11   21.20    6.80
   0   3 -11  233.38   15.20
   0   3 -11  221.18   17.00
  -1   3 -11   71.39    8.60
  -1   3 -11   79.49   10.20
  -2   3 -11   82.89    9.40
  -2   3 -11  101.79   11.00
  -3   3 -11  452.45   23.90
  -4   3 -11  107.89   17.20
  -5   3 -11   14.20    4.80
   4   2 -11   36.90    9.90
  -4  -2  11   26.40    5.00
   3   2 -11    3.60    3.50
  -3  -2  11   -7.10    2.90
   2   2 -11    4.40    3.90
  -2  -2  11    4.10    3.40
   1   2 -11   16.40    5.90
   1   2 -11   10.80    5.00
   0   2 -11    6.50    4.70
   0   2 -11   -0.90    3.40
  -1   2 -11  279.67   19.50
  -1   2 -11  284.27   17.50
  -2   2 -11  222.58   16.90
  -2   2 -11  220.78   15.00
  -3   2 -11   13.20    5.40
  -3   2 -11   26.40    5.70
  -4   2 -11  193.98   13.80
  -4   2 -11  199.38   14.30
  -5   2 -11   41.50    7.00
  -6   2 -11    3.40    3.90
   4   1 -11   18.80    5.40
  -4  -1  11   34.70    5.80
   3   1 -11   13.10    6.00
  -3  -1  11    8.30    3.80
   2   1 -11    3.60    3.80
  -2  -1  11   -1.10    3.10
   1   1 -11    4.00    4.50
   1   1 -11    3.70    4.20
   0   1 -11   18.30    5.40
   0   1 -11   26.40    7.40
   0  -1  11   20.70    4.40
  -1   1 -11   20.50    5.50
  -1   1 -11   17.20    6.10
  -2   1 -11    2.30    3.60
  -2   1 -11    5.60    4.60
  -3   1 -11   -9.90    3.80
  -3   1 -11    4.20    4.20
  -3   1 -11    1.30    3.50
  -4   1 -11   36.50    7.10
  -4   1 -11   23.50    6.10
  -4   1 -11   24.90    6.20
  -5   1 -11   56.59    8.50
  -6   1 -11   39.10    7.10
  -7   1 -11   -1.60    3.30
   4   0 -11   30.60    9.30
   3   0 -11  329.87   19.30
  -3   0  11  369.46   19.00
   2   0 -11   32.40    7.20
  -2   0  11   25.70    5.50
   1   0 -11  469.35   25.60
   1   0 -11  428.16   23.20
  -1   0  11  456.75   22.00
   0   0 -11   -4.40    4.00
   0   0  11    7.70    3.60
  -1   0 -11   12.20    5.80
  -1   0 -11   12.90    4.90
   1   0  11   17.60    4.00
  -2   0 -11   -2.50    3.80
  -2   0 -11    0.30    3.20
   2   0  11    2.10    2.70
  -3   0 -11   18.50    5.40
  -3   0 -11   20.20    6.00
  -3   0 -11   20.90    5.80
  -4   0 -11  212.08   14.60
  -4   0 -11  194.38   15.10
  -4   0 -11  186.58   15.50
  -5   0 -11   -5.10    4.60
  -5   0 -11    0.80    4.20
  -5   0 -11    2.10    3.60
  -6   0 -11   42.80    7.60
  -8   0 -11   24.10    5.30
   4  -1 -11   55.49    8.20
  -4   1  11   55.79    7.20
   3  -1 -11  724.73   33.30
  -3   1  11  787.62   33.70
   2  -1 -11    9.20    5.00
  -2   1  11    0.50    3.20
   1  -1 -11  137.59   13.00
   1  -1 -11  131.79   11.60
  -1   1  11  141.09   10.90
   0  -1 -11    2.90    4.60
   0  -1 -11    5.10    3.90
   0   1  11    5.90    3.20
  -1  -1 -11   92.69   11.20
  -1  -1 -11  116.49   10.50
   1   1  11  105.29    8.60
  -2  -1 -11  192.18   15.00
  -2  -1 -11  232.88   16.80
  -2  -1 -11  214.88   14.50
   2   1  11  181.88   19.10
   2   1  11  215.98   12.50
  -3  -1 -11   -6.70    3.70
  -3  -1 -11    3.90    3.60
  -3  -1 -11    2.00    3.70
   3   1  11    1.50    2.80
  -4  -1 -11   13.80    5.10
  -4  -1 -11   12.40    5.10
  -4  -1 -11   24.40    5.80
   4   1  11   16.50    3.70
  -5  -1 -11   62.39    8.10
  -5  -1 -11   66.39    8.60
  -5  -1 -11   68.09   13.10
   5   1  11   73.49    6.10
  -6  -1 -11   18.60    5.20
   6   1  11   17.80    4.00
  -7  -1 -11   -1.40    3.60
  -8  -1 -11   -2.10    3.60
  -4   2  11  155.68   11.30
   3  -2 -11  454.35   23.10
  -3   2  11  482.05   24.10
   2  -2 -11  120.79   11.20
  -2   2  11  137.79   11.50
   1  -2 -11   35.90    7.80
   1  -2 -11   30.20    6.10
  -1   2  11   27.60    6.10
   0  -2 -11  390.96   22.50
   0  -2 -11  336.87   19.80
   0   2  11  370.16   19.70
  -1  -2 -11   41.40    8.40
  -1  -2 -11   51.69    8.10
   1   2  11   67.49   10.90
   1   2  11   44.20    6.70
  -2  -2 -11  220.08   14.70
  -2  -2 -11  222.68   16.70
  -2  -2 -11  205.58   15.20
   2   2  11  218.28   13.40
   2   2  11  201.88   16.80
  -3  -2 -11  984.90   40.20
  -3  -2 -11  957.20   42.40
  -3  -2 -11  883.01   40.30
   3   2  11  912.41   43.40
   3   2  11  943.91   37.40
  -4  -2 -11  171.78   12.80
  -4  -2 -11  171.88   13.30
  -4  -2 -11  143.69   12.80
   4   2  11  168.58   10.70
  -5  -2 -11   49.00    7.90
  -5  -2 -11   37.20    6.90
  -5  -2 -11   40.70    8.10
   5   2  11   42.50    6.00
  -6  -2 -11    5.80    4.60
  -6  -2 -11   11.70    4.60
   6   2  11   14.90    3.10
  -7  -2 -11    5.20    4.20
   7   2  11    4.70    2.90
  -8  -2 -11   -3.80    3.10
   8   2  11   -3.50    3.10
  -4   3  11   30.60    5.80
   3  -3 -11   18.70    5.40
  -3   3  11   15.70    5.10
   2  -3 -11  117.39   10.70
  -2   3  11  120.49   11.00
   1  -3 -11  201.08   13.10
   1  -3 -11  188.18   14.40
  -1   3  11  183.58   13.70
   0  -3 -11   18.90    6.00
   0  -3 -11   13.00    4.70
   0   3  11   17.70    5.20
  -1  -3 -11  104.69    9.50
  -1  -3 -11   99.39   11.30
   1   3  11  116.19    9.90
   1   3  11   73.39   11.10
  -2  -3 -11  481.65   24.10
  -2  -3 -11  514.65   27.20
   2   3  11  497.75   28.10
   2   3  11  504.55   24.20
  -3  -3 -11  563.94   28.70
  -3  -3 -11  569.24   26.60
  -3  -3 -11  542.65   27.30
   3   3  11  556.54   25.60
   3   3  11  524.55   29.60
  -4  -3 -11   50.89    7.80
  -4  -3 -11   60.29    8.30
  -4  -3 -11   58.89    9.20
   4   3  11   37.10    9.10
   4   3  11   42.10    6.30
  -5  -3 -11  165.38   12.20
  -5  -3 -11  158.78   13.10
  -5  -3 -11  146.19   12.60
   5   3  11  148.59   10.80
  -6  -3 -11  293.77   17.30
  -6  -3 -11  258.37   17.90
   6   3  11  266.77   15.30
  -7  -3 -11   23.60    5.90
   7   3  11   26.00    4.70
  -8  -3 -11    1.30    3.10
   8   3  11    3.50    3.20
  -9  -3 -11   27.30    5.40
   9   3  11   30.30    5.10
  -4   4  11    1.10    3.00
   3  -4 -11   -2.40    4.00
  -3   4  11   -1.50    3.20
   2  -4 -11   36.20    6.50
  -2   4  11   37.60    7.10
   1  -4 -11   23.60    6.00
  -1   4  11   29.10    6.50
   0  -4 -11   25.80    6.80
   0  -4 -11   28.60    5.60
   0   4  11   27.10    6.00
  -1  -4 -11   -1.20    3.60
  -1  -4 -11   -3.60    2.80
   1   4  11   -6.00    6.20
   1   4  11   -4.90    2.80
  -2  -4 -11  336.07   21.00
  -2  -4 -11  342.37   18.20
   2   4  11  330.57   21.80
   2   4  11  347.17   19.30
  -3  -4 -11   -0.80    2.70
  -3  -4 -11   -3.30    2.50
  -3  -4 -11   -3.10    2.70
   3   4  11   -1.80    4.20
   3   4  11    2.00    3.10
  -4  -4 -11   40.80    8.20
  -4  -4 -11   33.00    6.10
  -4  -4 -11   30.20    6.40
   4   4  11   49.70    9.90
   4   4  11   35.10    6.20
  -5  -4 -11   16.60    4.60
  -5  -4 -11   11.60    4.60
  -5  -4 -11    9.10    4.80
   5   4  11    7.10    3.70
  -6  -4 -11    1.10    4.20
  -6  -4 -11    8.10    3.80
   6   4  11    2.20    3.40
  -7  -4 -11  197.48   13.80
   7   4  11  180.88   12.20
  -8  -4 -11   78.29    8.90
   8   4  11   94.49    9.10
  -9  -4 -11   38.90    6.20
   9   4  11   34.40    5.30
  -3   5  11   45.00    6.80
   2  -5 -11  209.88   13.90
  -2   5  11  213.68   14.80
   1  -5 -11    8.50    4.40
  -1   5  11    3.40    3.70
   0  -5 -11    1.00    4.80
  -1  -5 -11  177.28   14.30
  -1  -5 -11  180.58   11.60
   1   5  11  176.48   13.80
  -2  -5 -11    6.60    4.30
  -2  -5 -11    3.40    3.50
  -2  -5 -11    3.90    4.10
   2   5  11    7.50    4.30
   2   5  11    1.30    5.00
  -3  -5 -11   13.40    5.40
  -3  -5 -11   29.90    5.60
  -3  -5 -11   30.30    7.00
  -3  -5 -11   26.30    5.70
   3   5  11   10.50    5.40
   3   5  11   32.40    6.40
  -4  -5 -11    0.50    3.60
  -4  -5 -11   -2.30    3.10
  -4  -5 -11    0.00    2.70
  -4  -5 -11   -0.90    3.20
   4   5  11   -1.30    2.90
  -5  -5 -11  458.95   23.80
  -5  -5 -11  474.55   23.10
  -5  -5 -11  472.45   24.00
  -5  -5 -11  493.85   25.40
   5   5  11  499.45   24.30
  -6  -5 -11   59.09    8.50
  -6  -5 -11   81.69    8.30
  -6  -5 -11   59.29    8.40
   6   5  11   75.89    8.30
  -7  -5 -11    1.50    2.80
   7   5  11   -0.50    3.50
  -8  -5 -11   31.50    6.00
   8   5  11   27.50    5.40
  -9  -5 -11   12.30    4.30
   9   5  11   16.60    4.20
  -3   6  11    8.00    4.40
   2  -6 -11   11.80    4.50
  -2   6  11   17.10    5.20
   1  -6 -11  257.27   16.60
  -1   6  11  298.37   18.10
   0  -6 -11   36.10    7.10
   0   6  11   45.00    7.90
  -1  -6 -11  169.28   19.50
  -1  -6 -11  183.68   14.40
  -2  -6 -11  128.09   12.40
  -2  -6 -11  138.09   12.50
  -2  -6 -11  123.49    9.30
   2   6  11  142.49   12.10
  -3  -6 -11   32.80    5.20
  -3  -6 -11   20.30    6.40
  -3  -6 -11   25.80    6.70
   3   6  11   31.10    6.70
  -4  -6 -11   81.29    9.40
  -4  -6 -11   74.89    9.60
  -4  -6 -11   62.49    7.10
  -4  -6 -11   77.39    8.80
   4   6  11   78.49    8.90
  -5  -6 -11   26.00    9.20
  -5  -6 -11   38.90    6.00
  -5  -6 -11   31.00    7.20
  -5  -6 -11   23.20    5.90
  -6  -6 -11   20.00    5.70
  -6  -6 -11   23.00    5.60
  -6  -6 -11   20.10    4.70
   6   6  11   18.60    4.80
  -7  -6 -11   18.00    4.70
   7   6  11   20.00    5.00
  -8  -6 -11   -4.10    4.00
   8   6  11   -2.00    3.10
  -9  -6 -11   -1.60    3.30
   9   6  11    1.20    3.30
   2  -7 -11   76.39    8.40
  -2   7  11   88.39    8.70
   1  -7 -11  110.29    9.90
  -1   7  11  111.39   10.60
   0  -7 -11   30.90    6.30
   0   7  11   38.20    7.30
  -1  -7 -11   36.20    6.90
  -1  -7 -11   43.30    8.20
   1   7  11   43.90    7.90
  -2  -7 -11   81.19    9.70
  -2  -7 -11   89.09   10.30
   2   7  11   73.19    9.10
  -3  -7 -11    8.40    4.80
  -4  -7 -11  131.29   13.20
  -4  -7 -11  118.79   11.60
   4   7  11  137.39   12.90
  -5  -7 -11    1.40    4.00
  -5  -7 -11   -5.80    3.20
  -5  -7 -11    9.50    3.70
   5   7  11   -3.40    2.80
  -6  -7 -11  231.18   13.40
  -6  -7 -11  225.08   15.60
  -6  -7 -11  222.68   15.70
   6   7  11  246.78   15.80
  -7  -7 -11    5.70    5.20
  -7  -7 -11    0.60    2.90
   7   7  11    0.60    3.10
  -8  -7 -11    0.50    3.50
   8   7  11    4.90    5.20
   9   7  11   11.00    4.20
  -2   8  11   20.80    7.80
   1  -8 -11    9.70    4.20
  -1   8  11   17.00    5.10
   0  -8 -11  124.89   10.20
   0   8  11  118.89   11.00
  -1  -8 -11   55.99    9.00
  -1  -8 -11   49.90    8.20
   1   8  11   50.49    7.80
  -2  -8 -11  124.69   13.40
  -2  -8 -11  102.79   10.70
   2   8  11  110.89   11.10
  -3  -8 -11   17.20    5.30
  -3  -8 -11   15.00    4.90
   3   8  11    7.70    4.90
  -4  -8 -11   39.70   11.20
  -4  -8 -11   27.60    6.70
   4   8  11   32.10    6.70
  -5  -8 -11  346.17   20.40
  -5  -8 -11  329.17   19.60
   5   8  11  355.06   20.10
  -6  -8 -11  129.59   11.70
  -6  -8 -11  140.89   11.80
   6   8  11  133.59   11.30
  -7  -8 -11   55.89    7.80
   7   8  11   40.40    7.30
   8   8  11  148.79   11.30
   0  -9 -11  115.79   10.10
   0   9  11  102.99    9.60
  -1  -9 -11   20.70    6.00
  -1  -9 -11   23.60    5.50
   1   9  11   18.60    5.30
  -2  -9 -11  221.68   15.60
  -2  -9 -11  240.28   15.70
   2   9  11  235.48   16.00
  -3  -9 -11  489.45   26.10
  -3  -9 -11  518.65   26.50
   3   9  11  567.84   27.10
  -4  -9 -11  172.18   13.60
  -4  -9 -11  172.58   13.60
   4   9  11  173.98   13.20
  -5  -9 -11   37.00    6.80
  -5  -9 -11   53.49    8.50
   5   9  11   49.90    7.90
  -6  -9 -11   15.50    5.60
   6   9  11   17.40    5.30
  -7  -9 -11  193.78   13.40
   7   9  11  245.48   17.60
   8   9  11  354.56   18.50
   0 -10 -11    5.70    4.20
  -1 -10 -11    4.10    3.40
   1  10  11   10.10    4.50
  -2 -10 -11  116.89   12.20
  -2 -10 -11  105.89   14.40
   2  10  11  141.39   10.90
  -3 -10 -11   -0.60    3.60
  -3 -10 -11    0.50    4.30
   3  10  11    2.90    5.40
  -4 -10 -11   93.29    9.80
  -4 -10 -11   88.89    9.50
   4  10  11   92.49    9.70
  -5 -10 -11  270.67   18.10
  -5 -10 -11  245.18   24.10
   5  10  11  264.17   21.90
  -6 -10 -11   60.69    7.80
   6  10  11   60.69    8.30
  -7 -10 -11   49.40    8.70
   7  10  11   74.59    7.80
  -2 -11 -11    6.10    4.30
  -3 -11 -11  116.09   10.10
   3  11  11  108.59    9.90
  -4 -11 -11   58.29    7.20
   4  11  11   39.50    6.30
  -5 -11 -11   23.00    5.10
   5  11  11    6.70    5.10
  -6 -11 -11  102.89    9.20
  -1   4 -12  120.59   13.00
  -2   4 -12    0.60    3.80
  -2   4 -12   10.30    8.10
   1   3 -12  156.98   12.70
   0   3 -12   19.50    5.70
   0   3 -12   13.20    4.30
  -1   3 -12   50.19    8.60
  -2   3 -12  128.99   11.40
  -2   3 -12  128.39   10.50
  -3   3 -12  118.69    9.20
  -3   3 -12   82.39   11.60
  -4   3 -12    3.90    3.60
   2   2 -12   27.80    6.40
   1   2 -12    8.00    4.10
   1   2 -12   21.60    6.00
   0   2 -12    8.00    4.70
   0   2 -12   -4.60    3.40
  -1   2 -12   -2.20    3.90
  -1   2 -12    5.60    4.20
  -2   2 -12    5.20    4.20
  -2   2 -12    1.10    3.10
  -3   2 -12   62.89    8.50
  -3   2 -12   45.80    7.90
  -4   2 -12  117.89   10.10
  -5   2 -12   76.69    8.10
   3   1 -12   20.10    5.80
   2   1 -12    2.60    3.80
  -2  -1  12   12.80    3.80
   1   1 -12   49.50    8.30
   1   1 -12   46.20    7.70
  -1  -1  12   38.30    5.20
   0   1 -12    5.60    5.30
   0   1 -12    8.70    4.70
  -1   1 -12  216.78   17.00
  -1   1 -12  252.17   15.70
  -2   1 -12  121.89   10.90
  -2   1 -12  132.79   12.50
  -3   1 -12   41.90    8.00
  -3   1 -12   47.00    7.70
  -4   1 -12   27.30    9.70
  -4   1 -12   35.50    6.40
  -5   1 -12    7.60    6.30
  -6   1 -12   10.40    4.30
   3   0 -12    4.10    4.00
  -3   0  12   -1.00    2.70
   2   0 -12   30.40    6.50
  -2   0  12   27.50    5.00
   1   0 -12  189.58   14.70
   1   0 -12  187.68   13.80
  -1   0  12  209.88   12.70
   0   0 -12   71.19    8.40
   0   0 -12   56.89   10.00
   0   0  12   65.09    7.10
  -1   0 -12   75.39   10.10
  -1   0 -12   63.29    8.10
   1   0  12   81.29    7.20
  -2   0 -12   -4.00    2.80
  -2   0 -12   -1.20    3.30
  -3   0 -12  237.48   16.90
  -3   0 -12  228.28   15.50
  -4   0 -12   62.59    8.80
  -4   0 -12   50.59    8.30
  -5   0 -12   19.90    5.60
  -6   0 -12   19.70    5.90
  -7   0 -12    0.90    3.00
   3  -1 -12   22.00    4.90
  -3   1  12   11.00    3.60
   2  -1 -12   15.40    7.10
   1  -1 -12   71.39    9.80
   1  -1 -12   94.39    9.60
  -1   1  12  106.89    8.90
   0  -1 -12    0.20    3.40
   0  -1 -12    5.40    4.30
   0   1  12    2.00    3.00
  -1  -1 -12  118.69   12.90
  -1  -1 -12  117.49   10.50
   1   1  12  128.29    9.40
  -2  -1 -12   72.99    8.20
  -2  -1 -12   56.89   10.10
   2   1  12   46.90    6.30
  -3  -1 -12   58.79    7.60
  -3  -1 -12   58.19   10.00
  -3  -1 -12   70.29    8.50
   3   1  12   55.49    6.30
  -4  -1 -12   11.50    4.70
  -4  -1 -12    0.70    3.40
  -5  -1 -12  106.99    9.90
  -5  -1 -12   83.29   10.00
  -6  -1 -12  106.59   10.10
  -7  -1 -12   61.19    8.50
   3  -2 -12   50.69    8.20
  -3   2  12   62.09    7.50
   2  -2 -12   30.50    7.30
  -2   2  12   23.40    5.80
   1  -2 -12   66.69    9.10
   1  -2 -12   55.19    8.30
  -1   2  12   70.89    7.70
   0  -2 -12   57.29    9.40
   0  -2 -12   37.50    6.70
   0   2  12   57.09    6.90
  -1  -2 -12    6.40    4.00
  -1  -2 -12   16.40    6.70
   1   2  12    7.60    3.80
  -2  -2 -12  426.66   22.50
  -2  -2 -12  432.76   25.00
   2   2  12  413.66   20.60
  -3  -2 -12   86.69   10.70
  -3  -2 -12   80.59    9.00
   3   2  12   82.79    8.00
  -4  -2 -12  120.79   11.80
  -4  -2 -12  132.19   11.30
  -4  -2 -12  142.99   12.50
   4   2  12  132.89    9.30
  -5  -2 -12    6.40    4.00
  -5  -2 -12    7.60    4.40
   5   2  12   11.90    3.50
  -6  -2 -12   10.90    4.90
  -7  -2 -12  224.28   21.90
  -8  -2 -12  127.39   10.10
   3  -3 -12   35.00    6.20
  -3   3  12   49.00    6.50
   2  -3 -12    1.40    6.20
  -2   3  12    2.80    3.40
   1  -3 -12    8.20    4.50
  -1   3  12   13.60    4.70
   0  -3 -12  177.28   12.40
   0  -3 -12  180.48   14.30
   0   3  12  178.98   12.90
  -1  -3 -12   13.80    4.40
  -1  -3 -12   16.00    6.10
   1   3  12   14.40    3.90
  -2  -3 -12  626.04   32.50
  -2  -3 -12  650.83   29.80
   2   3  12  639.54   29.00
  -3  -3 -12    8.80    4.00
  -3  -3 -12    0.40    3.80
  -3  -3 -12    4.60    5.00
   3   3  12    5.00    3.50
  -4  -3 -12  173.58   12.60
  -4  -3 -12  159.98   13.50
  -4  -3 -12  136.59   13.70
   4   3  12  153.78   10.70
  -5  -3 -12  494.55   25.20
  -5  -3 -12  463.05   31.80
  -5  -3 -12  529.25   25.00
   5   3  12  481.45   22.60
  -6  -3 -12   17.00    5.10
   6   3  12   26.70    5.20
  -7  -3 -12   27.90    6.10
   7   3  12   18.40    4.10
  -8  -3 -12    7.20    3.60
   8   3  12    4.80    4.20
  -3   4  12   11.00    4.10
   2  -4 -12    2.90    3.90
  -2   4  12   11.00    6.00
   1  -4 -12   89.79    9.90
  -1   4  12  113.69   10.30
   0  -4 -12   15.30    5.80
   0  -4 -12   23.40    5.00
   0   4  12   21.40    5.40
  -1  -4 -12    6.50    3.60
  -1  -4 -12    3.00    4.10
   1   4  12    4.20    3.70
  -2  -4 -12  131.09   12.50
  -2  -4 -12   98.89    9.40
   2   4  12  124.39   10.70
  -3  -4 -12    7.70    3.60
  -3  -4 -12    2.50    3.90
   3   4  12   -1.20    2.90
  -4  -4 -12   54.69    9.40
  -4  -4 -12   53.19   11.70
  -4  -4 -12   44.90    7.40
   4   4  12   55.59    7.10
  -5  -4 -12   54.99    7.20
  -5  -4 -12   56.89    9.40
  -5  -4 -12   65.19    9.10
   5   4  12   60.09    7.00
  -6  -4 -12   37.20    6.70
  -6  -4 -12   33.90    7.20
   6   4  12   31.60    5.20
  -7  -4 -12   24.30    5.60
   7   4  12   24.60    5.20
  -8  -4 -12    1.10    3.20
   8   4  12    1.70    3.10
   2  -5 -12   -5.50    3.20
  -2   5  12   -1.10    3.30
   1  -5 -12   14.90    4.70
  -1   5  12   17.30    5.10
   0  -5 -12  370.66   21.30
   0   5  12  386.26   21.40
  -1  -5 -12   25.00    5.50
  -1  -5 -12   43.30    8.00
   1   5  12   45.40    7.70
  -2  -5 -12    2.20    4.10
   2   5  12   -1.00    3.10
  -3  -5 -12    0.70    3.20
  -3  -5 -12   17.80    6.20
   3   5  12    6.10    3.90
  -4  -5 -12    7.80    5.00
  -4  -5 -12   10.40    4.20
  -4  -5 -12    4.50    3.10
   4   5  12   12.20    4.40
  -5  -5 -12  125.29   11.50
  -5  -5 -12  117.89    9.80
   5   5  12  133.09   10.90
  -6  -5 -12    0.10    4.10
  -6  -5 -12   -2.20    2.90
   6   5  12    0.00    3.00
  -7  -5 -12   -0.30    2.70
   7   5  12    0.60    2.70
  -8  -5 -12   14.00    4.00
   8   5  12   28.10    4.60
   2  -6 -12   36.10    5.90
   1  -6 -12   48.60    8.00
  -1   6  12   62.19    8.00
   0  -6 -12    4.90    3.90
   0   6  12   15.50    5.50
  -1  -6 -12   40.20    7.70
   1   6  12   46.20    7.60
  -2  -6 -12  120.29    9.10
  -2  -6 -12  128.79   12.40
   2   6  12  140.99   12.20
  -3  -6 -12  408.06   23.60
  -3  -6 -12  380.46   19.30
   3   6  12  428.26   22.70
  -4  -6 -12   18.50    4.20
  -4  -6 -12   15.80    5.60
   4   6  12    9.50    4.50
  -5  -6 -12   29.60    5.40
  -5  -6 -12   33.30    6.80
   5   6  12   28.90    6.30
  -6  -6 -12   39.70    6.30
  -6  -6 -12   39.10    7.10
   6   6  12   42.30    7.00
  -7  -6 -12   38.70    6.50
   7   6  12   39.10    6.50
  -8  -6 -12    0.20    3.20
   8   6  12    6.00    3.30
   1  -7 -12    1.40    3.80
  -1   7  12    3.30    3.80
   0  -7 -12  152.78   11.90
   0   7  12  157.18   12.60
  -1  -7 -12   20.90    6.00
   1   7  12   28.00    6.50
  -2  -7 -12  102.19   10.90
   2   7  12  104.49   10.30
  -3  -7 -12   65.59    8.80
  -3  -7 -12   50.09    8.60
   3   7  12   67.19    8.60
  -4  -7 -12   93.49   10.30
  -4  -7 -12  120.09   11.40
   4   7  12  105.59   10.40
  -5  -7 -12  174.98   13.40
  -5  -7 -12  157.78   13.40
   5   7  12  183.88   13.20
  -6  -7 -12   13.20    6.00
  -6  -7 -12   22.50    5.10
   6   7  12   19.20    5.00
  -7  -7 -12    9.80    4.00
   7   7  12    7.60    4.30
  -8  -7 -12  165.38   10.90
   8   7  12  158.58   10.90
   1  -8 -12    6.90    6.20
  -1   8  12   11.30    4.10
   0  -8 -12   10.00    4.20
   0   8  12   12.70    4.40
  -1  -8 -12   13.50    5.30
   1   8  12   11.10    4.70
  -2  -8 -12  147.49   12.30
  -2  -8 -12  141.69   12.30
   2   8  12  151.78   12.80
  -3  -8 -12    5.50    4.50
  -3  -8 -12    1.60    4.60
   3   8  12   -5.50    3.30
  -4  -8 -12  243.38   16.60
  -4  -8 -12  266.77   17.30
   4   8  12  263.67   16.70
  -5  -8 -12   99.49   10.30
  -5  -8 -12   98.99   10.30
   5   8  12  121.79   10.80
  -6  -8 -12  128.69   15.90
  -6  -8 -12  126.79   13.40
   6   8  12  145.59   11.70
  -7  -8 -12    3.10    5.90
   7   8  12   11.10    4.40
   8   8  12   82.29    8.30
   0  -9 -12   21.80    6.30
   0   9  12   24.50    5.30
  -1  -9 -12  163.98   12.20
  -2  -9 -12   43.90   10.50
  -2  -9 -12   54.59    9.70
   2   9  12   73.09   11.90
  -3  -9 -12   -2.30    2.90
  -3  -9 -12   -0.80    3.90
   3   9  12   -2.50    3.50
  -4  -9 -12   61.09    8.30
  -4  -9 -12   56.89    8.00
   4   9  12   71.59    8.50
  -5  -9 -12    2.50    5.50
  -5  -9 -12   14.30    4.40
   5   9  12   -1.00    3.80
  -6  -9 -12  722.73   32.00
   6   9  12  733.93   32.20
  -7  -9 -12   15.20    6.70
   7   9  12   -0.60    2.90
  -1 -10 -12   -4.10    3.80
   1  10  12   -8.50    3.80
  -2 -10 -12   15.70    4.50
   2  10  12    3.80    3.90
  -3 -10 -12   84.69    8.40
   3  10  12   63.89    8.00
  -4 -10 -12  192.68   13.50
   4  10  12  181.88   13.00
  -5 -10 -12  268.97   16.40
   5  10  12  277.17   15.80
  -6 -10 -12    1.80    4.10
   6  10  12   22.90    4.80
   0   2 -13  275.07   14.90
   0   2 -13  266.57   16.80
  -1   2 -13    1.50    3.00
  -1   2 -13    4.40    4.60
  -2   2 -13  386.36   21.30
  -2   2 -13  425.26   20.30
  -3   2 -13   43.10    6.60
   1   1 -13   21.20    4.70
   0   1 -13   96.19    9.50
   0   1 -13  114.09   10.60
  -1   1 -13   -4.00    2.60
  -1   1 -13    3.90    4.30
  -2   1 -13   44.70    7.20
  -2   1 -13   59.59    8.90
  -3   1 -13   99.69    9.20
  -3   1 -13   99.59   10.30
  -4   1 -13    7.30    3.60
  -5   1 -13   82.59    8.30
   1   0 -13    1.50    3.50
  -1   0  13    1.10    4.90
   0   0 -13   12.20    4.80
   0   0 -13   23.10    5.20
  -1   0 -13   37.50    7.50
  -1   0 -13   35.10    6.60
  -2   0 -13   33.60    7.60
  -2   0 -13   36.90    6.70
  -3   0 -13   14.20    4.20
  -3   0 -13   19.00    8.10
  -4   0 -13   82.79    9.50
  -5   0 -13   80.99    8.40
  -6   0 -13    2.20    4.30
   2  -1 -13   82.19    9.80
  -2   1  13   51.89    6.40
   1  -1 -13    3.50    4.30
  -1   1  13    5.90    3.70
   0  -1 -13  113.59   10.80
   0  -1 -13  119.49   11.90
   0   1  13  109.39    8.70
  -1  -1 -13    2.90    3.80
  -1  -1 -13   20.60    6.10
   1   1  13   11.00    3.70
  -2  -1 -13  224.98   16.30
  -2  -1 -13  179.88   13.30
  -3  -1 -13   64.19    8.60
  -3  -1 -13   46.60    7.30
  -4  -1 -13   35.60   10.80
  -4  -1 -13   51.39    7.90
  -5  -1 -13   11.30    6.20
  -6  -1 -13    2.30    3.70
   2  -2 -13    2.60    4.60
  -2   2  13    7.60    3.40
   1  -2 -13   96.19   10.10
  -1   2  13   98.29    8.60
   0  -2 -13   53.09    9.00
   0  -2 -13   61.79    8.30
  -1  -2 -13    1.20    3.30
  -1  -2 -13    4.00    4.40
   1   2  13    5.00    3.30
  -2  -2 -13   17.00    5.90
  -2  -2 -13   23.80    5.90
   2   2  13   22.70    4.40
  -3  -2 -13    1.40    3.50
  -3  -2 -13   -5.70    2.90
   3   2  13   -5.30    2.90
  -4  -2 -13   -5.20    4.00
  -4  -2 -13   -1.70    3.00
   4   2  13    8.60    4.10
  -5  -2 -13  109.19    9.60
  -5  -2 -13  106.79   10.90
  -6  -2 -13  273.17   16.20
  -7  -2 -13   79.29    7.70
   2  -3 -13   10.70    6.20
  -2   3  13    1.20    3.30
   1  -3 -13   26.40    6.40
  -1   3  13   29.10    5.60
   0  -3 -13   19.70    6.40
   0  -3 -13   28.60    6.40
   0   3  13   26.20    5.30
  -1  -3 -13   25.30    5.20
  -1  -3 -13   34.60    7.80
   1   3  13   34.30    6.00
  -2  -3 -13   -1.20    4.20
  -2  -3 -13   -4.40    3.20
   2   3  13    0.70    3.20
  -3  -3 -13    3.40    4.60
  -3  -3 -13    4.50    3.40
   3   3  13   -2.00    2.40
  -4  -3 -13  229.28   16.40
  -4  -3 -13  230.28   15.10
   4   3  13  242.58   13.90
  -5  -3 -13   -1.10    3.10
  -5  -3 -13    2.00    5.60
   5   3  13   -8.10    4.10
  -6  -3 -13    8.00    5.90
   6   3  13   -0.20    3.40
  -7  -3 -13   -1.90    3.20
  -2   4  13  106.19    8.80
   1  -4 -13   -3.70    3.00
  -1   4  13    4.50    3.50
   0  -4 -13    8.90    4.80
   0   4  13   11.80    4.70
  -1  -4 -13   10.80    4.90
  -1  -4 -13   10.80    3.50
   1   4  13    8.80    3.80
  -2  -4 -13   58.79    8.20
  -2  -4 -13   70.59    9.80
   2   4  13   80.49    8.40
  -3  -4 -13   98.59   11.10
  -3  -4 -13  105.99    9.50
   3   4  13  107.39    9.70
  -4  -4 -13  112.79    9.60
  -4  -4 -13  111.79   11.50
   4   4  13  114.19    9.20
  -5  -4 -13   36.80    7.70
  -5  -4 -13   39.20    6.60
   5   4  13   40.20    6.20
  -6  -4 -13    7.00    6.30
  -6  -4 -13    6.70    8.30
   6   4  13   -2.30    3.10
  -7  -4 -13   26.90    5.50
   7   4  13   27.30    4.90
   1  -5 -13   93.89    8.80
  -1   5  13   86.59    8.80
   0  -5 -13  149.19   17.40
   0   5  13  111.89   13.40
  -1  -5 -13   20.70    4.70
  -1  -5 -13    6.60    5.00
   1   5  13   20.30    5.30
  -2  -5 -13   -1.60    3.60
  -2  -5 -13    3.00    3.90
   2   5  13   -0.20    3.30
  -3  -5 -13   78.99    7.80
  -3  -5 -13   68.49    9.80
   3   5  13   99.19    9.30
  -4  -5 -13  264.77   17.80
  -4  -5 -13  260.57   14.90
   4   5  13  283.87   16.20
  -5  -5 -13  353.66   18.40
  -5  -5 -13  333.17   20.30
   5   5  13  361.16   18.70
  -6  -5 -13    2.70    3.70
  -6  -5 -13   -3.20    4.90
   6   5  13    3.40    3.30
  -7  -5 -13   -1.90    3.40
   7   5  13    8.40    3.40
  -1   6  13   43.30    6.80
   0  -6 -13   29.60    6.10
   0   6  13   28.00    5.50
  -1  -6 -13  247.48   16.40
   1   6  13  279.67   16.90
  -2  -6 -13  264.37   17.60
   2   6  13  294.07   17.70
  -3  -6 -13   29.80    7.30
  -3  -6 -13   19.70    7.50
   3   6  13   41.20    7.50
  -4  -6 -13    9.30    4.70
   4   6  13   10.80    4.50
  -5  -6 -13   31.90    5.20
  -5  -6 -13   36.90    7.20
   5   6  13   27.50    5.50
  -6  -6 -13  104.29    9.90
  -6  -6 -13   89.99    8.10
   6   6  13   77.19   10.30
  -7  -6 -13   22.90    5.00
   7   6  13   29.00    5.00
   0  -7 -13   59.09    7.20
   0   7  13   57.39    7.40
  -1  -7 -13   38.00    6.80
   1   7  13   27.90    5.80
  -2  -7 -13    6.10    4.20
   2   7  13    1.80    3.90
  -3  -7 -13   34.20    7.10
   3   7  13   41.60    7.30
  -4  -7 -13  131.49   11.70
   4   7  13  153.28   12.00
   5   7  13    8.30    4.40
  -6  -7 -13   52.89    7.70
   6   7  13   43.60    6.60
   7   7  13   56.19    7.00
  -1  -8 -13   13.20    5.00
   1   8  13   11.60    4.50
  -2  -8 -13   75.09    8.80
   2   8  13   79.69    8.30
  -3  -8 -13   47.80    8.50
   3   8  13   51.89   10.00
  -4  -8 -13   69.99    8.90
   4   8  13   71.69   13.30
  -5  -8 -13    2.10    4.00
   5   8  13    6.70    4.10
  -6  -8 -13    4.00    3.90
   6   8  13    0.10    2.90
   7   8  13    1.60    3.20
  -2  -9 -13    7.40    4.10
   2   9  13   11.70    4.30
  -3  -9 -13    8.90    4.80
   3   9  13   26.50    5.20
  -4  -9 -13  141.39   11.60
   4   9  13  163.88   11.90
  -5  -9 -13   53.19    7.40
  -6  -9 -13   12.80    4.80
   6   9  13    3.70    3.70
  -1   0 -14   23.60    5.40
  -1   0 -14   30.70    6.20
  -2   0 -14    5.50    3.30
  -2   0 -14   -4.80    3.70
  -3   0 -14   57.59    6.90
  -3   0 -14   52.59    8.10
   0  -1 -14   -5.00    2.70
  -1  -1 -14   15.60    4.40
  -1  -1 -14   12.80    4.80
  -2  -1 -14   15.50    4.50
  -2  -1 -14   12.40    5.00
  -3  -1 -14   42.20    7.30
  -4  -1 -14    2.90    2.90
  -4  -1 -14    2.70    4.90
  -5  -1 -14   57.99    6.70
   0   2  14   17.00    5.30
  -1  -2 -14   23.90    5.60
  -1  -2 -14   17.90    5.00
   1   2  14    5.20    5.10
  -2  -2 -14   27.40    6.70
  -2  -2 -14   27.20    5.10
  -3  -2 -14   -6.50    3.60
  -3  -2 -14    3.70    3.50
  -4  -2 -14   16.80    4.50
  -4  -2 -14   23.20    5.90
  -5  -2 -14   21.10    5.20
   0  -3 -14   96.89    9.60
   0   3  14  129.79   10.80
  -1  -3 -14   23.30    4.60
  -1  -3 -14   28.80    6.30
   1   3  14   20.20    4.60
  -2  -3 -14   30.80    5.40
  -2  -3 -14   32.50    6.80
   2   3  14   25.60    5.10
  -3  -3 -14   15.70    4.90
  -3  -3 -14   11.30    4.00
   3   3  14    8.70    3.80
  -4  -3 -14  123.89   11.50
  -4  -3 -14  141.49   10.40
  -5  -3 -14   79.79   11.10
  -5  -3 -14   90.09    8.20
  -6  -3 -14   36.20    5.80
   0  -4 -14    0.60    2.80
   0   4  14   -4.40    2.90
  -1  -4 -14  103.19    9.00
  -1  -4 -14  105.69   10.40
   1   4  14   88.39    8.60
  -2  -4 -14  126.49   11.40
  -2  -4 -14  116.39    9.50
   2   4  14  129.59    9.80
  -3  -4 -14    2.80    3.70
  -3  -4 -14    3.50    3.70
   3   4  14    3.20    3.00
  -4  -4 -14  137.89   10.10
  -4  -4 -14  138.29   11.60
   4   4  14  144.49   10.10
  -5  -4 -14    6.10    3.40
  -5  -4 -14    9.20    4.20
   5   4  14    8.50    3.60
  -6  -4 -14    1.60    3.20
   0  -5 -14    2.60    4.00
   0   5  14    5.10    3.30
  -1  -5 -14    2.80    3.70
   1   5  14   -1.60    2.70
  -2  -5 -14   25.90    6.20
  -2  -5 -14   23.80    5.80
   2   5  14   12.90    3.80
  -3  -5 -14  147.79   10.60
  -3  -5 -14  176.78   13.50
   3   5  14  156.78   11.30
  -4  -5 -14  331.67   19.00
  -4  -5 -14  292.27   15.90
   4   5  14  312.77   16.80
  -5  -5 -14    6.00    3.60
  -5  -5 -14   11.20    4.50
   5   5  14    3.50    3.10
  -6  -5 -14   16.50    6.50
  -1  -6 -14   12.20    4.40
   1   6  14    8.50    3.80
  -2  -6 -14    8.90    4.40
   2   6  14   13.10    4.30
  -3  -6 -14    9.60    4.90
   3   6  14    8.10    4.20
  -4  -6 -14   29.20    6.40
   4   6  14   18.80    4.50
  -5  -6 -14   41.20    5.80
   5   6  14   52.99    6.90
   6   6  14  118.29    9.10
  -2  -7 -14    0.30    3.40
   2   7  14   -2.60    3.00
  -3  -7 -14   -0.50    3.20
   3   7  14    5.10    3.40
  -4  -7 -14    0.00    3.90
   4   7  14    6.50    3.40
  -5  -7 -14   25.20    6.00
   5   7  14   47.20    6.30
   6   7  14    0.70    3.70
  -3  -8 -14    9.20    4.40
   3   8  14   -0.10    3.60
  -4  -8 -14   12.50    4.40
   4   8  14   12.20    4.10
  -5  -8 -14   -8.70    5.10
   5   8  14    1.90    2.70
   0   0   0    0.00    0.00

_computing_structure_solution     'SHELXT 2014/5 (Sheldrick, 2014)'
;
_shelx_hkl_checksum              58103
loop_
_space_group_symop_operation_xyz
'x, y, z'
'-x, -y, -z'
loop_
_atom_site_label
_atom_site_type_symbol
_atom_site_fract_x
_atom_site_fract_y
_atom_site_fract_z
_atom_site_U_iso_or_equiv
_atom_site_adp_type
_atom_site_occupancy
_atom_site_site_symmetry_order
_atom_site_calc_flag
_atom_site_refinement_flags_posn
_atom_site_refinement_flags_adp
_atom_site_refinement_flags_occupancy
_atom_site_disorder_assembly
_atom_site_disorder_group
C1 C 0.6208(3) 0.9544(3) 0.11182(19) 0.0562(6) Uani 1 1 d . . . . .
H1A H 0.709382 0.875337 0.084951 0.084 Uiso 1 1 calc R U . . .
H1B H 0.622376 1.039854 0.043012 0.084 Uiso 1 1 calc R U . . .
H1C H 0.508383 0.932627 0.134495 0.084 Uiso 1 1 calc R U . . .
C2 C 0.6501(2) 0.86770(19) 0.32048(17) 0.0368(4) Uani 1 1 d . . . . .
C3 C 0.6968(2) 0.89258(18) 0.42503(16) 0.0330(4) Uani 1 1 d . . . . .
C4 C 0.7253(2) 1.01986(18) 0.41692(17) 0.0350(4) Uani 1 1 d . . . . .
H4 H 0.715148 1.093564 0.342888 0.042 Uiso 1 1 calc R U . . .
C5 C 0.7692(2) 1.04337(17) 0.51609(17) 0.0342(4) Uani 1 1 d . . . . .
C6 C 0.8012(2) 1.17435(18) 0.5078(2) 0.0402(4) Uani 1 1 d . . . . .
H6 H 0.791516 1.248201 0.433767 0.048 Uiso 1 1 calc R U . . .
C7 C 0.8452(2) 1.19629(19) 0.6033(2) 0.0427(5) Uani 1 1 d . . . . .
H7 H 0.866820 1.284183 0.596315 0.051 Uiso 1 1 calc R U . . .
C8 C 0.8580(2) 1.0868(2) 0.71238(19) 0.0403(4) Uani 1 1 d . . . . .
C9 C 0.8318(2) 0.95742(18) 0.72547(17) 0.0366(4) Uani 1 1 d . . . . .
H9 H 0.844331 0.884937 0.799932 0.044 Uiso 1 1 calc R U . . .
C10 C 0.7857(2) 0.93274(17) 0.62699(16) 0.0319(4) Uani 1 1 d . . . . .
C11 C 0.7575(2) 0.80009(17) 0.63423(16) 0.0307(4) Uani 1 1 d . . . . .
C12 C 0.7122(2) 0.78141(17) 0.53609(16) 0.0306(4) Uani 1 1 d . . . . .
C13 C 0.6826(2) 0.63954(17) 0.55176(15) 0.0312(4) Uani 1 1 d . . . . .
C14 C 0.4930(3) 0.4923(2) 0.66733(19) 0.0455(5) Uani 1 1 d . . . . .
H14A H 0.518013 0.453569 0.594483 0.068 Uiso 1 1 calc R U . . .
H14B H 0.372034 0.499810 0.709568 0.068 Uiso 1 1 calc R U . . .
H14C H 0.564690 0.429873 0.725871 0.068 Uiso 1 1 calc R U . . .
C15 C 0.7838(2) 0.67897(17) 0.74598(16) 0.0316(4) Uani 1 1 d . . . . .
C16 C 0.6663(3) 0.6736(2) 0.86051(18) 0.0442(5) Uani 1 1 d . . . . .
H16 H 0.567995 0.749246 0.869083 0.053 Uiso 1 1 calc R U . . .
C17 C 0.6907(3) 0.5597(2) 0.96205(19) 0.0521(5) Uani 1 1 d . . . . .
H17 H 0.609744 0.556630 1.040047 0.063 Uiso 1 1 calc R U . . .
C18 C 0.8338(3) 0.4504(2) 0.94889(18) 0.0457(5) Uani 1 1 d . . . . .
C19 C 0.9524(3) 0.45299(19) 0.83703(19) 0.0435(5) Uani 1 1 d . . . . .
H19 H 1.050886 0.377370 0.829285 0.052 Uiso 1 1 calc R U . . .
C20 C 0.9265(2) 0.56755(18) 0.73551(17) 0.0370(4) Uani 1 1 d . . . . .
H20 H 1.007583 0.569751 0.657668 0.044 Uiso 1 1 calc R U . . .
Cl1 Cl 0.90901(8) 1.11802(6) 0.83432(5) 0.0597(2) Uani 1 1 d . . . . .
Cl2 Cl 0.86135(10) 0.30361(6) 1.07529(5) 0.0716(2) Uani 1 1 d . . . . .
O1 O 0.65358(18) 0.97684(15) 0.21917(12) 0.0482(4) Uani 1 1 d . . . . .
O2 O 0.6141(2) 0.76275(15) 0.32415(13) 0.0556(4) Uani 1 1 d . . . . .
O3 O 0.78490(17) 0.54464(13) 0.51203(13) 0.0431(3) Uani 1 1 d . . . . .
O4 O 0.52862(15) 0.63035(12) 0.62624(11) 0.0352(3) Uani 1 1 d . . . . .
loop_
_atom_site_aniso_label
_atom_site_aniso_U_11
_atom_site_aniso_U_22
_atom_site_aniso_U_33
_atom_site_aniso_U_23
_atom_site_aniso_U_13
_atom_site_aniso_U_12
C1 0.0636(14) 0.0669(15) 0.0350(11) -0.0040(10) -0.0158(10) -0.0153(11)
C2 0.0320(9) 0.0379(10) 0.0361(10) -0.0032(8) -0.0060(7) -0.0099(8)
C3 0.0291(9) 0.0304(9) 0.0350(9) -0.0024(7) -0.0044(7) -0.0090(7)
C4 0.0291(9) 0.0289(9) 0.0402(10) 0.0000(7) -0.0057(7) -0.0079(7)
C5 0.0265(8) 0.0248(8) 0.0460(10) -0.0047(7) -0.0037(7) -0.0070(7)
C6 0.0316(9) 0.0249(9) 0.0587(12) -0.0046(8) -0.0060(8) -0.0090(7)
C7 0.0336(10) 0.0265(9) 0.0667(13) -0.0151(9) -0.0011(9) -0.0113(7)
C8 0.0345(10) 0.0380(10) 0.0530(11) -0.0213(9) 0.0006(8) -0.0148(8)
C9 0.0365(10) 0.0310(9) 0.0419(10) -0.0111(8) -0.0018(8) -0.0122(7)
C10 0.0282(9) 0.0267(9) 0.0396(9) -0.0096(7) -0.0014(7) -0.0092(7)
C11 0.0291(8) 0.0254(8) 0.0352(9) -0.0065(7) -0.0021(7) -0.0087(7)
C12 0.0283(9) 0.0273(8) 0.0343(9) -0.0066(7) -0.0033(7) -0.0086(7)
C13 0.0345(9) 0.0295(9) 0.0307(8) -0.0044(7) -0.0097(7) -0.0099(7)
C14 0.0587(12) 0.0371(10) 0.0433(10) -0.0036(8) -0.0044(9) -0.0282(9)
C15 0.0395(9) 0.0267(8) 0.0332(9) -0.0068(7) -0.0074(7) -0.0153(7)
C16 0.0505(12) 0.0395(10) 0.0383(10) -0.0096(8) -0.0014(9) -0.0125(9)
C17 0.0703(14) 0.0519(12) 0.0329(10) -0.0051(9) -0.0023(9) -0.0268(11)
C18 0.0705(14) 0.0366(10) 0.0380(10) -0.0001(8) -0.0207(10) -0.0246(10)
C19 0.0545(12) 0.0289(9) 0.0504(11) -0.0064(8) -0.0202(10) -0.0097(8)
C20 0.0441(10) 0.0309(9) 0.0376(10) -0.0072(7) -0.0079(8) -0.0134(8)
Cl1 0.0706(4) 0.0616(4) 0.0629(4) -0.0299(3) -0.0018(3) -0.0355(3)
Cl2 0.1174(6) 0.0510(3) 0.0489(3) 0.0131(2) -0.0359(3) -0.0326(3)
O1 0.0564(9) 0.0467(8) 0.0387(7) 0.0034(6) -0.0162(6) -0.0171(7)
O2 0.0837(11) 0.0496(9) 0.0459(8) -0.0024(6) -0.0235(7) -0.0336(8)
O3 0.0450(8) 0.0330(7) 0.0511(8) -0.0166(6) -0.0043(6) -0.0087(6)
O4 0.0361(7) 0.0300(6) 0.0404(7) -0.0068(5) -0.0043(5) -0.0150(5)
loop_
_atom_type_symbol
_atom_type_description
_atom_type_scat_dispersion_real
_atom_type_scat_dispersion_imag
_atom_type_scat_source
C C 0.0137 0.0067 'International Tables Vol C Tables 4.2.6.8 and 6.1.1.4'
H H 0.0000 0.0000 'International Tables Vol C Tables 4.2.6.8 and 6.1.1.4'
Cl Cl 0.3281 0.5435 'International Tables Vol C Tables 4.2.6.8 and 6.1.1.4'
O O 0.0389 0.0241 'International Tables Vol C Tables 4.2.6.8 and 6.1.1.4'
loop_
_geom_angle_atom_site_label_1
_geom_angle_atom_site_label_2
_geom_angle_atom_site_label_3
_geom_angle
_geom_angle_site_symmetry_1
_geom_angle_site_symmetry_3
_geom_angle_publ_flag
O1 C1 H1A 109.5 . . ?
O1 C1 H1B 109.5 . . ?
H1A C1 H1B 109.5 . . ?
O1 C1 H1C 109.5 . . ?
H1A C1 H1C 109.5 . . ?
H1B C1 H1C 109.5 . . ?
O2 C2 O1 122.81(17) . . ?
O2 C2 C3 124.71(16) . . ?
O1 C2 C3 112.48(15) . . ?
C4 C3 C12 119.54(16) . . ?
C4 C3 C2 121.31(16) . . ?
C12 C3 C2 119.15(15) . . ?
C3 C4 C5 121.26(16) . . ?
C3 C4 H4 119.4 . . ?
C5 C4 H4 119.4 . . ?
C4 C5 C6 121.60(17) . . ?
C4 C5 C10 119.55(15) . . ?
C6 C5 C10 118.84(17) . . ?
C7 C6 C5 121.46(18) . . ?
C7 C6 H6 119.3 . . ?
C5 C6 H6 119.3 . . ?
C6 C7 C8 118.78(16) . . ?
C6 C7 H7 120.6 . . ?
C8 C7 H7 120.6 . . ?
C9 C8 C7 122.63(18) . . ?
C9 C8 Cl1 119.24(16) . . ?
C7 C8 Cl1 118.13(14) . . ?
C8 C9 C10 119.35(17) . . ?
C8 C9 H9 120.3 . . ?
C10 C9 H9 120.3 . . ?
C9 C10 C5 118.92(15) . . ?
C9 C10 C11 122.21(16) . . ?
C5 C10 C11 118.86(16) . . ?
C12 C11 C10 120.04(15) . . ?
C12 C11 C15 119.62(14) . . ?
C10 C11 C15 120.30(15) . . ?
C11 C12 C3 120.73(15) . . ?
C11 C12 C13 116.74(15) . . ?
C3 C12 C13 122.52(15) . . ?
O3 C13 O4 124.53(15) . . ?
O3 C13 C12 125.72(16) . . ?
O4 C13 C12 109.53(14) . . ?
O4 C14 H14A 109.5 . . ?
O4 C14 H14B 109.5 . . ?
H14A C14 H14B 109.5 . . ?
O4 C14 H14C 109.5 . . ?
H14A C14 H14C 109.5 . . ?
H14B C14 H14C 109.5 . . ?
C20 C15 C16 118.68(17) . . ?
C20 C15 C11 119.80(15) . . ?
C16 C15 C11 121.51(16) . . ?
C17 C16 C15 120.79(19) . . ?
C17 C16 H16 119.6 . . ?
C15 C16 H16 119.6 . . ?
C18 C17 C16 119.25(19) . . ?
C18 C17 H17 120.4 . . ?
C16 C17 H17 120.4 . . ?
C19 C18 C17 121.25(18) . . ?
C19 C18 Cl2 119.34(17) . . ?
C17 C18 Cl2 119.37(16) . . ?
C18 C19 C20 119.06(19) . . ?
C18 C19 H19 120.5 . . ?
C20 C19 H19 120.5 . . ?
C15 C20 C19 120.97(17) . . ?
C15 C20 H20 119.5 . . ?
C19 C20 H20 119.5 . . ?
C2 O1 C1 114.75(16) . . ?
C13 O4 C14 116.02(14) . . ?
loop_
_geom_bond_atom_site_label_1
_geom_bond_atom_site_label_2
_geom_bond_distance
_geom_bond_site_symmetry_2
_geom_bond_publ_flag
C1 O1 1.441(2) . ?
C1 H1A 0.9800 . ?
C1 H1B 0.9800 . ?
C1 H1C 0.9800 . ?
C2 O2 1.192(2) . ?
C2 O1 1.339(2) . ?
C2 C3 1.485(3) . ?
C3 C4 1.371(2) . ?
C3 C12 1.428(2) . ?
C4 C5 1.406(3) . ?
C4 H4 0.9500 . ?
C5 C6 1.421(2) . ?
C5 C10 1.425(2) . ?
C6 C7 1.359(3) . ?
C6 H6 0.9500 . ?
C7 C8 1.403(3) . ?
C7 H7 0.9500 . ?
C8 C9 1.369(2) . ?
C8 Cl1 1.727(2) . ?
C9 C10 1.415(3) . ?
C9 H9 0.9500 . ?
C10 C11 1.428(2) . ?
C11 C12 1.377(2) . ?
C11 C15 1.497(2) . ?
C12 C13 1.500(2) . ?
C13 O3 1.197(2) . ?
C13 O4 1.337(2) . ?
C14 O4 1.442(2) . ?
C14 H14A 0.9800 . ?
C14 H14B 0.9800 . ?
C14 H14C 0.9800 . ?
C15 C20 1.387(3) . ?
C15 C16 1.390(3) . ?
C16 C17 1.382(3) . ?
C16 H16 0.9500 . ?
C17 C18 1.380(3) . ?
C17 H17 0.9500 . ?
C18 C19 1.373(3) . ?
C18 Cl2 1.7447(19) . ?
C19 C20 1.387(3) . ?
C19 H19 0.9500 . ?
C20 H20 0.9500 . ?
