#------------------------------------------------------------------------------
#$Date: 2019-11-08 03:34:20 +0200 (Fri, 08 Nov 2019) $
#$Revision: 225107 $
#$URL: file:///home/coder/svn-repositories/cod/cif/7/15/71/7157130.cif $
#------------------------------------------------------------------------------
#
# This file is available in the Crystallography Open Database (COD),
# http://www.crystallography.net/
#
# All data on this site have been placed in the public domain by the
# contributors.
#
data_7157130
loop_
_publ_author_name
'Tazi, Mehdi'
'Erb, William'
'Roisnel, Thierry'
'Dorcet, Vincent'
'Mongin, Florence'
'Low, Paul J.'
_publ_section_title
;
 From ferrocene to fluorine-containing penta-substituted derivatives and
 all points in-between; or, how to increase the available chemical space.
;
_journal_issue                   42
_journal_name_full               'Organic &amp; biomolecular chemistry'
_journal_page_first              9352
_journal_page_last               9359
_journal_paper_doi               10.1039/c9ob01885a
_journal_volume                  17
_journal_year                    2019
_chemical_compound_source        'synthesis as described'
_chemical_formula_moiety         'C16 H12 F Fe I S'
_chemical_formula_sum            'C16 H12 F Fe I S'
_chemical_formula_weight         438.07
_space_group_crystal_system      triclinic
_space_group_IT_number           2
_space_group_name_Hall           '-P 1'
_space_group_name_H-M_alt        'P -1'
_symmetry_space_group_name_Hall  '-P 1'
_symmetry_space_group_name_H-M   'P -1'
_atom_sites_solution_hydrogens   geom
_atom_sites_solution_primary     dual
_atom_sites_solution_secondary   difmap
_audit_update_record
;
2019-07-08 deposited with the CCDC.    2019-10-08 downloaded from the CCDC.
;
_cell_angle_alpha                64.721(3)
_cell_angle_beta                 78.205(3)
_cell_angle_gamma                84.196(4)
_cell_formula_units_Z            2
_cell_length_a                   7.2000(7)
_cell_length_b                   10.0755(11)
_cell_length_c                   11.5617(11)
_cell_measurement_reflns_used    9712
_cell_measurement_temperature    150(2)
_cell_measurement_theta_max      28.3478
_cell_measurement_theta_min      2.2357
_cell_measurement_wavelength     0.71073
_cell_volume                     742.31(13)
_computing_cell_refinement       'APEX3 (Bruker, 2015)'
_computing_data_collection       'SAINT (Bruker, 2014)'
_computing_data_reduction        'SAINT (Bruker, 2014)'
_computing_molecular_graphics
'SXGRAPH (Farrugia, 1999), Mercury (CSD, 2016)'
_computing_publication_material  'CRYSCALC (T. Roisnel, local program, 2018)'
_computing_structure_refinement  'SHELXL-2018_3 (Sheldrick, 2018)'
_computing_structure_solution    'SHELXT (Sheldrick, 2015)'
_diffrn_ambient_temperature      150(2)
_diffrn_detector                 '(CMOS) PHOTON 100'
_diffrn_measured_fraction_theta_full 0.994
_diffrn_measured_fraction_theta_max 0.994
_diffrn_measurement_device_type  'D8 VENTURE Bruker AXS'
_diffrn_measurement_method       'rotation images'
_diffrn_radiation_monochromator  'multilayer monochromator'
_diffrn_radiation_probe          x-ray
_diffrn_radiation_source         'Incoatec microfocus sealed tube'
_diffrn_radiation_type           MoK\a
_diffrn_radiation_wavelength     0.71073
_diffrn_reflns_av_R_equivalents  0.0293
_diffrn_reflns_av_unetI/netI     0.0236
_diffrn_reflns_limit_h_max       9
_diffrn_reflns_limit_h_min       -9
_diffrn_reflns_limit_k_max       13
_diffrn_reflns_limit_k_min       -13
_diffrn_reflns_limit_l_max       15
_diffrn_reflns_limit_l_min       -15
_diffrn_reflns_number            16448
_diffrn_reflns_theta_full        25.242
_diffrn_reflns_theta_max         27.485
_diffrn_reflns_theta_min         3.198
_exptl_absorpt_coefficient_mu    3.232
_exptl_absorpt_correction_T_max  0.446
_exptl_absorpt_correction_T_min  0.315
_exptl_absorpt_correction_type   multi-scan
_exptl_absorpt_process_details
;
  [Sheldrick, G.M. (2014). SADABS Bruker AXS Inc., Madison, Wisconsin, USA]
;
_exptl_crystal_colour            orange
_exptl_crystal_density_diffrn    1.960
_exptl_crystal_description       prism
_exptl_crystal_F_000             424
_exptl_crystal_size_max          0.420
_exptl_crystal_size_mid          0.290
_exptl_crystal_size_min          0.250
_refine_diff_density_max         0.509
_refine_diff_density_min         -0.781
_refine_diff_density_rms         0.105
_refine_ls_extinction_method     none
_refine_ls_goodness_of_fit_ref   1.139
_refine_ls_hydrogen_treatment    constr
_refine_ls_matrix_type           full
_refine_ls_number_parameters     181
_refine_ls_number_reflns         3378
_refine_ls_number_restraints     0
_refine_ls_restrained_S_all      1.139
_refine_ls_R_factor_all          0.0220
_refine_ls_R_factor_gt           0.0205
_refine_ls_shift/su_max          0.005
_refine_ls_shift/su_mean         0.000
_refine_ls_structure_factor_coef Fsqd
_refine_ls_weighting_details
'w=1/[\s^2^(Fo^2^)+(0.0179P)^2^+0.6682P] where P=(Fo^2^+2Fc^2^)/3'
_refine_ls_weighting_scheme      calc
_refine_ls_wR_factor_gt          0.0488
_refine_ls_wR_factor_ref         0.0496
_reflns_Friedel_coverage         0.000
_reflns_number_gt                3214
_reflns_number_total             3378
_reflns_threshold_expression     >2sigma(I)
_cod_data_source_file            c9ob01885a2.cif
_cod_data_source_block           3u-I_MT298
_cod_depositor_comments
'Adding full bibliography for 7157127--7157141.cif.'
_cod_database_code               7157130
_shelx_res_file
;
TITL import_a.res in P-1
    job.res
    created by SHELXL-2018/3 at 15:34:53 on 18-Jul-2018
CELL  0.71073   7.2000  10.0755  11.5617   64.721   78.205   84.196
ZERR     2.00   0.0007   0.0011   0.0011    0.003    0.003    0.004
LATT   1
SFAC  C    H    FE   F    I    S
UNIT  32   24   2    2    2    2
MERG   2
FMAP   2
PLAN   20
SIZE     0.25   0.29   0.42
ACTA
BOND   $H
CONF
LIST   4
WPDB  -2
L.S.   4
TEMP  -123.00
WGHT    0.017900    0.668200
FVAR       0.74095
C1    1   -0.169142    0.349820    0.958052    11.00000    0.01720    0.03881 =
         0.01992   -0.00701    0.00105    0.00962
AFIX  43
H1    2   -0.184572    0.302216    1.050153    11.00000   -1.20000
AFIX   0
C2    1   -0.198237    0.285844    0.875535    11.00000    0.01169    0.02132 =
         0.04219   -0.00731   -0.00323   -0.00009
AFIX  43
H2    2   -0.236000    0.187895    0.902344    11.00000   -1.20000
AFIX   0
C3    1   -0.160866    0.394304    0.745432    11.00000    0.01285    0.02694 =
         0.02893   -0.01560   -0.01081    0.00551
AFIX  43
H3    2   -0.170007    0.381742    0.669902    11.00000   -1.20000
AFIX   0
C4    1   -0.107654    0.524302    0.748019    11.00000    0.01725    0.01659 =
         0.02297   -0.00497   -0.01003    0.00695
AFIX  43
H4    2   -0.074163    0.614124    0.674557    11.00000   -1.20000
AFIX   0
C5    1   -0.113155    0.496780    0.879859    11.00000    0.02393    0.02997 =
         0.03054   -0.02125   -0.01259    0.01552
AFIX  43
H5    2   -0.084329    0.565015    0.910145    11.00000   -1.20000
AFIX   0
C6    1    0.248489    0.180825    0.841633    11.00000    0.01406    0.01162 =
         0.01497   -0.00545   -0.00400    0.00232
C7    1    0.285486    0.236477    0.928068    11.00000    0.01453    0.01610 =
         0.01179   -0.00516   -0.00452    0.00347
C8    1    0.340853    0.385490    0.853139    11.00000    0.01401    0.01967 =
         0.01903   -0.01037   -0.00543   -0.00057
AFIX  43
H8    2    0.373917    0.449903    0.886092    11.00000   -1.20000
AFIX   0
C9    1    0.337999    0.421076    0.720203    11.00000    0.01510    0.01730 =
         0.01457   -0.00386   -0.00137   -0.00254
AFIX  43
H9    2    0.369055    0.513274    0.649201    11.00000   -1.20000
AFIX   0
C10   1    0.279928    0.293163    0.712150    11.00000    0.01331    0.01944 =
         0.01165   -0.00695   -0.00261    0.00118
F11   4    0.201992    0.042393    0.874191    11.00000    0.02754    0.01143 =
         0.02508   -0.00717   -0.00586    0.00099
C12   1    0.463610    0.220466    0.512998    11.00000    0.01596    0.01222 =
         0.01151   -0.00351   -0.00200    0.00033
C13   1    0.622625    0.199478    0.570559    11.00000    0.01754    0.01612 =
         0.01740   -0.00550   -0.00426   -0.00216
AFIX  43
H13   2    0.614543    0.215798    0.646532    11.00000   -1.20000
AFIX   0
C14   1    0.793804    0.154262    0.515506    11.00000    0.01598    0.02248 =
         0.03125   -0.00904   -0.00394   -0.00016
AFIX  43
H14   2    0.902646    0.139210    0.554509    11.00000   -1.20000
AFIX   0
C15   1    0.806198    0.131118    0.404167    11.00000    0.02101    0.02280 =
         0.02990   -0.01022    0.00777    0.00013
AFIX  43
H15   2    0.923680    0.101574    0.366550    11.00000   -1.20000
AFIX   0
C16   1    0.647290    0.151071    0.347777    11.00000    0.03128    0.02091 =
         0.01647   -0.00942    0.00419   -0.00128
AFIX  43
H16   2    0.655562    0.133593    0.272367    11.00000   -1.20000
AFIX   0
C17   1    0.475965    0.196558    0.401237    11.00000    0.02370    0.01755 =
         0.01534   -0.00580   -0.00394   -0.00043
AFIX  43
H17   2    0.367529    0.211358    0.361887    11.00000   -1.20000
AFIX   0
FE1   3    0.075809    0.355174    0.829093    11.00000    0.01142    0.01026 =
         0.01068   -0.00386   -0.00334    0.00152
I1    5    0.288477    0.112588    1.125003    11.00000    0.02878    0.02567 =
         0.01213   -0.00615   -0.00825    0.00788
S1    6    0.239545    0.280107    0.573267    11.00000    0.01631    0.03282 =
         0.01510   -0.01390   -0.00679    0.00603
HKLF    4




REM  import_a.res in P-1
REM wR2 = 0.0496, GooF = S = 1.139, Restrained GooF = 1.139 for all data
REM R1 = 0.0205 for 3214 Fo > 4sig(Fo) and 0.0220 for all 3378 data
REM 181 parameters refined using 0 restraints

END

WGHT      0.0176      0.6733

REM Highest difference peak  0.509,  deepest hole -0.781,  1-sigma level  0.105
Q1    1   0.1781  0.1148  1.1213  11.00000  0.05    0.51
Q2    1   0.4250  0.1099  1.1859  11.00000  0.05    0.46
Q3    1   0.4514  0.1595  0.4790  11.00000  0.05    0.42
Q4    1   0.2116  0.3442  0.9011  11.00000  0.05    0.37
Q5    1   0.0653  0.3198  0.9432  11.00000  0.05    0.34
Q6    1   0.6038  0.3974  0.5999  11.00000  0.05    0.31
Q7    1  -0.1326  0.0549  0.9797  11.00000  0.05    0.30
Q8    1   0.2378 -0.0433  0.9674  11.00000  0.05    0.30
Q9    1   0.4447  0.1602  1.0240  11.00000  0.05    0.30
Q10   1   0.1768  0.1370  1.0335  11.00000  0.05    0.29
Q11   1   0.3759  0.1857  1.1842  11.00000  0.05    0.29
Q12   1  -0.0203  0.4773  0.8541  11.00000  0.05    0.29
Q13   1  -0.0473  0.3755  0.7593  11.00000  0.05    0.28
Q14   1   0.1147  0.0740  1.2199  11.00000  0.05    0.28
Q15   1   0.1124  0.3865  0.7216  11.00000  0.05    0.28
Q16   1   0.0171 -0.0033  0.9543  11.00000  0.05    0.28
Q17   1   0.5950  0.3603  0.6572  11.00000  0.05    0.28
Q18   1   0.6523  0.2512  0.7110  11.00000  0.05    0.28
Q19   1   0.1846  0.4468  0.9297  11.00000  0.05    0.27
Q20   1   0.6225  0.0550  0.2375  11.00000  0.05    0.27
;
_shelx_res_checksum              17448
_shelx_hkl_file
;
  -2   0   0 8431.38  345.20   0
  -2   0   0 9129.98  346.48   0
  -3   0   0  431.69   17.81   0
  -3   0   0  433.24   17.72   0
  -3   0   0  411.28   17.82   0
   3   0   0  421.63   17.74   0
   3   0   0  415.83   16.50   0
   3   0   0  423.02   17.47   0
  -4   0   0  648.29   27.29   0
  -4   0   0  662.61   27.57   0
  -4   0   0  648.42   27.39   0
   4   0   0  668.47   26.93   0
   4   0   0  650.78   27.24   0
   4   0   0  672.49   25.55   0
  -5   0   0 1789.52   72.75   0
  -5   0   0 1866.52   72.89   0
  -5   0   0 1852.47   73.19   0
   5   0   0 1845.71   72.17   0
   5   0   0 1843.90   72.65   0
  -6   0   0  424.96   19.33   0
  -6   0   0  411.82   19.72   0
  -6   0   0  407.77   19.42   0
   6   0   0  385.36   18.66   0
   6   0   0  398.90   18.24   0
  -7   0   0    1.79    3.54   0
  -7   0   0    3.84    3.76   0
  -7   0   0    7.10    3.37   0
   7   0   0    3.62    2.98   0
   7   0   0    6.38    2.69   0
  -8   0   0  142.25   12.91   0
  -8   0   0  144.68   11.79   0
  -8   0   0  171.68   12.64   0
   8   0   0  134.93   10.98   0
   8   0   0  152.28    9.94   0
  -9   0   0  104.95   16.00   0
  -9   0   0  146.57   14.14   0
  -9   0   0  129.78   13.96   0
   9   0   0  119.10   11.66   0
   9   0   0  121.99   10.38   0
   9  -1   0  143.76   13.08   0
   9  -1   0  142.27   11.61   0
  -9   1   0  137.76   14.41   0
  -9   1   0  112.96   13.77   0
   8  -1   0   -4.06    3.34   0
   8  -1   0    7.39    4.54   0
  -8   1   0   -2.45    4.47   0
  -8   1   0    1.25    5.48   0
   7  -1   0  203.81   12.86   0
   7  -1   0  240.29   12.33   0
  -7   1   0  203.43   13.36   0
  -7   1   0  210.88   12.76   0
  -7   1   0  210.33   13.86   0
   6  -1   0  422.21   20.12   0
   6  -1   0  428.69   17.42   0
   6  -1   0  429.65   19.53   0
  -6   1   0  457.69   20.30   0
  -6   1   0  416.78   20.43   0
   5  -1   0 1393.01   54.35   0
   5  -1   0 1357.46   54.85   0
   5  -1   0 1340.05   52.70   0
  -5   1   0 1386.72   55.25   0
  -5   1   0 1339.29   54.59   0
  -5   1   0 1348.49   54.87   0
   4  -1   0 7941.53  304.61   0
  -4   1   0 8163.60  305.30   0
  -4   1   0 7872.91  304.95   0
  -4   1   0 7906.27  304.79   0
   3  -1   0   20.90    2.32   0
   3  -1   0   23.88    2.85   0
   3  -1   0   28.49    2.77   0
  -3   1   0   25.79    2.53   0
  -3   1   0   19.45    2.56   0
  -3   1   0   26.60    2.85   0
   2  -1   0 5469.09  220.03   0
  -2   1   0 5319.47  220.10   0
   1  -1   0  783.55   31.04   0
   1  -1   0  791.24   31.07   0
   1  -1   0  821.30   31.23   0
  -1   1   0  805.88   31.07   0
  -1   1   0  832.19   31.23   0
  -1   1   0  759.67   31.04   0
  -2  -1   0 1623.11   61.46   0
  -2  -1   0 1583.13   61.29   0
   2   1   0 1563.39   61.23   0
   2   1   0 1596.50   61.15   0
  -3  -1   0 1671.26   64.78   0
  -3  -1   0 1639.83   64.97   0
   3   1   0 1657.67   64.65   0
   3   1   0 1703.23   64.53   0
  -4  -1   0  217.43   10.67   0
  -4  -1   0  237.27   11.06   0
   4   1   0  226.31   10.21   0
   4   1   0  222.73   10.44   0
  -5  -1   0 2298.75   90.16   0
  -5  -1   0 2354.29   89.90   0
  -5  -1   0 2287.65   90.12   0
   5   1   0 2139.27   89.19   0
   5   1   0 2377.52   89.09   0
  -6  -1   0 1106.59   43.96   0
  -6  -1   0 1042.57   44.08   0
  -6  -1   0 1066.09   44.03   0
   6   1   0 1061.16   42.58   0
   6   1   0 1002.09   42.83   0
  -7  -1   0  893.29   38.00   0
  -7  -1   0  908.60   38.55   0
  -7  -1   0  805.33   37.55   0
   7   1   0  885.51   36.19   0
   7   1   0  885.85   36.67   0
  -8  -1   0    4.62    4.63   0
  -8  -1   0   -0.47    4.76   0
  -8  -1   0    8.67    5.43   0
   8   1   0    4.23    3.01   0
   8   1   0    8.56    3.54   0
  -9  -1   0   13.99    7.48   0
  -9  -1   0    7.23    5.88   0
  -9  -1   0   15.29    6.87   0
   9   1   0   15.14    4.30   0
   9   1   0    4.05    4.60   0
   8  -2   0  794.52   34.24   0
   8  -2   0  836.50   35.62   0
  -8   2   0  735.82   35.89   0
  -8   2   0  754.72   34.93   0
  -8   2   0  749.61   36.46   0
   7  -2   0  343.51   18.42   0
   7  -2   0  350.14   14.83   0
   7  -2   0  345.94   17.44   0
  -7   2   0  332.70   18.79   0
  -7   2   0  348.18   19.07   0
  -7   2   0  367.47   18.13   0
   6  -2   0  930.30   37.72   0
   6  -2   0  883.24   35.73   0
   6  -2   0  902.96   38.40   0
  -6   2   0  871.45   38.69   0
  -6   2   0  888.47   38.41   0
  -6   2   0  913.41   37.95   0
   5  -2   0   12.12    1.98   0
   5  -2   0   15.31    3.14   0
   5  -2   0   24.51    3.68   0
  -5   2   0   18.59    3.56   0
  -5   2   0   18.28    3.26   0
  -5   2   0   14.21    2.94   0
   4  -2   0  364.73   15.91   0
   4  -2   0  349.90   16.21   0
   4  -2   0  363.28   16.46   0
  -4   2   0  353.49   16.54   0
  -4   2   0  344.63   16.18   0
   3  -2   0 3690.18  141.70   0
   3  -2   0 3719.87  141.50   0
   3  -2   0 3643.28  141.25   0
  -3   2   0 3689.97  141.32   0
  -3   2   0 3665.12  141.74   0
  -3   2   0 3623.35  141.45   0
   2  -2   0  504.89   20.64   0
   2  -2   0  511.40   20.88   0
   2  -2   0  485.01   20.48   0
  -2   2   0  514.48   20.65   0
  -2   2   0  502.70   20.57   0
  -2   2   0  497.73   20.81   0
   1  -2   0 2466.24   90.39   0
   1  -2   0 2230.58   89.95   0
   1  -2   0 2248.61   90.17   0
  -1   2   0 2251.72   90.00   0
  -1   2   0 2511.97   90.31   0
  -1   2   0 2364.31   90.17   0
   0  -2   0 1424.55   54.45   0
   0  -2   0 1403.35   54.21   0
   0  -2   0 1469.54   54.70   0
   0   2   0 1350.37   54.14   0
  -1  -2   0  220.99    8.44   0
  -1  -2   0  199.72    8.35   0
   1   2   0  198.66    8.17   0
   1   2   0  202.25    8.23   0
  -2  -2   0 1390.10   53.63   0
  -2  -2   0 1407.96   53.55   0
   2   2   0 1338.19   53.20   0
   2   2   0 1412.95   53.26   0
  -3  -2   0 4344.22  162.77   0
  -3  -2   0 4234.14  162.96   0
   3   2   0 4177.14  162.31   0
  -4  -2   0  316.67   14.17   0
  -4  -2   0  312.50   14.41   0
   4   2   0  330.39   13.51   0
   4   2   0  314.93   13.57   0
  -5  -2   0   42.05    4.87   0
   5   2   0   40.82    3.80   0
   5   2   0   44.14    3.56   0
  -6  -2   0 2361.19   93.48   0
  -6  -2   0 2441.32   93.53   0
  -6  -2   0 2341.93   92.84   0
   6   2   0 2254.33   91.55   0
   6   2   0 2382.31   91.48   0
  -7  -2   0    2.26    3.43   0
  -7  -2   0   -2.32    3.49   0
  -7  -2   0    8.66    4.02   0
   7   2   0    0.00    2.33   0
  -8  -2   0 1000.60   42.92   0
  -8  -2   0  982.21   43.24   0
  -8  -2   0  975.39   42.35   0
   8   2   0  946.81   39.54   0
   8   2   0  945.83   39.28   0
  -9  -2   0   16.50    6.25   0
  -9  -2   0   -0.96    6.85   0
  -9  -2   0    0.86    7.53   0
   9   2   0   -0.34    3.09   0
   9   2   0    5.11    3.66   0
   8  -3   0   -0.13    2.36   0
   8  -3   0   -2.72    3.73   0
  -8   3   0    5.26    5.50   0
  -8   3   0    0.05    5.47   0
  -8   3   0    8.13    5.49   0
   7  -3   0  297.51   16.51   0
   7  -3   0  308.74   14.41   0
   7  -3   0  359.85   18.22   0
  -7   3   0  314.85   17.16   0
  -7   3   0  319.02   18.00   0
  -7   3   0  327.20   18.43   0
   6  -3   0  783.88   34.29   0
   6  -3   0  767.81   33.28   0
   6  -3   0  742.24   31.60   0
  -6   3   0  780.99   34.16   0
  -6   3   0  785.56   34.54   0
  -6   3   0  800.00   33.64   0
   5  -3   0  206.53   10.92   0
   5  -3   0  194.93   11.62   0
   5  -3   0  207.47   11.45   0
  -5   3   0  194.21   11.65   0
  -5   3   0  199.52   11.03   0
  -5   3   0  197.82   11.38   0
   4  -3   0 1078.30   45.37   0
   4  -3   0 1070.24   45.07   0
   4  -3   0 1135.29   44.87   0
  -4   3   0 1096.79   45.45   0
  -4   3   0 1146.63   45.25   0
  -4   3   0 1129.37   44.94   0
   3  -3   0  622.99   26.25   0
   3  -3   0  636.98   26.59   0
  -3   3   0  615.73   26.18   0
  -3   3   0  633.65   26.13   0
   2  -3   0   40.78    3.18   0
   2  -3   0   46.85    3.65   0
   2  -3   0   52.01    3.93   0
  -2   3   0   42.02    3.42   0
  -2   3   0   42.57    3.37   0
  -2   3   0   47.03    3.68   0
   1  -3   0 6860.30  287.98   0
  -1   3   0 7353.09  288.37   0
   0  -3   0  433.36   17.69   0
   0  -3   0  418.14   17.31   0
   0  -3   0  418.90   16.96   0
   0   3   0  418.22   16.85   0
   0   3   0  414.17   17.05   0
  -1  -3   0    7.33    1.19   0
  -1  -3   0    8.35    1.22   0
   1   3   0    5.98    0.94   0
   1   3   0   10.05    1.09   0
  -2  -3   0 1585.48   60.33   0
  -2  -3   0 1541.02   60.33   0
   2   3   0 1589.67   59.78   0
   2   3   0 1532.99   59.73   0
  -3  -3   0  104.23    5.73   0
  -3  -3   0  106.03    5.59   0
  -3  -3   0  114.48    5.18   0
   3   3   0  112.26    4.87   0
   3   3   0  104.65    4.84   0
  -4  -3   0 2376.23   91.84   0
  -4  -3   0 2381.29   93.35   0
  -4  -3   0 2434.02   93.04   0
   4   3   0 2440.23   92.01   0
   4   3   0 2362.04   91.99   0
  -5  -3   0   90.24    6.23   0
  -5  -3   0   97.28    6.85   0
   5   3   0   87.46    4.83   0
   5   3   0   89.17    4.97   0
  -6  -3   0    4.26    2.54   0
  -6  -3   0    1.83    2.63   0
   6   3   0    6.44    1.63   0
   6   3   0    2.54    1.62   0
  -7  -3   0  596.59   28.06   0
  -7  -3   0  605.21   27.31   0
  -7  -3   0  637.97   28.27   0
   7   3   0  578.80   24.53   0
   7   3   0  598.66   24.50   0
  -8  -3   0  175.09   12.91   0
  -8  -3   0  172.85   14.11   0
  -8  -3   0  164.83   13.54   0
   8   3   0  172.76    8.34   0
   8   3   0  167.70    8.38   0
   8  -4   0  589.19   26.22   0
   8  -4   0  607.41   29.10   0
   8  -4   0  619.46   30.86   0
  -8   4   0  657.16   31.37   0
  -8   4   0  603.77   31.70   0
  -8   4   0  615.66   29.90   0
   7  -4   0  248.00   15.92   0
   7  -4   0  235.94   12.58   0
   7  -4   0  250.02   14.47   0
  -7   4   0  261.35   15.27   0
  -7   4   0  272.76   16.71   0
   6  -4   0    7.91    3.76   0
   6  -4   0   14.99    3.44   0
   6  -4   0   22.43    4.94   0
  -6   4   0   15.72    4.61   0
  -6   4   0   18.02    4.35   0
  -6   4   0   19.49    4.63   0
   5  -4   0 2225.90   92.15   0
   5  -4   0 2321.61   92.65   0
   5  -4   0 2239.10   91.64   0
  -5   4   0 2362.47   92.80   0
  -5   4   0 2385.44   92.38   0
  -5   4   0 2404.14   92.01   0
   4  -4   0  140.39    7.93   0
   4  -4   0  124.67    8.12   0
   4  -4   0  114.00    8.39   0
  -4   4   0  122.86    7.86   0
  -4   4   0  122.92    8.59   0
  -4   4   0  125.00    8.15   0
   3  -4   0 2218.50   88.15   0
   3  -4   0 2127.88   87.66   0
   3  -4   0 2321.80   87.51   0
  -3   4   0 2284.94   87.61   0
  -3   4   0 2155.39   87.52   0
  -3   4   0 2310.67   88.02   0
   2  -4   0 1012.48   40.93   0
   2  -4   0  962.55   40.60   0
   2  -4   0 1022.54   40.24   0
  -2   4   0 1009.28   40.47   0
  -2   4   0 1008.31   40.59   0
  -2   4   0 1009.21   40.26   0
   1  -4   0  608.64   25.28   0
   1  -4   0  597.26   24.58   0
   1  -4   0  599.80   25.29   0
  -1   4   0  624.32   24.89   0
  -1   4   0  604.61   25.03   0
  -1   4   0  586.90   24.50   0
   0  -4   0 4147.19  159.69   0
   0  -4   0 3999.69  159.15   0
   0   4   0 4312.72  158.83   0
   0   4   0 4128.58  158.52   0
  -1  -4   0 1826.49   73.90   0
  -1  -4   0 1878.54   74.09   0
   1   4   0 2112.89   73.67   0
   1   4   0 1846.93   73.43   0
  -2  -4   0  373.37   15.86   0
  -2  -4   0  393.43   15.95   0
  -3  -4   0  545.84   22.16   0
  -3  -4   0  536.57   22.29   0
  -4  -4   0  210.58   10.65   0
  -4  -4   0  219.20   10.41   0
  -4  -4   0  222.32    9.62   0
  -5  -4   0  443.10   17.41   0
  -5  -4   0  420.56   18.99   0
  -5  -4   0  423.69   19.46   0
  -6  -4   0    7.87    3.25   0
  -6  -4   0    8.18    3.05   0
  -7  -4   0    8.30    4.40   0
  -7  -4   0    8.76    3.75   0
  -8  -4   0  202.22   15.64   0
  -8  -4   0  210.77   16.06   0
  -8  -4   0  240.32   14.81   0
   8  -5   0    4.80    6.21   0
   8  -5   0    6.21    3.75   0
   8  -5   0    5.97    5.45   0
  -8   5   0   -7.79    6.09   0
  -8   5   0    8.74    6.25   0
   7  -5   0  386.13   21.54   0
   7  -5   0  356.33   18.26   0
   7  -5   0  389.51   20.18   0
   7  -5   0  427.18   22.26   0
  -7   5   0  400.80   20.74   0
  -7   5   0  400.55   21.59   0
  -7   5   0  358.73   22.09   0
   6  -5   0  429.50   22.58   0
   6  -5   0  459.25   21.83   0
   6  -5   0  432.69   23.04   0
  -6   5   0  469.18   22.81   0
  -6   5   0  469.81   22.25   0
  -6   5   0  462.50   23.25   0
   5  -5   0  120.37    8.35   0
   5  -5   0  133.55    9.44   0
   5  -5   0   95.78    9.00   0
  -5   5   0  101.55    8.66   0
  -5   5   0   94.01    8.26   0
  -5   5   0  116.23    9.23   0
   4  -5   0 3692.49  152.03   0
   4  -5   0 3881.25  152.67   0
   4  -5   0 4016.41  151.72   0
  -4   5   0 3967.23  151.89   0
  -4   5   0 3945.05  152.38   0
  -4   5   0 3935.19  151.97   0
   3  -5   0 1348.98   55.52   0
   3  -5   0 1429.72   54.68   0
   3  -5   0 1294.32   55.05   0
  -3   5   0 1374.96   54.81   0
  -3   5   0 1376.69   55.14   0
  -3   5   0 1339.89   54.65   0
   2  -5   0 2137.27   81.31   0
   2  -5   0 2042.36   82.01   0
   2  -5   0 2076.90   82.20   0
  -2   5   0 2129.62   81.70   0
  -2   5   0 1994.29   81.15   0
   1  -5   0    8.56    2.67   0
   1  -5   0   13.62    2.63   0
  -1   5   0   14.40    2.45   0
   0  -5   0 1373.58   54.46   0
   0  -5   0 1367.43   53.81   0
   0  -5   0 1359.17   54.96   0
   0   5   0 1340.28   53.43   0
   0   5   0 1414.45   53.82   0
  -1  -5   0   33.07    3.43   0
  -1  -5   0   29.46    3.89   0
   1   5   0   34.58    2.41   0
  -2  -5   0 2580.25   97.31   0
  -2  -5   0 2452.73   97.14   0
  -3  -5   0    3.38    1.56   0
  -3  -5   0    5.24    1.66   0
  -4  -5   0  114.43    6.86   0
  -4  -5   0  117.91    6.39   0
  -5  -5   0  997.56   41.33   0
  -5  -5   0 1021.12   41.97   0
  -5  -5   0 1035.64   40.25   0
  -6  -5   0    8.40    3.32   0
  -6  -5   0    5.55    3.10   0
  -6  -5   0    7.82    1.59   0
  -7  -5   0  413.11   20.49   0
  -7  -5   0  358.06   19.04   0
  -8  -5   0   10.71    6.27   0
  -8  -5   0    1.85    5.17   0
   7  -6   0  110.12   10.94   0
   7  -6   0  111.24    9.60   0
   7  -6   0  119.22   13.42   0
  -7   6   0  135.01   12.81   0
  -7   6   0  140.72   14.32   0
  -7   6   0  128.83   12.57   0
   6  -6   0  333.15   17.83   0
   6  -6   0  323.16   19.48   0
   6  -6   0  316.78   18.92   0
  -6   6   0  354.34   19.00   0
  -6   6   0  344.21   18.45   0
  -6   6   0  347.54   19.73   0
   5  -6   0    2.18    2.67   0
   5  -6   0   13.06    4.80   0
   5  -6   0    3.54    4.05   0
  -5   6   0    4.41    3.62   0
  -5   6   0    3.92    3.66   0
  -5   6   0    0.62    3.31   0
   4  -6   0 1312.76   50.55   0
   4  -6   0 1215.46   51.19   0
   4  -6   0 1284.13   51.94   0
  -4   6   0 1081.60   50.23   0
  -4   6   0 1244.68   50.71   0
   3  -6   0  642.84   29.38   0
   3  -6   0  674.04   29.86   0
   3  -6   0  703.89   28.66   0
  -3   6   0  672.69   28.99   0
  -3   6   0  646.28   28.93   0
  -3   6   0  651.22   28.58   0
   2  -6   0 2883.99  115.18   0
   2  -6   0 2885.53  115.26   0
   2  -6   0 3016.20  114.20   0
  -2   6   0 2979.11  114.62   0
  -2   6   0 2994.90  114.39   0
  -2   6   0 2831.30  113.95   0
   1  -6   0   27.32    3.48   0
   1  -6   0   36.46    4.94   0
   1  -6   0   31.19    4.95   0
  -1   6   0   25.88    3.85   0
  -1   6   0   30.68    4.26   0
  -1   6   0   38.86    3.75   0
   0  -6   0   22.25    4.08   0
   0   6   0   11.84    2.19   0
  -1  -6   0 2015.96   82.56   0
  -1  -6   0 2058.14   81.18   0
  -1  -6   0 2163.34   81.80   0
   1   6   0 2045.96   80.18   0
   1   6   0 2141.44   80.39   0
  -2  -6   0    6.64    2.09   0
  -2  -6   0    7.37    1.85   0
  -3  -6   0 2191.24   84.10   0
  -3  -6   0 2118.59   84.06   0
  -4  -6   0   -0.09    1.97   0
  -4  -6   0    0.58    2.05   0
  -5  -6   0   28.50    4.36   0
  -5  -6   0   23.50    3.93   0
  -5  -6   0   25.02    3.79   0
  -6  -6   0  799.32   32.65   0
  -6  -6   0  832.95   34.61   0
  -6  -6   0  811.51   35.35   0
  -7  -6   0  480.97   22.91   0
  -7  -6   0  471.51   24.06   0
   7  -7   0   47.05    8.75   0
   7  -7   0   63.22    9.85   0
   7  -7   0   24.43    6.41   0
  -7   7   0   36.80    7.87   0
  -7   7   0   70.22   12.08   0
   6  -7   0  858.37   37.68   0
   6  -7   0  756.91   35.50   0
   6  -7   0  803.63   37.80   0
  -6   7   0  764.21   36.89   0
  -6   7   0  769.96   36.06   0
  -6   7   0  829.64   36.75   0
   5  -7   0   35.72    7.01   0
   5  -7   0   20.45    4.06   0
   5  -7   0   21.01    5.76   0
  -5   7   0   20.22    5.60   0
  -5   7   0   24.23    4.98   0
  -5   7   0   18.31    4.75   0
   4  -7   0  108.02   10.13   0
   4  -7   0  105.50    8.31   0
   4  -7   0  104.79    9.80   0
  -4   7   0   88.71    8.37   0
  -4   7   0  109.85    8.85   0
  -4   7   0  103.82    9.32   0
   3  -7   0  893.86   39.42   0
   3  -7   0  899.43   39.78   0
   3  -7   0  941.27   38.26   0
  -3   7   0  913.65   38.20   0
  -3   7   0  885.56   38.47   0
  -3   7   0  905.60   38.46   0
   2  -7   0   48.96    7.03   0
   2  -7   0   42.47    6.93   0
   2  -7   0   56.78    5.32   0
  -2   7   0   46.18    5.08   0
  -2   7   0   45.60    5.64   0
  -2   7   0   50.19    5.65   0
   1  -7   0 2378.03   89.79   0
   1  -7   0 2320.44   90.98   0
   1  -7   0 2260.18   91.16   0
  -1   7   0 2180.58   89.07   0
   0  -7   0   26.56    4.49   0
   0  -7   0   25.78    3.69   0
   0  -7   0   15.67    3.70   0
   0   7   0   24.78    3.24   0
   0   7   0   23.97    3.73   0
  -1  -7   0  186.74   11.27   0
  -1  -7   0  182.89   10.26   0
  -1  -7   0  164.31    9.23   0
   1   7   0  176.98    8.15   0
   1   7   0  177.78    8.02   0
  -2  -7   0 3387.39  129.24   0
  -2  -7   0 3187.84  127.21   0
  -3  -7   0  226.00   11.36   0
  -3  -7   0  215.86   11.39   0
  -4  -7   0 1445.67   56.03   0
  -4  -7   0 1332.56   55.56   0
  -5  -7   0  207.94   10.87   0
  -5  -7   0  202.25   11.65   0
  -5  -7   0  210.94   12.19   0
  -6  -7   0   29.60    5.36   0
  -6  -7   0   28.39    4.85   0
  -7  -7   0  100.82   11.47   0
  -7  -7   0   82.60    5.89   0
  -7  -7   0  101.95   10.54   0
   6  -8   0   40.96    7.75   0
   6  -8   0   62.65   10.17   0
   6  -8   0   64.48   10.18   0
  -6   8   0   63.89   11.23   0
  -6   8   0   49.60    8.05   0
  -6   8   0   82.28   12.57   0
   5  -8   0 1122.16   47.73   0
   5  -8   0 1046.45   47.97   0
   5  -8   0 1032.06   45.63   0
  -5   8   0 1060.71   46.11   0
  -5   8   0 1073.68   46.67   0
  -5   8   0 1058.23   46.39   0
   4  -8   0  295.73   18.23   0
   4  -8   0  310.02   16.42   0
   4  -8   0  319.88   18.81   0
  -4   8   0  299.15   17.01   0
  -4   8   0  288.32   16.48   0
  -4   8   0  315.88   17.26   0
   3  -8   0   36.53    6.07   0
   3  -8   0   37.49    6.96   0
   3  -8   0   32.06    4.81   0
  -3   8   0   30.18    5.03   0
  -3   8   0   39.57    6.13   0
  -3   8   0   30.11    4.75   0
   2  -8   0  478.90   21.14   0
   2  -8   0  436.16   22.64   0
   2  -8   0  456.94   22.93   0
  -2   8   0  453.10   21.01   0
  -2   8   0  429.52   20.47   0
   1  -8   0  105.96    7.62   0
   1  -8   0  111.00    9.65   0
   1  -8   0  106.27    9.66   0
  -1   8   0  108.52    7.55   0
  -1   8   0   96.81    6.91   0
   0  -8   0 1124.27   44.93   0
   0  -8   0 1082.73   46.76   0
   0  -8   0 1094.28   46.12   0
   0   8   0 1103.59   43.96   0
   0   8   0 1078.42   43.64   0
  -1  -8   0  557.22   26.21   0
  -1  -8   0  558.89   24.09   0
  -1  -8   0  550.57   24.99   0
   1   8   0  542.12   22.06   0
   1   8   0  547.87   22.00   0
  -2  -8   0   60.37    5.59   0
  -2  -8   0   52.56    8.27   0
  -2  -8   0   50.32    6.69   0
  -3  -8   0  517.46   23.90   0
  -3  -8   0  573.89   26.59   0
  -4  -8   0  362.74   18.09   0
  -4  -8   0  397.89   18.49   0
  -5  -8   0  100.06    7.91   0
  -5  -8   0  106.61    9.00   0
  -5  -8   0  110.32    9.38   0
  -6  -8   0  173.16   10.24   0
  -6  -8   0  136.43   11.47   0
  -6  -8   0  176.37   12.60   0
   5  -9   0  361.02   22.71   0
   5  -9   0  354.80   21.85   0
   5  -9   0  335.37   19.58   0
  -5   9   0  346.25   20.60   0
  -5   9   0  322.52   20.12   0
  -5   9   0  331.66   19.75   0
   4  -9   0  492.74   25.29   0
   4  -9   0  465.42   25.33   0
   4  -9   0  442.66   22.50   0
  -4   9   0  434.70   22.37   0
  -4   9   0  430.05   22.76   0
  -4   9   0  406.55   22.53   0
   3  -9   0 1135.07   49.46   0
   3  -9   0 1134.46   49.27   0
   3  -9   0 1162.30   47.27   0
  -3   9   0 1079.96   47.57   0
  -3   9   0 1020.16   46.38   0
  -3   9   0 1146.15   47.03   0
   2  -9   0   34.52    6.82   0
   2  -9   0   30.72    5.08   0
   2  -9   0   17.58    5.85   0
  -2   9   0   26.20    4.39   0
   1  -9   0    7.22    4.37   0
   1  -9   0    6.82    4.68   0
   1  -9   0    2.81    2.80   0
  -1   9   0    5.85    2.89   0
  -1   9   0    3.71    3.10   0
   0  -9   0  289.59   16.71   0
   0  -9   0  295.36   17.48   0
   0  -9   0  298.37   14.88   0
   0   9   0  264.93   12.88   0
   0   9   0  282.29   13.24   0
  -1  -9   0  145.22    9.28   0
  -1  -9   0  128.87   11.74   0
  -1  -9   0  121.99   10.95   0
  -2  -9   0  274.08   14.56   0
  -2  -9   0  284.20   17.38   0
  -2  -9   0  294.79   15.78   0
  -3  -9   0    6.35    6.09   0
  -3  -9   0    3.08    4.15   0
  -3  -9   0   -3.99    2.93   0
  -4  -9   0   41.78    7.14   0
  -5  -9   0  592.78   27.71   0
  -5  -9   0  602.35   26.87   0
  -5  -9   0  588.62   27.29   0
  -6  -9   0   13.78    6.20   0
  -6  -9   0   23.37    6.12   0
  -6  -9   0   16.23    4.77   0
   4 -10   0  272.76   21.11   0
   4 -10   0  314.88   21.74   0
   4 -10   0  302.26   18.40   0
  -4  10   0  285.33   18.77   0
  -4  10   0  309.71   18.49   0
   3 -10   0   17.54    6.79   0
   3 -10   0   16.64    7.08   0
   3 -10   0   12.75    4.62   0
  -3  10   0    5.18    4.30   0
   2 -10   0  925.54   39.79   0
   2 -10   0  923.31   42.21   0
   2 -10   0  943.76   42.66   0
  -2  10   0  894.93   38.81   0
  -2  10   0  875.61   38.42   0
   1 -10   0   63.49    7.97   0
   1 -10   0   59.74   10.85   0
  -1  10   0   47.10    6.02   0
  -1  10   0   61.48    7.16   0
   0 -10   0   44.19    7.80   0
   0 -10   0   44.24    7.35   0
   0  10   0   38.82    4.81   0
   0  10   0   47.37    4.61   0
  -1 -10   0  643.28   28.98   0
  -1 -10   0  647.85   30.79   0
  -2 -10   0   23.29    5.95   0
  -2 -10   0   24.16    4.59   0
  -2 -10   0   40.40    8.38   0
  -3 -10   0  247.05   15.38   0
  -3 -10   0  226.43   17.32   0
  -3 -10   0  225.88   14.07   0
  -4 -10   0   26.19    6.47   0
  -4 -10   0   36.83    6.29   0
  -5 -10   0    2.79    5.54   0
  -5 -10   0    5.89    9.02   0
  -5 -10   0   -2.22    4.74   0
   3 -11   0  291.96   22.17   0
   3 -11   0  254.79   21.90   0
   3 -11   0  296.50   21.96   0
  -3  11   0  240.10   17.37   0
  -3  11   0  257.65   16.00   0
   2 -11   0  104.88   11.49   0
   2 -11   0   90.37   16.37   0
   2 -11   0  107.41   15.39   0
  -2  11   0   85.95   10.50   0
  -2  11   0  109.22    9.50   0
   1 -11   0  693.77   31.59   0
   1 -11   0  803.30   35.42   0
   1 -11   0  697.25   34.84   0
  -1  11   0  616.75   28.65   0
  -1  11   0  626.08   28.93   0
   0 -11   0   84.45   13.48   0
   0 -11   0   68.14    9.86   0
   0 -11   0   84.22   13.76   0
  -1 -11   0   72.55   13.15   0
  -1 -11   0   85.52    9.93   0
  -1 -11   0   48.65    9.12   0
  -2 -11   0  213.26   17.21   0
  -2 -11   0  213.64   13.84   0
  -2 -11   0  180.13   18.17   0
  -3 -11   0  346.32   19.09   0
  -3 -11   0  297.05   22.81   0
  -3 -11   0  365.44   21.22   0
  -2 -11   1  -11.85    8.11   0
  -2 -11   1    6.03    4.99   0
  -2 -11   1  -11.51    7.16   0
  -1 -11   1   23.96    7.96   0
  -1 -11   1   19.27    9.66   0
  -1 -11   1   13.79    5.25   0
   0 -11   1  314.21   22.28   0
   0 -11   1  326.29   18.73   0
   0 -11   1  365.53   21.85   0
   1 -11   1  237.13   15.85   0
   1 -11   1  252.63   20.36   0
   1 -11   1  243.03   19.17   0
  -2  11  -1    4.67    4.36   0
  -2  11  -1    2.04    3.84   0
   2 -11   1   -0.42    7.22   0
   2 -11   1   -0.31    5.76   0
   2 -11   1   -2.01    8.93   0
  -4 -10   1  278.77   16.44   0
  -4 -10   1  304.02   20.98   0
  -4 -10   1  240.10   17.22   0
  -3 -10   1  684.74   32.12   0
  -3 -10   1  707.88   31.27   0
  -3 -10   1  705.52   34.99   0
  -2 -10   1  124.01   13.02   0
  -2 -10   1  135.39   14.55   0
  -2 -10   1  135.13   10.12   0
  -1 -10   1   -1.87    5.93   0
  -1 -10   1   -7.10    3.57   0
  -1 -10   1    2.43    5.63   0
   0 -10   1  283.91   18.51   0
   0 -10   1  266.13   15.14   0
   0 -10   1  263.83   17.48   0
  -1  10  -1   41.55    4.88   0
  -1  10  -1   48.79    5.43   0
   1 -10   1   31.16    7.10   0
   1 -10   1   68.78   11.88   0
   1 -10   1   54.66    8.08   0
  -2  10  -1  971.70   42.47   0
  -2  10  -1  949.84   42.64   0
   2 -10   1 1139.48   47.39   0
   2 -10   1 1054.79   44.55   0
   2 -10   1 1069.99   47.46   0
  -3  10  -1   30.55    5.25   0
   3 -10   1   29.04    7.67   0
   3 -10   1   43.95    9.08   0
   3 -10   1   33.88    6.16   0
  -4  10  -1   25.81    6.05   0
  -4  10  -1   19.55    6.64   0
  -4  10  -1   14.39   10.92   0
   4 -10   1   27.21    8.96   0
   4 -10   1   19.03    7.22   0
   4 -10   1   26.45    9.13   0
  -5  -9   1   31.33    8.19   0
  -5  -9   1   29.61    5.81   0
  -5  -9   1   31.33    5.84   0
  -5  -9   1   38.23    5.82   0
  -4  -9   1  151.00   10.66   0
  -4  -9   1  155.72   14.65   0
  -3  -9   1   53.48    8.27   0
  -3  -9   1   31.72    5.00   0
  -2  -9   1 2065.43   84.36   0
  -2  -9   1 2069.91   81.50   0
  -2  -9   1 2021.26   82.04   0
  -1  -9   1    5.04    3.12   0
  -1  -9   1   -0.80    4.67   0
  -1  -9   1    9.74    4.52   0
   0  -9   1  221.97   15.50   0
   0  -9   1  232.79   12.61   0
   0  -9   1  212.30   14.53   0
  -1   9  -1  411.76   19.16   0
  -1   9  -1  426.83   18.92   0
   1  -9   1  414.68   22.48   0
   1  -9   1  453.94   20.90   0
   1  -9   1  472.52   23.64   0
  -2   9  -1  104.80    8.81   0
  -2   9  -1  111.42    8.07   0
   2  -9   1  115.16    9.28   0
   2  -9   1  115.57   12.36   0
   2  -9   1  120.22   11.84   0
  -3   9  -1 1353.09   57.36   0
  -3   9  -1 1342.80   56.99   0
  -3   9  -1 1365.19   58.69   0
   3  -9   1 1548.74   60.93   0
   3  -9   1 1369.99   59.84   0
   3  -9   1 1399.02   57.87   0
  -4   9  -1   61.89    9.88   0
  -4   9  -1   59.15   10.13   0
  -4   9  -1   67.60    9.07   0
   4  -9   1   84.50   12.31   0
   4  -9   1   74.15   12.83   0
   4  -9   1   76.72    9.21   0
  -5   9  -1   76.51   12.30   0
  -5   9  -1   71.11   12.48   0
  -5   9  -1   87.54   11.20   0
   5  -9   1   86.80   14.42   0
   5  -9   1   91.18   11.17   0
   5  -9   1   99.87   14.54   0
  -6  -8   1  378.86   20.27   0
  -6  -8   1  378.01   19.52   0
  -6  -8   1  391.22   18.14   0
  -5  -8   1   42.99    7.40   0
  -5  -8   1   37.08    6.16   0
  -5  -8   1   30.62    5.14   0
  -4  -8   1  108.41    8.33   0
  -4  -8   1  106.56    8.22   0
  -4  -8   1   95.24   11.74   0
  -3  -8   1  142.80   12.12   0
  -3  -8   1  146.83    9.13   0
  -2  -8   1   31.38    6.25   0
  -2  -8   1   29.31    4.58   0
  -2  -8   1   29.76    4.91   0
  -1  -8   1 1357.61   57.14   0
  -1  -8   1 1271.55   55.34   0
  -1  -8   1 1453.75   54.86   0
   0   8  -1  101.83    5.59   0
   0   8  -1  112.36    5.65   0
   0  -8   1  116.50    7.68   0
   0  -8   1   98.83    9.20   0
   0  -8   1  114.45   10.40   0
  -1   8  -1  614.17   27.23   0
  -1   8  -1  626.39   26.98   0
   1  -8   1  647.63   29.72   0
   1  -8   1  663.62   30.44   0
   1  -8   1  705.96   28.45   0
  -2   8  -1  685.20   30.44   0
  -2   8  -1  735.80   32.47   0
   2  -8   1  762.01   31.53   0
   2  -8   1  721.19   33.01   0
   2  -8   1  714.51   33.37   0
  -3   8  -1 1580.70   66.23   0
  -3   8  -1 1548.44   67.33   0
  -3   8  -1 1677.00   66.78   0
   3  -8   1 1719.30   68.99   0
   3  -8   1 1729.85   67.01   0
   3  -8   1 1626.28   68.51   0
  -4   8  -1  993.75   43.26   0
  -4   8  -1 1007.47   44.26   0
  -4   8  -1 1011.13   43.63   0
   4  -8   1 1037.70   45.41   0
   4  -8   1 1043.14   43.58   0
   4  -8   1 1009.23   45.30   0
  -5   8  -1  839.01   38.17   0
  -5   8  -1  822.81   37.26   0
  -5   8  -1  839.93   37.88   0
   5  -8   1  831.33   37.13   0
   5  -8   1  828.67   39.31   0
   5  -8   1  830.78   38.94   0
  -6   8  -1  148.81   14.92   0
  -6   8  -1  151.63   14.34   0
  -6   8  -1  140.23   13.32   0
   6  -8   1  165.53   15.74   0
   6  -8   1  117.74   14.99   0
   6  -8   1  103.44   12.78   0
  -7  -7   1   18.37    5.91   0
  -7  -7   1   16.49    6.42   0
  -6  -7   1    1.96    4.04   0
  -6  -7   1    9.37    3.99   0
  -5  -7   1  330.67   16.47   0
  -5  -7   1  332.65   15.60   0
  -5  -7   1  330.35   16.07   0
  -4  -7   1  197.73   10.74   0
  -4  -7   1  201.91   10.84   0
  -3  -7   1   80.40    6.22   0
  -3  -7   1   84.60    9.00   0
  -3  -7   1   76.57    5.92   0
  -2  -7   1  707.39   32.12   0
  -2  -7   1  703.68   30.27   0
  -2  -7   1  752.23   30.00   0
  -1  -7   1  101.09    7.18   0
  -1  -7   1   74.63    8.21   0
  -1  -7   1   86.71    5.94   0
   0   7  -1 1294.85   51.97   0
   0   7  -1 1357.43   51.91   0
   0  -7   1 1256.13   54.04   0
   0  -7   1 1367.18   55.33   0
   0  -7   1 1388.28   53.36   0
  -1   7  -1 1171.45   49.56   0
  -1   7  -1 1219.54   49.33   0
   1  -7   1 1277.68   52.11   0
   1  -7   1 1265.46   51.47   0
   1  -7   1 1288.76   50.29   0
  -2   7  -1  765.94   33.54   0
  -2   7  -1  818.49   35.06   0
  -2   7  -1  823.24   34.14   0
   2  -7   1  849.28   34.29   0
   2  -7   1  804.14   35.82   0
   2  -7   1  807.70   35.53   0
  -3   7  -1   18.71    3.63   0
  -3   7  -1   28.25    4.71   0
  -3   7  -1   16.54    4.29   0
   3  -7   1   16.90    3.46   0
   3  -7   1   22.46    5.22   0
   3  -7   1   27.49    5.70   0
  -4   7  -1 2297.43   92.41   0
  -4   7  -1 2326.08   92.73   0
  -4   7  -1 2228.66   91.82   0
   4  -7   1 2413.06   92.19   0
   4  -7   1 2304.43   93.55   0
   4  -7   1 2289.21   93.33   0
  -5   7  -1    7.68    4.43   0
  -5   7  -1    4.00    4.16   0
  -5   7  -1   10.47    4.17   0
   5  -7   1    5.80    3.67   0
   5  -7   1    6.33    4.22   0
   5  -7   1    8.90    4.78   0
  -6   7  -1 1144.61   49.00   0
  -6   7  -1 1129.62   49.12   0
  -6   7  -1 1098.92   49.39   0
   6  -7   1 1141.41   50.25   0
   6  -7   1 1137.20   50.03   0
   6  -7   1 1097.43   48.24   0
  -7   7  -1   70.28   10.41   0
  -7   7  -1   61.01   10.12   0
  -7   7  -1   66.05   12.18   0
   7  -7   1   61.31    9.46   0
   7  -7   1   42.13    9.04   0
  -7  -6   1    2.43    4.23   0
  -7  -6   1    2.81    4.95   0
  -6  -6   1  238.98   10.81   0
  -6  -6   1  231.82   13.51   0
  -6  -6   1  236.64   12.81   0
  -5  -6   1   70.70    6.21   0
  -5  -6   1   73.10    6.72   0
  -4  -6   1   82.84    5.96   0
  -3  -6   1 1041.83   42.49   0
  -3  -6   1 1085.45   42.58   0
  -2  -6   1   37.75    5.97   0
  -2  -6   1   54.53    4.46   0
  -2  -6   1   47.57    4.00   0
  -1  -6   1    8.59    2.00   0
  -1  -6   1   15.70    2.88   0
  -1  -6   1   10.57    3.28   0
   0   6  -1 2470.72   92.58   0
   0   6  -1 2394.78   92.71   0
   0  -6   1 2382.95   94.26   0
   0  -6   1 2292.89   93.40   0
   0  -6   1 2492.43   95.32   0
  -1   6  -1  114.60    7.78   0
  -1   6  -1  111.54    6.31   0
   1  -6   1  111.36    8.32   0
   1  -6   1   97.25    7.62   0
   1  -6   1  119.33    6.82   0
  -2   6  -1 2382.85   96.77   0
  -2   6  -1 2560.26   97.29   0
  -2   6  -1 2492.50   97.90   0
   2  -6   1 2481.36   98.49   0
   2  -6   1 2595.14   97.31   0
   2  -6   1 2389.74   98.09   0
  -3   6  -1  202.02   11.45   0
  -3   6  -1  208.40   11.82   0
  -3   6  -1  202.89   11.04   0
   3  -6   1  198.40   12.23   0
   3  -6   1  203.65   11.07   0
   3  -6   1  208.92   12.39   0
  -4   6  -1    2.15    2.65   0
  -4   6  -1    1.83    3.38   0
  -4   6  -1    5.26    3.27   0
   4  -6   1    7.09    2.65   0
   4  -6   1    5.71    3.38   0
   4  -6   1    4.35    3.52   0
  -5   6  -1 1455.77   58.49   0
  -5   6  -1 1381.42   57.96   0
  -5   6  -1 1432.70   58.72   0
   5  -6   1 1359.26   58.64   0
   5  -6   1 1387.48   59.07   0
   5  -6   1 1403.06   57.76   0
  -6   6  -1  338.04   18.71   0
  -6   6  -1  319.51   18.73   0
  -6   6  -1  336.89   19.47   0
   6  -6   1  333.00   19.41   0
   6  -6   1  332.64   17.95   0
  -7   6  -1  530.83   27.25   0
  -7   6  -1  552.52   27.44   0
  -7   6  -1  531.09   28.25   0
   7  -6   1  522.86   26.20   0
   7  -6   1  519.39   28.19   0
   7  -6   1  539.65   25.05   0
   7  -6   1  509.64   27.82   0
  -8  -5   1   45.18    7.14   0
  -8  -5   1   53.98    8.58   0
  -7  -5   1  571.78   26.29   0
  -7  -5   1  578.91   27.25   0
  -6  -5   1   30.23    4.97   0
  -6  -5   1   27.16    4.30   0
  -5  -5   1  242.05   12.40   0
  -5  -5   1  226.90   11.79   0
  -5  -5   1  251.30   10.89   0
  -4  -5   1  672.27   27.39   0
  -4  -5   1  659.22   27.64   0
  -3  -5   1   26.77    2.95   0
  -3  -5   1   26.96    3.11   0
  -2  -5   1 2149.34   81.89   0
  -2  -5   1 2081.78   81.76   0
  -1  -5   1  951.68   37.85   0
  -1  -5   1  940.65   39.06   0
  -1  -5   1  951.38   37.51   0
   0   5  -1  887.80   34.08   0
   0   5  -1  847.00   34.22   0
   0  -5   1  874.73   36.19   0
   0  -5   1  895.19   34.76   0
   0  -5   1  840.15   35.28   0
  -1   5  -1 2086.16   81.51   0
  -1   5  -1 2034.02   80.57   0
  -1   5  -1 2055.34   80.26   0
   1  -5   1 2073.70   81.41   0
   1  -5   1 2097.02   80.64   0
  -2   5  -1  965.60   38.43   0
  -2   5  -1  914.12   37.47   0
  -2   5  -1  921.09   37.83   0
   2  -5   1  938.31   37.68   0
   2  -5   1  899.37   38.54   0
   2  -5   1  916.16   38.46   0
  -3   5  -1  922.51   38.08   0
  -3   5  -1  921.33   37.99   0
  -3   5  -1  866.87   37.41   0
   3  -5   1  959.63   37.66   0
   3  -5   1  900.50   38.37   0
   3  -5   1  889.65   38.37   0
  -4   5  -1   62.27    6.54   0
  -4   5  -1   53.06    6.22   0
  -4   5  -1   68.68    6.08   0
   4  -5   1   58.01    5.45   0
   4  -5   1   52.43    6.40   0
   4  -5   1   55.97    6.45   0
  -5   5  -1   37.98    6.02   0
  -5   5  -1   28.90    5.07   0
  -5   5  -1   37.86    6.42   0
   5  -5   1   40.33    5.98   0
   5  -5   1   29.28    5.37   0
   5  -5   1   45.62    6.89   0
  -6   5  -1 1090.07   46.90   0
  -6   5  -1 1086.65   46.07   0
  -6   5  -1 1080.95   46.24   0
   6  -5   1 1076.14   45.64   0
   6  -5   1 1091.92   46.74   0
   6  -5   1 1030.15   46.63   0
  -7   5  -1  629.60   31.16   0
  -7   5  -1  649.03   30.32   0
  -7   5  -1  593.50   29.52   0
   7  -5   1  593.49   29.06   0
   7  -5   1  588.41   27.50   0
   7  -5   1  609.82   30.60   0
   7  -5   1  698.86   31.20   0
  -8   5  -1  121.17   14.06   0
  -8   5  -1  120.05   14.42   0
   8  -5   1  130.94   14.90   0
   8  -5   1  127.43   12.47   0
   8  -5   1  113.95    9.94   0
  -8  -4   1  150.44   12.82   0
  -8  -4   1  160.26   14.60   0
  -8  -4   1  170.48   14.44   0
  -7  -4   1   23.77    5.24   0
  -7  -4   1   22.99    4.85   0
  -6  -4   1 1974.94   78.42   0
  -6  -4   1 1953.63   77.80   0
  -5  -4   1  196.81    8.32   0
  -5  -4   1  186.72    9.92   0
  -5  -4   1  189.69   10.35   0
  -4  -4   1  489.06   20.31   0
  -4  -4   1  479.53   20.56   0
  -3  -4   1  896.78   35.96   0
  -3  -4   1  918.91   35.85   0
  -2  -4   1  949.91   37.50   0
  -2  -4   1  967.79   37.52   0
  -1  -4   1  786.58   30.56   0
  -1  -4   1  764.89   30.37   0
  -1  -4   1  763.96   31.73   0
   0   4  -1 2745.68  107.70   0
   0   4  -1 2938.90  107.60   0
   0  -4   1 2759.81  108.42   0
   0  -4   1 2761.40  109.21   0
   0  -4   1 2851.78  108.03   0
  -1   4  -1  149.86    7.58   0
  -1   4  -1  156.89    7.36   0
  -1   4  -1  151.85    8.21   0
   1  -4   1  157.92    8.43   0
   1  -4   1  150.02    8.11   0
  -2   4  -1  328.58   14.97   0
  -2   4  -1  307.42   14.66   0
  -2   4  -1  330.08   14.45   0
   2  -4   1  339.95   14.55   0
   2  -4   1  317.60   15.09   0
   2  -4   1  327.68   15.13   0
  -3   4  -1 2647.35  106.81   0
  -3   4  -1 2861.46  107.39   0
  -3   4  -1 2822.60  107.29   0
   3  -4   1 2779.25  107.54   0
   3  -4   1 2673.16  107.30   0
   3  -4   1 2692.94  106.81   0
  -4   4  -1    9.39    2.78   0
  -4   4  -1    8.38    2.77   0
  -4   4  -1   16.37    3.24   0
   4  -4   1   12.86    3.29   0
   4  -4   1   10.10    3.11   0
   4  -4   1    8.67    2.26   0
  -5   4  -1 1171.05   47.04   0
  -5   4  -1 1157.47   47.00   0
  -5   4  -1 1123.21   47.43   0
   5  -4   1 1142.23   46.59   0
   5  -4   1 1067.65   47.17   0
   5  -4   1 1105.61   47.14   0
  -6   4  -1  220.67   13.29   0
  -6   4  -1  215.97   13.86   0
  -6   4  -1  221.41   13.04   0
   6  -4   1  196.77   13.35   0
   6  -4   1  219.93   13.45   0
   6  -4   1  201.15   11.14   0
   6  -4   1  204.85   12.28   0
  -7   4  -1  193.27   14.38   0
  -7   4  -1  184.58   13.03   0
   7  -4   1  163.82   12.05   0
   7  -4   1  166.28   10.21   0
   7  -4   1  176.89   13.32   0
   7  -4   1  188.12   13.52   0
  -8   4  -1  957.00   43.27   0
  -8   4  -1  921.04   41.58   0
  -8   4  -1  871.14   41.86   0
   8  -4   1  881.64   38.08   0
   8  -4   1  944.69   41.02   0
   8  -4   1  927.86   42.21   0
  -8  -3   1   14.04    5.70   0
  -8  -3   1    2.12    5.36   0
  -8  -3   1    3.04    4.75   0
  -7  -3   1    7.92    4.11   0
  -7  -3   1    1.44    3.31   0
  -6  -3   1  287.33   14.42   0
  -6  -3   1  250.16   13.48   0
  -5  -3   1 1054.37   43.00   0
  -5  -3   1 1081.16   43.50   0
  -4  -3   1 1152.34   45.62   0
  -4  -3   1 1141.98   45.92   0
  -4  -3   1 1168.93   44.62   0
  -3  -3   1  183.43    8.46   0
  -3  -3   1  187.89    8.33   0
  -2  -3   1  471.51   18.61   0
  -2  -3   1  467.28   18.63   0
   1   3  -1 8592.97  336.99   0
  -1  -3   1 8623.77  336.94   0
   0   3  -1 1628.02   61.63   0
   0   3  -1 1630.15   62.86   0
   0   3  -1 1580.34   61.74   0
   0  -3   1 1627.05   62.96   0
   0  -3   1 1607.65   61.92   0
   0  -3   1 1571.26   62.19   0
  -1   3  -1 7224.06  276.04   0
  -2   3  -1   33.85    3.23   0
  -2   3  -1   32.06    3.09   0
  -2   3  -1   32.75    2.92   0
   2  -3   1   32.98    2.87   0
   2  -3   1   32.87    3.34   0
   2  -3   1   32.57    3.30   0
  -3   3  -1  311.48   14.13   0
  -3   3  -1  275.42   14.03   0
   3  -3   1  307.89   14.46   0
   3  -3   1  327.85   14.10   0
   3  -3   1  317.33   14.40   0
  -4   3  -1 2917.40  110.08   0
  -4   3  -1 2701.68  109.84   0
  -4   3  -1 2908.98  110.48   0
   4  -3   1 2745.36  110.24   0
   4  -3   1 2737.75  110.09   0
   4  -3   1 2889.73  109.84   0
  -5   3  -1 1279.97   51.41   0
  -5   3  -1 1276.74   50.84   0
  -5   3  -1 1219.25   50.78   0
   5  -3   1 1257.02   50.52   0
   5  -3   1 1165.07   49.33   0
   5  -3   1 1207.42   50.99   0
   5  -3   1 1274.48   51.26   0
  -6   3  -1  584.90   26.78   0
  -6   3  -1  549.72   26.08   0
  -6   3  -1  579.78   25.96   0
   6  -3   1  553.96   26.16   0
   6  -3   1  591.02   25.70   0
   6  -3   1  543.47   24.01   0
  -7   3  -1   27.18    5.08   0
  -7   3  -1   15.47    4.63   0
  -7   3  -1   22.47    4.84   0
   7  -3   1   13.62    3.62   0
  -8   3  -1   38.67    6.92   0
  -8   3  -1   30.28    7.02   0
  -8   3  -1   22.67    6.43   0
   8  -3   1   33.05    5.15   0
   8  -3   1   31.14    6.42   0
   8  -3   1   26.27    5.89   0
   8   2  -1  303.67   13.19   0
  -8  -2   1  322.18   17.86   0
  -8  -2   1  303.45   18.17   0
  -8  -2   1  333.92   19.09   0
   7   2  -1  108.90    6.11   0
   7   2  -1  112.37    5.99   0
  -7  -2   1  104.34    9.18   0
  -7  -2   1  108.72    9.43   0
  -7  -2   1  127.09   10.10   0
   6   2  -1   64.23    4.18   0
   6   2  -1   64.63    4.03   0
  -6  -2   1   56.44    6.15   0
  -6  -2   1   65.15    6.59   0
   5   2  -1  534.78   21.49   0
   5   2  -1  545.93   21.42   0
  -5  -2   1  523.15   22.99   0
  -5  -2   1  542.94   23.39   0
   4   2  -1  656.81   25.35   0
   4   2  -1  636.66   25.38   0
  -4  -2   1  648.27   26.87   0
  -4  -2   1  661.19   26.66   0
  -3  -2   1 4417.09  169.01   0
  -2  -2   1   96.83    4.39   0
  -2  -2   1   96.62    4.36   0
   1   2  -1 2966.21  113.00   0
  -1  -2   1 2662.43  112.00   0
  -1   2  -1 1692.03   66.67   0
  -1   2  -1 1780.02   66.31   0
  -1   2  -1 1694.83   66.44   0
   1  -2   1 1708.91   66.70   0
   1  -2   1 1691.06   66.30   0
   1  -2   1 1751.76   66.57   0
  -2   2  -1 4681.79  177.89   0
  -2   2  -1 4705.80  177.94   0
   2  -2   1 4535.77  177.64   0
  -3   2  -1  663.29   27.33   0
  -3   2  -1  657.25   27.00   0
  -3   2  -1  616.93   26.96   0
   3  -2   1  665.79   27.28   0
   3  -2   1  660.91   27.19   0
   3  -2   1  663.12   26.94   0
  -4   2  -1   37.15    4.07   0
  -4   2  -1   39.97    4.54   0
   4  -2   1   36.01    4.27   0
   4  -2   1   32.37    4.05   0
   4  -2   1   33.89    3.75   0
  -5   2  -1 1973.25   76.28   0
  -5   2  -1 1957.83   75.69   0
  -5   2  -1 1850.72   75.64   0
   5  -2   1 1855.26   75.79   0
   5  -2   1 1896.26   75.92   0
   5  -2   1 1862.47   74.07   0
   5  -2   1 1921.90   75.39   0
  -6   2  -1  342.89   16.23   0
  -6   2  -1  321.49   16.35   0
  -6   2  -1  304.72   16.63   0
   6  -2   1  272.14   15.18   0
   6  -2   1  312.45   13.89   0
   6  -2   1  315.40   16.33   0
  -7   2  -1  182.49   12.11   0
  -7   2  -1  184.44   12.95   0
  -7   2  -1  179.55   12.35   0
   7  -2   1  169.06   11.08   0
   7  -2   1  189.88   12.54   0
   7  -2   1  179.19    9.08   0
  -8   2  -1   55.00    9.28   0
  -8   2  -1   62.44    9.84   0
   8  -2   1   39.59    6.42   0
  -9   2  -1  126.94   14.88   0
  -9   2  -1  135.43   14.82   0
   9  -2   1  125.26   13.66   0
   9  -2   1  128.16   12.38   0
   8   1  -1    4.52    3.14   0
   8   1  -1    8.40    2.79   0
  -8  -1   1   -6.35    4.66   0
  -8  -1   1    3.60    5.52   0
  -8  -1   1    3.29    4.63   0
   7   1  -1 1194.77   49.38   0
  -7  -1   1 1192.90   51.36   0
  -7  -1   1 1302.34   51.63   0
  -7  -1   1 1251.36   51.92   0
   6   1  -1   48.72    4.67   0
   6   1  -1   46.56    4.19   0
  -6  -1   1   49.08    6.01   0
  -6  -1   1   48.96    5.90   0
  -6  -1   1   55.78    6.24   0
   5   1  -1   17.70    2.57   0
   5   1  -1   18.63    3.03   0
  -5  -1   1   23.40    3.55   0
  -5  -1   1   25.78    4.12   0
  -5  -1   1   20.64    3.31   0
   4   1  -1 1411.20   54.14   0
   4   1  -1 1396.04   54.36   0
  -4  -1   1 1392.24   55.15   0
  -4  -1   1 1378.63   54.92   0
   3   1  -1  654.31   25.19   0
   3   1  -1  630.00   25.30   0
  -3  -1   1  646.76   25.74   0
  -3  -1   1  638.55   25.89   0
  -2  -1   1 4125.17  165.51   0
   0   1  -1  379.92   14.94   0
   0  -1   1  370.53   14.38   0
   0  -1   1  370.54   14.92   0
   0  -1   1  370.35   14.43   0
  -1   1  -1 1705.31   66.38   0
  -1   1  -1 1739.64   66.33   0
  -1   1  -1 1671.76   66.19   0
   1  -1   1 1830.53   66.38   0
   1  -1   1 1673.67   66.36   0
   1  -1   1 1720.56   66.23   0
  -2   1  -1  956.12   37.99   0
  -2   1  -1  952.75   38.09   0
  -2   1  -1  965.85   38.19   0
   2  -1   1  964.65   38.00   0
   2  -1   1  967.86   38.15   0
   2  -1   1  987.27   38.20   0
  -3   1  -1 1787.23   69.32   0
  -3   1  -1 1769.58   69.50   0
  -3   1  -1 1760.79   69.22   0
   3  -1   1 1766.53   69.17   0
   3  -1   1 1766.06   69.42   0
   3  -1   1 1768.31   69.42   0
   3  -1   1 1797.80   68.49   0
  -4   1  -1  875.48   35.55   0
  -4   1  -1  860.57   35.19   0
   4  -1   1  836.85   35.25   0
   4  -1   1  890.81   34.00   0
   4  -1   1  817.20   34.89   0
   4  -1   1  873.97   35.40   0
  -5   1  -1 1536.19   61.20   0
  -5   1  -1 1520.67   61.63   0
  -5   1  -1 1488.81   61.24   0
   5  -1   1 1549.06   59.48   0
   5  -1   1 1517.91   61.34   0
   5  -1   1 1554.27   60.95   0
  -6   1  -1  270.40   14.77   0
  -6   1  -1  285.83   15.29   0
  -6   1  -1  281.36   14.60   0
   6  -1   1  287.42   12.29   0
   6  -1   1  264.66   14.61   0
   6  -1   1  290.84   14.21   0
  -7   1  -1 1500.91   63.91   0
  -7   1  -1 1563.85   63.61   0
  -7   1  -1 1542.05   64.47   0
   7  -1   1 1612.29   63.17   0
   7  -1   1 1548.79   60.39   0
   7  -1   1 1548.00   63.66   0
  -8   1  -1   37.14    6.54   0
  -8   1  -1   23.25    6.55   0
   8  -1   1   40.90    7.08   0
   8  -1   1   48.90    7.06   0
  -9   1  -1  144.42   14.61   0
  -9   1  -1  151.54   14.69   0
   9  -1   1  151.51   12.31   0
   9   0  -1  154.56   11.60   0
   9   0  -1  172.27   10.78   0
  -9   0   1  162.44   15.00   0
  -9   0   1  167.98   17.51   0
  -9   0   1  144.94   15.24   0
   8   0  -1   36.76    6.67   0
   8   0  -1   35.95    5.76   0
  -8   0   1   36.23    7.18   0
  -8   0   1   33.79    6.46   0
  -8   0   1   32.23    6.30   0
   7   0  -1  470.44   20.58   0
   7   0  -1  437.13   21.18   0
  -7   0   1  466.78   22.94   0
  -7   0   1  480.08   22.87   0
  -7   0   1  469.40   22.17   0
   6   0  -1 1038.97   44.78   0
   6   0  -1 1167.79   44.54   0
  -6   0   1 1118.45   45.58   0
  -6   0   1 1105.91   46.08   0
  -6   0   1 1095.07   45.77   0
   5   0  -1 1829.50   73.54   0
   5   0  -1 1893.61   73.16   0
  -5   0   1 1893.71   74.05   0
  -5   0   1 1820.11   74.02   0
  -5   0   1 1933.42   74.43   0
   4   0  -1   12.37    2.09   0
   4   0  -1    6.91    1.74   0
  -4   0   1    6.42    1.81   0
  -4   0   1    8.62    2.01   0
   3   0  -1   11.97    1.61   0
   2   0  -1 2462.91   94.65   0
  -2   0   1 2478.80   94.81   0
   1   0  -1 1067.10   40.56   0
  -1   0   1 1052.46   40.65   0
  -1   0  -1  583.54   24.00   0
  -1   0  -1  589.31   23.88   0
  -1   0  -1  644.59   24.14   0
   1   0   1  612.03   24.06   0
   1   0   1  601.42   24.10   0
   1   0   1  661.72   24.15   0
   1   0   1  616.80   23.89   0
  -2   0  -1  621.13   25.37   0
  -2   0  -1  651.46   25.46   0
  -2   0  -1  629.14   25.29   0
   2   0   1  644.64   25.29   0
   2   0   1  633.71   24.78   0
   2   0   1  624.90   25.37   0
   2   0   1  636.78   25.40   0
  -3   0  -1 2833.07  111.47   0
  -3   0  -1 2975.14  111.78   0
  -3   0  -1 2818.18  111.58   0
   3   0   1 2875.36  111.61   0
   3   0   1 2955.55  111.45   0
  -4   0  -1   37.19    3.80   0
   4   0   1   30.44    2.44   0
   4   0   1   31.32    3.81   0
  -5   0  -1  717.29   30.29   0
  -5   0  -1  716.32   30.61   0
  -5   0  -1  720.61   30.34   0
   5   0   1  745.46   29.95   0
   5   0   1  675.87   30.05   0
   5   0   1  713.40   28.23   0
  -6   0  -1  814.73   34.35   0
  -6   0  -1  757.57   34.13   0
  -6   0  -1  791.03   34.70   0
   6   0   1  794.53   31.42   0
   6   0   1  836.06   33.70   0
   6   0   1  806.17   34.10   0
  -7   0  -1  130.41   10.78   0
  -7   0  -1  133.76    9.99   0
  -7   0  -1  133.77   10.27   0
   7   0   1  121.81    9.69   0
   7   0   1  146.75    9.20   0
  -8   0  -1 1516.86   62.75   0
  -8   0  -1 1501.88   62.53   0
  -8   0  -1 1473.19   63.35   0
   8   0   1 1516.57   61.27   0
   8   0   1 1486.89   61.82   0
  -9   0  -1  163.80   14.72   0
  -9   0  -1  153.63   14.79   0
  -9   0  -1  165.12   17.02   0
   9   0   1  173.03   12.26   0
   9   0   1  151.79   13.45   0
   8  -1  -1  141.84   11.23   0
   8  -1  -1  147.43    9.81   0
  -8   1   1  140.80   13.36   0
  -8   1   1  146.55   11.80   0
   7  -1  -1    1.78    3.05   0
   7  -1  -1    1.62    2.57   0
  -7   1   1    4.17    3.69   0
  -7   1   1   -0.31    3.18   0
  -7   1   1    6.69    3.81   0
   6  -1  -1 1292.09   53.24   0
   6  -1  -1 1348.01   52.66   0
  -6   1   1 1318.75   53.25   0
  -6   1   1 1328.67   53.88   0
  -6   1   1 1265.08   53.94   0
   5  -1  -1  117.74    6.91   0
   5  -1  -1  110.08    7.52   0
  -5   1   1  117.81    7.41   0
  -5   1   1  125.35    8.06   0
  -5   1   1  108.19    7.62   0
   4  -1  -1 7607.95  283.39   0
   4  -1  -1 7768.77  282.96   0
  -4   1   1 6832.80  283.37   0
   3  -1  -1   20.70    2.60   0
   3  -1  -1   23.65    2.26   0
  -3   1   1   19.17    2.28   0
  -3   1   1   22.29    2.60   0
  -3   1   1   24.67    2.60   0
   2  -1  -1 6186.02  248.16   0
  -2   1   1 6094.68  247.98   0
   1  -1  -1 5749.28  228.53   0
  -1   1   1 5769.53  228.31   0
  -1  -1  -1 2579.74  106.32   0
   1   1   1 2592.74  106.46   0
  -2  -1  -1  167.18    6.91   0
  -2  -1  -1  152.55    6.96   0
  -2  -1  -1  145.28    6.30   0
   2   1   1  151.68    6.30   0
   2   1   1  149.14    6.80   0
   2   1   1  139.48    6.78   0
  -3  -1  -1  343.11   15.51   0
  -3  -1  -1  361.33   14.43   0
  -3  -1  -1  376.83   15.43   0
   3   1   1  357.42   14.38   0
   3   1   1  363.03   15.39   0
   3   1   1  366.90   15.27   0
  -4  -1  -1 3654.41  142.41   0
  -4  -1  -1 3726.99  142.78   0
  -4  -1  -1 3557.88  142.63   0
   4   1   1 3592.11  142.30   0
   4   1   1 3935.33  142.29   0
  -5  -1  -1  357.44   17.24   0
  -5  -1  -1  385.04   17.72   0
  -5  -1  -1  403.46   17.96   0
   5   1   1  391.63   16.98   0
   5   1   1  384.83   15.16   0
   5   1   1  354.71   17.02   0
  -6  -1  -1   51.33    6.19   0
  -6  -1  -1   63.80    6.65   0
  -6  -1  -1   52.43    6.01   0
   6   1   1   54.67    5.59   0
   6   1   1   55.24    5.10   0
  -7  -1  -1   46.83    6.90   0
   7   1   1   35.80    5.10   0
  -8  -1  -1  209.75   14.08   0
  -8  -1  -1  220.47   14.52   0
  -8  -1  -1  218.02   15.34   0
   8   1   1  227.82   12.46   0
   8   1   1  196.55   12.93   0
  -9  -1  -1  300.92   19.08   0
  -9  -1  -1  275.31   20.20   0
  -9  -1  -1  279.54   18.70   0
   9   1   1  290.75   16.73   0
   9   1   1  293.62   16.01   0
   8  -2  -1 1471.25   57.90   0
   8  -2  -1 1391.99   58.81   0
  -8   2   1 1390.67   60.36   0
  -8   2   1 1392.87   60.08   0
  -8   2   1 1388.84   58.60   0
   7  -2  -1  157.36   11.12   0
   7  -2  -1  168.36   10.03   0
  -7   2   1  143.49   11.72   0
  -7   2   1  158.64   12.13   0
  -7   2   1  150.77   10.67   0
   6  -2  -1  442.04   19.96   0
   6  -2  -1  440.92   20.88   0
   6  -2  -1  448.62   18.01   0
  -6   2   1  427.44   21.08   0
  -6   2   1  451.84   21.46   0
  -6   2   1  432.20   20.24   0
   5  -2  -1 2619.25  104.76   0
   5  -2  -1 2677.57  104.11   0
  -5   2   1 2758.37  105.23   0
  -5   2   1 2565.50  104.75   0
  -5   2   1 2736.81  104.31   0
   4  -2  -1  746.90   31.28   0
   4  -2  -1  729.94   30.91   0
   4  -2  -1  718.88   30.62   0
  -4   2   1  778.49   30.80   0
  -4   2   1  781.67   31.57   0
  -4   2   1  739.77   31.21   0
   3  -2  -1 7795.30  301.70   0
  -3   2   1 7988.91  301.81   0
   2  -2  -1  247.32   10.74   0
   2  -2  -1  254.32   10.80   0
   2  -2  -1  245.52   11.13   0
  -2   2   1  246.35   10.62   0
  -2   2   1  250.80   10.95   0
  -2   2   1  241.12   11.07   0
   1  -2  -1 5243.00  212.98   0
  -1   2   1 5186.18  211.75   0
   0  -2  -1 4695.90  189.37   0
  -1  -2  -1 9999.00  390.29   0
  -2  -2  -1  781.43   31.62   0
  -2  -2  -1  801.04   31.52   0
  -2  -2  -1  800.83   31.11   0
   2   2   1  775.35   31.38   0
   2   2   1  842.10   31.52   0
  -3  -2  -1  389.57   15.89   0
  -3  -2  -1  374.81   15.02   0
  -3  -2  -1  365.41   16.04   0
   3   2   1  380.81   15.70   0
   3   2   1  363.22   15.65   0
  -4  -2  -1  300.58   13.95   0
  -4  -2  -1  296.68   12.23   0
  -4  -2  -1  295.27   13.54   0
   4   2   1  300.98   13.36   0
   4   2   1  309.90   13.32   0
  -5  -2  -1  599.97   25.25   0
  -5  -2  -1  560.60   24.53   0
   5   2   1  592.53   24.13   0
   5   2   1  542.61   24.10   0
  -6  -2  -1  741.19   31.71   0
  -6  -2  -1  745.32   31.76   0
  -6  -2  -1  711.64   30.96   0
   6   2   1  724.25   30.10   0
   6   2   1  692.69   30.20   0
  -7  -2  -1    9.95    3.85   0
  -7  -2  -1    6.68    3.62   0
  -7  -2  -1    6.19    3.84   0
   7   2   1    8.63    3.22   0
   7   2   1   15.52    3.16   0
  -8  -2  -1   23.63    5.65   0
  -8  -2  -1   25.25    5.47   0
   8   2   1   21.97    3.93   0
  -9  -2  -1  281.29   19.93   0
  -9  -2  -1  270.11   18.93   0
  -9  -2  -1  228.38   17.39   0
   9   2   1  264.59   14.18   0
   9   2   1  251.92   14.79   0
   8  -3  -1   53.82    8.39   0
   8  -3  -1   86.97   10.90   0
  -8   3   1   84.17   11.60   0
  -8   3   1   88.14   12.81   0
  -8   3   1   63.02   10.43   0
   7  -3  -1 1023.96   41.48   0
   7  -3  -1 1068.03   45.22   0
   7  -3  -1 1069.99   43.97   0
  -7   3   1 1032.70   45.67   0
  -7   3   1 1053.71   44.30   0
  -7   3   1 1032.22   45.44   0
   6  -3  -1  127.84   10.07   0
   6  -3  -1  140.25    7.43   0
   6  -3  -1  136.51    8.92   0
  -6   3   1  153.96   10.42   0
  -6   3   1  148.76    9.42   0
  -6   3   1  148.28   10.69   0
   5  -3  -1 1030.59   41.50   0
   5  -3  -1 1004.72   42.30   0
   5  -3  -1  998.06   41.90   0
  -5   3   1 1003.36   42.22   0
  -5   3   1 1001.91   42.45   0
  -5   3   1 1034.94   41.59   0
   4  -3  -1 3646.12  142.19   0
   4  -3  -1 3664.85  142.61   0
   4  -3  -1 3778.74  142.00   0
  -4   3   1 3699.31  142.46   0
  -4   3   1 3969.13  142.93   0
  -4   3   1 3275.21  141.57   0
   3  -3  -1 5180.57  204.84   0
   3  -3  -1 5355.37  205.00   0
   3  -3  -1 5364.81  205.52   0
  -3   3   1 5249.41  205.19   0
  -3   3   1 5569.09  204.87   0
   2  -3  -1 2503.83   97.54   0
   2  -3  -1 2442.60   96.97   0
   2  -3  -1 2468.05   96.92   0
  -2   3   1 2563.49   97.39   0
  -2   3   1 2523.26   96.86   0
  -2   3   1 2559.09   97.15   0
   1  -3  -1 1934.46   81.61   0
   1  -3  -1 2080.46   81.89   0
   1  -3  -1 2182.28   82.33   0
  -1   3   1 2172.86   81.80   0
  -1   3   1 2270.69   82.16   0
  -1   3   1 2068.30   81.74   0
   0  -3  -1  319.03   12.74   0
   0  -3  -1  308.11   12.62   0
   0  -3  -1  273.59   12.15   0
   0   3   1  272.35   12.11   0
  -1  -3  -1    9.84    1.32   0
   1   3   1   12.09    1.35   0
   1   3   1    8.29    1.33   0
  -2  -3  -1 7496.90  289.64   0
   2   3   1 6860.66  288.64   0
  -3  -3  -1    6.66    1.54   0
  -3  -3  -1   11.44    1.51   0
  -3  -3  -1    7.07    1.66   0
   3   3   1    8.68    1.44   0
   3   3   1    8.39    1.44   0
  -4  -3  -1  571.85   24.37   0
  -4  -3  -1  579.76   22.85   0
  -4  -3  -1  570.86   23.97   0
   4   3   1  571.01   23.44   0
   4   3   1  577.68   23.51   0
  -5  -3  -1  829.78   34.66   0
  -5  -3  -1  844.13   35.21   0
  -5  -3  -1  841.01   32.79   0
   5   3   1  814.69   33.83   0
   5   3   1  867.17   33.95   0
  -6  -3  -1  158.75    9.96   0
  -6  -3  -1  178.41   10.77   0
   6   3   1  150.24    8.72   0
   6   3   1  169.11    8.70   0
  -7  -3  -1 1908.74   75.20   0
  -7  -3  -1 1894.41   75.26   0
  -7  -3  -1 1603.90   73.75   0
   7   3   1 1876.46   72.58   0
   7   3   1 1923.79   72.55   0
  -8  -3  -1  167.82   13.85   0
  -8  -3  -1  147.71   13.03   0
  -8  -3  -1  163.71   12.67   0
   8   3   1  170.36    9.67   0
   8   3   1  168.41    9.89   0
  -9  -3  -1   -1.05    6.86   0
  -9  -3  -1    2.58    7.40   0
  -9  -3  -1    3.56    5.67   0
   9   3   1   -2.39    3.69   0
   9   3   1   -0.04    3.29   0
   8  -4  -1  423.13   18.28   0
   8  -4  -1  404.43   21.25   0
  -8   4   1  450.97   24.26   0
  -8   4   1  381.38   22.04   0
  -8   4   1  420.07   24.79   0
   7  -4  -1  330.79   17.66   0
   7  -4  -1  369.58   19.59   0
   7  -4  -1  333.37   15.72   0
  -7   4   1  327.63   19.79   0
  -7   4   1  387.72   20.13   0
  -7   4   1  329.79   18.15   0
   6  -4  -1  220.92   12.21   0
   6  -4  -1  209.89   13.42   0
   6  -4  -1  227.48   13.08   0
  -6   4   1  180.10   12.01   0
  -6   4   1  223.02   13.35   0
  -6   4   1  222.30   13.87   0
   5  -4  -1  757.25   32.88   0
   5  -4  -1  782.11   34.02   0
   5  -4  -1  772.04   33.52   0
  -5   4   1  779.20   33.73   0
  -5   4   1  789.66   34.15   0
  -5   4   1  795.75   33.07   0
   4  -4  -1   97.21    6.85   0
   4  -4  -1   90.40    7.41   0
   4  -4  -1  101.11    6.55   0
  -4   4   1  101.91    7.64   0
  -4   4   1   98.35    7.07   0
  -4   4   1   94.18    6.48   0
   3  -4  -1  553.73   23.12   0
   3  -4  -1  533.06   23.88   0
   3  -4  -1  522.22   23.23   0
  -3   4   1  544.98   23.42   0
  -3   4   1  543.94   23.69   0
  -3   4   1  565.91   23.13   0
   2  -4  -1 3596.90  133.14   0
   2  -4  -1 3269.09  133.21   0
   2  -4  -1 3395.53  133.80   0
  -2   4   1 3459.44  133.06   0
  -2   4   1 3369.33  133.17   0
  -2   4   1 3622.27  133.61   0
   1  -4  -1   43.70    3.67   0
   1  -4  -1   32.93    2.85   0
   1  -4  -1   43.72    3.90   0
  -1   4   1   39.79    3.30   0
  -1   4   1   33.30    3.10   0
  -1   4   1   34.40    3.02   0
   0  -4  -1 1427.72   60.19   0
   0  -4  -1 1645.25   60.96   0
   0  -4  -1 1522.27   60.84   0
   0   4   1 1731.64   60.70   0
   0   4   1 1426.35   60.10   0
  -1  -4  -1 3465.19  125.01   0
  -1  -4  -1 2995.16  124.60   0
   1   4   1 3067.24  124.37   0
   1   4   1 3470.95  124.76   0
  -2  -4  -1   15.14    2.29   0
  -2  -4  -1   10.59    1.75   0
   2   4   1   15.01    1.91   0
   2   4   1   19.40    1.89   0
  -3  -4  -1 9597.32  371.66   0
   3   4   1 8750.48  370.26   0
  -4  -4  -1  835.64   33.11   0
  -4  -4  -1  771.49   32.53   0
  -4  -4  -1  807.32   31.74   0
   4   4   1  807.47   31.86   0
   4   4   1  778.40   31.70   0
  -5  -4  -1  785.80   32.66   0
  -5  -4  -1  728.20   31.87   0
  -5  -4  -1  772.03   30.44   0
   5   4   1  747.27   30.75   0
   5   4   1  808.17   30.95   0
  -6  -4  -1   36.90    6.09   0
  -6  -4  -1   45.63    5.62   0
   6   4   1   40.72    3.88   0
   6   4   1   41.91    3.96   0
  -7  -4  -1  386.42   20.56   0
  -7  -4  -1  443.43   21.98   0
   7   4   1  439.85   18.41   0
   7   4   1  449.05   18.45   0
  -8  -4  -1  313.23   19.16   0
  -8  -4  -1  323.29   18.13   0
  -8  -4  -1  347.43   19.93   0
   8   4   1  323.01   14.28   0
   8   4   1  304.90   14.24   0
   8  -5  -1  144.59   14.74   0
   8  -5  -1  103.73    8.61   0
   8  -5  -1  112.82   11.66   0
  -8   5   1  105.59   12.67   0
  -8   5   1   80.03   13.69   0
   7  -5  -1    0.02    3.81   0
   7  -5  -1    7.30    2.95   0
  -7   5   1    5.86    4.47   0
  -7   5   1    1.55    4.51   0
  -7   5   1    5.20    5.34   0
   6  -5  -1  646.10   29.74   0
   6  -5  -1  649.08   28.76   0
   6  -5  -1  605.56   29.95   0
  -6   5   1  665.64   29.97   0
  -6   5   1  653.56   28.95   0
  -6   5   1  633.78   30.22   0
   5  -5  -1   77.35    8.06   0
   5  -5  -1   79.42    7.59   0
   5  -5  -1   88.96    7.05   0
  -5   5   1   78.28    7.17   0
  -5   5   1   82.50    8.30   0
   4  -5  -1 1004.91   40.71   0
   4  -5  -1  962.80   41.76   0
   4  -5  -1  934.63   40.95   0
  -4   5   1 1001.05   41.24   0
  -4   5   1 1025.30   40.78   0
  -4   5   1  978.37   41.47   0
   3  -5  -1   53.14    5.50   0
   3  -5  -1   64.93    5.08   0
   3  -5  -1   62.22    6.31   0
  -3   5   1   56.59    5.74   0
  -3   5   1   61.70    5.45   0
  -3   5   1   66.67    5.36   0
   2  -5  -1  149.17    9.07   0
   2  -5  -1  175.41    8.76   0
   2  -5  -1  161.52    9.73   0
  -2   5   1  156.71    8.73   0
  -2   5   1  174.17    9.18   0
  -2   5   1  175.88    9.00   0
   1  -5  -1 4473.57  184.01   0
   1  -5  -1 4873.02  185.15   0
   1  -5  -1 4620.61  184.81   0
  -1   5   1 4987.16  184.50   0
  -1   5   1 5406.96  184.72   0
  -1   5   1 4423.35  183.93   0
   0  -5  -1  673.31   29.03   0
   0  -5  -1  646.29   28.11   0
   0  -5  -1  722.00   29.02   0
   0   5   1  652.18   27.94   0
   0   5   1  780.92   28.63   0
  -1  -5  -1 2067.40   83.57   0
   1   5   1 2332.13   83.65   0
   1   5   1 2073.03   83.18   0
  -2  -5  -1 1044.32   42.82   0
  -2  -5  -1 1076.65   42.99   0
   2   5   1 1116.76   42.46   0
   2   5   1 1084.01   42.19   0
  -3  -5  -1  430.62   18.51   0
  -3  -5  -1  418.53   18.31   0
   3   5   1  440.21   17.56   0
   3   5   1  422.05   17.35   0
  -4  -5  -1 2324.01   88.99   0
  -4  -5  -1 2161.96   89.43   0
  -4  -5  -1 2325.79   90.05   0
   4   5   1 2374.26   88.40   0
   4   5   1 2299.74   88.27   0
  -5  -5  -1 1611.16   64.60   0
  -5  -5  -1 1641.55   62.75   0
  -5  -5  -1 1579.22   63.91   0
   5   5   1 1587.10   62.17   0
   5   5   1 1625.93   62.24   0
  -6  -5  -1   22.78    3.97   0
  -6  -5  -1   31.73    4.97   0
  -6  -5  -1   25.88    3.17   0
   6   5   1   27.82    2.78   0
   6   5   1   25.90    2.85   0
  -7  -5  -1   -1.41    3.30   0
  -7  -5  -1    5.72    4.29   0
  -8  -5  -1   38.57    7.54   0
  -8  -5  -1   27.69    6.00   0
   7  -6  -1  272.60   16.26   0
   7  -6  -1  274.04   18.03   0
   7  -6  -1  284.09   18.83   0
  -7   6   1  276.92   18.05   0
  -7   6   1  255.28   16.58   0
  -7   6   1  273.95   19.20   0
   6  -6  -1  152.45   11.18   0
   6  -6  -1  168.07   13.19   0
   6  -6  -1  170.03   12.66   0
  -6   6   1  149.84   13.17   0
  -6   6   1  168.04   11.73   0
  -6   6   1  171.17   12.80   0
   5  -6  -1  709.90   32.58   0
   5  -6  -1  712.27   30.92   0
   5  -6  -1  654.60   31.52   0
  -5   6   1  713.53   32.08   0
  -5   6   1  726.62   31.15   0
  -5   6   1  702.39   31.73   0
   4  -6  -1 1107.80   43.80   0
   4  -6  -1 1024.77   44.97   0
   4  -6  -1  989.24   44.07   0
  -4   6   1 1083.62   44.26   0
  -4   6   1 1039.76   43.63   0
  -4   6   1 1070.92   44.53   0
   3  -6  -1  281.45   15.57   0
   3  -6  -1  304.33   14.39   0
   3  -6  -1  276.37   14.93   0
  -3   6   1  294.23   14.62   0
  -3   6   1  299.08   15.02   0
  -3   6   1  300.57   14.59   0
   2  -6  -1  149.39    9.90   0
   2  -6  -1  158.46    8.56   0
   2  -6  -1  132.29    9.36   0
  -2   6   1  139.22    8.52   0
  -2   6   1  151.93    8.89   0
  -2   6   1  178.85    9.33   0
   1  -6  -1    2.38    2.63   0
   1  -6  -1   10.71    3.05   0
   1  -6  -1   13.82    2.61   0
  -1   6   1    8.00    2.09   0
   0  -6  -1 2146.19   82.51   0
   0  -6  -1 1857.32   81.31   0
   0  -6  -1 2058.32   82.63   0
   0   6   1 2403.09   81.96   0
   0   6   1 1980.74   81.12   0
  -1  -6  -1 2110.20   84.14   0
  -1  -6  -1 2164.14   85.31   0
  -1  -6  -1 2258.75   84.78   0
   1   6   1 2234.34   83.93   0
   1   6   1 2034.28   83.45   0
  -2  -6  -1  167.73    8.61   0
  -2  -6  -1  158.27    8.74   0
   2   6   1  168.30    7.90   0
   2   6   1  165.55    7.67   0
  -3  -6  -1   33.25    4.14   0
   3   6   1   30.45    2.57   0
   3   6   1   30.73    2.64   0
  -4  -6  -1  206.29   11.21   0
  -4  -6  -1  208.50   11.05   0
  -4  -6  -1  233.85   10.70   0
  -5  -6  -1   46.10    5.67   0
  -5  -6  -1   49.22    6.06   0
  -6  -6  -1 1055.57   40.16   0
  -6  -6  -1  968.08   42.60   0
  -6  -6  -1  988.74   41.84   0
  -7  -6  -1   12.68    5.03   0
  -7  -6  -1    5.83    4.14   0
  -8  -6  -1   21.23    7.15   0
   7  -7  -1  291.61   20.82   0
   7  -7  -1  316.72   20.53   0
   7  -7  -1  289.74   18.14   0
  -7   7   1  332.14   20.36   0
  -7   7   1  296.25   18.90   0
  -7   7   1  290.48   20.75   0
   6  -7  -1  581.69   27.06   0
   6  -7  -1  546.85   28.21   0
   6  -7  -1  547.65   28.92   0
  -6   7   1  583.66   28.29   0
  -6   7   1  600.17   27.34   0
  -6   7   1  539.36   28.25   0
   5  -7  -1   56.08    9.62   0
   5  -7  -1   77.13    7.80   0
   5  -7  -1   64.88    8.91   0
  -5   7   1   55.26    9.23   0
  -5   7   1   65.21    8.63   0
  -5   7   1   71.82    8.14   0
   4  -7  -1  126.92   10.39   0
   4  -7  -1  134.74    9.11   0
   4  -7  -1  126.71   11.10   0
  -4   7   1  136.92    9.48   0
  -4   7   1  118.71    9.95   0
  -4   7   1  125.16    9.73   0
   3  -7  -1 1863.50   76.68   0
   3  -7  -1 1910.82   77.48   0
   3  -7  -1 1945.85   75.77   0
  -3   7   1 1940.19   75.89   0
  -3   7   1 1881.91   75.87   0
  -3   7   1 1845.32   76.01   0
   2  -7  -1   67.83    5.80   0
   2  -7  -1   73.59    7.74   0
   2  -7  -1   58.18    6.97   0
  -2   7   1   72.50    6.33   0
  -2   7   1   55.02    5.92   0
  -2   7   1   65.80    5.84   0
   1  -7  -1 1396.60   58.18   0
   1  -7  -1 1489.82   58.50   0
   1  -7  -1 1443.36   56.93   0
  -1   7   1 1355.17   56.54   0
   0  -7  -1   92.18    7.53   0
   0  -7  -1   96.20    6.41   0
   0  -7  -1   86.83    7.66   0
   0   7   1   92.03    5.96   0
   0   7   1  102.54    6.54   0
  -1  -7  -1   30.65    4.00   0
  -1  -7  -1   32.23    5.38   0
  -1  -7  -1   46.85    5.41   0
   1   7   1   41.97    3.57   0
   1   7   1   29.61    3.69   0
  -2  -7  -1 1704.28   69.95   0
   2   7   1 1820.87   68.88   0
   2   7   1 1794.88   68.63   0
  -3  -7  -1   84.67    6.95   0
  -3  -7  -1  110.97    7.00   0
  -4  -7  -1  334.24   16.23   0
  -4  -7  -1  354.74   15.93   0
  -4  -7  -1  335.53   16.41   0
  -5  -7  -1  302.10   15.36   0
  -5  -7  -1  267.17   14.55   0
  -5  -7  -1  293.20   13.86   0
  -6  -7  -1  198.82   12.92   0
  -6  -7  -1  198.33   12.20   0
  -6  -7  -1  190.27   10.16   0
  -7  -7  -1  319.52   14.35   0
  -7  -7  -1  319.60   17.73   0
  -7  -7  -1  319.18   18.78   0
   6  -8  -1   50.65    7.59   0
   6  -8  -1   30.20    7.30   0
  -6   8   1   45.22    7.27   0
  -6   8   1   39.38    7.82   0
  -6   8   1   41.19    7.11   0
   5  -8  -1 1001.83   45.81   0
   5  -8  -1 1033.58   46.85   0
   5  -8  -1 1011.36   44.50   0
  -5   8   1 1103.67   45.57   0
  -5   8   1 1030.41   44.73   0
  -5   8   1 1037.21   45.57   0
   4  -8  -1   18.65    5.49   0
   4  -8  -1   24.01    4.60   0
   4  -8  -1   25.29    6.53   0
  -4   8   1   28.31    5.26   0
  -4   8   1   25.31    5.01   0
  -4   8   1   29.03    5.41   0
   3  -8  -1   27.53    6.10   0
   3  -8  -1   41.96    6.48   0
   3  -8  -1   29.80    4.58   0
  -3   8   1   28.77    4.98   0
  -3   8   1   20.72    4.79   0
   2  -8  -1 1877.24   75.92   0
   2  -8  -1 1883.84   77.45   0
   2  -8  -1 1946.64   77.98   0
  -2   8   1 1814.74   75.64   0
  -2   8   1 1988.18   76.20   0
   1  -8  -1  252.51   15.03   0
   1  -8  -1  239.01   14.59   0
   1  -8  -1  263.35   13.16   0
  -1   8   1  242.75   12.54   0
   0  -8  -1 1423.53   58.25   0
   0  -8  -1 1489.61   58.04   0
   0  -8  -1 1458.83   56.58   0
   0   8   1 1316.49   55.93   0
   0   8   1 1323.72   55.55   0
  -1  -8  -1  211.53   13.35   0
  -1  -8  -1  242.93   12.97   0
  -1  -8  -1  202.47   11.36   0
   1   8   1  212.99   10.67   0
   1   8   1  212.72   10.34   0
  -2  -8  -1  634.18   28.58   0
  -2  -8  -1  605.77   26.67   0
  -2  -8  -1  621.22   27.33   0
   2   8   1  619.33   24.95   0
   2   8   1  613.04   24.77   0
  -3  -8  -1  697.60   29.56   0
  -3  -8  -1  674.60   29.60   0
  -4  -8  -1  682.39   29.91   0
  -4  -8  -1  666.92   30.01   0
  -4  -8  -1  720.41   29.77   0
  -5  -8  -1   41.45    5.73   0
  -5  -8  -1   38.25    6.79   0
  -5  -8  -1   40.65    7.53   0
  -6  -8  -1  104.98    8.05   0
  -6  -8  -1  108.42    9.88   0
  -6  -8  -1  118.24   10.84   0
  -7  -8  -1   64.62    6.79   0
  -7  -8  -1   59.91   10.88   0
  -7  -8  -1   59.24    8.62   0
   6  -9  -1  528.60   30.92   0
   6  -9  -1  556.42   30.23   0
  -6   9   1  554.11   28.39   0
  -6   9   1  511.51   29.12   0
  -6   9   1  558.35   28.71   0
   5  -9  -1   15.90    6.88   0
   5  -9  -1   29.68    6.67   0
   5  -9  -1   32.99    7.82   0
  -5   9   1   35.77    6.98   0
  -5   9   1   25.52    6.44   0
  -5   9   1   29.36    6.33   0
   4  -9  -1  728.29   32.66   0
   4  -9  -1  725.43   35.22   0
   4  -9  -1  716.99   34.41   0
  -4   9   1  706.54   32.56   0
  -4   9   1  703.22   32.92   0
  -4   9   1  712.65   32.72   0
   3  -9  -1   85.94   11.21   0
   3  -9  -1  101.42   11.88   0
   3  -9  -1   98.69    8.95   0
  -3   9   1   92.18    9.31   0
  -3   9   1   92.35    9.04   0
   2  -9  -1  424.53   20.71   0
   2  -9  -1  409.93   22.95   0
   2  -9  -1  453.19   22.92   0
  -2   9   1  429.92   20.51   0
   1  -9  -1 1754.73   72.87   0
   1  -9  -1 1699.90   70.92   0
   1  -9  -1 1736.67   72.88   0
  -1   9   1 1983.10   71.08   0
  -1   9   1 1656.79   70.16   0
   0  -9  -1  712.31   31.45   0
   0  -9  -1  720.56   33.50   0
   0  -9  -1  764.98   33.42   0
   0   9   1  670.93   30.21   0
   0   9   1  778.13   30.97   0
  -1  -9  -1  346.55   16.69   0
  -1  -9  -1  326.08   18.65   0
  -1  -9  -1  349.54   18.04   0
   1   9   1  339.14   15.16   0
   1   9   1  319.48   14.78   0
  -2  -9  -1    5.12    3.81   0
  -2  -9  -1    1.01    2.63   0
  -2  -9  -1   14.68    5.66   0
  -3  -9  -1  694.36   30.75   0
  -3  -9  -1  740.50   33.38   0
  -3  -9  -1  683.94   31.27   0
  -4  -9  -1    9.03    3.92   0
  -4  -9  -1   10.63    3.49   0
  -4  -9  -1    8.39    4.08   0
  -5  -9  -1  527.78   26.21   0
  -5  -9  -1  575.81   25.69   0
  -5  -9  -1  601.19   27.14   0
  -6  -9  -1   41.44    7.28   0
  -6  -9  -1   48.60    7.04   0
  -6  -9  -1   41.49    5.69   0
   5 -10  -1  174.57   17.91   0
   5 -10  -1  141.17   18.71   0
  -5  10   1  180.17   16.49   0
  -5  10   1  167.90   15.24   0
  -5  10   1  171.93   15.17   0
   4 -10  -1  175.05   17.26   0
   4 -10  -1  197.65   17.81   0
   4 -10  -1  212.37   14.56   0
  -4  10   1  183.01   14.70   0
   3 -10  -1  119.91   10.72   0
   3 -10  -1  121.88   13.74   0
   3 -10  -1  114.81   14.32   0
  -3  10   1  109.98   10.48   0
  -3  10   1  102.38   11.14   0
   2 -10  -1    7.01    6.30   0
   2 -10  -1    7.38    3.81   0
  -2  10   1    7.44    4.12   0
  -2  10   1    2.77    4.40   0
   1 -10  -1  832.69   39.19   0
   1 -10  -1  862.20   39.47   0
   1 -10  -1  825.08   36.89   0
  -1  10   1  943.15   36.62   0
  -1  10   1  789.75   35.68   0
   0 -10  -1  246.35   17.29   0
   0 -10  -1  285.58   17.61   0
   0 -10  -1  251.98   14.38   0
   0  10   1  260.88   13.30   0
   0  10   1  229.53   12.58   0
  -1 -10  -1 1549.20   64.77   0
  -1 -10  -1 1649.48   64.30   0
  -1 -10  -1 1555.07   62.41   0
   1  10   1 1425.42   59.79   0
   1  10   1 1463.65   59.69   0
  -2 -10  -1   22.53    4.58   0
  -3 -10  -1   68.67   10.27   0
  -3 -10  -1   85.26   11.71   0
  -3 -10  -1   75.07    8.59   0
  -4 -10  -1  269.17   19.07   0
  -4 -10  -1  262.46   15.23   0
  -4 -10  -1  258.15   15.85   0
  -5 -10  -1   32.74    6.55   0
  -5 -10  -1   38.17    6.60   0
  -5 -10  -1   23.31    5.21   0
   3 -11  -1  581.42   31.76   0
   3 -11  -1  542.82   28.24   0
   3 -11  -1  579.77   32.11   0
  -3  11   1  589.16   27.65   0
   2 -11  -1   54.48    9.51   0
   2 -11  -1   81.75   14.50   0
   2 -11  -1   58.52    9.90   0
  -2  11   1   73.52    9.05   0
  -2  11   1   66.53   10.17   0
   1 -11  -1   52.47    8.81   0
   1 -11  -1   33.19    8.10   0
  -1  11   1   60.51    8.55   0
  -1  11   1   48.96    7.24   0
   0 -11  -1  160.34   15.63   0
   0 -11  -1  162.16   16.42   0
   0 -11  -1  167.75   12.66   0
   0  11   1  158.56    9.70   0
   0  11   1  189.75   10.44   0
  -1 -11  -1   31.69    5.39   0
  -1 -11  -1   45.21    9.17   0
  -2 -11  -1  628.52   31.62   0
  -2 -11  -1  596.87   30.35   0
  -2 -11  -1  603.19   28.51   0
  -3 -11  -1   88.96   13.98   0
  -3 -11  -1   71.35    9.86   0
  -3 -11  -1   58.34    8.62   0
  -4 -11  -1   14.28    6.12   0
  -4 -11  -1   12.06    7.20   0
  -4 -11  -1   12.50    5.36   0
  -4 -11  -1   14.09    9.25   0
   1 -12  -1  132.73   18.39   0
   1 -12  -1  166.24   18.86   0
   1 -12  -1  154.53   14.35   0
  -1  12   1  136.09   10.45   0
  -1  12   1  150.73   11.71   0
   0 -12  -1    5.73    7.94   0
   0 -12  -1    5.21    6.17   0
   0 -12  -1  -10.51    7.96   0
   0  12   1    0.78    3.30   0
  -1 -12  -1   80.14   11.22   0
  -1 -12  -1   58.59   12.64   0
  -1 -12  -1   62.66   10.25   0
  -3 -10   2   13.07    5.01   0
  -3 -10   2   12.76    8.70   0
  -2 -10   2   34.83    5.37   0
  -2 -10   2   38.86    7.24   0
  -1 -10   2  348.55   18.27   0
  -1 -10   2  351.26   22.67   0
  -1 -10   2  370.98   20.53   0
   0 -10   2  303.47   16.89   0
   0 -10   2  329.00   20.80   0
   0 -10   2  315.26   19.31   0
   1 -10   2  343.68   18.78   0
   1 -10   2  355.43   21.27   0
   1 -10   2  364.22   22.53   0
  -2  10  -2   13.30    3.19   0
   2 -10   2   16.72    5.37   0
   2 -10   2   10.30    7.15   0
  -3  10  -2  487.20   24.09   0
  -3  10  -2  487.91   23.56   0
   3 -10   2  549.75   26.42   0
   3 -10   2  526.66   28.75   0
   3 -10   2  564.44   30.15   0
  -4  -9   2  184.13   13.17   0
  -4  -9   2  201.94   16.79   0
  -4  -9   2  186.48   12.15   0
  -3  -9   2  103.40    9.86   0
  -3  -9   2  100.51   12.97   0
  -3  -9   2  105.82    8.50   0
  -2  -9   2    9.30    4.63   0
  -2  -9   2    3.85    3.36   0
  -1  -9   2   27.65    5.70   0
  -1  -9   2   25.71    4.45   0
   0  -9   2  202.41   14.77   0
   0  -9   2  167.00   12.87   0
   0  -9   2  175.74   11.01   0
   1  -9   2 1225.50   51.89   0
   1  -9   2 1362.44   55.14   0
   1  -9   2 1194.15   53.30   0
  -2   9  -2    0.64    2.53   0
   2  -9   2    5.24    5.24   0
   2  -9   2   -0.70    5.24   0
   2  -9   2    2.59    3.73   0
  -3   9  -2   56.01    9.92   0
  -3   9  -2   35.71    6.75   0
   3  -9   2   63.10    8.35   0
   3  -9   2   55.94    9.02   0
  -4   9  -2   90.55    9.62   0
  -4   9  -2   85.02   10.84   0
  -4   9  -2   75.97   11.97   0
   4  -9   2  104.01   14.53   0
   4  -9   2  112.86   10.93   0
   4  -9   2  118.06   13.60   0
  -5   9  -2   13.54    6.72   0
   5  -9   2   15.21    7.13   0
   5  -9   2   19.88    8.71   0
  -5  -8   2    0.57    3.83   0
  -5  -8   2   -1.28    6.60   0
  -5  -8   2   -0.11    3.92   0
  -4  -8   2    3.61    3.13   0
  -4  -8   2    6.83    3.31   0
  -3  -8   2  859.62   35.19   0
  -3  -8   2  821.46   35.44   0
  -3  -8   2  856.75   38.38   0
  -2  -8   2  100.01    8.25   0
  -2  -8   2  110.05    7.41   0
  -2  -8   2   88.10   10.49   0
  -1  -8   2  622.20   29.48   0
  -1  -8   2  635.68   26.61   0
  -1  -8   2  601.02   27.50   0
   0  -8   2   76.94    9.62   0
   0  -8   2   64.98    8.37   0
   0  -8   2   80.71    6.61   0
  -1   8  -2   66.80    4.59   0
  -1   8  -2   62.90    4.91   0
   1  -8   2   69.33    8.36   0
   1  -8   2   76.36    6.49   0
   1  -8   2   75.06    9.44   0
  -2   8  -2 1274.85   53.34   0
  -2   8  -2 1184.81   50.56   0
   2  -8   2 1228.43   53.30   0
   2  -8   2 1335.59   52.16   0
   2  -8   2 1307.02   54.34   0
  -3   8  -2  387.72   19.04   0
  -3   8  -2  405.15   19.52   0
  -3   8  -2  402.45   20.91   0
   3  -8   2  422.12   20.00   0
   3  -8   2  404.75   22.35   0
   3  -8   2  395.68   21.53   0
  -4   8  -2   21.13    5.74   0
  -4   8  -2    9.51    4.54   0
  -4   8  -2    7.13    4.00   0
   4  -8   2    3.67    4.20   0
  -5   8  -2    2.51    6.31   0
  -5   8  -2   -2.68    5.10   0
  -5   8  -2   22.40    5.43   0
   5  -8   2    9.82    6.54   0
   5  -8   2    8.02    6.18   0
   5  -8   2    2.65    4.32   0
  -6   8  -2  130.66   12.89   0
  -6   8  -2  110.26   14.46   0
   6  -8   2  100.18   14.62   0
   6  -8   2  116.03   15.40   0
  -6  -7   2    5.40    4.20   0
  -6  -7   2   16.64    4.70   0
  -6  -7   2   11.93    3.68   0
  -5  -7   2  563.02   24.66   0
  -5  -7   2  546.47   24.21   0
  -4  -7   2    1.26    4.72   0
  -4  -7   2   15.79    3.23   0
  -4  -7   2    9.76    2.93   0
  -3  -7   2  130.85   10.91   0
  -3  -7   2  128.44    7.75   0
  -2  -7   2 1236.71   50.58   0
  -2  -7   2 1156.86   48.04   0
  -1  -7   2 2731.44  106.81   0
  -1  -7   2 2761.98  104.28   0
  -1  -7   2 2557.63  104.72   0
   0  -7   2  915.05   39.51   0
   0  -7   2  851.03   37.85   0
   0  -7   2  952.95   37.19   0
  -1   7  -2  220.99   10.21   0
  -1   7  -2  202.64   10.35   0
   1  -7   2  237.75   11.60   0
   1  -7   2  219.78   12.84   0
   1  -7   2  235.60   13.88   0
  -2   7  -2  532.41   22.69   0
  -2   7  -2  481.90   23.96   0
  -2   7  -2  493.85   22.15   0
   2  -7   2  504.10   24.23   0
   2  -7   2  526.72   24.97   0
   2  -7   2  548.47   23.22   0
  -3   7  -2  201.88   11.53   0
  -3   7  -2  190.65   12.69   0
  -3   7  -2  194.38   11.04   0
   3  -7   2  197.21   11.47   0
   3  -7   2  194.47   12.97   0
   3  -7   2  202.04   13.47   0
  -4   7  -2 1005.03   44.02   0
  -4   7  -2 1085.84   45.65   0
  -4   7  -2 1038.01   44.56   0
   4  -7   2 1045.20   44.41   0
   4  -7   2 1072.20   45.96   0
   4  -7   2 1063.89   46.14   0
  -5   7  -2   17.47    4.56   0
  -5   7  -2   17.84    5.23   0
  -5   7  -2   23.25    6.47   0
   5  -7   2   23.78    4.70   0
  -6   7  -2   66.90    9.93   0
  -6   7  -2   39.28    7.28   0
  -6   7  -2   66.45   11.11   0
   6  -7   2   30.13    6.82   0
   6  -7   2   50.07    7.39   0
  -7  -6   2   28.36    5.65   0
  -7  -6   2   22.40    6.25   0
  -6  -6   2  892.82   34.93   0
  -6  -6   2  868.01   36.65   0
  -6  -6   2  919.69   35.18   0
  -6  -6   2  831.16   37.16   0
  -5  -6   2  424.69   18.70   0
  -5  -6   2  411.25   19.04   0
  -4  -6   2  753.96   31.12   0
  -4  -6   2  757.57   30.90   0
  -3  -6   2  106.60    6.20   0
  -3  -6   2  105.14    6.37   0
  -3  -6   2   91.31    8.94   0
  -2  -6   2  564.14   22.97   0
  -2  -6   2  546.78   25.22   0
  -1  -6   2  611.34   26.15   0
  -1  -6   2  631.53   28.03   0
  -1  -6   2  638.20   25.75   0
   0  -6   2 3827.97  148.06   0
   0  -6   2 3710.33  147.24   0
   0  -6   2 3939.01  149.43   0
  -1   6  -2  108.64    5.97   0
  -1   6  -2  111.39    8.05   0
  -1   6  -2   98.46    6.17   0
   1  -6   2  103.40    8.40   0
   1  -6   2  122.13    8.13   0
   1  -6   2  123.42    6.96   0
  -2   6  -2  580.52   25.42   0
  -2   6  -2  591.08   25.78   0
  -2   6  -2  624.79   27.06   0
   2  -6   2  588.37   26.94   0
   2  -6   2  609.68   27.52   0
   2  -6   2  642.34   26.15   0
  -3   6  -2 1034.91   43.77   0
  -3   6  -2 1066.92   44.26   0
  -3   6  -2 1049.55   45.03   0
   3  -6   2 1072.31   45.23   0
   3  -6   2 1055.10   45.39   0
   3  -6   2 1147.41   44.37   0
  -4   6  -2  234.09   13.07   0
  -4   6  -2  240.78   14.04   0
  -4   6  -2  242.63   13.75   0
   4  -6   2  232.20   12.95   0
   4  -6   2  236.74   14.44   0
   4  -6   2  238.43   14.31   0
  -5   6  -2 2598.21  102.68   0
  -5   6  -2 2576.47  101.93   0
  -5   6  -2 2519.27  102.42   0
   5  -6   2 2608.66  103.16   0
   5  -6   2 2455.44  102.74   0
   5  -6   2 2597.49  101.88   0
  -6   6  -2  118.15   12.19   0
  -6   6  -2  125.47   12.07   0
  -6   6  -2  134.08   11.38   0
   6  -6   2  142.50   10.76   0
   6  -6   2  117.44   11.94   0
   6  -6   2  121.76    9.86   0
  -7   6  -2   29.09    7.72   0
  -7   6  -2   17.76    5.83   0
   7  -6   2   20.79    6.60   0
   7  -6   2   14.45    4.45   0
   7  -6   2   16.70    5.95   0
   7  -6   2   35.91    8.28   0
  -7  -5   2  113.36   10.97   0
  -7  -5   2  135.12   10.33   0
  -6  -5   2    1.02    2.95   0
  -6  -5   2   -0.19    3.23   0
  -5  -5   2  732.25   28.62   0
  -5  -5   2  723.04   28.43   0
  -5  -5   2  677.02   29.54   0
  -5  -5   2  681.64   29.13   0
  -4  -5   2  997.01   39.45   0
  -4  -5   2  981.89   39.69   0
  -3  -5   2  409.38   17.29   0
  -3  -5   2  419.84   17.29   0
  -2  -5   2  818.80   34.82   0
  -2  -5   2  825.25   32.72   0
  -2  -5   2  835.38   32.82   0
  -1  -5   2 3741.30  141.07   0
  -1  -5   2 3568.08  142.64   0
  -1  -5   2 3704.46  140.74   0
   0  -5   2   18.71    3.47   0
   0  -5   2   11.52    1.87   0
   0  -5   2   15.14    2.69   0
  -1   5  -2 6982.60  269.64   0
   1  -5   2 7009.15  269.23   0
   1  -5   2 7241.60  268.58   0
   1  -5   2 6849.74  269.86   0
  -2   5  -2  813.17   32.91   0
  -2   5  -2  781.79   32.52   0
  -2   5  -2  817.59   33.88   0
   2  -5   2  766.97   33.52   0
   2  -5   2  772.21   33.92   0
   2  -5   2  835.27   32.99   0
  -3   5  -2 1025.25   42.62   0
  -3   5  -2 1026.45   43.12   0
  -3   5  -2 1020.79   42.20   0
   3  -5   2 1063.45   42.46   0
   3  -5   2 1044.99   43.20   0
   3  -5   2 1028.52   43.38   0
  -4   5  -2  244.50   12.87   0
  -4   5  -2  248.66   13.51   0
  -4   5  -2  235.38   13.50   0
   4  -5   2  250.16   12.85   0
   4  -5   2  231.22   13.54   0
   4  -5   2  241.67   13.70   0
  -5   5  -2  621.61   29.13   0
  -5   5  -2  662.93   29.17   0
   5  -5   2  638.47   29.39   0
   5  -5   2  650.90   28.43   0
   5  -5   2  601.66   29.15   0
  -6   5  -2  773.77   35.96   0
  -6   5  -2  844.91   35.66   0
  -6   5  -2  802.43   35.66   0
   6  -5   2  792.90   36.04   0
   6  -5   2  753.12   34.72   0
   6  -5   2  766.94   33.97   0
   6  -5   2  790.35   36.02   0
  -7   5  -2  377.36   21.92   0
  -7   5  -2  439.02   23.42   0
  -7   5  -2  430.06   22.04   0
   7  -5   2  388.59   21.08   0
   7  -5   2  395.78   22.54   0
   7  -5   2  393.42   19.70   0
   7  -5   2  387.74   22.43   0
  -8   5  -2   41.21    7.57   0
  -8   5  -2   47.30    9.52   0
   8  -5   2   46.55    9.07   0
   8  -5   2   51.50    8.28   0
  -8  -4   2   85.35   12.66   0
  -8  -4   2   99.92   12.87   0
  -8  -4   2   73.64   11.16   0
  -7  -4   2    5.64    4.62   0
  -7  -4   2    1.72    4.05   0
  -6  -4   2   78.32    7.12   0
  -6  -4   2   86.37    7.65   0
  -5  -4   2   78.54    5.94   0
  -5  -4   2   85.22    4.62   0
  -5  -4   2   84.78    4.42   0
  -4  -4   2   94.88    5.51   0
  -4  -4   2   84.19    5.50   0
  -3  -4   2 3581.79  140.47   0
  -3  -4   2 3756.44  140.42   0
  -2  -4   2  655.24   25.68   0
  -2  -4   2  650.12   25.66   0
  -1  -4   2 2545.52  102.48   0
  -1  -4   2 2717.45  100.85   0
   0  -4   2  921.69   35.95   0
   0  -4   2  886.46   37.33   0
   0  -4   2  929.64   36.41   0
  -1   4  -2  526.56   20.98   0
  -1   4  -2  540.92   22.48   0
  -1   4  -2  485.54   21.11   0
   1  -4   2  521.90   21.34   0
   1  -4   2  498.77   22.34   0
   1  -4   2  520.25   21.91   0
  -2   4  -2 3542.77  135.74   0
  -2   4  -2 3517.77  136.33   0
  -2   4  -2 3643.20  135.48   0
   2  -4   2 3428.99  136.06   0
   2  -4   2 3437.48  136.37   0
  -3   4  -2 1362.76   54.70   0
  -3   4  -2 1331.06   54.27   0
  -3   4  -2 1382.59   55.01   0
   3  -4   2 1350.77   54.93   0
   3  -4   2 1331.59   54.96   0
   3  -4   2 1402.76   54.47   0
  -4   4  -2 1047.60   43.44   0
  -4   4  -2 1015.50   42.81   0
  -4   4  -2 1049.75   43.37   0
   4  -4   2 1043.58   43.45   0
   4  -4   2 1057.18   43.54   0
   4  -4   2 1033.73   42.80   0
  -5   4  -2  525.43   23.42   0
  -5   4  -2  504.24   22.98   0
  -5   4  -2  498.27   23.50   0
   5  -4   2  463.61   21.81   0
   5  -4   2  495.71   23.36   0
   5  -4   2  504.32   22.69   0
   5  -4   2  465.97   23.17   0
  -6   4  -2 1216.88   49.00   0
  -6   4  -2 1122.84   49.25   0
  -6   4  -2 1143.39   48.84   0
   6  -4   2 1092.07   47.01   0
   6  -4   2 1143.00   49.18   0
   6  -4   2 1149.84   49.19   0
   6  -4   2 1191.32   48.38   0
  -7   4  -2  163.86   13.79   0
  -7   4  -2  151.18   12.60   0
   7  -4   2  168.77   13.20   0
   7  -4   2  150.79   11.33   0
   7  -4   2  146.65    9.85   0
  -8   4  -2  857.77   39.63   0
  -8   4  -2  854.89   39.54   0
  -8   4  -2  880.61   40.87   0
   8  -4   2  822.79   36.18   0
   8  -4   2  815.63   38.59   0
   8  -4   2  893.24   40.19   0
  -8  -3   2   22.76    6.85   0
  -8  -3   2   25.03    5.96   0
  -8  -3   2   16.22    6.65   0
  -7  -3   2  587.11   26.73   0
  -7  -3   2  554.11   25.84   0
  -6  -3   2  285.95   14.76   0
  -6  -3   2  287.55   14.34   0
  -5  -3   2  307.03   14.09   0
  -5  -3   2  281.47   13.62   0
  -4  -3   2   76.62    4.96   0
  -4  -3   2   79.24    4.87   0
  -4  -3   2   74.56    4.12   0
  -3  -3   2  237.86   10.23   0
  -3  -3   2  238.68   10.14   0
  -2  -3   2 1970.03   74.26   0
  -2  -3   2 1916.75   74.22   0
  -1  -3   2 2027.53   80.60   0
  -1  -3   2 2125.27   79.05   0
  -1  -3   2 2059.22   79.08   0
   0   3  -2   21.70    3.00   0
   0  -3   2   32.67    2.04   0
   0  -3   2   30.94    2.47   0
   0  -3   2   24.57    3.08   0
  -1   3  -2   19.82    2.09   0
  -1   3  -2   15.64    1.81   0
   1  -3   2   11.65    2.13   0
   1  -3   2   15.20    1.81   0
  -2   3  -2 1356.29   53.51   0
  -2   3  -2 1347.98   53.87   0
  -2   3  -2 1360.57   53.26   0
   2  -3   2 1333.87   53.32   0
   2  -3   2 1335.65   53.87   0
   2  -3   2 1394.06   53.78   0
  -3   3  -2 1019.33   41.04   0
  -3   3  -2 1059.99   41.63   0
   3  -3   2  961.63   41.32   0
   3  -3   2 1038.85   41.12   0
   3  -3   2 1001.35   41.43   0
  -4   3  -2 2799.68  110.09   0
  -4   3  -2 2819.91  110.54   0
  -4   3  -2 2875.09  110.46   0
   4  -3   2 2808.44  110.49   0
   4  -3   2 2774.93  110.45   0
   4  -3   2 2836.46  110.07   0
  -5   3  -2  778.89   33.34   0
  -5   3  -2  743.62   33.10   0
  -5   3  -2  782.30   33.71   0
   5  -3   2  806.93   33.09   0
   5  -3   2  764.58   33.51   0
   5  -3   2  772.37   33.57   0
   5  -3   2  763.18   32.01   0
  -6   3  -2   10.21    3.58   0
  -6   3  -2   11.54    3.79   0
  -6   3  -2    6.18    3.26   0
   6  -3   2    5.78    3.47   0
   6  -3   2    9.43    3.21   0
   6  -3   2    5.13    3.75   0
   6  -3   2   14.60    2.96   0
  -7   3  -2 1792.38   72.09   0
  -7   3  -2 1724.29   72.73   0
  -7   3  -2 1754.85   72.14   0
   7  -3   2 1784.07   71.60   0
   7  -3   2 1739.37   69.59   0
   7  -3   2 1725.74   72.26   0
  -8   3  -2  141.39   14.81   0
  -8   3  -2  149.64   13.20   0
  -8   3  -2  140.91   12.63   0
   8  -3   2  137.07   11.72   0
   8  -3   2  122.94    8.73   0
   8  -3   2  124.75   12.89   0
  -8  -2   2   74.48   11.38   0
  -8  -2   2   77.99   10.49   0
  -8  -2   2   67.78    9.72   0
  -7  -2   2   96.24    9.19   0
  -7  -2   2   93.75    9.37   0
  -7  -2   2   94.51    8.78   0
  -6  -2   2  415.79   19.21   0
  -6  -2   2  392.87   18.82   0
  -5  -2   2 2094.10   81.47   0
  -5  -2   2 2053.09   81.17   0
  -4  -2   2   23.97    3.00   0
  -4  -2   2   20.73    2.98   0
  -3  -2   2 1695.36   66.16   0
  -3  -2   2 1716.91   66.02   0
  -3  -2   2 1724.76   65.79   0
  -1  -2   2   65.93    4.04   0
   0   2  -2 1736.56   67.73   0
   0  -2   2 1768.98   66.75   0
   0  -2   2 1777.74   67.76   0
   0  -2   2 1693.57   66.85   0
  -1   2  -2  435.20   18.28   0
  -1   2  -2  448.86   17.58   0
  -1   2  -2  436.25   17.72   0
   1  -2   2  437.61   17.70   0
   1  -2   2  427.89   17.85   0
   1  -2   2  429.73   18.20   0
  -2   2  -2   96.00    5.09   0
  -2   2  -2   93.98    5.27   0
  -2   2  -2   82.92    5.23   0
   2  -2   2   94.04    5.30   0
   2  -2   2   90.05    5.33   0
   2  -2   2   85.65    4.97   0
  -3   2  -2 2670.02  102.46   0
  -3   2  -2 2691.80  102.53   0
  -3   2  -2 2569.95  102.11   0
   3  -2   2 2519.72  102.06   0
   3  -2   2 2609.55  102.41   0
   3  -2   2 2736.16  102.51   0
  -4   2  -2   11.74    2.47   0
  -4   2  -2   15.99    2.98   0
  -4   2  -2   18.28    3.29   0
   4  -2   2   14.88    2.77   0
   4  -2   2   16.72    3.36   0
   4  -2   2   17.04    3.07   0
   4  -2   2   21.99    2.79   0
  -5   2  -2 1989.97   80.99   0
  -5   2  -2 2088.31   81.23   0
  -5   2  -2 2128.99   81.71   0
   5  -2   2 2064.52   81.42   0
   5  -2   2 2067.29   80.92   0
   5  -2   2 1990.51   81.24   0
   5  -2   2 1959.88   79.62   0
  -6   2  -2    6.01    3.07   0
  -6   2  -2   15.59    4.05   0
  -6   2  -2    8.07    3.52   0
   6  -2   2    6.52    2.15   0
   6  -2   2    5.27    2.81   0
   6  -2   2    4.40    3.01   0
  -7   2  -2  346.92   18.32   0
  -7   2  -2  329.82   18.08   0
  -7   2  -2  341.90   18.99   0
   7  -2   2  353.51   18.56   0
   7  -2   2  331.80   17.48   0
   7  -2   2  334.69   15.47   0
  -8   2  -2  920.07   43.63   0
  -8   2  -2  972.65   43.00   0
  -8   2  -2  929.43   42.53   0
   8  -2   2  916.61   39.08   0
   8  -2   2  967.22   42.06   0
   8  -2   2 1081.00   43.58   0
  -9   2  -2  442.83   26.00   0
  -9   2  -2  473.48   25.91   0
   9  -2   2  457.91   25.65   0
   9  -2   2  510.51   25.03   0
   9  -2   2  449.84   20.23   0
  -8  -1   2  120.49   11.59   0
  -8  -1   2  132.04   12.57   0
  -8  -1   2  110.32   11.49   0
   7   1  -2  423.50   17.78   0
   7   1  -2  413.41   17.59   0
  -7  -1   2  437.14   21.02   0
  -7  -1   2  445.83   21.26   0
  -7  -1   2  436.00   21.46   0
   6   1  -2  245.12   10.81   0
   6   1  -2  242.45   10.62   0
  -6  -1   2  238.01   13.03   0
  -6  -1   2  259.43   13.45   0
  -6  -1   2  252.27   13.24   0
   5   1  -2   65.67    3.82   0
   5   1  -2   64.96    3.63   0
  -5  -1   2   61.04    5.43   0
  -5  -1   2   61.47    5.37   0
  -4  -1   2 4525.25  171.50   0
  -4  -1   2 4402.92  171.28   0
  -3  -1   2  637.06   25.18   0
  -3  -1   2  623.23   25.26   0
  -2  -1   2 1996.07   76.18   0
  -2  -1   2 1965.35   76.13   0
  -2  -1   2 2011.46   76.08   0
  -1  -1   2 1225.09   47.31   0
   0   1  -2 1326.64   50.91   0
   0  -1   2 1320.75   50.85   0
   0  -1   2 1282.37   50.16   0
   0  -1   2 1326.43   50.85   0
  -1   1  -2 4485.31  181.10   0
  -2   1  -2 1150.46   44.74   0
  -2   1  -2 1133.66   44.52   0
  -2   1  -2 1132.01   44.78   0
   2  -1   2 1136.94   44.38   0
   2  -1   2 1137.06   44.59   0
   2  -1   2 1133.43   44.73   0
   2  -1   2 1118.81   44.67   0
  -3   1  -2  600.59   24.82   0
  -3   1  -2  577.15   24.59   0
  -3   1  -2  594.40   24.91   0
   3  -1   2  609.13   24.87   0
   3  -1   2  578.84   24.58   0
   3  -1   2  613.64   24.14   0
   3  -1   2  594.61   24.86   0
  -4   1  -2 1818.72   73.14   0
  -4   1  -2 1885.20   73.48   0
  -4   1  -2 1859.39   73.10   0
   4  -1   2 1820.48   72.05   0
   4  -1   2 1878.95   73.39   0
   4  -1   2 1875.84   73.31   0
   4  -1   2 1847.79   73.01   0
  -5   1  -2 1074.42   42.90   0
  -5   1  -2  980.16   42.19   0
  -5   1  -2 1034.95   42.41   0
   5  -1   2 1025.98   42.49   0
   5  -1   2 1028.95   42.16   0
   5  -1   2 1011.01   40.78   0
  -6   1  -2  136.61    9.70   0
  -6   1  -2  146.77    9.71   0
  -6   1  -2  159.73   10.63   0
   6  -1   2  144.37    7.77   0
   6  -1   2  176.18   10.47   0
   6  -1   2  145.30    9.33   0
  -7   1  -2  332.42   17.62   0
  -7   1  -2  344.09   18.54   0
  -7   1  -2  334.93   17.66   0
   7  -1   2  343.81   14.75   0
   7  -1   2  358.68   17.87   0
   7  -1   2  275.29   16.37   0
  -8   1  -2   39.47    7.81   0
  -8   1  -2   37.96    6.45   0
  -8   1  -2   24.74    5.74   0
   8  -1   2   38.56    4.40   0
   8  -1   2   30.39    5.71   0
   8  -1   2   38.87    5.81   0
  -9   1  -2  296.08   19.72   0
  -9   1  -2  306.61   19.86   0
   9  -1   2  292.71   19.06   0
   9  -1   2  297.47   17.88   0
   8   0  -2  586.64   24.18   0
   8   0  -2  536.06   24.46   0
  -8   0   2  584.55   28.62   0
  -8   0   2  567.67   28.02   0
  -8   0   2  576.76   27.01   0
   7   0  -2   22.45    3.80   0
  -7   0   2   27.13    5.29   0
  -7   0   2   22.65    4.78   0
  -7   0   2   26.05    5.44   0
   6   0  -2  590.49   25.85   0
   6   0  -2  630.49   25.52   0
  -6   0   2  616.62   27.35   0
  -6   0   2  630.55   27.59   0
  -6   0   2  626.34   26.98   0
   5   0  -2  377.75   16.46   0
   5   0  -2  368.22   16.03   0
  -5   0   2  378.01   17.36   0
  -5   0   2  383.24   17.26   0
  -5   0   2  392.48   17.63   0
   4   0  -2 1101.80   44.03   0
   4   0  -2 1134.51   43.77   0
  -4   0   2 1099.73   44.58   0
  -4   0   2 1149.09   44.86   0
  -4   0   2 1111.62   44.65   0
  -3   0   2 6515.90  268.43   0
  -3   0   2 6732.32  268.34   0
   2   0  -2 2045.15   78.04   0
  -2   0   2 2046.24   78.50   0
  -2   0   2 2046.29   78.56   0
   1   0  -2 1508.59   57.34   0
  -1   0   2 1457.93   57.30   0
  -1   0   2 1519.58   57.10   0
   0   0  -2   58.43    2.79   0
   0   0  -2   64.16    3.04   0
   0   0  -2   58.18    2.53   0
   0   0   2   62.32    3.00   0
   0   0   2   57.92    2.75   0
   0   0   2   60.69    2.66   0
  -1   0  -2 6862.47  275.71   0
   1   0   2 7173.70  276.64   0
  -2   0  -2  431.73   18.55   0
  -2   0  -2  442.28   18.60   0
  -2   0  -2  464.82   18.50   0
  -2   0  -2  447.20   18.20   0
   2   0   2  444.64   18.52   0
   2   0   2  443.16   18.56   0
   2   0   2  470.77   18.21   0
   2   0   2  462.92   18.65   0
  -3   0  -2 2699.40  104.82   0
  -3   0  -2 2704.08  104.53   0
  -3   0  -2 2704.30  104.74   0
   3   0   2 2690.94  104.72   0
   3   0   2 2695.28  104.58   0
   3   0   2 2736.79  103.87   0
  -4   0  -2   12.93    2.54   0
  -4   0  -2    9.42    2.04   0
   4   0   2   17.39    3.19   0
   4   0   2   13.48    1.99   0
  -5   0  -2  167.30    9.44   0
  -5   0  -2  169.78    9.87   0
  -5   0  -2  168.89    9.66   0
   5   0   2  168.05    9.26   0
   5   0   2  158.94    9.46   0
   5   0   2  168.29    7.96   0
  -6   0  -2 1485.76   61.05   0
  -6   0  -2 1476.97   60.84   0
   6   0   2 1499.47   58.60   0
   6   0   2 1557.45   60.71   0
   6   0   2 1490.40   60.91   0
  -7   0  -2    6.73    3.97   0
  -7   0  -2   15.12    4.44   0
  -7   0  -2    8.00    3.57   0
   7   0   2   12.97    3.82   0
   7   0   2    6.60    2.97   0
   7   0   2    8.22    1.91   0
  -8   0  -2  347.93   18.81   0
  -8   0  -2  379.66   20.26   0
   8   0   2  296.21   17.03   0
   8   0   2  310.76   13.79   0
  -9   0  -2   17.38    6.67   0
  -9   0  -2   17.31    8.33   0
  -9   0  -2    3.52    6.25   0
   9   0   2   12.60    5.26   0
   7  -1  -2  653.15   28.16   0
   7  -1  -2  701.21   27.52   0
  -7   1   2  674.36   30.07   0
  -7   1   2  638.95   29.63   0
  -7   1   2  542.75   27.97   0
   6  -1  -2  666.09   26.82   0
   6  -1  -2  597.31   27.25   0
  -6   1   2  628.77   27.43   0
  -6   1   2  650.42   28.44   0
  -6   1   2  640.39   28.53   0
   5  -1  -2  361.52   15.98   0
   5  -1  -2  362.35   16.57   0
  -5   1   2  375.47   16.58   0
  -5   1   2  344.83   17.00   0
  -5   1   2  381.21   17.37   0
  -4   1   2   17.82    3.15   0
   3  -1  -2 2332.88   87.75   0
   3  -1  -2 2193.35   86.49   0
   3  -1  -2 2271.29   87.34   0
  -3   1   2 2239.50   87.78   0
  -3   1   2 2329.39   87.98   0
  -3   1   2 2234.13   87.40   0
   2  -1  -2  250.04   10.03   0
   2  -1  -2  218.19    9.27   0
  -2   1   2  219.07    9.55   0
  -2   1   2  225.68   10.03   0
  -2   1   2  239.20    9.99   0
   1  -1  -2 4988.81  201.67   0
  -1   1   2 5053.49  201.13   0
   0  -1  -2 1060.85   41.90   0
   0  -1  -2 1120.63   41.99   0
   0  -1  -2 1078.02   42.06   0
   0   1   2 1093.15   41.96   0
   0   1   2 1041.82   41.90   0
   0   1   2 1133.20   42.09   0
  -1  -1  -2  139.59    6.27   0
  -1  -1  -2  142.23    6.35   0
  -1  -1  -2  142.38    6.19   0
   1   1   2  141.71    6.30   0
   1   1   2  139.45    6.30   0
   1   1   2  146.43    6.18   0
  -2  -1  -2 7095.66  291.42   0
   2   1   2 7473.62  292.38   0
  -3  -1  -2    6.94    1.77   0
  -3  -1  -2    8.43    1.77   0
  -3  -1  -2    9.42    1.44   0
   3   1   2    9.07    1.63   0
   3   1   2    5.48    1.05   0
  -4  -1  -2 4441.67  159.11   0
  -4  -1  -2 3787.38  160.26   0
  -4  -1  -2 3510.15  160.14   0
  -4  -1  -2 4287.75  160.22   0
   4   1   2 4315.42  160.35   0
   4   1   2 4605.04  160.38   0
  -5  -1  -2  136.21    8.09   0
  -5  -1  -2  130.01    8.39   0
  -5  -1  -2  132.84    8.57   0
   5   1   2  135.76    7.89   0
   5   1   2  138.16    6.47   0
   5   1   2  127.61    8.06   0
  -6  -1  -2  695.35   30.83   0
  -6  -1  -2  707.55   31.15   0
  -6  -1  -2  683.75   30.38   0
   6   1   2  698.33   27.99   0
   6   1   2  690.79   30.28   0
   6   1   2  748.16   30.29   0
  -7  -1  -2 1260.34   53.39   0
  -7  -1  -2 1214.14   52.50   0
  -7  -1  -2 1285.40   53.05   0
   7   1   2 1239.14   49.09   0
   7   1   2 1240.05   52.22   0
   7   1   2 1352.82   52.16   0
  -8  -1  -2  614.22   30.42   0
  -8  -1  -2  609.46   29.60   0
  -8  -1  -2  628.25   29.53   0
   8   1   2  635.55   28.93   0
   8   1   2  632.11   28.28   0
  -9  -1  -2   51.63    9.23   0
  -9  -1  -2   43.10    8.65   0
  -9  -1  -2   27.31    6.90   0
   9   1   2   33.12    5.61   0
   8  -2  -2  143.31   11.42   0
   8  -2  -2  142.07   10.09   0
  -8   2   2  133.94   13.49   0
  -8   2   2  132.19   11.40   0
  -8   2   2  153.32   14.16   0
   7  -2  -2   92.79    7.42   0
   7  -2  -2  102.61    8.99   0
  -7   2   2  100.50    8.65   0
  -7   2   2   93.10    9.60   0
  -7   2   2  112.11   10.19   0
   6  -2  -2   11.80    3.41   0
   6  -2  -2   14.41    2.90   0
  -6   2   2   14.13    3.38   0
  -6   2   2   15.78    3.77   0
  -6   2   2   12.90    3.58   0
   5  -2  -2 1951.96   76.82   0
   5  -2  -2 2011.07   78.48   0
   5  -2  -2 2016.55   79.24   0
  -5   2   2 2011.48   79.69   0
  -5   2   2 2024.57   79.56   0
  -5   2   2 1997.12   78.59   0
   4  -2  -2  859.88   34.63   0
   4  -2  -2  834.90   35.19   0
  -4   2   2  870.92   34.60   0
  -4   2   2  873.41   35.54   0
  -4   2   2  846.63   35.33   0
   3  -2  -2   49.48    4.00   0
   3  -2  -2   54.34    3.65   0
  -3   2   2   38.83    3.76   0
  -3   2   2   43.85    3.94   0
  -3   2   2   58.15    3.49   0
   2  -2  -2  605.63   24.79   0
   2  -2  -2  600.05   24.17   0
   2  -2  -2  614.00   24.41   0
  -2   2   2  618.23   24.66   0
  -2   2   2  598.94   24.78   0
  -2   2   2  608.63   24.05   0
   1  -2  -2    5.51    0.98   0
   1  -2  -2    5.72    1.18   0
   1  -2  -2    5.90    0.95   0
  -1   2   2    3.71    0.72   0
   0   2   2 9391.73  368.79   0
  -1  -2  -2   20.47    1.85   0
  -1  -2  -2   21.03    1.76   0
  -1  -2  -2   20.11    1.58   0
   1   2   2   20.01    1.60   0
   1   2   2   25.98    1.94   0
   1   2   2   19.71    1.72   0
  -2  -2  -2 1712.87   65.56   0
  -2  -2  -2 1710.04   65.18   0
  -2  -2  -2 1664.05   65.68   0
   2   2   2 1650.08   65.50   0
   2   2   2 1670.33   65.12   0
   2   2   2 1739.75   65.65   0
  -3  -2  -2 5701.42  238.65   0
   3   2   2 5795.36  239.86   0
  -4  -2  -2 2846.93  110.05   0
  -4  -2  -2 2834.98  108.89   0
   4   2   2 2703.03  109.87   0
   4   2   2 2955.08  110.06   0
   4   2   2 2849.87  108.78   0
  -5  -2  -2 1728.55   71.00   0
  -5  -2  -2 1778.36   69.39   0
  -5  -2  -2 1853.89   71.72   0
  -5  -2  -2 1849.92   71.76   0
   5   2   2 1741.34   69.22   0
   5   2   2 1773.92   70.89   0
   5   2   2 1844.43   70.93   0
  -6  -2  -2  870.36   36.90   0
  -6  -2  -2  818.88   36.04   0
  -6  -2  -2  856.69   36.78   0
   6   2   2  893.28   35.76   0
   6   2   2  841.57   33.51   0
   6   2   2  851.29   35.79   0
  -7  -2  -2  168.12   12.00   0
  -7  -2  -2  180.25   11.57   0
  -7  -2  -2  177.66   12.05   0
   7   2   2  162.52   10.69   0
   7   2   2  179.99   10.40   0
  -8  -2  -2  171.25   12.65   0
  -8  -2  -2  166.34   13.30   0
  -8  -2  -2  153.40   12.70   0
   8   2   2  155.98   11.12   0
   8   2   2  164.62   10.64   0
  -9  -2  -2  331.88   21.68   0
  -9  -2  -2  324.43   20.91   0
  -9  -2  -2  314.52   19.85   0
   9   2   2  327.82   18.10   0
   9   2   2  327.31   17.43   0
   8  -3  -2  385.64   21.49   0
   8  -3  -2  427.07   20.23   0
  -8   3   2  386.45   20.82   0
  -8   3   2  388.09   22.93   0
  -8   3   2  407.46   23.52   0
   7  -3  -2  587.38   28.15   0
   7  -3  -2  641.27   27.06   0
   7  -3  -2  594.39   24.14   0
   7  -3  -2  583.84   23.96   0
  -7   3   2  591.24   28.81   0
  -7   3   2  614.05   29.05   0
  -7   3   2  613.93   27.36   0
   6  -3  -2   63.75    7.26   0
   6  -3  -2   68.88    4.30   0
  -6   3   2   82.92    6.82   0
  -6   3   2   63.67    7.75   0
  -6   3   2   81.83    8.15   0
   5  -3  -2  432.97   20.86   0
   5  -3  -2  454.64   20.04   0
  -5   3   2  452.98   21.06   0
  -5   3   2  460.44   21.24   0
  -5   3   2  456.47   20.02   0
   4  -3  -2 3311.28  128.40   0
   4  -3  -2 3295.77  128.54   0
   4  -3  -2 3212.48  129.06   0
  -4   3   2 3290.18  129.07   0
  -4   3   2 3424.20  129.35   0
  -4   3   2 3379.55  128.21   0
   3  -3  -2 1536.54   59.54   0
   3  -3  -2 1552.20   59.60   0
   3  -3  -2 1461.64   60.12   0
  -3   3   2 1503.16   59.95   0
  -3   3   2 1522.81   59.26   0
   2  -3  -2  141.95    7.46   0
   2  -3  -2  132.13    6.62   0
   2  -3  -2  127.98    6.69   0
  -2   3   2  134.46    7.21   0
  -2   3   2  137.73    7.03   0
  -2   3   2  136.14    6.49   0
   1  -3  -2 1415.96   55.61   0
   1  -3  -2 1479.53   56.29   0
   1  -3  -2 1393.75   55.50   0
  -1   3   2 1440.38   55.34   0
  -1   3   2 1456.92   55.99   0
  -1   3   2 1385.50   55.65   0
   0  -3  -2 1685.26   66.22   0
   0  -3  -2 1725.86   66.70   0
   0   3   2 1727.04   66.22   0
  -1  -3  -2 6262.06  254.46   0
   1   3   2 6242.10  254.56   0
  -2  -3  -2 1241.63   47.34   0
  -2  -3  -2 1222.89   47.64   0
  -2  -3  -2 1236.20   47.76   0
   2   3   2 1123.24   47.37   0
   2   3   2 1251.21   47.71   0
  -3  -3  -2  257.33   11.76   0
  -3  -3  -2  247.58   10.84   0
  -3  -3  -2  269.09   11.54   0
   3   3   2  253.18   11.43   0
   3   3   2  238.13   11.20   0
  -4  -3  -2  520.59   20.12   0
  -4  -3  -2  431.98   21.22   0
  -4  -3  -2  504.92   21.13   0
   4   3   2  482.48   20.76   0
   4   3   2  527.60   21.06   0
  -5  -3  -2 2619.97   96.39   0
  -5  -3  -2 2493.97   95.57   0
  -5  -3  -2 2515.72   93.96   0
   5   3   2 2354.51   94.99   0
   5   3   2 2216.22   94.90   0
  -6  -3  -2  123.55    9.35   0
  -6  -3  -2  122.12    8.56   0
  -6  -3  -2  129.19    6.06   0
   6   3   2  110.51    7.78   0
   6   3   2  120.21    7.68   0
  -7  -3  -2  432.40   21.33   0
  -7  -3  -2  377.93   19.95   0
  -7  -3  -2  479.06   21.64   0
   7   3   2  340.60   18.48   0
   7   3   2  432.76   19.18   0
  -8  -3  -2   31.10    6.45   0
  -8  -3  -2   48.85    8.58   0
  -8  -3  -2   33.08    7.02   0
   8   3   2   38.02    6.28   0
   8   3   2   37.00    6.68   0
  -9  -3  -2   -3.49    5.59   0
  -9  -3  -2   -9.30    6.57   0
  -9  -3  -2   -2.88    6.38   0
   9   3   2   -2.98    4.27   0
   9   3   2   -5.98    4.04   0
   8  -4  -2 1191.56   50.30   0
   8  -4  -2 1333.03   53.97   0
   8  -4  -2 1431.05   56.18   0
  -8   4   2 1216.46   56.53   0
  -8   4   2 1296.86   56.42   0
  -8   4   2 1255.67   54.17   0
   7  -4  -2 1322.97   51.91   0
   7  -4  -2 1168.00   49.34   0
   7  -4  -2 1244.61   49.24   0
   7  -4  -2 1166.33   52.81   0
  -7   4   2 1222.56   53.66   0
  -7   4   2 1251.49   51.82   0
  -7   4   2 1354.90   54.06   0
   6  -4  -2  754.33   32.21   0
   6  -4  -2  740.06   33.43   0
  -6   4   2  755.46   33.81   0
  -6   4   2  757.83   32.16   0
  -6   4   2  728.98   33.48   0
   5  -4  -2   25.72    4.32   0
   5  -4  -2   25.33    4.21   0
   5  -4  -2   32.39    5.79   0
  -5   4   2   29.25    4.95   0
  -5   4   2   35.91    5.22   0
  -5   4   2   30.23    4.65   0
   4  -4  -2 1271.21   53.24   0
   4  -4  -2 1262.36   52.43   0
   4  -4  -2 1298.78   52.31   0
  -4   4   2 1331.29   53.10   0
  -4   4   2 1353.42   53.35   0
  -4   4   2 1313.50   52.09   0
   3  -4  -2  872.64   37.76   0
   3  -4  -2  946.17   37.04   0
   3  -4  -2  858.47   36.86   0
  -3   4   2  919.57   36.70   0
  -3   4   2  968.68   37.54   0
  -3   4   2  897.17   37.57   0
   2  -4  -2 3869.84  147.73   0
   2  -4  -2 3844.17  148.57   0
   2  -4  -2 3689.61  147.64   0
  -2   4   2 3955.62  147.49   0
  -2   4   2 3874.51  148.20   0
  -2   4   2 3794.04  147.88   0
   1  -4  -2  101.15    5.78   0
   1  -4  -2  111.14    6.75   0
   1  -4  -2  107.31    6.14   0
  -1   4   2  127.29    6.49   0
  -1   4   2  115.01    6.05   0
  -1   4   2  106.87    5.86   0
   0  -4  -2  153.58    7.64   0
   0  -4  -2  149.25    7.35   0
   0  -4  -2  171.56    8.15   0
   0   4   2  140.97    7.25   0
  -1  -4  -2 3593.64  132.05   0
  -1  -4  -2 3256.61  131.65   0
   1   4   2 3187.26  131.44   0
   1   4   2 3682.36  132.01   0
  -2  -4  -2   62.75    3.81   0
  -2  -4  -2   62.40    4.17   0
  -2  -4  -2   59.65    4.01   0
   2   4   2   64.10    4.06   0
   2   4   2   61.50    3.80   0
  -3  -4  -2 1959.17   76.91   0
  -3  -4  -2 1997.75   77.21   0
  -3  -4  -2 1969.54   76.40   0
   3   4   2 1909.14   76.47   0
   3   4   2 2033.10   76.83   0
  -4  -4  -2   19.49    2.37   0
  -4  -4  -2   18.24    3.32   0
  -4  -4  -2   15.71    2.80   0
   4   4   2   19.44    2.85   0
   4   4   2   21.23    3.01   0
  -5  -4  -2   14.06    3.22   0
  -5  -4  -2   16.32    2.15   0
  -5  -4  -2    8.71    2.60   0
   5   4   2   12.70    2.42   0
  -6  -4  -2 1426.68   55.80   0
  -6  -4  -2 1396.41   57.95   0
  -6  -4  -2 1480.78   59.04   0
   6   4   2 1519.95   57.23   0
   6   4   2 1344.58   56.76   0
  -7  -4  -2   25.43    4.92   0
   7   4   2   19.69    3.39   0
   7   4   2   35.76    5.26   0
  -8  -4  -2  240.77   16.53   0
  -8  -4  -2  248.67   17.01   0
  -8  -4  -2  260.69   15.64   0
   8   4   2  230.26   12.83   0
   8   4   2  250.77   12.79   0
  -9  -4  -2   51.97    9.33   0
  -9  -4  -2   58.52    8.31   0
  -9  -4  -2   55.46   10.20   0
   9   4   2   59.17    7.70   0
   8  -5  -2  171.03   13.25   0
   8  -5  -2  148.13    9.74   0
   8  -5  -2  174.10   16.31   0
  -8   5   2  151.51   16.14   0
  -8   5   2  175.34   13.99   0
   7  -5  -2  618.74   30.94   0
   7  -5  -2  652.31   29.34   0
  -7   5   2  638.81   31.40   0
  -7   5   2  664.15   31.26   0
  -7   5   2  628.78   29.33   0
   6  -5  -2 1275.11   55.52   0
   6  -5  -2 1299.66   56.37   0
   6  -5  -2 1382.39   55.15   0
  -6   5   2 1344.39   56.34   0
  -6   5   2 1317.20   56.46   0
  -6   5   2 1408.92   55.03   0
   5  -5  -2  100.02    8.22   0
   5  -5  -2  111.00    9.12   0
   5  -5  -2  111.54    7.86   0
  -5   5   2  108.21    9.15   0
  -5   5   2   93.69    8.67   0
  -5   5   2  120.12    7.93   0
   4  -5  -2  150.87   10.32   0
   4  -5  -2  156.52    9.08   0
  -4   5   2  151.36    9.74   0
  -4   5   2  160.74   10.25   0
  -4   5   2  164.64    9.12   0
   3  -5  -2 1673.39   68.63   0
   3  -5  -2 1730.49   67.55   0
   3  -5  -2 1594.05   67.55   0
  -3   5   2 1744.80   67.99   0
  -3   5   2 1742.55   67.31   0
  -3   5   2 1746.97   68.24   0
   2  -5  -2  205.38    9.93   0
   2  -5  -2  208.16   11.13   0
   2  -5  -2  175.86    9.96   0
  -2   5   2  191.87   10.04   0
  -2   5   2  204.64   10.49   0
  -2   5   2  195.24    9.76   0
   1  -5  -2 7472.25  279.03   0
   1  -5  -2 6512.50  277.64   0
   1  -5  -2 6827.30  278.18   0
  -1   5   2 8256.22  278.56   0
   0  -5  -2  187.98    8.97   0
   0  -5  -2  206.99    9.93   0
   0  -5  -2  174.67    9.38   0
   0   5   2  167.24    8.72   0
  -1  -5  -2 1021.97   43.73   0
   1   5   2 1233.18   44.23   0
   1   5   2 1060.71   43.53   0
  -2  -5  -2 1976.71   80.20   0
  -2  -5  -2 2089.76   80.44   0
   2   5   2 2135.45   80.21   0
   2   5   2 2044.40   79.80   0
  -3  -5  -2 1131.10   43.40   0
  -3  -5  -2 1046.47   43.67   0
  -3  -5  -2 1087.61   43.90   0
   3   5   2 1117.18   43.45   0
   3   5   2 1077.62   43.08   0
  -4  -5  -2 1180.06   46.58   0
  -4  -5  -2 1154.72   45.32   0
  -4  -5  -2 1065.77   45.88   0
   4   5   2 1204.83   45.61   0
   4   5   2 1115.46   45.17   0
  -5  -5  -2    2.55    2.28   0
  -5  -5  -2    4.87    2.64   0
  -5  -5  -2    2.19    1.47   0
   5   5   2    3.83    1.82   0
   5   5   2    0.84    1.60   0
  -6  -5  -2   68.49    7.55   0
  -6  -5  -2   70.76    7.02   0
  -6  -5  -2   87.93    5.24   0
   6   5   2   74.94    5.63   0
   6   5   2   84.41    5.79   0
  -7  -5  -2  459.44   23.09   0
  -7  -5  -2  448.54   18.54   0
  -7  -5  -2  453.36   21.87   0
   7   5   2  494.41   19.91   0
   7   5   2  416.53   19.49   0
  -8  -5  -2  150.43   14.62   0
  -8  -5  -2  197.91   13.56   0
   8   5   2  181.93    9.72   0
   7  -6  -2  408.33   23.41   0
   7  -6  -2  428.67   22.54   0
   7  -6  -2  387.35   21.06   0
  -7   6   2  415.93   21.34   0
  -7   6   2  400.28   23.62   0
  -7   6   2  392.89   22.87   0
   6  -6  -2   38.57    7.04   0
   6  -6  -2   39.29    6.50   0
   6  -6  -2   39.31    6.71   0
  -6   6   2   41.34    7.38   0
  -6   6   2   36.06    6.62   0
   5  -6  -2 2174.06   91.01   0
   5  -6  -2 2317.76   89.63   0
   5  -6  -2 2132.93   89.89   0
  -5   6   2 2228.47   90.63   0
  -5   6   2 2278.15   89.29   0
  -5   6   2 2369.30   90.68   0
   4  -6  -2    7.49    2.49   0
   4  -6  -2   12.95    3.49   0
   4  -6  -2    3.57    3.56   0
  -4   6   2    6.09    3.02   0
  -4   6   2   13.59    3.34   0
  -4   6   2    5.79    3.40   0
   3  -6  -2  505.36   24.02   0
   3  -6  -2  471.04   22.77   0
   3  -6  -2  549.00   22.74   0
  -3   6   2  513.30   22.99   0
  -3   6   2  512.40   23.22   0
  -3   6   2  504.72   22.36   0
   2  -6  -2 1971.04   81.98   0
   2  -6  -2 2104.02   81.54   0
   2  -6  -2 2094.61   83.03   0
  -2   6   2 2026.53   81.60   0
  -2   6   2 2051.68   81.34   0
  -2   6   2 2188.85   82.07   0
   1  -6  -2 1035.82   42.00   0
   1  -6  -2 1018.18   42.72   0
   1  -6  -2 1109.23   43.55   0
  -1   6   2  994.92   41.88   0
   0  -6  -2 3977.39  151.09   0
   0  -6  -2 3895.34  151.79   0
   0  -6  -2 4173.15  152.13   0
   0   6   2 3623.77  150.67   0
  -1  -6  -2  681.88   28.26   0
   1   6   2  703.29   27.84   0
   1   6   2  616.16   27.11   0
  -2  -6  -2 1333.48   50.83   0
  -2  -6  -2 1071.45   50.19   0
   2   6   2 1352.14   50.37   0
   2   6   2 1311.90   49.92   0
  -3  -6  -2  235.95   11.13   0
  -3  -6  -2  233.78   11.53   0
  -3  -6  -2  214.16   11.40   0
   3   6   2  232.19   10.49   0
   3   6   2  230.79   10.78   0
  -4  -6  -2 2168.19   84.96   0
  -4  -6  -2 2204.75   83.96   0
  -4  -6  -2 2099.92   84.43   0
   4   6   2 2075.96   83.21   0
   4   6   2 2203.54   83.61   0
  -5  -6  -2    1.16    2.52   0
  -5  -6  -2    4.73    2.78   0
   5   6   2    6.56    1.91   0
  -6  -6  -2   10.58    3.80   0
  -6  -6  -2    3.21    2.11   0
  -6  -6  -2    4.44    3.27   0
   6   6   2    3.57    1.90   0
   6   6   2    2.90    1.83   0
  -7  -6  -2    0.23    4.36   0
  -7  -6  -2    5.02    2.26   0
  -7  -6  -2   -0.05    3.61   0
   7   6   2    2.21    1.94   0
   7   6   2    1.19    1.92   0
  -8  -6  -2  211.49   14.78   0
   6  -7  -2  186.57   14.66   0
   6  -7  -2  163.46   12.04   0
   6  -7  -2  148.08   13.21   0
  -6   7   2  159.61   13.99   0
  -6   7   2  167.29   13.67   0
  -6   7   2  165.78   12.15   0
   5  -7  -2   58.68    8.88   0
   5  -7  -2   82.39    7.96   0
   5  -7  -2   67.08   10.03   0
  -5   7   2   73.94    8.23   0
  -5   7   2   78.82    9.49   0
  -5   7   2   81.85    9.54   0
   4  -7  -2 1444.11   63.46   0
   4  -7  -2 1570.67   63.07   0
   4  -7  -2 1563.56   65.02   0
  -4   7   2 1493.61   62.72   0
  -4   7   2 1671.95   63.92   0
  -4   7   2 1575.61   63.91   0
   3  -7  -2  119.54   10.12   0
   3  -7  -2  119.09    8.03   0
   3  -7  -2  108.46    8.85   0
  -3   7   2  117.15    8.70   0
  -3   7   2  125.81    8.82   0
  -3   7   2   97.55    7.80   0
   2  -7  -2 1250.50   53.25   0
   2  -7  -2 1293.83   52.41   0
   2  -7  -2 1273.32   54.10   0
  -2   7   2 1325.96   52.48   0
  -2   7   2 1364.27   52.93   0
  -2   7   2 1258.81   52.45   0
   1  -7  -2 1337.38   55.01   0
   1  -7  -2 1354.57   53.52   0
   1  -7  -2 1314.75   54.50   0
  -1   7   2 1308.10   53.30   0
   0  -7  -2 3086.85  120.24   0
   0  -7  -2 3068.91  121.24   0
   0  -7  -2 3292.11  121.58   0
   0   7   2 2926.61  119.74   0
  -1  -7  -2  166.91    9.04   0
  -1  -7  -2  174.08   10.16   0
  -1  -7  -2  162.35    9.78   0
   1   7   2  152.75    8.39   0
  -2  -7  -2  932.30   38.30   0
   2   7   2  926.94   37.33   0
   2   7   2  939.98   37.76   0
  -3  -7  -2   48.36    5.11   0
  -3  -7  -2   51.67    4.93   0
  -3  -7  -2   50.27    5.38   0
   3   7   2   49.44    4.15   0
   3   7   2   65.04    4.62   0
  -4  -7  -2   17.78    3.60   0
  -4  -7  -2   14.96    2.88   0
  -4  -7  -2   11.38    3.01   0
   4   7   2   15.20    2.33   0
   4   7   2   17.28    3.00   0
  -5  -7  -2  851.92   36.99   0
  -5  -7  -2  900.53   36.19   0
  -5  -7  -2  894.75   37.79   0
   5   7   2  878.98   34.64   0
   5   7   2  871.61   34.73   0
  -6  -7  -2  467.11   22.72   0
  -6  -7  -2  488.04   21.20   0
  -6  -7  -2  505.26   23.87   0
  -7  -7  -2   -0.39    4.46   0
  -7  -7  -2    4.57    5.00   0
  -8  -7  -2    4.24    5.93   0
  -8  -7  -2    3.96    7.03   0
   6  -8  -2   -4.33    5.13   0
   6  -8  -2    1.97    6.31   0
  -6   8   2   18.16    6.45   0
  -6   8   2    2.20    5.05   0
  -6   8   2    7.44    6.68   0
   5  -8  -2   28.59    5.16   0
   5  -8  -2   33.95    7.18   0
  -5   8   2   30.52    5.93   0
  -5   8   2   40.02    6.11   0
   4  -8  -2  431.63   22.98   0
   4  -8  -2  454.47   21.87   0
   4  -8  -2  458.09   24.22   0
  -4   8   2  459.13   22.70   0
  -4   8   2  442.95   21.63   0
  -4   8   2  473.67   22.77   0
   3  -8  -2   53.74    6.20   0
   3  -8  -2   42.64    6.50   0
   3  -8  -2   44.70    6.97   0
  -3   8   2   45.96    6.58   0
  -3   8   2   41.33    6.90   0
  -3   8   2   39.45    5.97   0
   2  -8  -2  900.80   39.57   0
   2  -8  -2  883.53   40.22   0
   2  -8  -2  907.86   38.25   0
  -2   8   2  944.31   38.68   0
  -2   8   2  905.86   38.32   0
   1  -8  -2  176.98   11.67   0
   1  -8  -2  174.24   10.15   0
   1  -8  -2  178.17   12.19   0
  -1   8   2  167.57    9.96   0
   0  -8  -2   10.04    3.83   0
   0  -8  -2    9.71    2.86   0
   0  -8  -2    8.67    4.17   0
   0   8   2    9.77    3.18   0
   0   8   2    8.18    2.51   0
  -1  -8  -2 2891.62  112.37   0
  -1  -8  -2 3076.98  113.45   0
  -1  -8  -2 2969.38  113.71   0
   1   8   2 2733.84  111.79   0
   1   8   2 2699.01  111.29   0
  -2  -8  -2  679.89   29.60   0
  -2  -8  -2  702.33   30.28   0
  -2  -8  -2  693.11   31.06   0
   2   8   2  677.19   28.28   0
   2   8   2  700.09   28.73   0
  -3  -8  -2  521.82   23.89   0
  -3  -8  -2  524.93   24.03   0
   3   8   2  543.78   22.12   0
   3   8   2  553.58   22.40   0
  -4  -8  -2    0.67    2.71   0
  -4  -8  -2   -0.08    2.32   0
  -4  -8  -2    2.15    3.14   0
   4   8   2    5.71    1.67   0
   4   8   2    3.05    1.53   0
  -5  -8  -2    6.65    3.83   0
  -5  -8  -2    5.67    2.87   0
  -5  -8  -2   13.90    4.35   0
  -6  -8  -2  447.92   20.25   0
  -6  -8  -2  439.10   21.82   0
  -6  -8  -2  452.18   22.77   0
  -7  -8  -2  344.14   19.42   0
  -7  -8  -2  328.84   16.28   0
  -7  -8  -2  350.89   20.91   0
   6  -9  -2  341.18   24.10   0
   6  -9  -2  336.69   22.46   0
  -6   9   2  348.13   21.76   0
  -6   9   2  344.24   20.53   0
   5  -9  -2   52.42    9.53   0
  -5   9   2   32.95    6.45   0
  -5   9   2   60.87   10.25   0
  -5   9   2   43.98    7.84   0
   4  -9  -2   -0.55    5.39   0
   4  -9  -2    8.83    4.20   0
  -4   9   2   10.73    4.68   0
  -4   9   2   13.39    5.66   0
  -4   9   2    9.16    4.81   0
   3  -9  -2  820.66   38.35   0
   3  -9  -2  792.59   37.09   0
   3  -9  -2  827.52   35.73   0
  -3   9   2  815.73   35.92   0
  -3   9   2  823.78   36.09   0
   2  -9  -2  643.37   31.25   0
   2  -9  -2  641.41   32.00   0
   2  -9  -2  663.51   29.73   0
  -2   9   2  629.48   29.42   0
  -2   9   2  761.91   30.47   0
   1  -9  -2  619.20   31.93   0
   1  -9  -2  733.69   32.19   0
   1  -9  -2  711.23   30.42   0
  -1   9   2  699.28   30.00   0
   0  -9  -2  332.88   16.53   0
   0  -9  -2  348.92   18.70   0
   0  -9  -2  321.24   18.20   0
   0   9   2  310.90   15.63   0
  -1  -9  -2   87.07    7.49   0
  -1  -9  -2   98.67    9.59   0
  -1  -9  -2   92.44    9.65   0
   1   9   2  113.74    7.48   0
   1   9   2   91.44    6.68   0
  -2  -9  -2 1038.81   44.31   0
  -2  -9  -2 1042.37   43.60   0
  -2  -9  -2 1091.62   45.37   0
   2   9   2 1010.75   41.69   0
   2   9   2 1040.13   42.09   0
  -3  -9  -2  813.78   34.79   0
   3   9   2  815.69   32.08   0
   3   9   2  787.42   32.20   0
  -4  -9  -2  305.84   16.55   0
  -4  -9  -2  316.31   16.86   0
  -4  -9  -2  323.26   16.11   0
  -5  -9  -2   -4.25    3.17   0
  -5  -9  -2   -5.47    3.77   0
  -5  -9  -2    3.58    4.27   0
  -6  -9  -2  126.20    9.79   0
  -6  -9  -2  123.51   12.70   0
  -6  -9  -2  147.87   12.85   0
   5 -10  -2  708.16   35.13   0
   5 -10  -2  711.39   36.77   0
  -5  10   2  720.89   33.90   0
  -5  10   2  654.33   32.57   0
  -5  10   2  639.53   33.56   0
   4 -10  -2  244.87   18.80   0
   4 -10  -2  251.47   16.39   0
   4 -10  -2  261.26   20.02   0
  -4  10   2  270.97   17.31   0
  -4  10   2  278.22   17.28   0
   3 -10  -2  111.12   10.74   0
   3 -10  -2  144.91   13.66   0
   3 -10  -2  109.70   14.13   0
  -3  10   2  120.34   11.60   0
  -3  10   2  109.02   10.98   0
   2 -10  -2  629.49   29.04   0
   2 -10  -2  656.67   31.25   0
   2 -10  -2  634.27   31.90   0
  -2  10   2  608.14   28.65   0
   1 -10  -2  969.88   40.78   0
   1 -10  -2  933.41   42.46   0
   1 -10  -2 1003.89   43.46   0
  -1  10   2  886.32   39.75   0
   0 -10  -2  192.96   14.38   0
   0 -10  -2  170.15   11.55   0
   0 -10  -2  188.40   14.67   0
   0  10   2  159.74   10.47   0
   0  10   2  204.84   11.65   0
  -1 -10  -2  325.65   18.58   0
  -1 -10  -2  289.62   18.47   0
  -1 -10  -2  298.45   16.08   0
   1  10   2  305.28   14.57   0
   1  10   2  303.36   15.09   0
  -2 -10  -2   12.66    3.90   0
  -2 -10  -2   21.29    6.52   0
  -2 -10  -2    7.81    5.02   0
   2  10   2   12.91    2.98   0
   2  10   2   20.41    2.92   0
  -3 -10  -2   85.69    8.82   0
  -3 -10  -2   80.62   10.24   0
  -4 -10  -2  467.67   22.75   0
  -4 -10  -2  483.28   23.78   0
  -5 -10  -2   38.13    6.59   0
  -5 -10  -2   32.99    5.90   0
  -5 -10  -2   22.86    5.89   0
   4 -11  -2  278.12   22.93   0
   4 -11  -2  315.22   24.10   0
  -4  11   2  334.96   21.16   0
  -4  11   2  329.74   20.12   0
   3 -11  -2  761.81   38.70   0
   3 -11  -2  764.84   39.71   0
   3 -11  -2  748.27   36.24   0
  -3  11   2  895.05   36.80   0
   2 -11  -2   91.00   13.80   0
   2 -11  -2   98.01   10.46   0
   2 -11  -2   87.19   14.87   0
  -2  11   2   99.75   10.18   0
  -2  11   2   97.31   11.43   0
   1 -11  -2   -2.52    6.37   0
   1 -11  -2   11.73    4.86   0
  -1  11   2    7.70    4.26   0
  -1  11   2   -1.55    4.75   0
   0 -11  -2  923.09   42.63   0
   0 -11  -2  866.84   39.89   0
   0 -11  -2  969.31   42.94   0
   0  11   2  826.81   38.05   0
   0  11   2  999.34   39.10   0
  -1 -11  -2   77.68   12.62   0
  -1 -11  -2   54.88    8.85   0
  -1 -11  -2   70.87    8.73   0
   1  11   2   78.75    7.36   0
   1  11   2   52.23    6.23   0
  -2 -11  -2   84.97   11.48   0
  -2 -11  -2   88.31   11.99   0
  -2 -11  -2   68.83    9.09   0
   2  11   2   73.87    5.60   0
   2  11   2   76.45    5.49   0
  -3 -11  -2   17.47    7.39   0
  -3 -11  -2   -0.63    6.00   0
  -3 -11  -2   10.52    5.22   0
  -4 -11  -2    7.50    6.58   0
  -4 -11  -2   12.86    5.21   0
  -4 -11  -2   29.64    8.91   0
  -4 -11  -2   -0.91    5.45   0
   2 -12  -2  429.54   27.56   0
   2 -12  -2  396.25   27.77   0
  -2  12   2  418.64   22.28   0
  -2  12   2  466.42   23.75   0
   1 -12  -2    7.63    9.11   0
   1 -12  -2    4.32    7.78   0
   1 -12  -2   -1.05    5.39   0
  -1  12   2    2.65    5.65   0
  -1  12   2   -0.18    4.93   0
   0 -12  -2   74.54   11.28   0
   0 -12  -2   72.44   11.66   0
   0 -12  -2   65.26   10.40   0
   0  12   2   48.43    7.99   0
   0  12   2   56.59    8.87   0
  -1 -12  -2  635.74   30.49   0
  -1 -12  -2  701.15   34.06   0
  -1 -12  -2  666.66   33.89   0
   1  12   2  569.79   26.53   0
  -2 -12  -2  289.25   21.12   0
  -2 -12  -2  275.34   21.41   0
  -2 -12  -2  247.92   17.31   0
  -2 -10   3   57.08    9.23   0
  -2 -10   3   75.84   12.28   0
  -2 -10   3   70.58   12.44   0
  -1 -10   3  696.00   35.45   0
  -1 -10   3  713.66   31.16   0
  -1 -10   3  678.82   32.88   0
   0 -10   3  180.62   12.67   0
   0 -10   3  194.63   17.76   0
   0 -10   3  162.00   15.17   0
   1 -10   3   31.77    9.84   0
   1 -10   3   28.91    7.46   0
   1 -10   3   25.70    6.09   0
   2 -10   3  206.81   14.63   0
   2 -10   3  173.13   16.22   0
   2 -10   3  180.83   18.27   0
  -4  -9   3  155.49   16.48   0
  -4  -9   3  131.98   10.55   0
  -4  -9   3  106.79   11.79   0
  -3  -9   3   38.99    7.13   0
  -3  -9   3   33.71    8.54   0
  -3  -9   3   40.83    6.58   0
  -2  -9   3   31.00    4.93   0
  -2  -9   3   27.43    5.81   0
  -2  -9   3   25.84    7.98   0
  -1  -9   3  948.07   40.62   0
  -1  -9   3  790.01   36.12   0
  -1  -9   3  859.69   37.70   0
   0  -9   3  267.20   14.79   0
   0  -9   3  291.87   16.87   0
   0  -9   3  282.60   18.73   0
   1  -9   3  672.63   32.66   0
   1  -9   3  645.83   29.34   0
   1  -9   3  659.04   30.95   0
  -2   9  -3   16.75    2.64   0
  -2   9  -3   14.76    2.55   0
   2  -9   3   19.55    4.75   0
   2  -9   3   23.39    6.24   0
   2  -9   3   28.36    7.16   0
  -3   9  -3   46.35    6.20   0
  -3   9  -3   23.55    6.69   0
   3  -9   3   33.98    5.76   0
   3  -9   3   47.83    8.81   0
  -4   9  -3  640.52   29.13   0
  -4   9  -3  667.50   30.03   0
   4  -9   3  561.14   32.22   0
   4  -9   3  699.59   34.56   0
   4  -9   3  692.22   31.22   0
  -5  -8   3   82.34    8.87   0
  -5  -8   3   85.37    9.89   0
  -5  -8   3   67.01    8.30   0
  -5  -8   3   75.94   11.04   0
  -4  -8   3  235.02   12.86   0
  -4  -8   3  253.80   17.22   0
  -3  -8   3  512.87   23.86   0
  -3  -8   3  541.97   23.49   0
  -3  -8   3  569.50   27.57   0
  -2  -8   3   39.77    5.47   0
  -2  -8   3   59.29    9.26   0
  -2  -8   3   47.53    5.74   0
  -1  -8   3   44.35    7.39   0
  -1  -8   3   50.97    5.50   0
  -1  -8   3   35.75    6.81   0
   0  -8   3 1118.58   47.93   0
   0  -8   3 1100.49   44.95   0
   0  -8   3 1078.14   46.01   0
   1  -8   3   29.12    6.24   0
   1  -8   3   19.49    3.85   0
   1  -8   3   22.68    5.00   0
  -2   8  -3  792.83   32.97   0
  -2   8  -3  749.92   33.06   0
   2  -8   3  853.28   37.62   0
   2  -8   3  832.74   36.63   0
   2  -8   3  859.08   35.32   0
  -3   8  -3    1.98    4.72   0
  -3   8  -3    2.47    3.54   0
  -3   8  -3   -0.58    2.86   0
   3  -8   3    5.16    3.63   0
   3  -8   3    2.18    4.29   0
  -4   8  -3  156.63   13.94   0
  -4   8  -3  159.30   12.00   0
  -4   8  -3  157.50   10.98   0
   4  -8   3  159.89   14.97   0
   4  -8   3  175.73   12.35   0
  -5   8  -3  755.73   33.14   0
  -5   8  -3  734.80   35.77   0
  -5   8  -3  720.28   33.76   0
   5  -8   3  719.05   36.24   0
   5  -8   3  735.54   35.76   0
   5  -8   3  718.52   33.91   0
  -6  -7   3   18.45    7.68   0
  -6  -7   3   15.40    4.15   0
  -6  -7   3   10.38    4.99   0
  -6  -7   3   10.86    4.78   0
  -5  -7   3   50.87    7.25   0
  -5  -7   3   42.41    6.69   0
  -5  -7   3   49.45    6.41   0
  -4  -7   3  212.37   10.87   0
  -4  -7   3  209.25   14.69   0
  -4  -7   3  200.62   10.72   0
  -3  -7   3   22.35    5.43   0
  -2  -7   3 1440.16   58.56   0
  -2  -7   3 1395.30   55.36   0
  -2  -7   3 1367.29   55.69   0
  -1  -7   3   19.47    3.04   0
  -1  -7   3   22.20    3.92   0
  -1  -7   3   16.01    5.24   0
   0  -7   3  100.22    9.52   0
   0  -7   3  104.32    6.76   0
   0  -7   3   95.49    7.92   0
   1  -7   3  829.90   36.42   0
   1  -7   3  852.83   37.86   0
   1  -7   3  876.82   35.59   0
  -2   7  -3  792.11   31.93   0
  -2   7  -3  839.50   35.02   0
   2  -7   3  791.08   35.27   0
   2  -7   3  698.40   32.90   0
   2  -7   3  793.94   34.41   0
  -3   7  -3  265.76   13.61   0
  -3   7  -3  278.98   16.04   0
  -3   7  -3  282.85   14.26   0
   3  -7   3  268.19   16.42   0
   3  -7   3  282.48   14.68   0
   3  -7   3  271.07   15.87   0
  -4   7  -3   31.41    4.89   0
  -4   7  -3   35.53    5.50   0
  -4   7  -3   39.94    7.08   0
   4  -7   3   33.99    5.21   0
   4  -7   3   31.78    6.51   0
   4  -7   3   42.98    6.88   0
  -5   7  -3   70.95    9.84   0
  -5   7  -3   70.49    8.74   0
  -5   7  -3   71.55   10.87   0
   5  -7   3   81.30   11.46   0
   5  -7   3   78.92    9.06   0
   5  -7   3   75.84   10.39   0
  -6   7  -3  340.02   19.14   0
  -6   7  -3  342.24   21.42   0
  -6   7  -3  336.19   20.41   0
   6  -7   3  344.40   19.20   0
   6  -7   3  298.12   18.84   0
   6  -7   3  348.93   21.04   0
   6  -7   3  320.21   21.20   0
  -6  -6   3  370.37   17.88   0
  -6  -6   3  381.54   18.65   0
  -6  -6   3  371.56   16.17   0
  -6  -6   3  380.65   16.08   0
  -5  -6   3  187.55   10.03   0
  -5  -6   3  175.91   10.08   0
  -5  -6   3  170.72    9.64   0
  -4  -6   3  115.24    7.01   0
  -4  -6   3  110.84    6.91   0
  -4  -6   3  128.46   11.06   0
  -3  -6   3  158.38   11.54   0
  -3  -6   3  170.92    8.46   0
  -3  -6   3  167.00    8.37   0
  -2  -6   3 1103.16   43.06   0
  -2  -6   3 1082.51   45.85   0
  -2  -6   3 1082.41   43.28   0
  -1  -6   3  373.57   15.98   0
  -1  -6   3  360.69   18.50   0
  -1  -6   3  377.39   16.64   0
   0  -6   3  419.89   19.02   0
   0  -6   3  473.85   21.62   0
   0  -6   3  447.44   19.89   0
  -1   6  -3   26.26    2.40   0
  -1   6  -3   21.64    2.43   0
  -1   6  -3   23.13    4.71   0
   1  -6   3   33.88    5.83   0
   1  -6   3   27.56    3.68   0
   1  -6   3   31.81    5.18   0
  -2   6  -3  629.14   27.76   0
  -2   6  -3  601.98   25.78   0
  -2   6  -3  602.81   25.41   0
   2  -6   3  666.36   26.56   0
   2  -6   3  574.29   27.74   0
   2  -6   3  599.35   27.17   0
  -3   6  -3 1916.07   76.98   0
  -3   6  -3 1813.77   74.94   0
  -3   6  -3 1903.57   75.52   0
   3  -6   3 1909.20   76.66   0
   3  -6   3 1940.07   75.80   0
   3  -6   3 1918.56   77.22   0
  -4   6  -3  422.56   19.85   0
  -4   6  -3  419.19   21.48   0
  -4   6  -3  414.98   20.49   0
   4  -6   3  441.55   20.36   0
   4  -6   3  404.84   21.17   0
   4  -6   3  432.97   21.73   0
  -5   6  -3  138.30   11.85   0
  -5   6  -3  131.99   11.31   0
  -5   6  -3  151.62   10.50   0
   5  -6   3  139.53   10.27   0
   5  -6   3  141.81   11.70   0
   5  -6   3  146.37   10.37   0
   5  -6   3  141.35   12.08   0
  -6   6  -3  340.21   18.43   0
  -6   6  -3  339.04   19.76   0
  -6   6  -3  320.77   19.38   0
   6  -6   3  332.00   18.20   0
   6  -6   3  292.40   19.16   0
   6  -6   3  327.11   19.73   0
   6  -6   3  323.97   17.74   0
  -7   6  -3    4.02    5.58   0
  -7   6  -3    3.28    7.25   0
  -7   6  -3    1.37    6.80   0
   7  -6   3   -1.34    7.44   0
   7  -6   3    5.52    6.71   0
   7  -6   3    1.90    6.11   0
  -7  -5   3   13.76    5.54   0
  -7  -5   3   14.04    4.92   0
  -6  -5   3  451.72   20.30   0
  -6  -5   3  439.94   20.73   0
  -5  -5   3  194.85    9.70   0
  -5  -5   3  191.84    9.98   0
  -4  -5   3 1578.39   61.08   0
  -4  -5   3 1567.71   60.31   0
  -4  -5   3 1488.39   60.47   0
  -3  -5   3  153.21    7.15   0
  -3  -5   3  143.16   10.10   0
  -3  -5   3  144.49    7.06   0
  -2  -5   3   23.70    2.75   0
  -2  -5   3   19.73    3.75   0
  -2  -5   3   16.38    2.31   0
  -1  -5   3 2068.72   77.18   0
  -1  -5   3 1969.31   79.38   0
  -1  -5   3 1952.29   77.38   0
   0  -5   3   44.75    4.46   0
   0  -5   3   41.85    5.58   0
   0  -5   3   44.35    3.46   0
  -1   5  -3 1314.64   51.38   0
  -1   5  -3 1348.21   48.78   0
  -1   5  -3 1194.48   48.77   0
   1  -5   3 1063.62   49.50   0
   1  -5   3 1304.79   51.61   0
   1  -5   3 1309.82   50.52   0
  -2   5  -3   64.96    6.32   0
  -2   5  -3   63.02    4.60   0
  -2   5  -3   67.49    5.21   0
   2  -5   3   56.98    5.79   0
   2  -5   3   68.60    5.10   0
   2  -5   3   54.07    6.20   0
  -3   5  -3   38.47    5.10   0
  -3   5  -3   30.70    4.24   0
  -3   5  -3   35.98    5.58   0
   3  -5   3   38.41    4.52   0
   3  -5   3   32.13    5.25   0
   3  -5   3   33.73    5.28   0
  -4   5  -3 2351.28   93.42   0
  -4   5  -3 2402.04   94.15   0
  -4   5  -3 2223.11   92.61   0
   4  -5   3 2403.89   94.16   0
   4  -5   3 2351.46   93.87   0
   4  -5   3 2379.07   93.12   0
  -5   5  -3    4.51    3.05   0
  -5   5  -3    1.36    3.54   0
  -5   5  -3   -2.82    4.17   0
   5  -5   3   -0.42    2.80   0
   5  -5   3    3.86    2.95   0
   5  -5   3    2.53    3.31   0
   5  -5   3    1.02    3.89   0
  -6   5  -3  374.35   19.40   0
  -6   5  -3  383.79   20.55   0
  -6   5  -3  345.27   20.06   0
   6  -5   3  367.53   20.45   0
   6  -5   3  378.97   19.30   0
   6  -5   3  377.09   20.45   0
   6  -5   3  362.42   18.48   0
  -7   5  -3  320.49   20.18   0
  -7   5  -3  328.20   19.81   0
  -7   5  -3  316.66   18.93   0
   7  -5   3  324.85   20.10   0
   7  -5   3  341.69   18.88   0
   7  -5   3  321.08   19.91   0
   7  -5   3  319.00   17.24   0
  -7  -4   3  134.39   11.34   0
  -7  -4   3  131.37   10.61   0
  -6  -4   3    4.74    3.39   0
  -6  -4   3    4.58    3.14   0
  -5  -4   3 1803.27   67.13   0
  -5  -4   3 1609.06   68.32   0
  -5  -4   3 1797.70   68.22   0
  -4  -4   3   26.99    3.55   0
  -4  -4   3   27.27    3.25   0
  -4  -4   3   27.48    3.35   0
  -3  -4   3 3550.31  133.19   0
  -3  -4   3 3418.80  133.22   0
  -2  -4   3   48.49    2.72   0
  -2  -4   3   49.34    2.82   0
  -2  -4   3   54.63    5.22   0
  -1  -4   3  211.58    9.07   0
  -1  -4   3  191.51   10.79   0
  -1  -4   3  220.76    8.88   0
   0  -4   3 1797.10   70.59   0
   0  -4   3 1798.91   71.95   0
   0  -4   3 1852.96   70.27   0
  -1   4  -3  802.77   33.92   0
  -1   4  -3  859.10   31.99   0
  -1   4  -3  773.60   32.05   0
   1  -4   3  808.01   33.10   0
   1  -4   3  805.46   33.98   0
   1  -4   3  827.31   32.71   0
  -2   4  -3 1553.98   60.81   0
  -2   4  -3 1552.32   61.90   0
  -2   4  -3 1548.67   60.47   0
   2  -4   3 1497.01   61.26   0
   2  -4   3 1588.32   60.96   0
   2  -4   3 1512.83   61.82   0
  -3   4  -3  168.33    9.11   0
  -3   4  -3  169.06   10.12   0
  -3   4  -3  185.64    9.82   0
   3  -4   3  178.05    9.42   0
   3  -4   3  158.58    9.69   0
   3  -4   3  176.18   10.20   0
  -4   4  -3  349.70   17.28   0
  -4   4  -3  376.45   18.10   0
  -4   4  -3  373.74   18.27   0
   4  -4   3  388.63   17.68   0
   4  -4   3  372.50   18.14   0
   4  -4   3  375.01   17.42   0
   4  -4   3  363.38   18.18   0
  -5   4  -3 1179.60   47.34   0
  -5   4  -3 1155.16   46.52   0
  -5   4  -3 1153.79   47.30   0
   5  -4   3 1189.31   46.67   0
   5  -4   3  941.55   46.52   0
   5  -4   3 1143.80   45.93   0
   5  -4   3 1036.19   46.81   0
  -6   4  -3 1332.67   55.31   0
  -6   4  -3 1293.35   54.49   0
  -6   4  -3 1355.22   55.57   0
   6  -4   3 1294.21   55.18   0
   6  -4   3 1321.35   54.52   0
   6  -4   3 1292.31   55.40   0
   6  -4   3 1271.12   53.39   0
  -7   4  -3   99.06   11.35   0
  -7   4  -3  135.91   12.65   0
   7  -4   3  119.04   10.43   0
   7  -4   3  129.17   11.70   0
   7  -4   3   96.13    8.72   0
  -8   4  -3   34.38    7.92   0
  -8   4  -3   41.86    8.65   0
   8  -4   3   23.16    6.37   0
  -8  -3   3   66.36   10.71   0
  -8  -3   3   59.89    8.87   0
  -8  -3   3   60.62    8.96   0
  -7  -3   3  853.20   37.25   0
  -7  -3   3  860.79   36.74   0
  -6  -3   3    0.54    2.77   0
  -6  -3   3    2.46    3.07   0
  -5  -3   3  131.28    7.65   0
  -4  -3   3 2217.44   84.60   0
  -4  -3   3 2243.95   84.31   0
  -4  -3   3 2104.50   84.69   0
  -3  -3   3  418.47   16.75   0
  -3  -3   3  408.70   16.66   0
  -3  -3   3  423.40   17.48   0
  -2  -3   3 2869.00  111.27   0
  -1  -3   3   80.31    5.42   0
   0   3  -3 2177.81   84.27   0
   0  -3   3 2151.16   82.97   0
   0  -3   3 2167.83   82.76   0
   0  -3   3 2127.17   84.17   0
  -1   3  -3 2193.69   86.74   0
  -1   3  -3 2307.25   85.23   0
  -1   3  -3 2122.73   85.29   0
   1  -3   3 2156.92   86.60   0
   1  -3   3 2235.62   85.96   0
   1  -3   3 2294.63   85.75   0
  -2   3  -3 5912.27  220.95   0
  -2   3  -3 5887.01  219.87   0
  -2   3  -3 5717.73  220.11   0
   2  -3   3 5610.38  220.32   0
   2  -3   3 5597.05  220.69   0
   2  -3   3 5751.06  220.13   0
  -3   3  -3  444.88   19.70   0
  -3   3  -3  444.05   18.88   0
   3  -3   3  444.83   19.08   0
   3  -3   3  403.07   19.33   0
   3  -3   3  424.82   19.32   0
  -4   3  -3  322.35   15.52   0
  -4   3  -3  294.36   14.69   0
  -4   3  -3  315.91   15.40   0
   4  -3   3  300.19   14.46   0
   4  -3   3  313.08   15.36   0
   4  -3   3  323.36   15.03   0
   4  -3   3  300.46   15.32   0
  -5   3  -3  381.77   18.89   0
  -5   3  -3  355.73   18.46   0
  -5   3  -3  366.27   18.16   0
   5  -3   3  368.87   17.42   0
   5  -3   3  392.57   18.30   0
   5  -3   3  403.13   18.95   0
   5  -3   3  396.49   18.97   0
  -6   3  -3   72.04    8.01   0
  -6   3  -3   59.41    7.37   0
  -6   3  -3   61.72    8.48   0
   6  -3   3   61.71    5.95   0
   6  -3   3   83.56    8.51   0
   6  -3   3   61.34    7.03   0
   6  -3   3   64.97    8.00   0
  -7   3  -3 1075.38   46.95   0
  -7   3  -3 1087.73   46.26   0
  -7   3  -3 1075.83   45.91   0
   7  -3   3 1015.66   43.69   0
   7  -3   3 1071.01   46.39   0
   7  -3   3 1051.52   45.60   0
  -8   3  -3   13.04    6.10   0
  -8   3  -3    5.20    5.86   0
  -8   3  -3   -2.72    4.60   0
   8  -3   3   -0.99    4.67   0
   8  -3   3    2.73    4.95   0
   8  -3   3    4.66    3.35   0
  -8  -2   3   92.65   11.23   0
  -8  -2   3  103.65   11.37   0
  -8  -2   3  109.44   12.97   0
  -7  -2   3    4.95    3.97   0
  -7  -2   3    5.19    4.08   0
  -7  -2   3   -1.12    3.98   0
  -6  -2   3  901.22   37.75   0
  -6  -2   3  896.35   37.51   0
  -5  -2   3   55.18    5.03   0
  -4  -2   3 1000.78   39.14   0
  -4  -2   3  974.02   39.26   0
  -3  -2   3 2351.55   92.28   0
  -3  -2   3 2426.10   92.43   0
  -3  -2   3 2440.97   92.21   0
  -2  -2   3 4109.08  157.26   0
  -1  -2   3  907.57   36.16   0
  -1  -2   3  906.18   35.94   0
   0   2  -3 1577.63   61.60   0
   0  -2   3 1580.81   61.52   0
   0  -2   3 1608.97   60.41   0
   0  -2   3 1532.64   60.46   0
  -1   2  -3 2223.23   81.96   0
  -1   2  -3 2150.07   83.07   0
  -1   2  -3 2088.82   82.06   0
   1  -2   3 2197.53   82.42   0
   1  -2   3 2039.15   82.81   0
   1  -2   3 2086.19   82.78   0
   1  -2   3 2156.15   82.30   0
  -2   2  -3  644.54   26.48   0
  -2   2  -3  641.57   26.94   0
  -2   2  -3  652.85   26.27   0
   2  -2   3  659.21   26.47   0
   2  -2   3  627.78   26.73   0
   2  -2   3  657.72   26.61   0
   2  -2   3  648.37   26.58   0
  -3   2  -3 6022.33  228.59   0
  -3   2  -3 6049.49  228.73   0
  -3   2  -3 5789.49  228.08   0
   3  -2   3 6040.12  228.35   0
   3  -2   3 5846.23  228.47   0
   3  -2   3 5974.37  228.06   0
   3  -2   3 5946.64  228.59   0
  -4   2  -3   52.27    5.23   0
  -4   2  -3   58.88    5.47   0
  -4   2  -3   55.51    4.90   0
   4  -2   3   48.23    5.07   0
   4  -2   3   52.27    4.35   0
   4  -2   3   57.47    5.36   0
   4  -2   3   53.39    4.79   0
  -5   2  -3  969.79   40.68   0
  -5   2  -3  964.50   40.41   0
  -5   2  -3  972.28   40.04   0
   5  -2   3  947.81   40.41   0
   5  -2   3  980.06   40.14   0
   5  -2   3  959.15   40.53   0
   5  -2   3  926.92   38.96   0
  -6   2  -3  518.66   24.14   0
  -6   2  -3  526.09   24.70   0
  -6   2  -3  522.89   23.88   0
   6  -2   3  496.40   22.22   0
   6  -2   3  490.91   24.06   0
   6  -2   3  521.70   23.76   0
   6  -2   3  517.10   24.32   0
  -7   2  -3  104.29   10.91   0
  -7   2  -3  106.53    9.71   0
  -7   2  -3  121.09   10.17   0
   7  -2   3   96.18    9.00   0
   7  -2   3  108.42   10.23   0
   7  -2   3  113.21    7.50   0
  -8   2  -3  657.28   31.55   0
  -8   2  -3  689.94   32.97   0
  -8   2  -3  691.13   31.58   0
   8  -2   3  620.75   27.88   0
   8  -2   3  586.56   30.27   0
   8  -2   3  688.23   31.64   0
  -8  -1   3   10.44    5.27   0
  -8  -1   3   -0.99    5.21   0
  -8  -1   3    1.12    5.86   0
  -7  -1   3   66.59    8.26   0
  -7  -1   3   77.30    9.00   0
  -7  -1   3   69.82    8.02   0
  -6  -1   3  575.54   25.70   0
  -6  -1   3  588.54   25.57   0
  -6  -1   3  566.25   25.47   0
  -5  -1   3   21.30    3.25   0
  -5  -1   3   23.77    4.24   0
  -4  -1   3  708.23   28.51   0
  -4  -1   3  693.71   28.57   0
  -3  -1   3   11.23    1.47   0
  -3  -1   3   10.98    1.94   0
  -3  -1   3   10.15    1.84   0
  -2  -1   3  737.38   28.55   0
  -2  -1   3  721.28   28.50   0
  -2  -1   3  765.55   29.15   0
   0   1  -3  202.44    9.27   0
   0  -1   3  204.96    9.17   0
   0  -1   3  229.96    9.41   0
   0  -1   3  206.74    8.46   0
   0  -1   3  210.53    8.47   0
  -1   1  -3 3250.39  127.79   0
  -1   1  -3 3251.46  127.23   0
   1  -1   3 3320.20  127.74   0
   1  -1   3 3392.65  127.40   0
   1  -1   3 3421.21  127.43   0
  -2   1  -3 3761.16  145.37   0
  -2   1  -3 3777.27  145.14   0
  -2   1  -3 3895.40  144.99   0
   2  -1   3 3660.64  145.19   0
   2  -1   3 3702.88  145.01   0
   2  -1   3 3811.52  145.16   0
   2  -1   3 3839.77  145.14   0
  -3   1  -3  414.47   18.22   0
  -3   1  -3  402.38   17.81   0
  -3   1  -3  412.41   18.17   0
   3  -1   3  409.90   18.10   0
   3  -1   3  405.66   18.13   0
   3  -1   3  420.83   17.62   0
   3  -1   3  440.80   18.13   0
  -4   1  -3 5050.99  204.40   0
  -4   1  -3 5417.81  204.93   0
  -4   1  -3 5519.90  205.13   0
   4  -1   3 5400.47  205.01   0
   4  -1   3 5326.14  203.86   0
   4  -1   3 5358.84  204.70   0
   4  -1   3 5156.59  204.77   0
  -5   1  -3 2066.33   81.57   0
  -5   1  -3 1971.91   80.82   0
  -5   1  -3 2122.07   81.37   0
   5  -1   3 1971.59   79.69   0
   5  -1   3 2061.19   81.38   0
   5  -1   3 2020.78   80.97   0
   5  -1   3 2090.68   81.34   0
  -6   1  -3  979.49   41.59   0
  -6   1  -3  981.15   41.32   0
  -6   1  -3  993.12   42.08   0
   6  -1   3  989.10   41.33   0
   6  -1   3  974.98   41.61   0
   6  -1   3  961.28   39.55   0
  -7   1  -3   20.76    5.03   0
  -7   1  -3   24.52    5.12   0
  -7   1  -3   23.14    4.73   0
   7  -1   3   18.16    4.10   0
   7  -1   3   15.77    2.88   0
   7  -1   3   16.33    4.48   0
  -8   1  -3  462.92   23.96   0
  -8   1  -3  452.59   23.83   0
  -8   1  -3  451.58   25.01   0
   8  -1   3  473.13   23.34   0
   8  -1   3  506.12   24.38   0
   8  -1   3  445.53   20.27   0
  -9   1  -3   23.77    7.33   0
  -9   1  -3   22.50    6.45   0
   9  -1   3   17.31    6.35   0
   9  -1   3   16.98    6.00   0
   9  -1   3   19.26    3.84   0
  -8   0   3  522.07   27.49   0
  -8   0   3  567.50   27.34   0
  -8   0   3  533.81   25.70   0
   7   0  -3  110.28    5.74   0
   7   0  -3  106.83    6.07   0
  -7   0   3  115.65   10.01   0
  -7   0   3  105.46    8.98   0
  -7   0   3  106.67   10.06   0
   6   0  -3    1.04    1.51   0
   6   0  -3   -0.73    1.25   0
  -6   0   3    1.80    2.91   0
  -6   0   3   -0.29    2.50   0
  -6   0   3   -2.99    2.42   0
   5   0  -3  822.81   32.10   0
   5   0  -3  809.53   31.89   0
  -5   0   3  790.67   33.43   0
  -5   0   3  838.92   33.96   0
  -5   0   3  801.68   33.77   0
   4   0  -3  152.08    6.85   0
   4   0  -3  156.28    6.71   0
  -4   0   3  155.90    8.21   0
  -4   0   3  156.91    8.27   0
  -4   0   3  158.53    7.98   0
  -3   0   3  352.53   13.99   0
  -3   0   3  365.45   15.03   0
  -3   0   3  349.79   15.02   0
   2   0  -3   18.55    1.47   0
  -2   0   3   12.44    1.48   0
  -2   0   3   16.87    1.45   0
  -2   0   3   11.82    1.44   0
   1   0  -3   12.34    1.36   0
  -1   0   3    9.14    1.29   0
  -1   0   3   11.63    1.18   0
  -1   0   3   13.56    1.00   0
   0   0  -3 7851.53  318.11   0
   0   0   3 8504.68  318.21   0
  -1   0  -3 1935.07   76.59   0
  -1   0  -3 1991.25   76.50   0
  -1   0  -3 1983.00   76.26   0
  -1   0  -3 1968.87   76.32   0
   1   0   3 2052.45   76.46   0
   1   0   3 1981.61   76.53   0
   1   0   3 1982.43   76.38   0
   1   0   3 1979.96   76.38   0
  -2   0  -3 3867.95  148.96   0
  -2   0  -3 3893.24  148.76   0
   2   0   3 3786.85  148.83   0
   2   0   3 3932.68  148.68   0
   2   0   3 3922.70  148.93   0
  -3   0  -3   80.58    4.78   0
  -3   0  -3   99.81    5.67   0
  -3   0  -3   85.40    5.20   0
   3   0   3   84.09    5.38   0
   3   0   3   83.52    5.34   0
   3   0   3   85.62    4.79   0
   3   0   3   89.91    5.37   0
  -4   0  -3 3122.23  120.47   0
  -4   0  -3 3026.42  120.09   0
  -4   0  -3 3090.67  120.57   0
   4   0   3 3234.90  120.40   0
   4   0   3 3056.10  119.27   0
   4   0   3 3054.25  120.36   0
  -5   0  -3 1074.82   45.58   0
  -5   0  -3 1148.96   46.37   0
  -5   0  -3 1125.77   46.03   0
   5   0   3 1141.19   45.84   0
   5   0   3 1105.28   45.90   0
   5   0   3 1117.56   44.40   0
  -6   0  -3 2435.16   97.39   0
  -6   0  -3 2365.80   96.57   0
   6   0   3 2482.64   96.91   0
   6   0   3 2520.24   96.73   0
   6   0   3 2409.90   94.76   0
  -7   0  -3   33.37    5.55   0
  -7   0  -3   43.20    6.78   0
  -7   0  -3   33.06    5.52   0
   7   0   3   38.57    4.11   0
   7   0   3   37.66    6.68   0
   7   0   3   40.93    6.11   0
  -8   0  -3    8.56    5.50   0
  -8   0  -3    8.20    4.80   0
   8   0   3   13.88    4.66   0
   8   0   3    4.66    3.63   0
   8   0   3    5.79    2.23   0
  -9   0  -3  282.19   18.95   0
  -9   0  -3  257.41   22.66   0
  -9   0  -3  303.41   19.45   0
   9   0   3  290.06   18.61   0
   9   0   3  281.97   12.87   0
   9   0   3  308.08   17.76   0
   8  -1  -3  301.38   15.12   0
   8  -1  -3  320.39   14.59   0
  -8   1   3  305.40   17.20   0
  -8   1   3  318.47   19.48   0
   7  -1  -3  995.07   41.97   0
   7  -1  -3 1086.65   41.57   0
  -7   1   3  982.67   44.17   0
  -7   1   3 1045.55   44.50   0
  -7   1   3 1041.80   43.03   0
   6  -1  -3  486.19   21.20   0
   6  -1  -3  501.17   20.68   0
  -6   1   3  501.84   21.71   0
  -6   1   3  474.47   22.73   0
  -6   1   3  469.87   22.55   0
   5  -1  -3  293.63   13.95   0
   5  -1  -3  309.02   13.55   0
  -5   1   3  318.03   15.14   0
  -5   1   3  305.58   15.01   0
  -5   1   3  315.45   14.23   0
   4  -1  -3 1200.82   47.71   0
   4  -1  -3 1222.61   47.34   0
  -4   1   3 1198.19   47.68   0
  -4   1   3 1211.59   48.35   0
   3  -1  -3 1730.54   66.31   0
   3  -1  -3 1707.79   66.74   0
   3  -1  -3 1735.43   67.04   0
  -3   1   3 1754.85   67.53   0
  -3   1   3 1690.49   66.84   0
  -3   1   3 1757.81   67.46   0
   2  -1  -3  679.68   26.74   0
   2  -1  -3  701.44   26.98   0
   2  -1  -3  672.70   26.75   0
  -2   1   3  697.66   27.28   0
  -2   1   3  680.87   26.68   0
  -2   1   3  677.05   27.15   0
  -2   1   3  672.42   26.59   0
   1  -1  -3   55.65    3.15   0
   1  -1  -3   61.39    3.02   0
   1  -1  -3   66.08    3.19   0
  -1   1   3   58.46    3.16   0
  -1   1   3   67.07    3.22   0
   0  -1  -3  995.23   38.60   0
   0  -1  -3  976.13   38.46   0
   0  -1  -3  991.91   38.33   0
   0  -1  -3 1041.39   38.00   0
   0   1   3  955.24   38.37   0
   0   1   3  975.61   38.52   0
  -1  -1  -3 2806.25  107.07   0
  -1  -1  -3 2805.62  107.07   0
  -1  -1  -3 2793.61  106.92   0
  -1  -1  -3 2714.54  106.98   0
   1   1   3 2833.67  107.03   0
   2   1   3 4747.68  181.41   0
  -3  -1  -3    7.18    1.34   0
  -3  -1  -3    3.24    1.43   0
  -3  -1  -3    4.85    1.50   0
   3   1   3    5.47    1.45   0
   3   1   3    4.80    1.44   0
   3   1   3    2.57    0.96   0
  -4  -1  -3  293.41   13.84   0
  -4  -1  -3  289.99   13.47   0
  -4  -1  -3  279.39   13.78   0
  -4  -1  -3  287.34   12.66   0
   4   1   3  285.97   13.51   0
   4   1   3  291.95   12.54   0
   4   1   3  295.06   13.66   0
  -5  -1  -3 1531.81   63.32   0
  -5  -1  -3 1556.61   63.73   0
  -5  -1  -3 1627.93   64.06   0
   5   1   3 1566.49   63.51   0
   5   1   3 1555.68   61.93   0
   5   1   3 1690.35   63.63   0
  -6  -1  -3   58.91    6.33   0
  -6  -1  -3   51.07    6.57   0
  -6  -1  -3   73.74    7.00   0
   6   1   3   63.59    6.05   0
   6   1   3   64.89    4.52   0
   6   1   3   65.22    6.69   0
  -7  -1  -3 1402.09   57.55   0
  -7  -1  -3 1394.50   58.32   0
  -7  -1  -3 1416.48   57.99   0
   7   1   3 1373.41   57.07   0
   7   1   3 1295.91   54.42   0
   7   1   3 1460.93   57.51   0
  -9  -1  -3   49.11    9.10   0
  -9  -1  -3   66.70   11.81   0
  -9  -1  -3   81.29   11.80   0
   9   1   3   77.22    9.96   0
   8  -2  -3  180.94   12.17   0
   8  -2  -3  179.76   11.01   0
  -8   2   3  178.77   15.06   0
  -8   2   3  181.39   15.48   0
  -8   2   3  186.14   12.73   0
   7  -2  -3  851.07   37.13   0
   7  -2  -3  909.40   36.40   0
  -7   2   3  913.14   39.11   0
  -7   2   3  832.22   38.58   0
  -7   2   3  872.95   37.10   0
   6  -2  -3  269.78   14.40   0
   6  -2  -3  311.89   13.87   0
  -6   2   3  284.76   15.63   0
  -6   2   3  282.66   15.61   0
  -6   2   3  286.55   14.12   0
   5  -2  -3 1071.01   41.38   0
   5  -2  -3 1012.72   41.96   0
   5  -2  -3 1008.72   39.69   0
  -5   2   3 1034.03   42.66   0
  -5   2   3 1010.54   42.55   0
   4  -2  -3  323.17   13.88   0
   4  -2  -3  374.24   15.10   0
   4  -2  -3  339.79   15.55   0
  -4   2   3  353.23   15.98   0
  -4   2   3  341.65   14.82   0
  -4   2   3  325.56   15.74   0
   3  -2  -3  188.83    9.43   0
   3  -2  -3  191.48    8.96   0
   3  -2  -3  190.09    8.36   0
  -3   2   3  202.10    8.71   0
  -3   2   3  197.63    9.67   0
  -3   2   3  198.28    9.56   0
   2  -2  -3 6654.92  254.19   0
   1  -2  -3   64.45    3.39   0
   1  -2  -3   58.14    2.74   0
   1  -2  -3   62.24    3.83   0
   1  -2  -3   55.88    3.21   0
  -1   2   3   57.71    3.65   0
  -1   2   3   63.33    3.32   0
  -1   2   3   63.64    3.50   0
   0  -2  -3 1818.94   70.22   0
   0  -2  -3 1861.95   69.93   0
   0  -2  -3 1767.99   69.87   0
   0   2   3 1809.74   69.87   0
   0   2   3 1794.96   69.89   0
   0   2   3 1825.26   70.16   0
  -1  -2  -3 1419.55   53.29   0
  -1  -2  -3 1365.58   53.06   0
  -1  -2  -3 1378.67   53.24   0
   1   2   3 1395.96   53.32   0
   1   2   3 1299.01   53.10   0
   1   2   3 1344.52   53.00   0
  -2  -2  -3   65.65    3.68   0
  -2  -2  -3   68.46    4.02   0
  -2  -2  -3   59.80    3.99   0
   2   2   3   67.72    4.08   0
   2   2   3   65.02    4.00   0
   2   2   3   63.11    3.64   0
  -3  -2  -3 3118.50  122.76   0
  -3  -2  -3 3197.67  123.15   0
  -3  -2  -3 3178.87  122.27   0
   3   2   3 3207.62  122.92   0
   3   2   3 3192.93  122.18   0
   3   2   3 3207.89  122.96   0
  -4  -2  -3  750.91   30.84   0
  -4  -2  -3  750.78   29.55   0
  -4  -2  -3  767.16   31.00   0
  -4  -2  -3  724.77   30.37   0
   4   2   3  654.21   30.27   0
   4   2   3  769.04   29.44   0
   4   2   3  729.10   30.44   0
  -5  -2  -3  166.98    9.56   0
  -5  -2  -3  182.16   10.33   0
  -5  -2  -3  166.50   10.07   0
  -5  -2  -3  172.61    8.35   0
   5   2   3  169.14    8.14   0
   5   2   3  175.25    9.64   0
   5   2   3  174.94    9.64   0
  -6  -2  -3  499.46   25.09   0
  -6  -2  -3  573.15   25.70   0
  -6  -2  -3  566.79   24.94   0
   6   2   3  578.47   24.78   0
   6   2   3  559.83   22.67   0
   6   2   3  546.16   24.68   0
  -7  -2  -3  200.56   12.27   0
  -7  -2  -3  211.34   12.75   0
  -7  -2  -3  201.35   13.07   0
   7   2   3  185.59   11.64   0
   7   2   3  180.41    8.75   0
   7   2   3  151.90   10.83   0
  -8  -2  -3  411.22   22.90   0
  -8  -2  -3  492.12   23.02   0
  -8  -2  -3  423.11   23.46   0
   8   2   3  435.17   21.94   0
   8   2   3  444.03   21.60   0
  -9  -2  -3   40.68    8.49   0
  -9  -2  -3   74.96   11.44   0
  -9  -2  -3   56.75    9.21   0
   9   2   3   76.26   10.21   0
   9   2   3   49.84    9.15   0
   8  -3  -3    2.69    5.06   0
   8  -3  -3    7.57    4.42   0
  -8   3   3   10.34    5.46   0
  -8   3   3    2.98    6.92   0
  -8   3   3   14.33    6.71   0
   7  -3  -3  179.41   10.37   0
   7  -3  -3  154.27   11.83   0
  -7   3   3  155.43   10.72   0
  -7   3   3  171.81   13.15   0
  -7   3   3  156.21   12.75   0
   6  -3  -3 1076.47   46.66   0
   6  -3  -3 1175.34   45.87   0
   6  -3  -3 1065.56   43.65   0
  -6   3   3 1131.22   47.50   0
  -6   3   3 1140.32   47.54   0
  -6   3   3 1144.86   45.82   0
   5  -3  -3    1.52    1.86   0
   5  -3  -3    3.87    2.75   0
   5  -3  -3    6.38    1.47   0
  -5   3   3    5.22    2.88   0
  -5   3   3    5.02    2.24   0
  -5   3   3    4.10    2.84   0
   4  -3  -3 1381.31   52.82   0
   4  -3  -3 1286.30   54.39   0
   4  -3  -3 1376.31   53.80   0
  -4   3   3 1385.82   54.82   0
  -4   3   3 1321.11   54.53   0
  -4   3   3 1378.08   53.41   0
   3  -3  -3  161.94    7.35   0
   3  -3  -3  143.35    7.84   0
   3  -3  -3  145.03    8.50   0
   3  -3  -3  169.14    7.82   0
  -3   3   3  159.61    7.48   0
  -3   3   3  162.39    8.80   0
  -3   3   3  155.31    8.46   0
   2  -3  -3 1048.91   39.61   0
   2  -3  -3  982.89   39.87   0
   2  -3  -3 1004.32   39.45   0
   2  -3  -3 1001.46   40.53   0
  -2   3   3 1027.32   40.45   0
  -2   3   3 1009.20   39.31   0
  -2   3   3  972.75   40.11   0
   1  -3  -3 7908.55  319.90   0
  -1   3   3 7696.21  315.72   0
   0  -3  -3 3788.03  146.67   0
   0  -3  -3 3843.60  146.15   0
  -1  -3  -3 4007.34  158.36   0
   1   3   3 4243.14  158.49   0
   1   3   3 4141.76  158.08   0
  -2  -3  -3   25.11    2.61   0
  -2  -3  -3   22.59    2.59   0
  -2  -3  -3   27.54    2.25   0
   2   3   3   28.16    2.76   0
   2   3   3   28.11    2.32   0
   2   3   3   22.84    2.49   0
  -3  -3  -3 2747.85  105.91   0
  -3  -3  -3 2741.25  106.76   0
  -3  -3  -3 2661.14  106.38   0
   3   3   3 2746.50  105.83   0
   3   3   3 2883.66  106.70   0
   3   3   3 2724.50  106.36   0
  -4  -3  -3 1298.59   52.22   0
  -4  -3  -3 1282.00   51.64   0
  -4  -3  -3 1291.86   50.82   0
   4   3   3 1289.78   50.68   0
   4   3   3 1393.73   52.03   0
   4   3   3 1219.65   51.47   0
  -5  -3  -3  791.03   32.20   0
  -5  -3  -3  803.12   34.24   0
  -5  -3  -3  792.87   33.53   0
   5   3   3  857.73   33.71   0
   5   3   3  792.36   32.02   0
   5   3   3  780.57   33.30   0
  -6  -3  -3   10.93    3.80   0
  -6  -3  -3   11.60    2.13   0
  -6  -3  -3    7.80    3.12   0
  -6  -3  -3    7.22    3.10   0
   6   3   3    8.64    1.85   0
   6   3   3    4.78    2.66   0
   6   3   3   11.48    2.88   0
  -7  -3  -3  253.29   14.73   0
  -7  -3  -3  228.16   13.66   0
  -7  -3  -3  247.78   14.84   0
   7   3   3  233.35   13.15   0
   7   3   3  217.27   12.77   0
  -8  -3  -3  362.35   21.27   0
  -8  -3  -3  396.60   21.96   0
  -8  -3  -3  426.20   21.09   0
   8   3   3  387.17   19.40   0
  -9  -3  -3   17.32    7.43   0
  -9  -3  -3   11.99    6.32   0
  -9  -3  -3    8.66    7.43   0
   9   3   3   14.83    4.98   0
   9   3   3   14.40    5.21   0
   8  -4  -3  319.36   17.37   0
   8  -4  -3  291.68   19.05   0
  -8   4   3  302.87   17.73   0
  -8   4   3  327.87   20.83   0
  -8   4   3  295.49   21.50   0
   6  -4  -3   18.17    4.67   0
   6  -4  -3   19.86    3.73   0
   6  -4  -3   24.41    3.20   0
  -6   4   3   15.04    5.13   0
  -6   4   3   26.54    4.32   0
  -6   4   3   18.98    4.98   0
   5  -4  -3 1858.92   70.02   0
   5  -4  -3 1655.98   72.06   0
   5  -4  -3 1671.42   71.15   0
   5  -4  -3 1816.61   71.26   0
  -5   4   3 1849.58   72.66   0
  -5   4   3 1822.22   70.95   0
  -5   4   3 1885.79   72.63   0
   4  -4  -3  440.50   19.70   0
   4  -4  -3  445.96   20.77   0
   4  -4  -3  455.92   19.78   0
  -4   4   3  443.41   20.53   0
  -4   4   3  444.92   20.69   0
  -4   4   3  453.57   19.31   0
   3  -4  -3 1601.78   64.88   0
   3  -4  -3 1543.77   65.92   0
   3  -4  -3 1713.87   65.24   0
  -3   4   3 1688.97   65.95   0
  -3   4   3 1678.35   64.67   0
  -3   4   3 1700.30   65.72   0
   2  -4  -3  230.33   11.14   0
   2  -4  -3  255.38   11.54   0
   2  -4  -3  239.17   12.34   0
  -2   4   3  252.05   11.78   0
  -2   4   3  258.61   11.04   0
  -2   4   3  255.18   12.10   0
   1  -4  -3 2473.70   97.20   0
   1  -4  -3 2450.45   98.19   0
   1  -4  -3 2543.76   97.39   0
  -1   4   3 2501.52   97.44   0
  -1   4   3 2614.97   97.83   0
   0  -4  -3 2712.25  105.20   0
   0  -4  -3 2662.76  104.54   0
   0  -4  -3 2847.27  104.56   0
   0   4   3 2617.16  104.47   0
  -1  -4  -3 5472.34  219.95   0
   1   4   3 6018.77  220.14   0
  -2  -4  -3  470.50   18.60   0
  -2  -4  -3  439.59   18.90   0
   2   4   3  442.21   18.92   0
   2   4   3  426.94   18.57   0
  -3  -4  -3  210.69   10.50   0
  -3  -4  -3  219.98   10.02   0
  -3  -4  -3  226.68   10.91   0
   3   4   3  236.10   10.77   0
   3   4   3  205.99   10.22   0
  -4  -4  -3 2636.19  104.10   0
  -4  -4  -3 2683.25  104.69   0
  -4  -4  -3 2666.86  103.33   0
   4   4   3 2815.25  104.37   0
   4   4   3 2579.05  103.77   0
  -5  -4  -3   12.54    3.13   0
  -5  -4  -3   10.43    1.97   0
  -5  -4  -3    6.02    2.45   0
   5   4   3    7.06    2.30   0
   5   4   3   10.86    2.75   0
  -6  -4  -3  812.97   35.73   0
  -6  -4  -3  883.85   34.04   0
  -6  -4  -3  733.92   36.25   0
   6   4   3  922.92   35.68   0
   6   4   3  866.43   35.26   0
  -7  -4  -3  100.41    8.93   0
  -7  -4  -3   99.74    5.80   0
  -7  -4  -3   88.25    9.93   0
  -7  -4  -3   96.96    9.45   0
   7   4   3   94.41    7.71   0
   7   4   3   97.66    8.02   0
  -8  -4  -3   36.16    7.18   0
   8   4   3   23.98    4.30   0
  -9  -4  -3  222.78   19.32   0
  -9  -4  -3  241.87   17.07   0
  -9  -4  -3  219.30   18.29   0
   9   4   3  247.97   14.29   0
   9   4   3  247.73   14.55   0
   8  -5  -3  300.81   14.93   0
   8  -5  -3  338.21   21.29   0
   8  -5  -3  350.09   19.06   0
  -8   5   3  323.29   22.11   0
  -8   5   3  336.62   19.29   0
   7  -5  -3   60.14    8.70   0
   7  -5  -3   83.70    8.76   0
   7  -5  -3   73.42    5.81   0
  -7   5   3   73.57    8.95   0
  -7   5   3   55.39    8.22   0
  -7   5   3   67.68   10.89   0
   6  -5  -3  115.84   10.67   0
   6  -5  -3  114.59    8.90   0
   6  -5  -3  124.22    7.24   0
  -6   5   3  114.21   10.79   0
  -6   5   3  114.33   10.91   0
  -6   5   3  121.38    8.77   0
   5  -5  -3  187.53   12.50   0
   5  -5  -3  192.57   11.41   0
   5  -5  -3  201.63   11.20   0
  -5   5   3  181.28   12.22   0
  -5   5   3  214.34   12.58   0
  -5   5   3  195.48   10.74   0
   4  -5  -3 1128.02   49.00   0
   4  -5  -3 1098.13   47.77   0
   4  -5  -3 1205.56   47.95   0
  -4   5   3 1202.79   48.95   0
  -4   5   3 1197.48   47.44   0
  -4   5   3 1243.06   48.91   0
   3  -5  -3 2029.95   87.50   0
   3  -5  -3 2382.94   87.96   0
   3  -5  -3 2245.09   89.06   0
  -3   5   3 2313.39   88.41   0
  -3   5   3 2262.18   88.53   0
  -3   5   3 2211.70   87.27   0
   2  -5  -3 1098.20   42.45   0
   2  -5  -3  991.28   42.22   0
   2  -5  -3 1019.95   43.48   0
  -2   5   3 1071.13   41.89   0
  -2   5   3 1065.49   42.90   0
  -2   5   3 1056.66   42.61   0
   1  -5  -3   16.47    2.65   0
   1  -5  -3   10.37    2.57   0
  -1   5   3    7.69    1.99   0
   0  -5  -3 3512.26  132.97   0
   0  -5  -3 3264.32  132.02   0
   0  -5  -3 3340.72  132.21   0
   0   5   3 3098.48  131.85   0
   0   5   3 3916.88  132.78   0
  -1  -5  -3   25.92    2.84   0
  -1  -5  -3   21.85    2.58   0
   1   5   3   26.84    3.36   0
   1   5   3   18.00    2.63   0
  -2  -5  -3 3649.65  141.12   0
  -2  -5  -3 3624.63  141.19   0
  -2  -5  -3 3758.14  140.84   0
   2   5   3 3734.08  141.18   0
   2   5   3 3523.96  140.63   0
  -3  -5  -3  467.15   19.98   0
  -3  -5  -3  470.62   19.27   0
  -3  -5  -3  425.98   19.62   0
   3   5   3  431.68   19.16   0
   3   5   3  472.02   19.78   0
  -4  -5  -3   60.63    5.43   0
  -4  -5  -3   66.75    4.56   0
  -4  -5  -3   71.30    5.89   0
   4   5   3   59.66    4.81   0
   4   5   3   71.32    5.40   0
  -5  -5  -3  811.83   33.78   0
  -5  -5  -3  800.35   32.59   0
  -5  -5  -3  820.97   34.56   0
   5   5   3  741.70   32.84   0
   5   5   3  842.12   33.50   0
  -6  -5  -3  498.03   20.36   0
  -6  -5  -3  441.26   21.86   0
  -6  -5  -3  486.55   23.08   0
   6   5   3  452.16   20.90   0
   6   5   3  507.78   21.49   0
  -7  -5  -3  648.21   26.28   0
  -7  -5  -3  646.41   29.08   0
  -7  -5  -3  664.47   30.38   0
   7   5   3  609.44   27.33   0
   7   5   3  630.93   27.67   0
  -8  -5  -3  162.97   14.56   0
  -8  -5  -3  166.56   14.12   0
   8   5   3  157.70   10.08   0
   8   5   3  153.68   10.18   0
   7  -6  -3  607.29   26.06   0
   7  -6  -3  603.01   28.29   0
   7  -6  -3  575.87   30.42   0
  -7   6   3  608.05   28.17   0
  -7   6   3  596.12   30.92   0
  -7   6   3  629.66   30.74   0
   6  -6  -3   28.51    4.95   0
   6  -6  -3   22.05    5.96   0
   6  -6  -3   23.07    5.40   0
  -6   6   3   20.63    4.76   0
  -6   6   3   19.08    5.74   0
   5  -6  -3  259.33   13.54   0
   5  -6  -3  230.23   13.75   0
   5  -6  -3  250.76   15.26   0
  -5   6   3  241.43   14.70   0
  -5   6   3  237.68   12.95   0
  -5   6   3  255.58   14.71   0
   4  -6  -3  167.55    9.89   0
   4  -6  -3  151.82   10.00   0
   4  -6  -3  165.38   11.68   0
  -4   6   3  165.52    9.54   0
  -4   6   3  170.74   10.99   0
  -4   6   3  161.66   10.69   0
   3  -6  -3   41.44    6.48   0
   3  -6  -3   37.89    5.03   0
   3  -6  -3   48.56    4.91   0
  -3   6   3   45.17    5.35   0
  -3   6   3   51.07    5.88   0
  -3   6   3   48.15    4.67   0
   2  -6  -3 3063.25  127.55   0
   2  -6  -3 3354.57  127.50   0
   2  -6  -3 3285.53  129.01   0
  -2   6   3 3362.94  127.95   0
  -2   6   3 3310.49  127.70   0
  -2   6   3 3315.68  127.05   0
   1  -6  -3  854.97   33.92   0
   1  -6  -3  818.91   35.21   0
   1  -6  -3  813.99   34.22   0
  -1   6   3  795.78   33.79   0
   0  -6  -3  498.33   21.96   0
   0  -6  -3  539.87   23.15   0
   0  -6  -3  528.25   22.50   0
   0   6   3  518.45   22.41   0
   0   6   3  488.72   21.79   0
  -1  -6  -3 1429.46   56.43   0
  -1  -6  -3 1349.30   55.73   0
   1   6   3 1247.44   55.26   0
   1   6   3 1596.66   56.41   0
  -2  -6  -3  497.07   22.67   0
  -2  -6  -3  517.15   22.32   0
  -2  -6  -3  584.35   22.84   0
   2   6   3  507.00   22.03   0
   2   6   3  526.79   22.60   0
  -3  -6  -3 2533.15   94.94   0
  -3  -6  -3 2390.40   95.39   0
  -3  -6  -3 2452.62   95.37   0
   3   6   3 2503.13   95.13   0
   3   6   3 2304.11   94.47   0
  -4  -6  -3  247.94   12.76   0
  -4  -6  -3  258.93   13.17   0
  -4  -6  -3  248.09   11.96   0
   4   6   3  273.55   12.52   0
   4   6   3  230.62   11.72   0
  -5  -6  -3   92.26    7.43   0
  -5  -6  -3  101.91    8.13   0
  -5  -6  -3   96.51    6.18   0
   5   6   3   89.86    6.24   0
  -6  -6  -3  702.69   28.80   0
  -6  -6  -3  663.27   30.34   0
  -6  -6  -3  715.15   31.56   0
   6   6   3  671.46   28.84   0
   6   6   3  717.31   29.34   0
  -7  -6  -3  836.31   35.66   0
  -7  -6  -3  799.52   36.73   0
  -7  -6  -3  787.37   32.85   0
   7   6   3  803.50   33.30   0
   7   6   3  807.34   33.61   0
  -8  -6  -3  240.23   17.62   0
  -8  -6  -3  250.81   15.77   0
   8   6   3  225.44   12.04   0
   8   6   3  224.21   12.05   0
   7  -7  -3   55.08    7.36   0
   7  -7  -3   51.69    9.03   0
   7  -7  -3   40.72    6.91   0
   7  -7  -3   74.67   11.62   0
  -7   7   3   61.74    8.16   0
  -7   7   3   34.31    7.56   0
   6  -7  -3 1092.91   46.57   0
   6  -7  -3 1040.82   47.21   0
   6  -7  -3 1152.94   49.29   0
  -6   7   3 1097.10   46.18   0
  -6   7   3 1102.60   48.30   0
  -6   7   3 1077.71   48.25   0
   5  -7  -3  440.26   23.65   0
   5  -7  -3  471.74   25.23   0
   5  -7  -3  520.92   23.41   0
  -5   7   3  504.39   22.93   0
  -5   7   3  471.40   24.51   0
  -5   7   3  540.96   24.84   0
   4  -7  -3  344.97   18.94   0
   4  -7  -3  409.78   18.94   0
   4  -7  -3  388.81   21.08   0
  -4   7   3  416.92   20.01   0
  -4   7   3  378.87   19.76   0
  -4   7   3  396.82   18.50   0
   3  -7  -3   20.92    4.67   0
   3  -7  -3   27.17    4.22   0
   3  -7  -3   22.99    4.74   0
  -3   7   3   17.35    3.88   0
  -3   7   3   16.21    3.48   0
   2  -7  -3  747.96   33.85   0
   2  -7  -3  782.96   32.11   0
   2  -7  -3  702.06   32.44   0
  -2   7   3  804.83   32.69   0
  -2   7   3  740.72   32.17   0
   1  -7  -3 1342.89   53.83   0
   1  -7  -3 1428.16   55.71   0
   1  -7  -3 1301.72   54.46   0
  -1   7   3 1275.69   53.68   0
   0  -7  -3 2945.72  109.75   0
   0  -7  -3 2741.77  109.03   0
   0  -7  -3 2862.31  108.42   0
   0   7   3 2559.12  107.88   0
  -1  -7  -3   42.84    5.45   0
  -1  -7  -3   28.50    5.22   0
  -1  -7  -3   28.09    3.98   0
   1   7   3   28.35    3.93   0
  -2  -7  -3  270.71   13.41   0
  -2  -7  -3  267.73   13.54   0
   2   7   3  312.74   13.78   0
   2   7   3  264.55   12.87   0
  -3  -7  -3  868.25   34.18   0
  -3  -7  -3  822.02   34.62   0
  -3  -7  -3  782.38   34.43   0
   3   7   3  847.72   34.08   0
   3   7   3  791.45   33.38   0
  -4  -7  -3  957.15   39.43   0
  -4  -7  -3  963.51   38.37   0
  -4  -7  -3  886.53   38.91   0
   4   7   3  945.75   38.21   0
   4   7   3  918.45   37.67   0
  -5  -7  -3  385.16   18.92   0
  -5  -7  -3  401.79   17.92   0
   5   7   3  426.40   17.89   0
   5   7   3  367.74   17.22   0
  -6  -7  -3  137.10   10.22   0
  -6  -7  -3  132.49    8.20   0
  -6  -7  -3  130.86   10.78   0
   6   7   3  121.49    7.49   0
  -7  -7  -3  169.74   13.87   0
  -7  -7  -3  178.88   12.71   0
  -7  -7  -3  173.71    9.92   0
   7   7   3  191.29    9.57   0
   7   7   3  153.06    9.03   0
  -8  -7  -3  338.79   20.28   0
  -8  -7  -3  345.39   15.73   0
  -8  -7  -3  396.91   22.89   0
   8   7   3  326.18   14.99   0
   6  -8  -3  389.62   23.83   0
   6  -8  -3  390.45   20.81   0
   6  -8  -3  375.91   21.96   0
  -6   8   3  408.59   22.79   0
  -6   8   3  387.79   23.00   0
  -6   8   3  371.55   20.49   0
   5  -8  -3 1377.82   56.31   0
   5  -8  -3 1240.27   52.91   0
   5  -8  -3 1116.86   53.29   0
  -5   8   3 1220.03   52.30   0
  -5   8   3 1216.02   53.98   0
  -5   8   3 1424.08   54.82   0
   4  -8  -3 1936.43   79.42   0
   4  -8  -3 1758.84   77.27   0
   4  -8  -3 1938.00   76.90   0
  -4   8   3 2025.38   77.90   0
  -4   8   3 1918.23   76.30   0
  -4   8   3 1858.65   77.47   0
   3  -8  -3  301.90   15.40   0
   3  -8  -3  296.49   17.80   0
   3  -8  -3  272.00   16.07   0
  -3   8   3  295.14   15.93   0
  -3   8   3  298.58   15.11   0
  -3   8   3  292.53   15.97   0
   2  -8  -3   42.72    5.63   0
   2  -8  -3   45.19    7.08   0
   2  -8  -3   46.49    8.17   0
  -2   8   3   41.06    6.29   0
  -2   8   3   41.17    6.03   0
   1  -8  -3  733.97   32.89   0
   1  -8  -3  709.64   32.00   0
   1  -8  -3  739.03   31.00   0
  -1   8   3  701.47   30.72   0
   0  -8  -3  132.66   10.09   0
   0  -8  -3  122.00    9.20   0
   0  -8  -3  117.08    8.07   0
   0   8   3  109.88    7.78   0
   0   8   3  142.12    9.03   0
  -1  -8  -3 1244.75   51.36   0
  -1  -8  -3 1172.90   50.29   0
  -1  -8  -3 1231.01   51.31   0
   1   8   3 1404.19   50.84   0
   1   8   3 1144.88   49.62   0
  -2  -8  -3  269.30   14.63   0
  -2  -8  -3  281.38   13.93   0
   2   8   3  247.62   12.73   0
   2   8   3  270.55   13.50   0
  -3  -8  -3   55.07    6.08   0
  -3  -8  -3   55.03    5.59   0
  -3  -8  -3   49.16    6.45   0
   3   8   3   57.69    5.01   0
  -4  -8  -3  194.32   11.67   0
  -4  -8  -3  190.42   10.77   0
  -4  -8  -3  188.37   11.64   0
   4   8   3  199.35   10.27   0
   4   8   3  191.99    9.79   0
  -5  -8  -3    5.34    3.86   0
  -5  -8  -3    4.60    3.67   0
  -5  -8  -3    2.62    2.72   0
   5   8   3    1.72    2.17   0
  -6  -8  -3  159.57    9.67   0
  -6  -8  -3  142.96   11.42   0
  -6  -8  -3  155.58   12.31   0
   6   8   3  156.24    8.01   0
   6   8   3  153.86    8.07   0
  -7  -8  -3   18.95    6.52   0
  -7  -8  -3   14.96    3.84   0
   6  -9  -3   10.46    8.19   0
   6  -9  -3   15.45    7.86   0
  -6   9   3    2.86    6.74   0
  -6   9   3   24.68    6.90   0
   5  -9  -3  294.67   19.32   0
   5  -9  -3  296.91   21.19   0
   5  -9  -3  324.06   18.13   0
  -5   9   3  289.07   16.97   0
  -5   9   3  314.22   19.25   0
  -5   9   3  315.52   19.32   0
   4  -9  -3   78.78    9.09   0
   4  -9  -3   83.83   10.92   0
  -4   9   3   78.75    8.47   0
  -4   9   3   90.54   10.51   0
  -4   9   3  105.47   10.48   0
   3  -9  -3 2288.70   92.42   0
   3  -9  -3 2179.13   93.36   0
   3  -9  -3 2333.08   95.15   0
  -3   9   3 2361.61   92.97   0
  -3   9   3 2406.34   93.02   0
   2  -9  -3  109.05   11.61   0
   2  -9  -3   97.51    8.13   0
   2  -9  -3   88.49   10.00   0
  -2   9   3   90.22    8.69   0
  -2   9   3  105.84    9.09   0
   1  -9  -3  379.54   19.72   0
   1  -9  -3  372.41   20.52   0
   1  -9  -3  383.99   18.31   0
  -1   9   3  344.06   17.81   0
   0  -9  -3  226.58   14.98   0
   0  -9  -3  226.64   12.86   0
   0  -9  -3  230.44   14.32   0
   0   9   3  273.84   13.48   0
   0   9   3  201.25   12.09   0
  -1  -9  -3  109.59    9.39   0
  -1  -9  -3  103.46    9.75   0
  -1  -9  -3   96.03    7.86   0
   1   9   3  111.70    8.34   0
   1   9   3   88.26    7.06   0
  -2  -9  -3  462.09   22.91   0
  -2  -9  -3  481.72   22.61   0
  -2  -9  -3  453.64   21.49   0
   2   9   3  439.47   20.09   0
   2   9   3  453.23   20.78   0
  -3  -9  -3  174.20   11.03   0
  -3  -9  -3  168.19   10.61   0
   3   9   3  173.10    9.34   0
  -4  -9  -3    0.28    2.63   0
  -4  -9  -3   -1.79    3.52   0
  -4  -9  -3    2.59    3.45   0
   4   9   3    5.07    2.26   0
   4   9   3    1.27    2.37   0
  -5  -9  -3  144.61   10.00   0
  -5  -9  -3  133.31   11.19   0
  -5  -9  -3  165.34   11.91   0
   5   9   3  142.03    7.47   0
   5   9   3  152.91    7.72   0
  -6  -9  -3  235.54   13.25   0
  -6  -9  -3  232.43   16.13   0
  -6  -9  -3  229.03   15.67   0
  -7  -9  -3   14.49    4.57   0
  -7  -9  -3    3.24    6.39   0
  -7  -9  -3    2.85    7.05   0
   5 -10  -3   94.88   14.31   0
   5 -10  -3   67.57   11.39   0
  -5  10   3   85.41   13.25   0
  -5  10   3   76.64   14.14   0
   4 -10  -3   19.35    6.08   0
   4 -10  -3   32.65    8.34   0
  -4  10   3   22.21    6.68   0
  -4  10   3   18.97    6.13   0
   3 -10  -3  125.88   12.79   0
   3 -10  -3  108.50   10.45   0
   3 -10  -3  137.34   14.87   0
  -3  10   3  127.60   11.98   0
  -3  10   3  143.99   11.52   0
   2 -10  -3  938.30   43.22   0
   2 -10  -3  918.55   41.92   0
   2 -10  -3  942.49   40.32   0
  -2  10   3  918.91   40.23   0
   1 -10  -3  556.18   26.07   0
   1 -10  -3  599.88   29.14   0
   1 -10  -3  548.22   27.69   0
  -1  10   3  537.79   25.61   0
   0 -10  -3  397.72   19.30   0
   0 -10  -3  393.54   21.75   0
   0 -10  -3  362.73   20.85   0
   0  10   3  360.96   18.26   0
  -1 -10  -3   96.23   10.99   0
  -1 -10  -3  103.98    8.90   0
  -1 -10  -3   96.51   11.47   0
   1  10   3   99.54    7.89   0
   1  10   3  104.66    8.77   0
  -2 -10  -3 1131.74   47.19   0
  -2 -10  -3 1109.07   46.16   0
   2  10   3 1034.65   44.09   0
   2  10   3 1084.53   44.75   0
  -3 -10  -3  203.42   13.44   0
  -3 -10  -3  222.14   13.05   0
  -3 -10  -3  223.46   14.79   0
  -3 -10  -3  206.21   15.45   0
   3  10   3  206.08   10.97   0
   3  10   3  259.29   12.01   0
  -4 -10  -3  305.63   17.56   0
  -4 -10  -3  313.11   16.57   0
   4  10   3  319.30   13.88   0
   4  10   3  307.21   13.60   0
  -5 -10  -3    7.03    5.02   0
  -5 -10  -3    1.68    4.90   0
  -5 -10  -3   10.12    4.27   0
  -6 -10  -3   52.62    8.93   0
  -6 -10  -3   68.98    9.87   0
   4 -11  -3  167.22   19.79   0
   4 -11  -3  196.19   18.26   0
  -4  11   3  162.28   16.74   0
  -4  11   3  183.67   16.00   0
   3 -11  -3   26.71    8.63   0
   3 -11  -3   22.96    5.76   0
   3 -11  -3   18.05    7.71   0
  -3  11   3   26.75    6.55   0
   2 -11  -3  520.04   26.34   0
   2 -11  -3  518.88   29.64   0
   2 -11  -3  598.94   29.40   0
  -2  11   3  506.46   25.94   0
  -2  11   3  567.04   26.82   0
   1 -11  -3  193.05   13.70   0
  -1  11   3  246.27   14.64   0
  -1  11   3  187.06   13.14   0
   0 -11  -3  500.58   27.76   0
   0 -11  -3  483.84   24.53   0
   0  11   3  474.45   23.45   0
   0  11   3  571.91   24.62   0
  -1 -11  -3    9.96    4.39   0
  -1 -11  -3   24.80    7.62   0
   1  11   3   14.19    4.56   0
   1  11   3    7.09    3.70   0
  -2 -11  -3   11.16    4.52   0
  -2 -11  -3   -0.44    5.42   0
  -2 -11  -3   18.52    6.56   0
   2  11   3   13.41    3.54   0
   2  11   3   11.86    3.83   0
  -3 -11  -3  630.59   29.24   0
  -3 -11  -3  659.26   30.02   0
  -3 -11  -3  646.14   30.84   0
  -3 -11  -3  648.27   31.84   0
   3  11   3  613.69   26.24   0
   3  11   3  599.89   25.99   0
  -4 -11  -3    4.77    6.01   0
  -4 -11  -3    9.84    7.69   0
  -4 -11  -3    7.05    4.41   0
  -4 -11  -3   -0.07    5.48   0
  -5 -11  -3  203.71   16.44   0
  -5 -11  -3  199.87   14.18   0
   2 -12  -3   10.25    7.84   0
   2 -12  -3   16.01    9.86   0
   2 -12  -3    1.05    8.87   0
  -2  12   3   -5.92    6.87   0
   1 -12  -3  317.06   23.39   0
   1 -12  -3  294.21   19.13   0
   1 -12  -3  323.18   22.10   0
  -1  12   3  304.13   17.53   0
   0 -12  -3   -2.81    8.05   0
   0 -12  -3   10.09    8.49   0
   0 -12  -3   14.27    5.39   0
   0  12   3    9.60    4.49   0
   0  12   3    1.72    5.46   0
  -1 -12  -3  275.70   20.92   0
  -1 -12  -3  281.55   19.98   0
  -1 -12  -3  267.56   16.90   0
   1  12   3  244.30   14.12   0
   1  12   3  283.95   15.42   0
  -2 -12  -3   -6.86    5.20   0
  -2 -12  -3   -9.77    6.62   0
  -2 -12  -3   16.14    8.17   0
   2  12   3    3.06    3.34   0
  -3 -12  -3    6.86    7.68   0
  -3 -12  -3    7.43    5.27   0
  -3 -12  -3   13.39    6.14   0
  -3 -12  -3    2.45    7.53   0
  -3  -9   4    2.86    5.90   0
  -3  -9   4    1.59    4.16   0
  -3  -9   4   -6.39    7.57   0
  -2  -9   4  550.31   25.90   0
  -2  -9   4  512.00   29.43   0
  -2  -9   4  568.64   24.66   0
  -1  -9   4  132.18   14.41   0
  -1  -9   4  104.01    9.16   0
  -1  -9   4  115.50   11.35   0
   0  -9   4   41.25    6.83   0
   0  -9   4   39.42    7.95   0
   0  -9   4   42.26    7.48   0
   1  -9   4   57.87    8.50   0
   1  -9   4   69.48   10.47   0
   1  -9   4   49.69    9.75   0
   2  -9   4  353.54   19.15   0
   2  -9   4  380.58   23.01   0
   2  -9   4  356.11   20.97   0
  -3   9  -4  359.23   16.59   0
   3  -9   4  383.58   22.66   0
   3  -9   4  404.70   24.30   0
   3  -9   4  397.92   20.84   0
  -4  -8   4   45.22    6.88   0
  -4  -8   4   35.95    5.53   0
  -4  -8   4   28.09    8.44   0
  -4  -8   4   34.58    4.85   0
  -3  -8   4   19.00    4.77   0
  -3  -8   4   21.72    7.12   0
  -3  -8   4   20.49    3.88   0
  -2  -8   4  112.90    9.28   0
  -2  -8   4  122.20    8.06   0
  -1  -8   4  155.97    9.37   0
  -1  -8   4  162.96   13.66   0
  -1  -8   4  153.10   10.80   0
   0  -8   4  641.93   27.87   0
   0  -8   4  635.97   28.98   0
   0  -8   4  663.55   31.32   0
   1  -8   4    6.86    4.47   0
   1  -8   4   10.70    3.42   0
   2  -8   4   71.42   10.81   0
   2  -8   4   51.13    7.26   0
   2  -8   4   29.96    6.16   0
  -3   8  -4 1181.43   50.22   0
  -3   8  -4 1264.32   54.57   0
   3  -8   4 1276.64   52.81   0
   3  -8   4 1278.92   54.14   0
   3  -8   4 1305.40   55.38   0
  -4   8  -4  222.41   16.82   0
  -4   8  -4  215.14   13.31   0
  -4   8  -4  209.17   12.36   0
   4  -8   4  221.84   16.03   0
   4  -8   4  200.32   14.28   0
   4  -8   4  209.75   14.85   0
   4  -8   4  228.52   17.24   0
  -5   8  -4  915.52   39.57   0
  -5   8  -4  913.90   40.41   0
   5  -8   4  888.82   41.88   0
   5  -8   4  892.80   42.54   0
   5  -8   4  924.35   43.63   0
   5  -8   4  936.73   41.76   0
  -5  -7   4   32.68    5.20   0
  -5  -7   4   17.63    4.32   0
  -5  -7   4   22.95    7.79   0
  -4  -7   4 1224.66   47.57   0
  -4  -7   4 1133.97   45.53   0
  -4  -7   4 1233.63   50.05   0
  -4  -7   4  973.69   45.28   0
  -3  -7   4    0.11    2.17   0
  -3  -7   4    1.15    2.78   0
  -3  -7   4    5.53    5.11   0
  -2  -7   4   65.10    6.56   0
  -2  -7   4   75.78    9.77   0
  -1  -7   4  345.73   15.69   0
  -1  -7   4  332.00   16.49   0
  -1  -7   4  366.08   19.39   0
   0  -7   4    6.39    3.26   0
   0  -7   4    6.21    2.51   0
   0  -7   4    7.08    4.30   0
   1  -7   4 1346.66   53.67   0
   1  -7   4 1351.94   56.17   0
   1  -7   4 1287.27   54.37   0
  -2   7  -4    9.02    1.87   0
  -2   7  -4   11.56    2.08   0
  -2   7  -4   16.84    4.74   0
   2  -7   4   11.13    3.14   0
   2  -7   4    8.98    3.92   0
   2  -7   4   14.61    5.30   0
  -3   7  -4    3.40    2.55   0
  -3   7  -4   -0.10    4.51   0
  -3   7  -4   -3.67    2.76   0
   3  -7   4    1.59    4.13   0
   3  -7   4    4.37    3.09   0
   3  -7   4    4.20    5.30   0
  -4   7  -4  914.33   40.84   0
  -4   7  -4  919.90   40.30   0
  -4   7  -4  959.49   43.26   0
   4  -7   4  961.58   42.82   0
   4  -7   4 1054.89   42.77   0
   4  -7   4 1008.04   43.60   0
   4  -7   4  948.98   41.55   0
  -5   7  -4   25.54    6.04   0
  -5   7  -4   13.32    4.33   0
  -5   7  -4   15.28    6.44   0
   5  -7   4   12.98    4.86   0
   5  -7   4   15.46    6.37   0
   5  -7   4   18.09    5.52   0
   5  -7   4   20.73    4.93   0
  -6   7  -4  725.54   34.79   0
  -6   7  -4  746.95   33.67   0
   6  -7   4  758.54   36.69   0
   6  -7   4  701.37   33.91   0
   6  -7   4  702.65   35.74   0
  -6  -6   4   94.39    8.35   0
  -6  -6   4   77.48    6.46   0
  -6  -6   4   95.63    6.36   0
  -6  -6   4   84.67    9.28   0
  -5  -6   4  101.31    7.45   0
  -5  -6   4  116.72    7.94   0
  -5  -6   4  104.16    8.10   0
  -5  -6   4  128.95   12.26   0
  -4  -6   4   13.77    3.58   0
  -4  -6   4    9.74    2.53   0
  -4  -6   4    6.95    5.28   0
  -3  -6   4 1211.51   47.81   0
  -3  -6   4 1202.09   45.75   0
  -3  -6   4 1026.21   48.63   0
  -3  -6   4 1198.43   45.75   0
  -2  -6   4  469.78   22.45   0
  -2  -6   4  451.74   18.94   0
  -2  -6   4  449.12   19.30   0
  -1  -6   4   26.31    4.53   0
  -1  -6   4   31.78    3.54   0
  -1  -6   4   33.50    5.55   0
   0  -6   4  257.98   11.85   0
   0  -6   4  238.02   12.58   0
   0  -6   4  251.73   14.40   0
  -1   6  -4  216.44   13.39   0
   1  -6   4  238.42   11.64   0
   1  -6   4  230.55   13.94   0
   1  -6   4  237.27   12.47   0
  -2   6  -4 1563.94   63.38   0
  -2   6  -4 1545.63   60.14   0
   2  -6   4 1511.54   62.40   0
   2  -6   4 1541.71   61.72   0
   2  -6   4 1542.15   63.50   0
  -3   6  -4  359.72   17.42   0
  -3   6  -4  382.03   19.75   0
  -3   6  -4  371.00   17.06   0
   3  -6   4  393.56   18.19   0
   3  -6   4  387.83   19.91   0
   3  -6   4  366.28   18.82   0
  -4   6  -4   97.80    8.80   0
  -4   6  -4  105.17    7.95   0
  -4   6  -4   90.81    9.88   0
   4  -6   4  104.35    8.73   0
   4  -6   4  116.77    8.65   0
   4  -6   4  114.21   10.18   0
   4  -6   4  104.92    9.61   0
  -5   6  -4   41.01    7.03   0
  -5   6  -4   60.69    9.70   0
  -5   6  -4   57.21    8.78   0
   5  -6   4   42.82    6.12   0
   5  -6   4   52.83    8.76   0
   5  -6   4   51.43    7.59   0
  -6   6  -4  633.20   31.97   0
  -6   6  -4  648.20   30.03   0
  -6   6  -4  606.67   30.92   0
   6  -6   4  623.05   31.57   0
   6  -6   4  661.82   32.21   0
   6  -6   4  613.07   30.25   0
   6  -6   4  724.09   30.64   0
  -7   6  -4   15.17    5.96   0
  -7   6  -4   35.10    8.44   0
   7  -6   4   23.57    7.57   0
   7  -6   4   25.82    6.04   0
   7  -6   4   30.45    8.73   0
  -6  -5   4  148.27   10.32   0
  -6  -5   4  158.62    9.95   0
  -5  -5   4   43.57    5.12   0
  -5  -5   4   51.53    5.10   0
  -4  -5   4   83.69    5.27   0
  -4  -5   4   82.66    6.47   0
  -4  -5   4   80.57    5.20   0
  -4  -5   4   85.32    8.66   0
  -3  -5   4   31.71    5.06   0
  -3  -5   4   40.15    3.13   0
  -3  -5   4   34.11    4.96   0
  -3  -5   4   43.17    3.28   0
  -2  -5   4 1177.86   48.85   0
  -2  -5   4 1186.75   45.92   0
  -1  -5   4 1467.35   56.79   0
  -1  -5   4 1487.50   57.15   0
  -1  -5   4 1428.55   59.25   0
   0  -5   4  375.50   16.72   0
   0  -5   4  368.13   18.25   0
   0  -5   4  391.62   16.23   0
  -1   5  -4   11.66    3.46   0
   1  -5   4   14.58    2.99   0
  -2   5  -4 2180.50   86.74   0
  -2   5  -4 2350.50   89.32   0
  -2   5  -4 2284.16   86.58   0
   2  -5   4 2149.75   88.03   0
   2  -5   4 2234.92   87.63   0
   2  -5   4 2203.36   88.97   0
  -3   5  -4    1.16    3.10   0
  -3   5  -4    5.95    2.81   0
  -3   5  -4    5.46    2.27   0
   3  -5   4    2.13    2.04   0
   3  -5   4    2.33    2.99   0
  -4   5  -4 1409.84   57.85   0
  -4   5  -4 1351.59   56.64   0
  -4   5  -4 1330.45   55.93   0
   4  -5   4 1395.59   56.65   0
   4  -5   4 1368.52   57.61   0
   4  -5   4 1417.34   56.86   0
   4  -5   4 1425.57   57.40   0
  -5   5  -4    0.81    3.87   0
  -5   5  -4    6.98    4.16   0
  -5   5  -4    1.63    2.83   0
   5  -5   4    5.82    3.21   0
   5  -5   4    1.53    3.31   0
   5  -5   4    7.29    3.25   0
   5  -5   4   -6.15    3.65   0
  -6   5  -4    2.75    4.51   0
  -6   5  -4    2.25    5.39   0
  -6   5  -4   -0.77    3.61   0
   6  -5   4   -2.49    3.70   0
   6  -5   4   -0.45    3.32   0
   6  -5   4    7.22    5.18   0
  -7   5  -4  658.63   33.95   0
  -7   5  -4  680.20   34.27   0
  -7   5  -4  683.64   32.68   0
   7  -5   4  701.11   34.21   0
   7  -5   4  718.05   33.14   0
   7  -5   4  708.99   34.44   0
   7  -5   4  741.61   32.03   0
  -7  -4   4    3.89    4.61   0
  -7  -4   4    6.96    5.05   0
  -6  -4   4  226.24   12.37   0
  -6  -4   4  212.04   11.79   0
  -5  -4   4 1055.04   42.40   0
  -5  -4   4 1052.52   41.41   0
  -5  -4   4 1052.09   42.08   0
  -4  -4   4  112.66    5.81   0
  -4  -4   4  109.08    6.60   0
  -4  -4   4  102.45    5.84   0
  -3  -4   4   64.40    3.32   0
  -3  -4   4   47.50    6.11   0
  -3  -4   4   60.50    5.01   0
  -3  -4   4   56.47    3.20   0
  -2  -4   4 1061.45   42.29   0
  -2  -4   4 1027.71   42.92   0
  -1  -4   4  108.86    5.49   0
  -1  -4   4  115.20    5.23   0
  -1  -4   4  112.93    7.59   0
   0  -4   4 2733.66  104.81   0
   0  -4   4 2688.05  106.57   0
   0  -4   4 2753.78  105.13   0
  -1   4  -4  108.99    7.38   0
   1  -4   4  105.53    6.36   0
   1  -4   4  105.15    7.47   0
   1  -4   4  106.70    5.93   0
  -2   4  -4   35.52    3.18   0
  -2   4  -4   34.09    3.58   0
  -2   4  -4   30.55    4.54   0
   2  -4   4   21.40    3.75   0
   2  -4   4   28.47    4.03   0
   2  -4   4   30.23    3.50   0
  -3   4  -4 2861.66  109.64   0
  -3   4  -4 2678.31  107.85   0
  -3   4  -4 2706.07  108.32   0
   3  -4   4 2788.15  108.78   0
   3  -4   4 2788.97  108.87   0
   3  -4   4 2785.91  109.28   0
   3  -4   4 2821.43  108.50   0
  -4   4  -4  530.46   23.90   0
  -4   4  -4  530.20   24.50   0
  -4   4  -4  524.89   23.17   0
   4  -4   4  532.38   24.35   0
   4  -4   4  526.81   23.50   0
   4  -4   4  541.01   24.16   0
   4  -4   4  472.39   23.26   0
  -5   4  -4 1942.01   76.86   0
  -5   4  -4 1839.56   75.77   0
  -5   4  -4 1940.52   77.12   0
   5  -4   4 1942.72   76.90   0
   5  -4   4 1920.09   75.81   0
   5  -4   4 1788.63   76.00   0
   5  -4   4 1877.23   76.93   0
  -6   4  -4  104.33    9.13   0
  -6   4  -4  100.34   10.20   0
  -6   4  -4  101.87   10.36   0
   6  -4   4   93.59    8.14   0
   6  -4   4  104.48   10.00   0
   6  -4   4  108.58   10.40   0
   6  -4   4  109.45    9.08   0
  -7   4  -4  188.02   15.08   0
  -7   4  -4  190.53   13.67   0
  -7   4  -4  184.74   15.17   0
   7  -4   4  198.08   13.63   0
   7  -4   4  199.62   14.65   0
   7  -4   4  204.57   12.39   0
   7  -4   4  187.20   14.77   0
  -8   4  -4  132.69   13.87   0
  -8   4  -4  151.13   16.54   0
   8  -4   4  133.67   14.73   0
   8  -4   4  165.07   11.37   0
  -7  -3   4  285.68   15.94   0
  -7  -3   4  299.93   16.57   0
  -6  -3   4   32.70    6.05   0
  -6  -3   4   32.47    5.82   0
  -5  -3   4   36.46    4.57   0
  -4  -3   4 1049.92   40.99   0
  -4  -3   4 1017.52   40.97   0
  -4  -3   4 1049.53   40.86   0
  -3  -3   4  248.87   11.49   0
  -2  -3   4   69.35    5.47   0
  -2  -3   4   67.26    4.81   0
  -1  -3   4 2539.16   97.16   0
  -1  -3   4 2461.08   97.35   0
   0   3  -4  274.62   13.45   0
   0  -3   4  295.62   12.02   0
   0  -3   4  276.42   13.05   0
   0  -3   4  277.46   13.24   0
   0  -3   4  280.32   11.76   0
  -1   3  -4 5454.24  204.51   0
   1  -3   4 5379.92  203.18   0
   1  -3   4 5087.21  203.97   0
   1  -3   4 5200.88  204.14   0
   1  -3   4 5429.21  203.37   0
  -2   3  -4  136.33    8.55   0
  -2   3  -4  143.87    7.55   0
  -2   3  -4  153.71    7.37   0
   2  -3   4  159.11    7.85   0
   2  -3   4  143.24    7.90   0
   2  -3   4  146.54    8.11   0
   2  -3   4  138.11    8.36   0
  -3   3  -4 1004.85   41.47   0
  -3   3  -4  971.70   40.26   0
   3  -3   4  998.41   40.92   0
   3  -3   4 1021.03   40.75   0
   3  -3   4 1000.29   40.77   0
   3  -3   4  988.43   41.21   0
  -4   3  -4  997.49   40.66   0
  -4   3  -4  954.31   40.11   0
  -4   3  -4  947.02   39.49   0
   4  -3   4  972.63   40.38   0
   4  -3   4  948.12   39.51   0
   4  -3   4  951.94   40.15   0
   4  -3   4  941.04   39.78   0
  -5   3  -4 2127.25   88.47   0
  -5   3  -4 2286.73   89.64   0
  -5   3  -4 2281.30   89.47   0
   5  -3   4 2212.87   88.18   0
   5  -3   4 2294.92   89.05   0
   5  -3   4 2263.30   89.53   0
   5  -3   4 2178.96   89.21   0
  -6   3  -4  327.59   17.24   0
  -6   3  -4  317.81   17.86   0
  -6   3  -4  337.57   18.28   0
   6  -3   4  348.23   18.37   0
   6  -3   4  314.55   16.17   0
   6  -3   4  321.74   17.17   0
   6  -3   4  342.22   18.07   0
  -7   3  -4  313.08   19.18   0
  -7   3  -4  305.75   18.74   0
  -7   3  -4  393.11   18.95   0
   7  -3   4  297.10   16.35   0
   7  -3   4  376.64   19.64   0
   7  -3   4  312.48   17.92   0
  -8   3  -4  146.37   13.32   0
  -8   3  -4  168.11   15.81   0
  -8   3  -4  165.24   15.03   0
   8  -3   4  173.20   11.16   0
   8  -3   4  180.96   14.60   0
   8  -3   4  168.43   13.49   0
  -7  -2   4   89.45    9.35   0
  -7  -2   4   99.37    9.92   0
  -7  -2   4   90.63    9.32   0
  -6  -2   4  231.79   12.24   0
  -6  -2   4  216.98   12.41   0
  -5  -2   4  224.38   10.62   0
  -5  -2   4  186.00   10.21   0
  -4  -2   4  270.44   11.42   0
  -4  -2   4  280.71   12.05   0
  -4  -2   4  262.92   12.02   0
  -3  -2   4 1480.57   55.80   0
  -3  -2   4 1413.31   55.13   0
  -3  -2   4 1399.46   55.05   0
  -2  -2   4 1818.51   70.50   0
  -2  -2   4 1807.52   70.76   0
  -1  -2   4  346.71   15.04   0
  -1  -2   4  341.61   14.91   0
   0   2  -4  480.72   20.96   0
   0  -2   4  504.86   20.86   0
   0  -2   4  479.57   20.81   0
   0  -2   4  506.35   19.74   0
   0  -2   4  514.32   19.71   0
  -1   2  -4 3287.45  125.37   0
  -1   2  -4 3202.28  123.80   0
  -1   2  -4 3206.22  123.70   0
   1  -2   4 3335.41  124.46   0
   1  -2   4 3158.93  125.07   0
   1  -2   4 3199.50  125.08   0
   1  -2   4 3293.55  124.48   0
  -2   2  -4 1034.36   40.53   0
  -2   2  -4 1088.62   40.33   0
   2  -2   4  996.34   40.63   0
   2  -2   4  992.93   40.95   0
   2  -2   4 1013.38   40.58   0
   2  -2   4  963.81   40.76   0
  -3   2  -4 2030.71   78.97   0
  -3   2  -4 2089.59   78.64   0
  -3   2  -4 2032.78   79.40   0
   3  -2   4 1926.71   78.62   0
   3  -2   4 2035.91   78.88   0
   3  -2   4 1959.68   78.91   0
   3  -2   4 1979.27   79.09   0
  -4   2  -4 1004.20   42.25   0
  -4   2  -4 1054.81   42.91   0
  -4   2  -4 1061.46   43.07   0
   4  -2   4 1016.45   42.71   0
   4  -2   4 1051.24   42.60   0
   4  -2   4 1044.69   42.08   0
   4  -2   4 1022.89   42.83   0
  -5   2  -4  144.90    9.72   0
  -5   2  -4  141.07    9.44   0
  -5   2  -4  139.00    8.95   0
   5  -2   4  143.77    8.35   0
   5  -2   4  142.00    9.44   0
   5  -2   4  142.08    9.56   0
   5  -2   4  133.53    8.90   0
  -6   2  -4 2680.12  106.66   0
  -6   2  -4 2636.22  107.44   0
  -6   2  -4 2764.37  107.41   0
   6  -2   4 2566.45  105.31   0
   6  -2   4 2812.81  107.09   0
   6  -2   4 2712.42  107.23   0
   6  -2   4 2693.98  107.34   0
  -7   2  -4   -3.52    4.27   0
  -7   2  -4    0.02    4.54   0
  -7   2  -4   -1.09    3.20   0
   7  -2   4    5.28    3.95   0
   7  -2   4   -2.05    3.89   0
   7  -2   4   -0.48    2.57   0
  -8   2  -4  235.00   16.40   0
  -8   2  -4  243.07   17.64   0
  -8   2  -4  259.82   16.28   0
   8  -2   4  227.14   15.23   0
   8  -2   4  235.77   16.07   0
   8  -2   4  230.58   12.85   0
  -8  -1   4  225.64   15.73   0
  -8  -1   4  227.23   16.71   0
  -8  -1   4  201.26   14.85   0
  -7  -1   4  884.87   36.49   0
  -7  -1   4  864.62   36.08   0
  -7  -1   4  715.65   34.95   0
  -6  -1   4 1344.10   53.44   0
  -6  -1   4 1272.99   53.31   0
  -6  -1   4 1327.12   53.60   0
  -5  -1   4  377.22   16.81   0
  -5  -1   4  356.57   16.60   0
  -4  -1   4   11.44    2.11   0
  -4  -1   4    9.14    2.04   0
  -3  -1   4 1881.54   71.41   0
  -3  -1   4 1824.51   71.37   0
  -3  -1   4 1851.09   71.42   0
  -2  -1   4 1018.34   39.20   0
  -2  -1   4  969.05   39.05   0
  -1  -1   4 3441.06  132.86   0
  -1  -1   4 3480.99  132.67   0
   0   1  -4  438.26   18.63   0
   0  -1   4  448.49   18.44   0
   0  -1   4  444.71   17.73   0
   0  -1   4  453.19   18.72   0
   0  -1   4  459.16   17.73   0
  -1   1  -4   33.17    2.23   0
  -1   1  -4   28.23    2.77   0
  -1   1  -4   32.82    2.26   0
   1  -1   4   33.84    2.85   0
   1  -1   4   31.71    2.49   0
   1  -1   4   32.48    2.45   0
   1  -1   4   30.20    2.77   0
  -2   1  -4 4853.10  185.05   0
  -2   1  -4 4728.53  185.64   0
  -2   1  -4 4894.52  185.31   0
   2  -1   4 4849.68  185.34   0
   2  -1   4 4753.22  185.47   0
   2  -1   4 4979.94  185.40   0
   2  -1   4 4776.99  185.40   0
  -3   1  -4  783.68   30.88   0
  -3   1  -4  760.52   31.34   0
  -3   1  -4  772.81   31.19   0
   3  -1   4  771.09   30.79   0
   3  -1   4  657.26   30.74   0
   3  -1   4  748.98   31.09   0
   3  -1   4  768.65   31.23   0
  -4   1  -4 1489.51   60.31   0
  -4   1  -4 1532.96   60.41   0
  -4   1  -4 1452.69   59.77   0
   4  -1   4 1570.61   60.24   0
   4  -1   4 1470.27   59.34   0
   4  -1   4 1516.71   60.21   0
   4  -1   4 1480.79   60.27   0
  -5   1  -4  101.49    7.49   0
  -5   1  -4   96.40    7.70   0
  -5   1  -4   86.33    6.99   0
   5  -1   4  105.97    7.34   0
   5  -1   4  100.99    6.33   0
   5  -1   4   93.31    7.44   0
   5  -1   4  101.53    7.66   0
  -6   1  -4   21.30    4.27   0
  -6   1  -4   24.91    4.54   0
  -6   1  -4   25.49    4.38   0
   6  -1   4   25.15    4.88   0
   6  -1   4   22.84    3.84   0
   6  -1   4   29.56    4.01   0
  -7   1  -4 1924.72   76.63   0
  -7   1  -4 1843.37   77.35   0
  -7   1  -4 1831.22   76.73   0
   7  -1   4 1855.20   74.34   0
   7  -1   4 1837.70   76.64   0
   7  -1   4 1993.85   76.80   0
  -8   1  -4   80.85   12.39   0
  -8   1  -4  100.59   10.66   0
  -8   1  -4   65.77   10.42   0
   8  -1   4   65.18    9.11   0
   8  -1   4   82.00    6.90   0
  -9   1  -4  268.24   18.32   0
   9  -1   4  254.42   13.57   0
   9  -1   4  236.48   18.01   0
   9  -1   4  270.30   17.65   0
  -8   0   4    2.67    6.28   0
  -8   0   4    3.41    5.14   0
  -7   0   4  162.51   10.79   0
  -7   0   4  165.78   11.85   0
  -7   0   4  165.49   12.39   0
  -6   0   4  310.88   15.15   0
  -6   0   4  303.64   15.82   0
  -6   0   4  319.84   16.13   0
  -5   0   4 2098.58   78.92   0
  -5   0   4 1977.19   78.71   0
  -5   0   4 1917.91   78.20   0
  -4   0   4  256.25   11.86   0
  -4   0   4  250.28   11.81   0
  -3   0   4  479.93   19.37   0
  -3   0   4  498.76   19.98   0
  -3   0   4  483.31   19.98   0
   2   0  -4 7308.07  277.40   0
  -2   0   4 6704.37  275.92   0
   1   0  -4  705.14   28.19   0
  -1   0   4  724.82   27.60   0
  -1   0   4  720.45   27.42   0
  -1   0   4  711.60   28.11   0
  -1   0   4  667.20   27.37   0
   0   0  -4 7522.93  310.54   0
   0   0   4 8297.43  310.79   0
  -1   0  -4  285.47   11.66   0
  -1   0  -4  272.08   12.19   0
  -1   0  -4  264.14   11.91   0
  -1   0  -4  271.74   11.64   0
   1   0   4  283.62   11.85   0
   1   0   4  289.69   11.89   0
   1   0   4  273.94   12.06   0
   1   0   4  276.52   11.82   0
  -2   0  -4  294.44   13.27   0
  -2   0  -4  332.31   13.19   0
  -2   0  -4  297.13   13.31   0
  -2   0  -4  308.40   13.26   0
   2   0   4  296.50   13.22   0
   2   0   4  286.41   13.08   0
   2   0   4  299.48   13.25   0
   2   0   4  294.89   13.24   0
  -3   0  -4 2059.92   81.51   0
  -3   0  -4 2055.02   81.45   0
  -3   0  -4 2048.61   81.80   0
  -3   0  -4 2117.80   81.91   0
   3   0   4 2107.37   81.80   0
   3   0   4 2058.60   81.26   0
   3   0   4 2099.13   81.84   0
   3   0   4 2183.25   81.93   0
  -4   0  -4 1321.84   52.75   0
  -4   0  -4 1336.19   52.68   0
  -4   0  -4 1227.15   52.09   0
   4   0   4 1294.01   51.60   0
   4   0   4 1372.52   52.61   0
   4   0   4 1315.92   52.60   0
   4   0   4 1262.49   52.45   0
  -5   0  -4  149.11    9.27   0
  -5   0  -4  159.20    9.71   0
  -5   0  -4  151.38    9.03   0
   5   0   4  146.14    9.19   0
   5   0   4  138.58    7.83   0
   5   0   4  145.13    9.08   0
  -6   0  -4   11.42    3.11   0
  -6   0  -4   14.23    4.00   0
  -6   0  -4   19.76    4.46   0
   6   0   4   22.49    4.18   0
   6   0   4   17.26    2.84   0
  -7   0  -4    9.71    3.73   0
  -7   0  -4   10.37    4.31   0
  -7   0  -4   15.02    4.18   0
   7   0   4   11.24    3.67   0
   7   0   4   19.60    3.13   0
   7   0   4   19.35    4.57   0
  -8   0  -4  409.93   22.28   0
  -8   0  -4  407.42   21.83   0
  -8   0  -4  394.13   22.84   0
   8   0   4  440.00   21.81   0
   8   0   4  409.03   18.67   0
   8   0   4  439.12   22.40   0
  -9   0  -4  257.02   17.65   0
  -9   0  -4  246.41   18.28   0
   9   0   4  242.91   17.62   0
   9   0   4  275.47   17.10   0
   9   0   4  236.40   12.58   0
  -8   1   4    6.41    4.99   0
  -8   1   4    1.36    6.64   0
  -8   1   4    4.34    5.86   0
   7  -1  -4    6.69    1.87   0
   7  -1  -4    7.87    2.18   0
  -7   1   4   -1.62    4.02   0
  -7   1   4    5.68    3.56   0
  -7   1   4    8.40    4.60   0
   6  -1  -4  628.94   24.80   0
   6  -1  -4  650.11   25.15   0
  -6   1   4  542.70   27.17   0
  -6   1   4  599.22   27.52   0
  -6   1   4  647.31   26.37   0
   5  -1  -4    1.99    1.52   0
   5  -1  -4    2.68    1.29   0
  -5   1   4    4.86    2.54   0
  -5   1   4    3.02    2.36   0
  -5   1   4   -0.86    1.78   0
   4  -1  -4 2605.56   98.38   0
   4  -1  -4 2480.32   98.54   0
  -4   1   4 2585.57   98.97   0
  -4   1   4 2587.47   99.84   0
   3  -1  -4  205.19    8.78   0
   3  -1  -4  201.91    8.59   0
   3  -1  -4  206.91    8.82   0
  -3   1   4  213.60    9.77   0
  -3   1   4  207.52    9.66   0
  -3   1   4  197.40    8.91   0
   2  -1  -4 1123.40   44.40   0
   2  -1  -4 1134.65   44.91   0
   2  -1  -4 1125.17   44.33   0
  -2   1   4 1206.54   45.10   0
  -2   1   4 1231.28   45.26   0
  -2   1   4 1138.22   44.30   0
  -2   1   4 1113.97   44.79   0
   1  -1  -4 3663.59  144.37   0
  -1   1   4 3580.55  144.28   0
  -1   1   4 4070.88  144.34   0
   0  -1  -4 7258.49  301.00   0
   0   1   4 7893.34  301.29   0
  -1  -1  -4 3316.46  124.87   0
  -1  -1  -4 3297.13  125.11   0
   1   1   4 3254.33  124.91   0
   1   1   4 3152.64  124.95   0
  -2  -1  -4 3932.98  144.09   0
  -2  -1  -4 3747.22  144.11   0
  -2  -1  -4 3711.67  144.07   0
  -2  -1  -4 3776.78  144.22   0
   2   1   4 3659.16  143.91   0
   2   1   4 3789.17  144.25   0
   2   1   4 3638.64  144.12   0
  -3  -1  -4  922.28   37.05   0
  -3  -1  -4  933.68   37.52   0
  -3  -1  -4  908.81   37.57   0
  -3  -1  -4  926.40   37.24   0
   3   1   4  934.76   37.50   0
   3   1   4  927.55   37.46   0
   3   1   4  921.94   36.89   0
  -4  -1  -4  373.32   16.94   0
  -4  -1  -4  367.69   16.04   0
  -4  -1  -4  373.61   17.09   0
  -4  -1  -4  361.62   16.54   0
   4   1   4  363.26   15.85   0
   4   1   4  371.16   16.82   0
   4   1   4  356.08   16.79   0
  -5  -1  -4 1986.47   77.67   0
  -5  -1  -4 1992.01   77.46   0
  -5  -1  -4 1961.03   76.02   0
  -5  -1  -4 1873.32   76.81   0
   5   1   4 1899.10   77.09   0
   5   1   4 1973.00   77.23   0
   5   1   4 1901.53   75.71   0
  -6  -1  -4   27.76    4.72   0
  -6  -1  -4   24.02    4.18   0
  -6  -1  -4   27.47    4.74   0
   6   1   4   27.52    4.80   0
   6   1   4   29.68    5.00   0
   6   1   4   21.16    3.48   0
   7   1   4   54.78    4.85   0
   7   1   4   43.83    6.80   0
   7   1   4   70.31    7.69   0
  -8  -1  -4   61.46   10.10   0
  -8  -1  -4   62.20    9.17   0
   8   1   4   56.06    7.87   0
   8   1   4   55.10    9.17   0
   8   1   4   50.82    5.21   0
  -9  -1  -4   11.47    5.72   0
  -9  -1  -4   13.85    7.74   0
  -9  -1  -4   11.77    6.33   0
   9   1   4    3.64    4.99   0
   9   1   4    7.13    2.93   0
   9   1   4   14.95    6.44   0
   8  -2  -4  133.22    8.84   0
   8  -2  -4  170.32   10.25   0
  -8   2   4  153.29   14.54   0
  -8   2   4  173.93   12.16   0
  -8   2   4  159.26   15.55   0
   7  -2  -4  209.12   11.44   0
   7  -2  -4  200.72   10.46   0
  -7   2   4  205.50   11.75   0
  -7   2   4  216.48   14.28   0
  -7   2   4  176.28   13.55   0
   6  -2  -4    8.67    2.86   0
  -6   2   4   11.73    3.75   0
  -6   2   4   11.24    3.78   0
  -6   2   4   14.01    3.29   0
   5  -2  -4  871.01   36.28   0
   5  -2  -4  892.81   35.68   0
  -5   2   4  894.31   35.80   0
  -5   2   4  878.13   37.25   0
  -5   2   4  895.08   37.37   0
   4  -2  -4  595.78   23.96   0
   4  -2  -4  595.34   25.19   0
   4  -2  -4  625.21   24.75   0
  -4   2   4  633.57   25.98   0
  -4   2   4  592.48   24.47   0
  -4   2   4  583.08   25.73   0
   3  -2  -4 2722.79  105.14   0
   3  -2  -4 2627.59  104.38   0
   3  -2  -4 2681.72  104.71   0
  -3   2   4 2661.35  105.41   0
  -3   2   4 2865.33  105.70   0
  -3   2   4 2768.38  104.26   0
   2  -2  -4 1659.68   64.57   0
   2  -2  -4 1653.85   64.89   0
   2  -2  -4 1623.14   64.53   0
  -2   2   4 1670.14   64.98   0
  -2   2   4 1683.98   65.17   0
  -2   2   4 1692.57   63.77   0
  -2   2   4 1696.73   64.54   0
   1  -2  -4 1090.39   42.82   0
   1  -2  -4 1042.44   42.40   0
   1  -2  -4 1057.77   42.57   0
  -1   2   4 1169.57   42.96   0
  -1   2   4 1097.41   42.56   0
  -1   2   4 1069.07   42.61   0
   0  -2  -4  238.58   10.24   0
   0  -2  -4  211.15    9.88   0
   0  -2  -4  226.08    9.83   0
   0   2   4  224.78    9.86   0
   0   2   4  229.26    9.92   0
  -1  -2  -4 7706.87  318.13   0
   1   2   4 8085.16  319.35   0
  -2  -2  -4   10.59    1.77   0
  -2  -2  -4   13.37    2.15   0
   2   2   4   13.21    1.91   0
  -3  -2  -4 3646.88  142.01   0
  -3  -2  -4 3680.73  141.87   0
  -3  -2  -4 3691.74  141.66   0
  -3  -2  -4 3723.31  141.34   0
   3   2   4 3734.70  141.98   0
   3   2   4 3621.70  141.76   0
   3   2   4 3629.92  141.15   0
  -4  -2  -4  405.51   18.90   0
  -4  -2  -4  441.34   19.51   0
  -4  -2  -4  446.01   18.51   0
  -4  -2  -4  416.80   19.48   0
   4   2   4  439.27   18.31   0
   4   2   4  428.89   19.23   0
   4   2   4  452.60   19.48   0
  -5  -2  -4  242.71   11.46   0
  -5  -2  -4  239.96   12.41   0
  -5  -2  -4  240.22   12.86   0
  -5  -2  -4  237.04   13.02   0
   5   2   4  236.34   11.21   0
   5   2   4  245.77   12.64   0
   5   2   4  256.35   12.72   0
  -6  -2  -4 2083.90   82.63   0
  -6  -2  -4 1965.87   81.56   0
  -6  -2  -4 2071.41   82.38   0
  -6  -2  -4 1993.98   80.08   0
   6   2   4 2122.16   81.87   0
   6   2   4 1982.92   79.80   0
   6   2   4 2130.52   81.95   0
  -7  -2  -4  628.59   28.37   0
  -7  -2  -4  643.20   28.84   0
  -7  -2  -4  588.04   27.50   0
   7   2   4  516.05   26.95   0
   7   2   4  630.76   27.59   0
   7   2   4  597.97   24.93   0
  -8  -2  -4   85.14   10.44   0
  -8  -2  -4   81.23   10.43   0
   8   2   4   73.08    9.27   0
  -9  -2  -4   16.96    7.02   0
  -9  -2  -4   23.00    6.85   0
  -9  -2  -4   13.69    6.12   0
   9   2   4   13.91    5.40   0
   8  -3  -4   84.92    8.24   0
   8  -3  -4   96.26   10.26   0
  -8   3   4   95.49   10.61   0
  -8   3   4   94.76   14.31   0
  -8   3   4   83.34   12.97   0
   7  -3  -4   71.90    8.26   0
   7  -3  -4   68.83    6.86   0
  -7   3   4   74.96    7.65   0
  -7   3   4   63.69   10.13   0
  -7   3   4   62.98   10.34   0
   6  -3  -4 1067.41   42.26   0
   6  -3  -4 1040.14   43.27   0
   6  -3  -4  997.19   40.14   0
  -6   3   4 1043.75   42.16   0
  -6   3   4 1035.05   44.31   0
  -6   3   4 1025.09   44.23   0
   5  -3  -4   11.47    2.48   0
   5  -3  -4   13.47    2.22   0
   5  -3  -4    9.82    3.11   0
  -5   3   4   13.88    3.67   0
  -5   3   4   10.15    3.58   0
  -5   3   4   21.77    3.65   0
   4  -3  -4   54.63    5.23   0
   4  -3  -4   56.03    3.65   0
  -4   3   4   55.59    5.53   0
  -4   3   4   61.06    5.90   0
   3  -3  -4 2959.09  117.88   0
   3  -3  -4 3003.27  117.28   0
   3  -3  -4 3012.79  116.79   0
  -3   3   4 3029.23  117.93   0
  -3   3   4 3170.50  118.16   0
  -3   3   4 3064.46  116.54   0
   2  -3  -4  196.25    8.53   0
   2  -3  -4  205.30    9.98   0
   2  -3  -4  203.45    9.08   0
   2  -3  -4  210.99    9.36   0
  -2   3   4  197.44    9.82   0
  -2   3   4  196.75    8.42   0
  -2   3   4  191.20    9.57   0
   1  -3  -4 3331.35  134.05   0
   1  -3  -4 3380.29  135.46   0
   1  -3  -4 3646.28  134.89   0
   1  -3  -4 3547.93  134.91   0
  -1   3   4 3422.17  135.00   0
  -1   3   4 3626.38  135.36   0
  -1   3   4 3643.06  134.90   0
   0  -3  -4  553.74   21.90   0
   0  -3  -4  510.53   22.33   0
   0  -3  -4  532.62   21.87   0
   0   3   4  522.60   21.86   0
   0   3   4  556.68   21.87   0
  -1  -3  -4   25.63    2.39   0
  -1  -3  -4   28.88    2.65   0
  -1  -3  -4   31.01    2.91   0
   1   3   4   32.47    2.67   0
   1   3   4   29.90    2.92   0
   1   3   4   26.48    2.42   0
  -2  -3  -4 4639.30  175.21   0
  -2  -3  -4 4425.61  174.97   0
   2   3   4 4684.23  175.22   0
   2   3   4 4460.45  174.61   0
   2   3   4 4589.93  174.99   0
  -3  -3  -4 1504.24   58.66   0
  -3  -3  -4 1478.89   58.19   0
  -3  -3  -4 1490.22   59.02   0
   3   3   4 1457.78   58.05   0
   3   3   4 1553.96   59.00   0
   3   3   4 1426.03   58.58   0
  -4  -3  -4  638.36   27.27   0
  -4  -3  -4  637.85   26.55   0
  -4  -3  -4  646.12   27.80   0
   4   3   4  651.96   26.42   0
   4   3   4  691.39   27.71   0
   4   3   4  619.22   27.22   0
  -5  -3  -4    6.65    2.68   0
  -5  -3  -4   14.85    3.39   0
  -5  -3  -4    7.84    1.95   0
  -5  -3  -4    7.00    2.22   0
   5   3   4   15.56    3.03   0
   5   3   4    9.86    2.47   0
  -6  -3  -4  568.82   26.23   0
  -6  -3  -4  559.76   25.25   0
  -6  -3  -4  553.30   23.68   0
  -6  -3  -4  582.09   26.16   0
   6   3   4  554.86   25.13   0
   6   3   4  581.16   25.43   0
   6   3   4  543.12   23.37   0
  -7  -3  -4 1046.42   45.75   0
  -7  -3  -4 1104.93   46.86   0
  -7  -3  -4 1125.41   47.21   0
   7   3   4 1054.68   45.45   0
   7   3   4 1162.69   46.00   0
   7   3   4 1024.46   43.10   0
  -8  -3  -4 1220.85   53.42   0
  -8  -3  -4 1190.98   52.80   0
  -8  -3  -4 1273.47   52.29   0
   8   3   4 1225.79   51.43   0
   8   3   4 1209.29   51.46   0
  -9  -3  -4   79.02   11.96   0
  -9  -3  -4   59.73    9.62   0
  -9  -3  -4   48.58    9.17   0
   9   3   4   86.16   11.33   0
   9   3   4   74.58    9.99   0
   8  -4  -4   48.02    8.59   0
   8  -4  -4   37.20    7.17   0
  -8   4   4   33.91   12.70   0
  -8   4   4   47.02    7.11   0
  -8   4   4   34.44    7.88   0
   7  -4  -4  316.61   15.99   0
   7  -4  -4  312.31   17.76   0
  -7   4   4  303.09   19.07   0
  -7   4   4  293.30   15.73   0
   6  -4  -4   37.65    5.89   0
   6  -4  -4   53.42    5.93   0
   6  -4  -4   43.81    3.82   0
  -6   4   4   46.53    8.14   0
  -6   4   4   44.13    5.85   0
  -6   4   4   46.00    8.00   0
   5  -4  -4 1351.96   55.85   0
   5  -4  -4 1358.35   53.51   0
   5  -4  -4 1410.77   54.84   0
  -5   4   4 1341.63   56.15   0
  -5   4   4 1364.05   54.18   0
  -5   4   4 1352.04   56.15   0
   4  -4  -4  255.57   11.24   0
   4  -4  -4  250.20   12.03   0
   4  -4  -4  244.08   11.69   0
   4  -4  -4  227.77   12.84   0
  -4   4   4  253.16   13.05   0
  -4   4   4  245.76   13.12   0
  -4   4   4  238.67   11.28   0
   3  -4  -4  463.69   19.93   0
   3  -4  -4  466.70   19.42   0
   3  -4  -4  424.70   20.68   0
   3  -4  -4  481.39   19.42   0
  -3   4   4  467.25   20.78   0
  -3   4   4  468.00   19.11   0
  -3   4   4  461.14   20.50   0
   2  -4  -4 1822.08   70.68   0
   2  -4  -4 1843.02   71.02   0
   2  -4  -4 1771.00   71.87   0
   2  -4  -4 1744.44   70.32   0
  -2   4   4 1799.11   71.30   0
  -2   4   4 1878.79   71.66   0
  -2   4   4 1847.92   70.12   0
   1  -4  -4 2761.03  107.37   0
   1  -4  -4 2911.17  107.81   0
   1  -4  -4 2695.95  108.73   0
   1  -4  -4 2745.87  107.85   0
  -1   4   4 2670.98  107.91   0
  -1   4   4 2964.69  108.45   0
   0  -4  -4 1629.46   64.09   0
   0  -4  -4 1708.49   64.09   0
   0  -4  -4 1605.27   64.73   0
   0   4   4 1613.67   64.06   0
  -1  -4  -4  100.02    5.50   0
  -1  -4  -4  106.58    5.77   0
   1   4   4   88.85    5.34   0
   1   4   4   98.10    6.00   0
   1   4   4  104.62    5.65   0
  -2  -4  -4  289.05   12.25   0
  -2  -4  -4  270.49   12.56   0
  -2  -4  -4  281.95   12.64   0
   2   4   4  243.95   12.14   0
   2   4   4  268.72   12.11   0
   2   4   4  277.07   12.69   0
  -3  -4  -4 3863.78  143.62   0
  -3  -4  -4 3762.51  144.36   0
  -3  -4  -4 3726.33  144.05   0
   3   4   4 3763.58  144.26   0
   3   4   4 3530.88  143.75   0
   3   4   4 3735.08  143.46   0
  -4  -4  -4 1892.71   72.42   0
  -4  -4  -4 1839.59   70.99   0
  -4  -4  -4 1783.99   71.67   0
   4   4   4 1864.67   71.98   0
   4   4   4 1696.39   71.40   0
   4   4   4 1815.61   70.85   0
  -5  -4  -4  692.92   28.53   0
  -5  -4  -4  658.99   29.49   0
  -5  -4  -4  709.39   30.44   0
   5   4   4  762.03   30.11   0
   5   4   4  648.53   29.24   0
   5   4   4  686.63   28.30   0
  -6  -4  -4   36.34    6.40   0
  -6  -4  -4   48.77    6.02   0
  -6  -4  -4   32.17    4.07   0
   6   4   4   42.94    5.39   0
   6   4   4   23.22    4.17   0
  -7  -4  -4  697.10   28.96   0
  -7  -4  -4  692.51   31.16   0
  -7  -4  -4  706.55   32.36   0
  -7  -4  -4  751.55   32.83   0
   7   4   4  685.71   30.87   0
   7   4   4  665.61   30.51   0
  -8  -4  -4   42.85    7.95   0
  -8  -4  -4   43.67    7.74   0
   8   4   4   30.65    5.45   0
   8   4   4   32.69    5.38   0
  -9  -4  -4  661.09   31.49   0
  -9  -4  -4  579.51   33.81   0
   9   4   4  663.51   29.71   0
   9   4   4  647.89   29.73   0
   7  -5  -4  149.87   13.67   0
   7  -5  -4  167.88   11.51   0
  -7   5   4  162.39   14.55   0
  -7   5   4  167.47   11.24   0
  -7   5   4  149.12   14.60   0
   6  -5  -4  599.84   25.35   0
   6  -5  -4  581.22   28.58   0
   6  -5  -4  637.74   27.22   0
  -6   5   4  580.84   28.70   0
  -6   5   4  647.00   29.29   0
  -6   5   4  594.28   26.44   0
   5  -5  -4  877.03   38.19   0
   5  -5  -4  941.86   37.27   0
   5  -5  -4  911.35   39.82   0
   5  -5  -4  921.57   38.38   0
  -5   5   4  906.97   37.73   0
  -5   5   4  946.81   39.94   0
  -5   5   4  932.13   39.90   0
   4  -5  -4 1137.60   43.01   0
   4  -5  -4 1033.87   43.37   0
   4  -5  -4 1001.06   44.78   0
   4  -5  -4 1136.50   43.88   0
  -4   5   4  949.72   42.65   0
  -4   5   4 1113.90   44.93   0
  -4   5   4 1116.87   44.79   0
   3  -5  -4 1433.46   56.29   0
   3  -5  -4 1362.18   57.40   0
   3  -5  -4 1448.04   55.75   0
   3  -5  -4 1308.42   55.69   0
  -3   5   4 1411.32   56.84   0
  -3   5   4 1447.06   55.47   0
  -3   5   4 1450.11   57.10   0
   2  -5  -4  421.75   18.93   0
   2  -5  -4  443.38   19.33   0
   2  -5  -4  446.06   20.69   0
  -2   5   4  437.48   19.60   0
  -2   5   4  443.41   18.61   0
  -2   5   4  469.22   20.04   0
   1  -5  -4  504.38   21.86   0
   1  -5  -4  529.79   22.10   0
   1  -5  -4  534.87   21.89   0
   1  -5  -4  499.94   23.18   0
  -1   5   4  535.64   22.60   0
  -1   5   4  513.94   22.16   0
   0  -5  -4 4325.44  172.55   0
   0  -5  -4 4430.77  171.79   0
   0  -5  -4 4660.90  171.72   0
   0  -5  -4 4538.63  171.70   0
   0   5   4 4401.48  172.11   0
   0   5   4 4452.43  171.75   0
  -1  -5  -4   50.01    3.92   0
  -1  -5  -4   42.02    3.53   0
   1   5   4   34.92    3.55   0
   1   5   4   42.92    4.31   0
  -2  -5  -4  828.86   37.89   0
  -2  -5  -4  939.77   38.28   0
  -2  -5  -4  983.77   37.86   0
   2   5   4  932.90   37.82   0
   2   5   4 1010.88   38.49   0
  -3  -5  -4  412.83   18.05   0
  -3  -5  -4  424.42   17.50   0
  -3  -5  -4  446.37   18.45   0
   3   5   4  338.64   17.69   0
   3   5   4  383.79   17.49   0
  -4  -5  -4  429.72   19.48   0
  -4  -5  -4  392.74   18.78   0
   4   5   4  432.73   19.13   0
  -5  -5  -4 1818.74   73.63   0
  -5  -5  -4 2018.35   75.88   0
  -5  -5  -4 1854.03   74.75   0
   5   5   4 1747.29   74.06   0
   5   5   4 1963.49   75.02   0
  -6  -5  -4   50.19    6.41   0
  -6  -5  -4   30.41    5.31   0
   6   5   4   45.30    6.04   0
   6   5   4   41.77    5.64   0
   7   5   4   16.12    3.86   0
  -8  -5  -4  384.81   22.65   0
  -8  -5  -4  412.76   20.94   0
  -8  -5  -4  399.61   22.35   0
   8   5   4  395.71   19.46   0
   8   5   4  337.37   18.88   0
   7  -6  -4  265.63   13.07   0
   7  -6  -4  250.33   15.46   0
  -7   6   4  247.48   18.57   0
  -7   6   4  252.22   18.79   0
  -7   6   4  265.52   15.18   0
   6  -6  -4  356.51   18.03   0
   6  -6  -4  363.82   16.28   0
   6  -6  -4  322.38   19.74   0
   6  -6  -4  383.48   18.21   0
  -6   6   4  313.88   19.65   0
  -6   6   4  332.69   17.01   0
   5  -6  -4  288.42   17.20   0
   5  -6  -4  292.70   15.58   0
   5  -6  -4  292.19   15.36   0
   5  -6  -4  315.99   14.39   0
  -5   6   4  305.62   16.97   0
  -5   6   4  305.99   14.76   0
  -5   6   4  293.37   16.91   0
   4  -6  -4 2722.50  120.86   0
   4  -6  -4 2999.59  122.84   0
   4  -6  -4 3337.97  120.76   0
   4  -6  -4 2864.86  120.96   0
  -4   6   4 3349.23  122.53   0
  -4   6   4 3239.77  122.50   0
  -4   6   4 3212.23  120.57   0
   3  -6  -4  221.53   11.34   0
   3  -6  -4  199.12   12.84   0
   3  -6  -4  176.64   10.86   0
  -3   6   4  231.14   10.69   0
  -3   6   4  220.92   11.94   0
  -3   6   4  228.27   12.23   0
   2  -6  -4 2709.30  104.84   0
   2  -6  -4 2468.30  104.54   0
   2  -6  -4 2728.48  106.54   0
  -2   6   4 2776.70  105.23   0
  -2   6   4 2741.25  105.39   0
   1  -6  -4   52.89    5.01   0
   1  -6  -4   44.49    5.97   0
   1  -6  -4   51.76    4.39   0
   1  -6  -4   60.56    4.78   0
  -1   6   4   60.38    5.42   0
  -1   6   4   50.79    4.83   0
   0  -6  -4    3.98    1.94   0
   0  -6  -4    8.53    3.02   0
   0  -6  -4    3.49    1.81   0
   0   6   4    2.87    1.82   0
   0   6   4    2.10    1.98   0
  -1  -6  -4 1577.46   62.54   0
  -1  -6  -4 1579.11   61.73   0
  -1  -6  -4 1619.94   62.01   0
   1   6   4 1428.72   61.45   0
   1   6   4 1600.56   62.34   0
  -2  -6  -4  367.65   16.73   0
  -2  -6  -4  345.46   16.80   0
  -2  -6  -4  377.90   16.43   0
   2   6   4  380.45   16.92   0
   2   6   4  356.00   16.22   0
  -3  -6  -4  291.99   13.97   0
  -3  -6  -4  270.90   13.80   0
  -3  -6  -4  293.09   13.29   0
   3   6   4  262.08   13.08   0
   3   6   4  293.82   13.90   0
  -4  -6  -4   95.51    7.32   0
  -4  -6  -4   99.53    6.46   0
  -4  -6  -4  100.48    7.66   0
   4   6   4  109.30    6.85   0
   4   6   4  107.12    7.38   0
  -5  -6  -4  162.96    8.78   0
  -5  -6  -4  152.14   10.02   0
  -5  -6  -4  169.31   10.67   0
   5   6   4  150.99    9.00   0
   5   6   4  153.76    9.66   0
  -6  -6  -4  877.11   36.35   0
  -6  -6  -4  829.43   33.46   0
  -6  -6  -4  722.10   34.57   0
   6   6   4  765.37   33.67   0
   6   6   4  844.35   34.54   0
  -7  -6  -4  390.94   20.68   0
  -7  -6  -4  402.68   19.56   0
  -7  -6  -4  381.65   16.80   0
   7   6   4  325.86   17.14   0
   7   6   4  322.28   17.58   0
  -8  -6  -4   34.18    6.41   0
  -8  -6  -4   47.28    8.42   0
   8   6   4   38.26    5.59   0
   8   6   4   53.71    7.64   0
   7  -7  -4  120.07   15.90   0
   7  -7  -4  119.91   12.05   0
   7  -7  -4  119.36    9.16   0
  -7   7   4  108.06   11.52   0
  -7   7   4  113.43   14.91   0
   6  -7  -4  643.93   29.14   0
   6  -7  -4  666.87   27.65   0
   6  -7  -4  561.77   29.08   0
  -6   7   4  618.36   28.22   0
  -6   7   4  639.88   31.04   0
  -6   7   4  647.72   31.18   0
   5  -7  -4   -3.17    3.07   0
   5  -7  -4    4.49    4.22   0
   5  -7  -4    5.05    2.63   0
   5  -7  -4   -0.73    4.82   0
  -5   7   4    0.62    4.29   0
  -5   7   4    2.31    3.23   0
  -5   7   4   11.59    5.10   0
   4  -7  -4   31.22    5.10   0
   4  -7  -4   24.27    6.12   0
   4  -7  -4   31.26    5.55   0
  -4   7   4   38.02    5.08   0
  -4   7   4   28.81    5.00   0
  -4   7   4   33.89    5.53   0
   3  -7  -4 1827.06   77.71   0
   3  -7  -4 1712.02   75.72   0
   3  -7  -4 1962.16   76.01   0
  -3   7   4 1923.65   76.59   0
  -3   7   4 1975.63   76.63   0
  -3   7   4 2024.36   75.29   0
   2  -7  -4  282.05   13.81   0
   2  -7  -4  256.41   15.64   0
   2  -7  -4  261.68   14.04   0
  -2   7   4  276.46   14.13   0
  -2   7   4  287.61   14.44   0
   1  -7  -4 1342.05   60.53   0
   1  -7  -4 1527.78   62.23   0
  -1   7   4 1714.43   61.37   0
  -1   7   4 1459.55   60.42   0
   0  -7  -4   20.35    4.38   0
   0  -7  -4   21.64    3.49   0
   0  -7  -4   18.34    3.12   0
   0  -7  -4   17.13    3.67   0
   0   7   4   14.53    3.32   0
   0   7   4   14.73    2.82   0
  -1  -7  -4  485.56   20.28   0
  -1  -7  -4  440.38   20.92   0
  -1  -7  -4  451.73   19.83   0
   1   7   4  412.54   19.56   0
  -2  -7  -4 2060.26   80.25   0
  -2  -7  -4 2029.05   79.86   0
   2   7   4 2086.42   80.33   0
   2   7   4 1939.75   79.50   0
  -3  -7  -4 1457.77   60.10   0
  -3  -7  -4 1512.40   60.29   0
  -3  -7  -4 1508.96   59.59   0
   3   7   4 1412.25   59.14   0
   3   7   4 1572.30   60.08   0
  -4  -7  -4  277.12   14.45   0
  -4  -7  -4  261.12   13.13   0
  -4  -7  -4  268.53   14.12   0
   4   7   4  290.16   13.94   0
   4   7   4  253.77   12.94   0
  -5  -7  -4    3.07    3.37   0
  -5  -7  -4    6.38    2.44   0
  -5  -7  -4   10.85    3.80   0
   5   7   4    9.24    2.85   0
   5   7   4   17.26    3.57   0
  -6  -7  -4  369.25   19.42   0
  -6  -7  -4  396.70   20.33   0
  -6  -7  -4  385.15   17.71   0
   6   7   4  389.95   18.26   0
   6   7   4  371.29   17.62   0
  -7  -7  -4   12.96    3.33   0
  -7  -7  -4   18.04    5.49   0
   7   7   4   13.93    3.70   0
   7   7   4   13.12    3.82   0
  -8  -7  -4  335.24   16.17   0
  -8  -7  -4  364.57   20.12   0
  -8  -7  -4  365.34   22.38   0
   8   7   4  318.30   16.56   0
   8   7   4  320.37   16.40   0
   6  -8  -4   61.23    8.75   0
   6  -8  -4   46.37    9.39   0
   6  -8  -4   56.35    7.51   0
   6  -8  -4   57.61    9.50   0
  -6   8   4   48.40    6.98   0
  -6   8   4   46.98    8.60   0
  -6   8   4   47.40    8.28   0
   5  -8  -4  320.68   17.28   0
   5  -8  -4  269.84   17.51   0
  -5   8   4  358.08   19.28   0
  -5   8   4  324.87   16.53   0
  -5   8   4  307.77   18.77   0
   4  -8  -4   85.84    7.92   0
   4  -8  -4   71.52   11.03   0
   4  -8  -4   56.51    8.18   0
  -4   8   4   80.98    9.06   0
  -4   8   4   59.21    6.79   0
  -4   8   4   73.68    9.18   0
   3  -8  -4  178.93   11.07   0
   3  -8  -4  180.04   13.86   0
   3  -8  -4  169.00   11.71   0
  -3   8   4  201.24   12.20   0
  -3   8   4  185.17   12.16   0
   2  -8  -4 1026.10   46.15   0
   2  -8  -4 1027.47   44.50   0
   2  -8  -4 1072.73   44.01   0
  -2   8   4 1085.21   44.53   0
  -2   8   4 1069.24   44.23   0
   1  -8  -4 1273.52   53.03   0
   1  -8  -4 1358.21   54.56   0
   1  -8  -4 1245.34   52.21   0
  -1   8   4 1257.35   52.26   0
   0  -8  -4  642.02   29.33   0
   0  -8  -4  709.47   30.56   0
   0  -8  -4  668.72   28.70   0
   0   8   4  633.80   28.33   0
  -1  -8  -4   83.24    8.05   0
  -1  -8  -4   70.59    6.17   0
  -1  -8  -4   85.94    7.52   0
  -1  -8  -4   77.42    6.52   0
   1   8   4   93.29    7.66   0
   1   8   4   74.92    6.35   0
  -2  -8  -4 1686.61   69.01   0
  -2  -8  -4 1713.41   69.64   0
  -2  -8  -4 1740.39   68.76   0
   2   8   4 1660.03   68.20   0
   2   8   4 1819.18   69.18   0
  -3  -8  -4  509.12   22.34   0
  -3  -8  -4  477.07   22.92   0
  -3  -8  -4  517.84   23.15   0
   3   8   4  512.79   22.61   0
   3   8   4  482.71   21.76   0
  -4  -8  -4 1839.56   75.29   0
  -4  -8  -4 1876.68   75.72   0
  -4  -8  -4 1891.90   74.58   0
   4   8   4 1940.27   74.78   0
   4   8   4 1832.95   73.90   0
  -5  -8  -4   17.08    3.43   0
  -5  -8  -4   18.02    4.45   0
  -5  -8  -4   22.23    4.75   0
   5   8   4   28.23    4.27   0
   5   8   4   21.30    3.60   0
  -6  -8  -4   11.07    5.17   0
  -6  -8  -4    3.13    4.04   0
  -6  -8  -4    5.98    2.93   0
   6   8   4    6.45    3.30   0
   6   8   4    4.44    2.92   0
  -7  -8  -4  232.86   12.94   0
  -7  -8  -4  218.00   16.91   0
   7   8   4  237.59   12.30   0
   7   8   4  233.05   11.99   0
   6  -9  -4   36.94    5.78   0
   6  -9  -4   34.11    9.33   0
  -6   9   4   42.28    6.96   0
  -6   9   4   19.99    8.13   0
   5  -9  -4  567.05   27.14   0
   5  -9  -4  538.48   30.24   0
   5  -9  -4  545.21   27.86   0
  -5   9   4  543.70   26.09   0
  -5   9   4  562.31   28.60   0
  -5   9   4  611.62   29.03   0
   4  -9  -4   95.68   10.71   0
   4  -9  -4   87.01    9.00   0
  -4   9   4   91.91   10.75   0
   3  -9  -4  116.23    9.45   0
   3  -9  -4  120.15   12.88   0
   3  -9  -4  108.51   10.85   0
  -3   9   4  116.80   10.38   0
  -3   9   4  102.62   10.07   0
   2  -9  -4  133.54   12.94   0
   2  -9  -4  118.28   10.90   0
   2  -9  -4  145.14    9.86   0
  -2   9   4  152.38   10.78   0
  -2   9   4  142.89   10.38   0
   1  -9  -4  396.63   20.94   0
   1  -9  -4  416.79   19.77   0
   1  -9  -4  438.16   22.47   0
  -1   9   4  387.15   19.50   0
   0  -9  -4 1201.73   49.00   0
   0  -9  -4 1181.76   49.94   0
   0  -9  -4 1238.24   50.99   0
   0   9   4 1110.71   48.37   0
  -1  -9  -4   18.31    3.56   0
  -1  -9  -4   28.63    5.52   0
  -1  -9  -4   25.66    4.51   0
  -1  -9  -4   19.24    5.34   0
   1   9   4   23.69    4.38   0
   1   9   4   29.52    4.30   0
  -2  -9  -4   42.57    6.01   0
  -2  -9  -4   23.83    3.89   0
  -2  -9  -4   42.36    7.58   0
   2   9   4   32.58    5.39   0
   2   9   4   34.21    4.97   0
  -3  -9  -4  876.16   36.76   0
  -3  -9  -4  827.69   35.83   0
   3   9   4  828.63   34.98   0
   3   9   4  842.29   35.77   0
  -4  -9  -4   14.32    4.23   0
  -4  -9  -4    6.31    3.97   0
  -4  -9  -4    4.94    2.97   0
   4   9   4   10.71    3.07   0
   4   9   4   10.62    3.60   0
  -5  -9  -4 1008.99   42.87   0
  -5  -9  -4 1003.34   43.96   0
  -5  -9  -4 1046.82   44.83   0
   5   9   4 1025.32   41.65   0
   5   9   4 1049.11   42.28   0
  -6  -9  -4  199.43   14.21   0
  -6  -9  -4  151.91   13.87   0
  -6  -9  -4  155.17   11.05   0
   6   9   4  207.24   10.51   0
   6   9   4  168.67    9.75   0
  -7  -9  -4   37.17    7.47   0
  -7  -9  -4   35.10    8.53   0
  -7  -9  -4   42.93    6.07   0
   7   9   4   34.94    5.18   0
   5 -10  -4   14.55    9.37   0
  -5  10   4   -4.23    6.62   0
  -5  10   4  -10.94    7.39   0
   4 -10  -4  600.33   29.70   0
   4 -10  -4  566.05   31.76   0
   4 -10  -4  596.02   28.26   0
  -4  10   4  561.25   28.80   0
  -4  10   4  604.86   29.24   0
   3 -10  -4   81.00   13.20   0
   3 -10  -4   70.99   11.25   0
   3 -10  -4   79.93    9.13   0
  -3  10   4   89.86   10.51   0
  -3  10   4  102.88   10.79   0
   2 -10  -4   21.91    6.78   0
   2 -10  -4   24.63    6.64   0
   2 -10  -4   20.31    4.35   0
  -2  10   4   16.44    4.71   0
   1 -10  -4   27.66    5.12   0
   1 -10  -4   33.68    7.86   0
   1 -10  -4   18.25    5.52   0
  -1  10   4   21.87    5.01   0
  -1  10   4   24.00    4.59   0
   0 -10  -4   -2.20    5.61   0
   0 -10  -4    8.85    5.75   0
   0 -10  -4    8.70    3.85   0
   0  10   4    0.51    4.02   0
   0  10   4    8.43    3.56   0
  -1 -10  -4  899.57   40.12   0
  -1 -10  -4  962.88   42.15   0
  -1 -10  -4  916.63   40.44   0
  -1 -10  -4  931.69   41.67   0
   1  10   4  872.27   39.38   0
   1  10   4 1085.60   40.91   0
  -2 -10  -4  149.65   12.68   0
  -2 -10  -4  164.60   11.31   0
  -2 -10  -4  157.30   10.55   0
  -2 -10  -4  151.28   12.53   0
   2  10   4  161.32   11.04   0
   2  10   4  156.50    9.93   0
  -3 -10  -4    4.05    3.20   0
  -3 -10  -4    2.26    4.97   0
  -3 -10  -4    8.00    3.89   0
   3  10   4    2.42    3.62   0
   3  10   4    2.07    2.95   0
  -4 -10  -4  140.03   11.37   0
  -4 -10  -4  135.25   10.00   0
   4  10   4  133.86    8.58   0
   4  10   4  121.50    9.05   0
  -5 -10  -4  162.38   13.10   0
  -5 -10  -4  160.66   11.35   0
  -5 -10  -4  152.80   12.65   0
   5  10   4  140.21    8.84   0
  -6 -10  -4  158.00   14.43   0
  -6 -10  -4  148.94   15.12   0
  -6 -10  -4  157.50   11.55   0
   6  10   4  148.17    8.11   0
   4 -11  -4   70.21   10.53   0
   4 -11  -4   39.19   10.27   0
  -4  11   4   55.48    8.76   0
  -4  11   4   80.47   13.84   0
   3 -11  -4  250.53   20.68   0
   3 -11  -4  231.47   15.93   0
  -3  11   4  247.94   16.87   0
   2 -11  -4  635.47   34.94   0
   2 -11  -4  659.37   31.59   0
   2 -11  -4  673.14   33.42   0
  -2  11   4  786.30   32.62   0
  -2  11   4  663.16   31.73   0
   1 -11  -4    4.43    5.25   0
   1 -11  -4    1.40    4.00   0
  -1  11   4   -1.60    5.06   0
  -1  11   4   -3.07    3.98   0
   0 -11  -4   10.66    6.92   0
   0 -11  -4   14.17    6.53   0
   0 -11  -4   18.21    5.01   0
   0  11   4   13.61    4.56   0
   0  11   4   20.60    5.86   0
  -1 -11  -4  174.02   11.87   0
  -1 -11  -4  183.29   15.82   0
  -1 -11  -4  160.78   12.11   0
  -1 -11  -4  159.60   14.15   0
   1  11   4  162.92   11.23   0
   1  11   4  205.04   12.76   0
  -2 -11  -4  329.32   17.64   0
  -2 -11  -4  317.21   18.27   0
  -2 -11  -4  355.20   20.45   0
   2  11   4  316.92   16.29   0
   2  11   4  326.76   17.53   0
  -3 -11  -4  390.52   20.77   0
  -3 -11  -4  428.32   22.69   0
  -3 -11  -4  373.16   19.64   0
  -3 -11  -4  380.15   21.82   0
   3  11   4  357.89   18.38   0
   3  11   4  365.41   17.76   0
  -4 -11  -4    7.08    4.63   0
  -4 -11  -4    5.08    5.29   0
   4  11   4    2.38    3.00   0
  -5 -11  -4   78.57   10.20   0
  -5 -11  -4   61.27    9.40   0
   5  11   4   70.00    5.43   0
   2 -12  -4  100.90   15.99   0
   2 -12  -4  100.22   14.79   0
   2 -12  -4  126.97   19.10   0
  -2  12   4  123.21   14.22   0
  -2  12   4  119.33   12.86   0
   1 -12  -4 1030.38   46.13   0
   1 -12  -4  955.61   43.80   0
   1 -12  -4 1012.91   47.54   0
  -1  12   4  958.52   43.00   0
   0 -12  -4    4.88    7.43   0
   0 -12  -4    7.47    7.95   0
   0 -12  -4   -4.27    4.45   0
   0  12   4    2.05    4.84   0
   0  12   4   -0.60    5.81   0
  -1 -12  -4   26.61    5.51   0
  -1 -12  -4   36.23    6.75   0
  -1 -12  -4   33.46    8.58   0
  -1 -12  -4   23.12    8.42   0
   1  12   4   21.26    5.30   0
   1  12   4   22.63    5.86   0
  -2 -12  -4  159.33   12.75   0
  -2 -12  -4  198.47   17.47   0
  -2 -12  -4  178.70   14.31   0
  -2 -12  -4  164.67   16.08   0
   2  12   4  148.08   12.08   0
   2  12   4  166.82   11.29   0
  -3 -12  -4   10.57    6.88   0
  -3 -12  -4    5.20    5.57   0
  -3 -12  -4   -0.32    7.33   0
  -3 -12  -4    9.22    5.24   0
   3  12   4    2.07    3.69   0
   3  12   4    1.84    4.31   0
  -4 -12  -4  203.36   15.29   0
  -4 -12  -4  228.12   17.46   0
  -4 -12  -4  208.58   18.69   0
  -4 -12  -4  215.44   19.79   0
   4  12   4  183.06   10.42   0
  -1  -9   5   -4.58    5.70   0
  -1  -9   5    4.49    5.69   0
  -1  -9   5    6.87    8.34   0
  -1  -9   5   -2.73    4.24   0
   0  -9   5   -0.25    5.51   0
   0  -9   5    3.28    5.72   0
   0  -9   5    6.89    4.70   0
   0  -9   5    8.36    7.70   0
   1  -9   5  867.06   39.10   0
   1  -9   5  910.44   41.81   0
   1  -9   5  858.05   37.86   0
   1  -9   5  851.01   40.23   0
   2  -9   5  142.14   16.97   0
   2  -9   5  145.24   13.93   0
   2  -9   5  133.32   12.28   0
  -3  -8   5  461.21   22.61   0
  -3  -8   5  438.46   24.54   0
  -3  -8   5  369.49   19.62   0
  -3  -8   5  421.33   19.06   0
  -2  -8   5  183.32   15.93   0
  -2  -8   5  228.55   14.47   0
  -2  -8   5  192.05   10.74   0
  -2  -8   5  160.43   11.76   0
  -1  -8   5  413.26   18.68   0
  -1  -8   5  410.80   22.83   0
  -1  -8   5  386.23   19.60   0
   0  -8   5   87.06    9.36   0
   0  -8   5   87.62   10.15   0
   0  -8   5   87.10    7.72   0
   0  -8   5  100.07   12.34   0
   1  -8   5  328.64   18.30   0
   1  -8   5  363.32   17.61   0
   1  -8   5  321.67   20.38   0
   1  -8   5  352.54   19.49   0
   2  -8   5  353.13   20.36   0
   2  -8   5  364.81   18.92   0
   2  -8   5  388.19   22.28   0
   2  -8   5  375.01   20.15   0
  -3   8  -5 1151.50   54.14   0
   3  -8   5 1312.57   53.85   0
   3  -8   5 1244.87   52.41   0
   3  -8   5 1268.93   53.90   0
   3  -8   5 1245.38   55.13   0
  -4   8  -5   16.91    4.80   0
  -4   8  -5    8.42    3.44   0
   4  -8   5   -2.77    6.98   0
   4  -8   5   18.27    6.57   0
   4  -8   5    8.91    5.82   0
   4  -8   5   12.57    5.40   0
  -4  -7   5   29.80    3.98   0
  -3  -7   5   15.79    2.94   0
  -3  -7   5    6.93    5.97   0
  -3  -7   5   13.10    3.72   0
  -3  -7   5   18.01    4.82   0
  -2  -7   5  380.50   15.42   0
  -2  -7   5  334.59   18.06   0
  -2  -7   5  315.51   15.78   0
  -2  -7   5  324.84   19.46   0
  -1  -7   5 1219.11   48.62   0
  -1  -7   5 1182.02   49.19   0
  -1  -7   5 1237.80   51.25   0
  -1  -7   5 1234.80   52.07   0
   0  -7   5  153.24   11.05   0
   0  -7   5  146.94    9.84   0
   0  -7   5  164.17   12.48   0
   0  -7   5  142.42    8.88   0
   1  -7   5  829.28   35.86   0
   1  -7   5  842.07   35.17   0
   1  -7   5  830.89   37.76   0
   1  -7   5  844.25   37.07   0
  -2   7  -5  487.61   25.55   0
   2  -7   5  536.12   25.16   0
   2  -7   5  524.19   23.55   0
   2  -7   5  514.11   26.11   0
   2  -7   5  503.97   24.32   0
  -3   7  -5   69.50    5.58   0
  -3   7  -5   78.34   11.14   0
   3  -7   5   85.72    8.32   0
   3  -7   5   98.28    9.80   0
   3  -7   5   98.63   10.12   0
  -4   7  -5 1588.77   66.84   0
  -4   7  -5 1591.56   66.34   0
  -4   7  -5 1706.90   70.60   0
   4  -7   5 1761.96   69.79   0
   4  -7   5 1662.42   69.22   0
   4  -7   5 1661.73   70.22   0
   4  -7   5 1690.94   68.40   0
  -5   7  -5   58.94    8.02   0
  -5   7  -5   58.94   10.15   0
  -5   7  -5   62.22    9.88   0
   5  -7   5   39.78    7.26   0
   5  -7   5   57.33    9.58   0
   5  -7   5   68.98    8.77   0
   5  -7   5   57.48    8.82   0
  -5  -6   5  363.00   20.07   0
  -5  -6   5  315.59   16.24   0
  -5  -6   5  325.73   15.20   0
  -4  -6   5    9.56    5.74   0
  -4  -6   5   15.04    2.65   0
  -4  -6   5   15.25    2.78   0
  -4  -6   5   15.54    4.36   0
  -3  -6   5  402.82   18.99   0
  -3  -6   5  370.95   16.14   0
  -3  -6   5  385.59   20.41   0
  -2  -6   5  197.35    9.91   0
  -2  -6   5  197.72   13.46   0
  -2  -6   5  225.63   12.29   0
  -2  -6   5  187.93    9.31   0
  -1  -6   5   66.20    4.83   0
  -1  -6   5   51.41    8.23   0
  -1  -6   5   64.04    5.70   0
  -1  -6   5   52.07    7.30   0
   0  -6   5 2457.45   93.45   0
   0  -6   5 2357.03   93.81   0
   0  -6   5 2391.85   95.94   0
   0  -6   5 2391.13   95.43   0
   1  -6   5   23.72    4.16   0
   1  -6   5   25.33    4.03   0
   1  -6   5   24.42    5.63   0
  -2   6  -5  823.39   35.65   0
   2  -6   5  820.22   34.99   0
   2  -6   5  773.36   35.48   0
   2  -6   5  756.81   34.06   0
   2  -6   5  797.90   33.57   0
  -3   6  -5  616.25   28.68   0
  -3   6  -5  593.57   25.41   0
  -3   6  -5  576.55   24.91   0
   3  -6   5  595.96   28.47   0
   3  -6   5  606.55   27.66   0
   3  -6   5  617.51   26.79   0
   3  -6   5  572.90   27.31   0
  -4   6  -5  724.23   32.32   0
  -4   6  -5  779.38   35.64   0
  -4   6  -5  730.16   32.96   0
   4  -6   5  806.38   34.56   0
   4  -6   5  790.74   33.87   0
   4  -6   5  739.52   34.43   0
   4  -6   5  788.16   35.38   0
  -5   6  -5 1125.02   48.24   0
  -5   6  -5 1130.28   49.16   0
  -5   6  -5 1188.84   51.22   0
   5  -6   5 1200.07   49.78   0
   5  -6   5 1159.06   50.93   0
   5  -6   5 1114.41   49.26   0
   5  -6   5 1206.95   50.60   0
  -6   6  -5  633.56   32.87   0
  -6   6  -5  661.38   31.42   0
  -6   6  -5  658.98   30.23   0
   6  -6   5  658.22   32.31   0
   6  -6   5  634.63   31.01   0
   6  -6   5  651.83   32.81   0
   6  -6   5  650.33   30.85   0
  -6  -5   5   53.03    7.32   0
  -6  -5   5   66.15   11.65   0
  -6  -5   5   60.62    8.15   0
  -5  -5   5    1.34    5.10   0
  -5  -5   5   -1.21    2.71   0
  -5  -5   5    1.14    2.71   0
  -5  -5   5    6.93    2.82   0
  -4  -5   5  384.39   18.89   0
  -4  -5   5  329.55   15.09   0
  -4  -5   5  370.57   16.97   0
  -4  -5   5  360.08   15.08   0
  -3  -5   5   68.08    3.86   0
  -3  -5   5   66.28    7.77   0
  -3  -5   5   55.80    6.55   0
  -2  -5   5  451.32   21.70   0
  -2  -5   5  458.05   18.41   0
  -2  -5   5  453.35   18.61   0
  -2  -5   5  472.07   21.06   0
  -1  -5   5  270.70   13.52   0
  -1  -5   5  250.14   11.05   0
  -1  -5   5  238.25   13.89   0
  -1  -5   5  252.97   11.52   0
   0  -5   5  395.76   16.98   0
   0  -5   5  388.93   16.50   0
   0  -5   5  378.42   18.32   0
   0  -5   5  362.66   18.65   0
  -1   5  -5 2301.40   88.82   0
   1  -5   5 2221.25   88.51   0
   1  -5   5 2155.52   86.99   0
   1  -5   5 2231.13   86.72   0
   1  -5   5 2191.74   88.13   0
  -2   5  -5 1018.52   42.94   0
  -2   5  -5  999.26   39.20   0
   2  -5   5 1014.14   41.14   0
   2  -5   5  975.53   42.07   0
   2  -5   5  985.43   41.49   0
   2  -5   5 1026.69   42.73   0
  -3   5  -5  378.15   16.26   0
  -3   5  -5  325.57   15.45   0
  -3   5  -5  336.08   18.15   0
   3  -5   5  347.80   17.22   0
   3  -5   5  347.81   17.36   0
   3  -5   5  349.47   18.14   0
   3  -5   5  324.60   16.50   0
  -4   5  -5   53.52    5.56   0
  -4   5  -5   42.02    6.49   0
  -4   5  -5   38.19    6.15   0
   4  -5   5   59.86    6.86   0
   4  -5   5   58.85    7.63   0
   4  -5   5   60.84    7.14   0
   4  -5   5   52.42    6.02   0
  -5   5  -5  855.08   39.21   0
  -5   5  -5  855.69   37.95   0
   5  -5   5  881.26   37.79   0
   5  -5   5  883.02   39.07   0
   5  -5   5  867.33   38.52   0
   5  -5   5  849.15   37.75   0
  -6   5  -5  197.00   13.58   0
  -6   5  -5  215.39   15.29   0
  -6   5  -5  231.86   16.39   0
   6  -5   5  242.15   14.22   0
   6  -5   5  204.11   13.93   0
   6  -5   5  210.58   15.71   0
   6  -5   5  214.31   15.20   0
  -7   5  -5  755.81   36.86   0
  -7   5  -5  761.51   35.44   0
   7  -5   5  781.67   37.76   0
   7  -5   5  776.15   37.22   0
   7  -5   5  779.65   35.03   0
  -6  -4   5  196.65   11.47   0
  -6  -4   5  183.46   10.86   0
  -5  -4   5   30.22    5.75   0
  -5  -4   5   24.30    4.01   0
  -5  -4   5   29.21    4.51   0
  -5  -4   5   26.76    4.32   0
  -4  -4   5   43.54    3.50   0
  -4  -4   5   38.33    4.72   0
  -4  -4   5   29.95    5.60   0
  -4  -4   5   38.99    3.49   0
  -3  -4   5  291.13   15.12   0
  -3  -4   5  304.03   14.21   0
  -2  -4   5 1315.82   52.49   0
  -2  -4   5 1293.72   52.95   0
  -1  -4   5    2.24    1.03   0
  -1  -4   5    5.31    2.43   0
  -1  -4   5    2.11    2.59   0
  -1  -4   5    5.27    1.50   0
   0  -4   5  170.98    8.28   0
   0  -4   5  167.59    7.96   0
   0  -4   5  164.35    9.81   0
   0  -4   5  171.49    9.57   0
  -1   4  -5  569.64   25.81   0
   1  -4   5  589.77   25.41   0
   1  -4   5  576.63   24.10   0
   1  -4   5  584.83   25.64   0
   1  -4   5  580.15   24.38   0
  -2   4  -5  108.73    6.25   0
  -2   4  -5  119.33    8.67   0
  -2   4  -5  118.98    6.09   0
   2  -4   5  113.00    7.45   0
   2  -4   5  113.92    7.06   0
   2  -4   5  115.69    7.95   0
   2  -4   5  121.62    8.29   0
  -3   4  -5 2348.64  104.17   0
  -3   4  -5 2744.51  102.63   0
  -3   4  -5 2579.59  102.96   0
   3  -4   5 2630.17  103.72   0
   3  -4   5 2739.91  103.56   0
   3  -4   5 2702.33  103.93   0
   3  -4   5 2716.49  104.42   0
  -4   4  -5   20.09    4.67   0
  -4   4  -5   20.29    3.93   0
  -4   4  -5   17.44    3.38   0
   4  -4   5   24.33    4.68   0
   4  -4   5   21.90    4.33   0
   4  -4   5   12.74    3.10   0
  -5   4  -5   24.29    5.72   0
  -5   4  -5    9.99    4.18   0
  -5   4  -5   12.43    3.31   0
   5  -4   5   10.22    3.13   0
   5  -4   5   21.77    4.30   0
   5  -4   5   14.49    4.21   0
   5  -4   5   11.82    4.30   0
  -6   4  -5 1213.76   53.21   0
  -6   4  -5 1279.10   54.59   0
  -6   4  -5 1265.15   54.82   0
   6  -4   5 1294.66   54.08   0
   6  -4   5 1381.74   55.34   0
   6  -4   5 1238.95   53.03   0
   6  -4   5 1291.72   54.68   0
  -7   4  -5    7.81    6.65   0
  -7   4  -5    2.06    5.79   0
   7  -4   5   -1.90    4.36   0
   7  -4   5    2.25    5.06   0
   7  -4   5    4.75    4.02   0
   7  -4   5    3.71    5.92   0
  -7  -3   5   28.82    5.65   0
  -7  -3   5   25.29    5.99   0
  -6  -3   5  780.78   32.89   0
  -6  -3   5  783.24   33.09   0
  -5  -3   5    8.45    2.58   0
  -5  -3   5    4.26    1.67   0
  -5  -3   5    9.42    2.64   0
  -4  -3   5  395.35   16.14   0
  -4  -3   5  376.55   16.20   0
  -4  -3   5  396.02   16.75   0
  -4  -3   5  387.19   18.28   0
  -3  -3   5  339.98   14.98   0
  -3  -3   5  324.08   15.62   0
  -2  -3   5   80.03    5.70   0
  -2  -3   5   80.63    6.12   0
  -1  -3   5 3718.75  145.42   0
  -1  -3   5 3808.86  145.61   0
   0   3  -5  267.32   13.17   0
   0  -3   5  261.18   12.85   0
   0  -3   5  281.20   11.45   0
   0  -3   5  273.30   11.53   0
   0  -3   5  250.09   12.83   0
  -1   3  -5  920.08   38.06   0
   1  -3   5  933.93   36.65   0
   1  -3   5  918.10   36.70   0
   1  -3   5  914.70   37.65   0
   1  -3   5  892.13   37.64   0
  -2   3  -5  275.14   11.28   0
  -2   3  -5  255.37   13.13   0
  -2   3  -5  241.99   11.38   0
   2  -3   5  244.52   12.47   0
   2  -3   5  243.87   12.04   0
   2  -3   5  243.05   12.69   0
   2  -3   5  254.92   12.00   0
  -3   3  -5  480.11   22.53   0
  -3   3  -5  490.10   21.10   0
  -3   3  -5  510.35   21.71   0
   3  -3   5  466.76   21.76   0
   3  -3   5  504.39   21.79   0
   3  -3   5  497.24   22.00   0
   3  -3   5  491.85   22.29   0
  -4   3  -5 1238.50   50.40   0
  -4   3  -5 1255.49   49.79   0
  -4   3  -5 1156.47   50.80   0
   4  -3   5 1224.59   50.49   0
   4  -3   5 1240.67   50.32   0
   4  -3   5 1219.24   50.74   0
   4  -3   5 1249.30   50.12   0
  -5   3  -5  307.65   17.00   0
  -5   3  -5  319.81   15.78   0
  -5   3  -5  313.68   16.58   0
   5  -3   5  299.69   16.52   0
   5  -3   5  324.41   16.71   0
   5  -3   5  304.85   15.55   0
   5  -3   5  301.25   16.06   0
  -6   3  -5   11.15    4.50   0
  -6   3  -5    2.00    4.07   0
  -6   3  -5    1.55    3.03   0
   6  -3   5    5.64    3.82   0
   6  -3   5   -0.17    2.51   0
   6  -3   5    1.20    3.26   0
   6  -3   5    4.93    3.41   0
  -7   3  -5  709.62   34.45   0
  -7   3  -5  804.41   33.94   0
  -7   3  -5  714.90   34.57   0
   7  -3   5  730.58   34.28   0
   7  -3   5  710.50   34.35   0
   7  -3   5  745.61   33.87   0
   7  -3   5  716.53   32.12   0
  -8   3  -5  115.55   12.51   0
  -8   3  -5  126.53   15.21   0
  -8   3  -5  137.10   14.96   0
   8  -3   5  132.98   13.84   0
   8  -3   5  140.45   10.38   0
   8  -3   5   96.47   12.36   0
  -7  -2   5   11.35    4.97   0
  -7  -2   5    5.29    4.92   0
  -7  -2   5    2.43    5.08   0
  -6  -2   5   25.97    4.35   0
  -6  -2   5   19.96    4.10   0
  -5  -2   5 1449.14   62.82   0
  -5  -2   5 1744.60   63.10   0
  -4  -2   5   88.15    5.09   0
  -4  -2   5   89.33    5.28   0
  -4  -2   5   84.73    5.22   0
  -3  -2   5 2013.30   78.09   0
  -3  -2   5 2006.27   76.50   0
  -3  -2   5 1967.60   77.52   0
  -2  -2   5  412.83   17.86   0
  -2  -2   5  410.91   17.71   0
  -1  -2   5 1549.44   59.43   0
  -1  -2   5 1467.88   59.42   0
   0   2  -5 4105.65  160.06   0
   0  -2   5 4104.83  159.75   0
   0  -2   5 4152.26  159.99   0
   0  -2   5 4180.67  158.61   0
   0  -2   5 4225.65  158.63   0
  -1   2  -5 2825.21  109.49   0
   1  -2   5 2872.25  108.44   0
   1  -2   5 2785.73  109.25   0
   1  -2   5 2758.18  109.09   0
   1  -2   5 2824.58  108.40   0
  -2   2  -5  211.50    9.76   0
  -2   2  -5  204.74   10.82   0
  -2   2  -5  213.71    9.50   0
   2  -2   5  209.08   10.05   0
   2  -2   5  193.63   10.35   0
   2  -2   5  202.92   10.00   0
   2  -2   5  200.44   10.31   0
  -3   2  -5   86.66    6.55   0
  -3   2  -5   83.55    5.56   0
  -3   2  -5   87.08    6.03   0
   3  -2   5   92.88    6.15   0
   3  -2   5   94.56    6.11   0
   3  -2   5   91.26    6.38   0
   3  -2   5   76.57    5.94   0
  -4   2  -5  606.89   25.81   0
  -4   2  -5  571.76   25.02   0
  -4   2  -5  586.35   26.04   0
   4  -2   5  579.03   25.63   0
   4  -2   5  570.66   25.05   0
   4  -2   5  572.24   25.42   0
   4  -2   5  571.03   25.70   0
  -5   2  -5  274.58   14.66   0
  -5   2  -5  273.39   14.58   0
  -5   2  -5  245.70   13.49   0
   5  -2   5  252.27   14.16   0
   5  -2   5  264.92   14.39   0
   5  -2   5  252.78   13.18   0
   5  -2   5  252.06   13.87   0
  -6   2  -5 1018.78   43.63   0
  -6   2  -5 1015.79   43.69   0
  -6   2  -5  998.50   42.70   0
   6  -2   5  996.82   43.32   0
   6  -2   5  988.25   41.74   0
   6  -2   5 1001.81   43.51   0
   6  -2   5 1031.60   43.18   0
  -7   2  -5   26.09    6.32   0
  -7   2  -5   25.42    6.10   0
  -7   2  -5   19.54    4.53   0
   7  -2   5   18.24    3.88   0
   7  -2   5   14.32    4.50   0
  -8   2  -5    6.60    6.11   0
  -8   2  -5   -3.73    5.76   0
  -8   2  -5    7.62    4.58   0
   8  -2   5    5.07    4.81   0
   8  -2   5    7.71    4.84   0
   8  -2   5    0.26    3.49   0
  -7  -1   5  184.84   13.15   0
  -7  -1   5  213.27   13.98   0
  -7  -1   5  208.20   12.52   0
  -6  -1   5    9.41    3.59   0
  -6  -1   5    1.38    3.08   0
  -6  -1   5    0.43    3.30   0
  -5  -1   5   26.67    4.47   0
  -5  -1   5   29.29    4.65   0
  -4  -1   5 1562.18   60.20   0
  -4  -1   5 1547.54   60.99   0
  -4  -1   5 1568.49   61.04   0
  -3  -1   5 1432.92   55.56   0
  -3  -1   5 1442.46   55.58   0
  -3  -1   5 1429.70   55.94   0
  -2  -1   5  829.03   34.46   0
  -2  -1   5  898.45   34.44   0
  -1  -1   5   78.63    4.58   0
  -1  -1   5   76.17    4.77   0
   0   1  -5 3415.82  134.07   0
   0  -1   5 3517.36  133.09   0
   0  -1   5 3501.84  133.76   0
   0  -1   5 3496.57  134.23   0
  -1   1  -5 1060.14   40.44   0
  -1   1  -5 1052.70   41.81   0
   1  -1   5 1020.31   41.12   0
   1  -1   5 1035.30   41.78   0
   1  -1   5 1046.79   41.11   0
   1  -1   5 1043.13   41.48   0
  -2   1  -5 7322.80  280.47   0
  -3   1  -5  109.60    6.04   0
  -3   1  -5   95.21    6.50   0
  -3   1  -5   83.54    5.99   0
   3  -1   5   85.59    6.09   0
   3  -1   5   88.96    6.16   0
   3  -1   5   98.53    6.08   0
   3  -1   5   97.14    6.24   0
  -4   1  -5  335.84   15.68   0
  -4   1  -5  341.43   16.34   0
  -4   1  -5  339.24   16.20   0
   4  -1   5  341.27   16.08   0
   4  -1   5  334.13   15.47   0
   4  -1   5  328.68   16.05   0
   4  -1   5  334.08   16.19   0
  -5   1  -5 1593.57   64.16   0
  -5   1  -5 1557.25   63.39   0
  -5   1  -5 1649.12   64.34   0
   5  -1   5 1627.81   63.97   0
   5  -1   5 1544.69   63.87   0
   5  -1   5 1529.62   62.70   0
   5  -1   5 1539.17   63.96   0
  -6   1  -5   48.42    6.37   0
  -6   1  -5   36.74    5.64   0
  -6   1  -5   43.65    6.97   0
   6  -1   5   43.75    6.32   0
   6  -1   5   51.95    7.00   0
   6  -1   5   41.95    5.09   0
  -7   1  -5 1083.18   46.05   0
  -7   1  -5 1108.03   47.39   0
  -7   1  -5 1092.02   46.79   0
   7  -1   5 1059.46   44.23   0
   7  -1   5 1043.52   46.15   0
   7  -1   5 1072.49   46.43   0
  -8   1  -5   25.97    5.65   0
  -8   1  -5   18.19    6.97   0
  -8   1  -5   21.80    6.16   0
   8  -1   5   32.00    6.51   0
   8  -1   5   21.01    5.40   0
   8  -1   5   35.26    5.92   0
  -7   0   5  452.57   22.26   0
  -7   0   5  422.50   20.26   0
  -7   0   5  428.88   21.72   0
  -6   0   5  138.28    9.83   0
  -6   0   5  127.07    9.57   0
  -6   0   5  138.48    8.70   0
  -5   0   5   31.21    4.90   0
  -5   0   5   24.33    4.03   0
  -5   0   5   32.72    4.92   0
  -4   0   5  470.02   19.94   0
  -4   0   5  451.45   19.87   0
  -4   0   5  476.12   18.58   0
  -3   0   5  798.61   32.06   0
  -3   0   5  795.53   31.79   0
  -3   0   5  817.20   32.05   0
   2   0  -5 5105.56  200.38   0
  -2   0   5 5360.19  199.80   0
  -2   0   5 5416.93  199.85   0
  -2   0   5 5071.25  200.23   0
   1   0  -5    1.15    1.05   0
  -1   0   5    3.95    1.10   0
   0   0  -5 1088.57   44.94   0
   0   0  -5 1123.79   44.41   0
   0   0   5 1133.49   44.10   0
   0   0   5 1131.10   44.13   0
   0   0   5 1141.49   44.84   0
   0   0   5 1182.47   44.19   0
  -1   0  -5 1768.66   72.93   0
  -1   0  -5 1924.56   72.07   0
  -1   0  -5 1892.34   72.65   0
  -1   0  -5 1792.65   71.98   0
   1   0   5 1884.62   72.41   0
   1   0   5 1878.30   72.40   0
   1   0   5 1888.17   72.42   0
   1   0   5 1910.59   72.87   0
  -2   0  -5   86.16    5.25   0
  -2   0  -5   70.51    4.97   0
  -2   0  -5   80.93    4.89   0
   2   0   5   86.03    5.09   0
   2   0   5   74.11    4.87   0
   2   0   5   73.92    4.90   0
   2   0   5   74.29    4.91   0
  -3   0  -5 5895.13  224.26   0
  -3   0  -5 6016.03  224.42   0
  -3   0  -5 5864.79  224.17   0
   3   0   5 5886.45  224.28   0
   3   0   5 5683.88  223.81   0
   3   0   5 5736.19  224.16   0
   3   0   5 5791.37  224.22   0
  -4   0  -5   11.55    2.78   0
  -4   0  -5   13.11    2.94   0
  -4   0  -5   11.54    2.62   0
   4   0   5    7.80    2.20   0
   4   0   5    9.67    2.02   0
   4   0   5    7.87    2.30   0
   4   0   5   16.57    3.21   0
  -5   0  -5 1181.32   49.20   0
  -5   0  -5 1152.41   48.63   0
  -5   0  -5 1241.08   49.57   0
   5   0   5 1201.58   49.10   0
   5   0   5 1232.65   49.25   0
   5   0   5 1142.49   47.80   0
  -6   0  -5 1844.95   73.71   0
  -6   0  -5 1850.55   73.38   0
  -6   0  -5 1616.34   72.31   0
   6   0   5 1919.29   73.35   0
   6   0   5 1801.47   71.46   0
  -7   0  -5  913.33   38.50   0
  -7   0  -5  863.95   38.83   0
  -7   0  -5  879.84   39.42   0
   7   0   5  860.57   36.37   0
   7   0   5  849.63   38.39   0
   7   0   5  895.07   38.78   0
  -8   0  -5  671.27   30.94   0
  -8   0  -5  648.04   31.45   0
  -8   0  -5  632.34   32.10   0
   8   0   5  673.68   31.20   0
   8   0   5  641.57   27.98   0
   8   0   5  631.99   30.71   0
  -9   0  -5   50.03    8.77   0
   9   0   5   45.14    5.66   0
   9   0   5   38.82    7.50   0
   9   0   5   51.99    8.29   0
  -7   1   5    6.19    3.69   0
  -7   1   5    3.50    4.38   0
  -7   1   5   -0.02    4.67   0
  -6   1   5 1887.07   77.92   0
  -6   1   5 1985.01   78.05   0
  -6   1   5 1963.16   76.40   0
  -5   1   5   86.31    7.12   0
  -5   1   5   83.45    5.70   0
  -5   1   5   94.90    7.20   0
   4  -1  -5 1082.23   42.14   0
  -4   1   5 1078.25   43.69   0
  -4   1   5 1061.13   42.55   0
  -4   1   5 1113.74   43.74   0
   3  -1  -5  305.79   12.80   0
  -3   1   5  307.49   13.41   0
  -3   1   5  300.15   13.31   0
  -3   1   5  299.59   12.65   0
  -3   1   5  285.62   12.28   0
   2  -1  -5  130.48    6.70   0
  -2   1   5  136.91    5.62   0
  -2   1   5  148.95    6.81   0
  -2   1   5  135.43    6.60   0
  -2   1   5  125.52    6.55   0
   1  -1  -5 4664.35  177.24   0
  -1   1   5 4923.50  176.93   0
  -1   1   5 4559.30  177.08   0
  -1   1   5 4357.99  176.63   0
   0  -1  -5   22.21    2.36   0
   0  -1  -5   19.50    2.00   0
   0  -1  -5   20.83    1.74   0
   0   1   5   22.60    1.71   0
   0   1   5   20.10    2.08   0
   0   1   5   19.49    2.17   0
   0   1   5   26.06    2.26   0
  -1  -1  -5  386.46   16.08   0
  -1  -1  -5  379.81   16.09   0
  -1  -1  -5  374.78   16.53   0
  -1  -1  -5  408.04   16.11   0
   1   1   5  365.22   16.33   0
   1   1   5  384.36   16.23   0
   1   1   5  379.72   16.25   0
   1   1   5  402.67   16.02   0
  -2  -1  -5 2258.65   87.73   0
  -2  -1  -5 2318.67   87.68   0
  -2  -1  -5 2262.45   87.94   0
  -2  -1  -5 2240.15   87.80   0
   2   1   5 2208.03   87.68   0
   2   1   5 2270.48   87.90   0
   2   1   5 2243.08   87.80   0
   2   1   5 2275.40   87.65   0
  -3  -1  -5  461.60   19.84   0
  -3  -1  -5  445.84   20.05   0
  -3  -1  -5  472.42   20.12   0
  -3  -1  -5  464.41   19.81   0
   3   1   5  460.01   19.61   0
   3   1   5  459.06   20.09   0
   3   1   5  459.65   20.02   0
  -4  -1  -5 2202.30   85.92   0
  -4  -1  -5 2201.21   86.35   0
  -4  -1  -5 2178.70   85.69   0
  -4  -1  -5 2172.99   86.42   0
   4   1   5 2141.91   86.16   0
   4   1   5 2144.49   85.37   0
   4   1   5 2285.36   86.52   0
  -5  -1  -5  162.82    9.80   0
  -5  -1  -5  133.65    8.77   0
  -5  -1  -5  158.95    9.48   0
  -5  -1  -5  144.92    8.43   0
   5   1   5  142.34    9.19   0
   5   1   5  140.46    9.12   0
   5   1   5  145.99    8.05   0
  -6  -1  -5  710.15   32.26   0
  -6  -1  -5  736.92   31.87   0
  -6  -1  -5  744.68   32.75   0
   6   1   5  733.91   32.20   0
   6   1   5  745.54   32.21   0
   6   1   5  710.85   30.34   0
  -7  -1  -5  594.37   28.87   0
  -7  -1  -5  613.36   27.93   0
  -7  -1  -5  600.77   28.41   0
   7   1   5  628.66   28.27   0
   7   1   5  588.68   25.81   0
   7   1   5  605.23   28.06   0
  -8  -1  -5 1709.69   73.60   0
  -8  -1  -5 1740.80   73.08   0
  -8  -1  -5 1740.83   74.41   0
   8   1   5 1757.27   70.31   0
   8   1   5 1820.10   73.38   0
   8   1   5 1880.12   73.55   0
  -9  -1  -5   82.95   14.55   0
  -9  -1  -5   75.46   12.22   0
   9   1   5   68.99    7.17   0
   9   1   5   70.28   12.31   0
   9   1   5   82.39   11.21   0
   7  -2  -5   16.10    2.56   0
   7  -2  -5   14.96    2.86   0
  -7   2   5   20.48    4.26   0
  -7   2   5   26.39    6.16   0
  -7   2   5   23.57    6.01   0
   6  -2  -5   62.43    5.24   0
   6  -2  -5   67.87    4.72   0
  -6   2   5   64.62    8.08   0
  -6   2   5   75.39    5.97   0
   5  -2  -5 1620.44   64.12   0
   5  -2  -5 1652.24   63.78   0
  -5   2   5 1538.42   65.69   0
  -5   2   5 1728.31   66.03   0
  -5   2   5 1652.48   64.03   0
   4  -2  -5 1190.50   47.18   0
   4  -2  -5 1199.29   47.55   0
   4  -2  -5 1193.40   47.01   0
  -4   2   5 1189.71   47.01   0
  -4   2   5 1209.57   48.72   0
  -4   2   5 1251.06   48.84   0
   3  -2  -5 1089.40   43.52   0
   3  -2  -5 1086.35   43.32   0
   3  -2  -5 1107.94   43.65   0
  -3   2   5 1158.07   44.56   0
  -3   2   5 1117.35   42.77   0
  -3   2   5 1091.67   44.32   0
   2  -2  -5    2.40    0.95   0
   2  -2  -5    2.64    1.25   0
   2  -2  -5    4.20    1.27   0
  -2   2   5    4.84    1.50   0
  -2   2   5    1.73    1.45   0
  -2   2   5    3.65    1.33   0
   1  -2  -5 1709.54   65.22   0
   1  -2  -5 1627.23   65.36   0
   1  -2  -5 1615.91   64.91   0
  -1   2   5 1800.21   65.56   0
  -1   2   5 1677.94   65.25   0
  -1   2   5 1646.21   65.25   0
   0  -2  -5 1059.26   41.57   0
   0  -2  -5 1079.38   41.21   0
   0  -2  -5 1080.28   40.45   0
   0  -2  -5  996.43   41.42   0
   0   2   5 1026.14   41.28   0
   0   2   5 1043.38   41.42   0
  -1  -2  -5 1126.83   44.88   0
  -1  -2  -5 1139.65   44.30   0
  -1  -2  -5 1142.11   44.79   0
  -1  -2  -5 1110.77   44.70   0
   1   2   5 1134.45   44.90   0
   1   2   5 1122.45   44.73   0
   1   2   5 1150.69   44.79   0
  -2  -2  -5   70.41    4.41   0
  -2  -2  -5   55.08    3.98   0
  -2  -2  -5   60.50    4.27   0
  -2  -2  -5   57.90    4.06   0
   2   2   5   63.16    4.09   0
   2   2   5   65.18    4.40   0
   2   2   5   54.31    4.12   0
  -3  -2  -5 1427.44   54.89   0
  -3  -2  -5 1447.34   55.14   0
  -3  -2  -5 1428.82   54.76   0
  -3  -2  -5 1185.39   54.84   0
   3   2   5 1438.40   55.10   0
   3   2   5 1408.52   54.54   0
   3   2   5 1340.04   55.09   0
  -4  -2  -5 2038.39   81.29   0
  -4  -2  -5 2064.76   81.17   0
  -4  -2  -5 1979.09   80.65   0
   4   2   5 2032.16   80.10   0
   4   2   5 2041.84   80.96   0
   4   2   5 2161.87   81.29   0
  -5  -2  -5  509.33   23.41   0
  -5  -2  -5  500.59   22.57   0
  -5  -2  -5  517.77   23.13   0
  -5  -2  -5  506.27   21.92   0
   5   2   5  512.87   22.94   0
   5   2   5  479.96   21.49   0
   5   2   5  519.78   23.15   0
  -6  -2  -5  602.66   28.00   0
  -6  -2  -5  620.03   27.84   0
  -6  -2  -5  618.55   27.19   0
  -6  -2  -5  607.63   25.99   0
   6   2   5  581.89   25.56   0
   6   2   5  622.98   27.55   0
   6   2   5  607.27   27.38   0
  -7  -2  -5  125.03    9.52   0
  -7  -2  -5  101.04    9.75   0
  -7  -2  -5  109.46   10.06   0
   7   2   5   99.85    8.97   0
   7   2   5  107.15    9.33   0
   7   2   5   88.65    6.69   0
  -8  -2  -5   35.02    5.91   0
  -8  -2  -5   41.32    7.93   0
  -8  -2  -5   49.06    8.02   0
   8   2   5   42.35    6.59   0
   8   2   5   33.46    5.07   0
   8   2   5   38.32    6.37   0
  -9  -2  -5  614.56   32.62   0
  -9  -2  -5  660.12   31.51   0
   9   2   5  642.55   30.79   0
   9   2   5  640.05   31.07   0
   9   2   5  606.21   26.56   0
   7  -3  -5  477.52   22.19   0
   7  -3  -5  487.00   21.34   0
  -7   3   5  490.36   21.96   0
  -7   3   5  473.24   25.14   0
  -7   3   5  501.07   25.34   0
   6  -3  -5    5.97    3.31   0
  -6   3   5    7.25    4.35   0
  -6   3   5   16.05    3.33   0
  -6   3   5    9.33    4.54   0
   5  -3  -5  881.68   37.12   0
   5  -3  -5  922.10   36.41   0
   5  -3  -5  873.63   35.38   0
  -5   3   5  879.74   38.13   0
  -5   3   5  920.15   38.28   0
  -5   3   5  901.45   35.96   0
   4  -3  -5  557.60   21.29   0
   4  -3  -5  479.34   22.23   0
   4  -3  -5  503.28   21.66   0
  -4   3   5  521.29   23.02   0
  -4   3   5  506.73   20.96   0
  -4   3   5  527.63   23.01   0
   3  -3  -5 3921.91  154.45   0
   3  -3  -5 3951.62  155.26   0
   3  -3  -5 4044.20  154.73   0
  -3   3   5 4199.36  155.75   0
  -3   3   5 3980.02  155.47   0
  -3   3   5 4069.82  153.66   0
   2  -3  -5   31.85    2.88   0
   2  -3  -5   34.70    3.00   0
   2  -3  -5   33.17    3.61   0
  -2   3   5   31.38    3.35   0
  -2   3   5   34.81    3.75   0
   1  -3  -5  365.91   16.80   0
   1  -3  -5  385.71   16.25   0
   1  -3  -5  382.10   16.33   0
  -1   3   5  386.62   16.29   0
  -1   3   5  413.43   16.86   0
  -1   3   5  372.12   16.39   0
   0  -3  -5 1862.94   70.47   0
   0  -3  -5 1780.48   70.83   0
   0  -3  -5 1780.43   70.31   0
   0   3   5 1779.78   70.36   0
   0   3   5 1833.37   70.35   0
  -1  -3  -5  698.73   28.38   0
  -1  -3  -5  711.23   28.32   0
   1   3   5  684.52   28.27   0
   1   3   5  709.99   28.61   0
   1   3   5  668.53   28.10   0
  -2  -3  -5 2953.98  114.05   0
  -2  -3  -5 2951.95  114.28   0
  -2  -3  -5 2950.41  114.38   0
   2   3   5 3103.38  114.56   0
   2   3   5 2907.73  114.17   0
   2   3   5 2842.53  113.86   0
  -3  -3  -5  309.23   13.26   0
  -3  -3  -5  262.23   13.24   0
  -3  -3  -5  265.79   12.66   0
   3   3   5  263.26   12.97   0
   3   3   5  307.25   13.58   0
   3   3   5  262.53   12.48   0
  -4  -3  -5    7.39    2.46   0
  -4  -3  -5    6.28    1.93   0
  -4  -3  -5    6.65    2.50   0
   4   3   5    4.54    1.66   0
   4   3   5    5.35    2.04   0
   4   3   5    7.89    2.60   0
  -5  -3  -5 1395.36   53.94   0
  -5  -3  -5 1357.95   55.47   0
  -5  -3  -5 1375.93   55.30   0
  -5  -3  -5 1317.85   54.57   0
   5   3   5 1392.53   55.23   0
   5   3   5 1321.78   54.72   0
   5   3   5 1288.75   53.43   0
  -6  -3  -5    9.97    2.59   0
  -6  -3  -5    9.36    3.80   0
  -6  -3  -5   14.06    3.17   0
   6   3   5   13.91    2.62   0
   6   3   5    6.46    2.97   0
   6   3   5   11.82    3.67   0
  -7  -3  -5  280.63   16.03   0
  -7  -3  -5  261.28   15.55   0
  -7  -3  -5  247.22   12.60   0
   7   3   5  258.16   14.45   0
   7   3   5  219.44   11.90   0
   7   3   5  242.14   14.38   0
   8   3   5  101.20    6.90   0
   8   3   5  105.09   10.10   0
  -9  -3  -5    1.33    8.69   0
  -9  -3  -5    9.21    5.63   0
   9   3   5   -3.42    5.42   0
   9   3   5   -5.63    4.99   0
   7  -4  -5  589.13   27.56   0
   7  -4  -5  588.87   25.96   0
  -7   4   5  579.74   29.14   0
  -7   4   5  621.20   29.77   0
  -7   4   5  567.92   25.80   0
   6  -4  -5  109.79    9.74   0
   6  -4  -5  117.97    8.03   0
   6  -4  -5  115.64    6.36   0
  -6   4   5  111.99   10.79   0
  -6   4   5  120.75   10.85   0
  -6   4   5  123.23    7.94   0
   5  -4  -5  211.67   12.51   0
   5  -4  -5  224.96   11.32   0
   5  -4  -5  214.87   10.19   0
  -5   4   5  224.83   10.59   0
  -5   4   5  209.47   12.99   0
  -5   4   5  220.34   13.00   0
   4  -4  -5 1714.86   67.17   0
   4  -4  -5 1655.59   68.71   0
   4  -4  -5 1771.00   67.97   0
  -4   4   5 1753.97   69.13   0
  -4   4   5 1701.42   68.98   0
  -4   4   5 1722.49   66.87   0
   3  -4  -5  116.97    6.33   0
   3  -4  -5  103.01    7.63   0
   3  -4  -5  126.49    6.91   0
   3  -4  -5  113.99    5.96   0
  -3   4   5  118.50    5.75   0
  -3   4   5  117.26    7.46   0
  -3   4   5  115.48    7.72   0
   2  -4  -5 5232.09  200.43   0
   2  -4  -5 4808.71  201.30   0
   2  -4  -5 5300.02  200.68   0
  -2   4   5 5268.65  201.08   0
  -2   4   5 5543.49  201.43   0
   1  -4  -5  830.39   34.11   0
   1  -4  -5  886.46   34.96   0
   1  -4  -5  810.63   35.80   0
   1  -4  -5  895.77   35.08   0
  -1   4   5  936.26   35.67   0
  -1   4   5  852.49   35.14   0
   0  -4  -5  195.93    9.50   0
   0  -4  -5  198.68    9.60   0
   0  -4  -5  191.38   10.35   0
   0   4   5  213.07    9.62   0
   0   4   5  203.94    9.69   0
  -1  -4  -5  776.97   32.42   0
  -1  -4  -5  797.46   31.96   0
  -1  -4  -5  800.07   32.12   0
   1   4   5  760.15   31.89   0
   1   4   5  768.47   31.80   0
   1   4   5  815.95   32.47   0
  -2  -4  -5 1122.19   44.79   0
  -2  -4  -5 1104.20   45.09   0
  -2  -4  -5 1121.85   45.20   0
   2   4   5 1093.75   44.86   0
   2   4   5 1114.00   44.69   0
   2   4   5 1179.89   45.41   0
  -3  -4  -5 1639.60   66.65   0
  -3  -4  -5 1590.79   66.15   0
  -3  -4  -5 1758.05   67.14   0
   3   4   5 1761.18   67.10   0
   3   4   5 1698.54   66.18   0
   3   4   5 1670.43   66.61   0
  -4  -4  -5  714.35   30.07   0
  -4  -4  -5  724.98   30.69   0
  -4  -4  -5  750.61   29.60   0
   4   4   5  663.50   29.80   0
   4   4   5  684.25   29.21   0
   4   4   5  734.99   30.53   0
  -5  -4  -5  275.25   14.49   0
  -5  -4  -5  265.75   13.70   0
  -5  -4  -5  263.67   12.75   0
   5   4   5  282.67   14.25   0
   5   4   5  254.94   12.44   0
   5   4   5  260.66   13.60   0
  -6  -4  -5  125.38    7.71   0
  -6  -4  -5  116.74    9.68   0
  -6  -4  -5  117.72    8.69   0
  -6  -4  -5  126.11    9.57   0
   6   4   5  125.43    7.27   0
   6   4   5  130.82    9.10   0
   6   4   5  120.28    8.87   0
  -7  -4  -5  959.40   39.49   0
  -7  -4  -5  994.45   41.52   0
  -7  -4  -5 1023.44   42.73   0
  -7  -4  -5  967.33   42.72   0
   7   4   5  951.01   41.01   0
   7   4   5  947.33   41.36   0
   7   4   5  899.77   38.87   0
  -8  -4  -5    4.29    5.22   0
  -8  -4  -5    5.23    5.47   0
  -8  -4  -5   16.10    5.02   0
   8   4   5   15.46    4.76   0
   8   4   5   22.69    5.17   0
   9   4   5    6.66    5.28   0
   7  -5  -5    6.59    2.48   0
   7  -5  -5    8.65    4.17   0
   7  -5  -5    1.97    5.41   0
  -7   5   5   -1.57    6.04   0
  -7   5   5    3.14    6.21   0
  -7   5   5    7.49    4.18   0
   6  -5  -5 1015.38   40.40   0
   6  -5  -5 1084.79   42.22   0
   6  -5  -5  874.50   42.98   0
  -6   5   5 1056.36   44.56   0
  -6   5   5 1006.23   44.09   0
  -6   5   5  995.02   41.15   0
   5  -5  -5  389.61   16.56   0
   5  -5  -5  372.51   17.60   0
   5  -5  -5  337.82   18.75   0
  -5   5   5  381.37   19.33   0
  -5   5   5  365.96   16.58   0
  -5   5   5  380.38   19.40   0
   4  -5  -5  318.02   13.74   0
   4  -5  -5  289.83   15.70   0
   4  -5  -5  298.42   14.36   0
   4  -5  -5  295.24   13.78   0
  -4   5   5  301.76   15.51   0
  -4   5   5  297.04   13.30   0
  -4   5   5  270.81   15.34   0
   3  -5  -5  667.28   28.51   0
   3  -5  -5  710.48   29.39   0
   3  -5  -5  661.65   30.47   0
   3  -5  -5  711.66   28.91   0
  -3   5   5  704.61   28.16   0
  -3   5   5  730.98   30.34   0
  -3   5   5  710.46   30.09   0
   2  -5  -5  394.49   19.84   0
   2  -5  -5  445.34   18.53   0
   2  -5  -5  464.93   18.91   0
   2  -5  -5  407.66   17.92   0
  -2   5   5  416.64   19.05   0
  -2   5   5  422.03   19.33   0
   1  -5  -5 3144.96  120.28   0
   1  -5  -5 3029.80  121.56   0
   1  -5  -5 3061.27  119.79   0
   1  -5  -5 3165.22  120.45   0
  -1   5   5 3307.52  121.09   0
  -1   5   5 2941.73  120.41   0
   0  -5  -5 1046.12   43.56   0
   0  -5  -5 1080.59   44.57   0
   0  -5  -5 1095.31   43.53   0
   0   5   5 1105.91   43.70   0
   0   5   5 1105.64   44.07   0
  -1  -5  -5 2052.74   79.59   0
  -1  -5  -5 2008.31   80.03   0
  -1  -5  -5 2073.04   79.38   0
   1   5   5 2114.07   80.06   0
   1   5   5 1901.72   79.26   0
  -2  -5  -5  573.46   24.02   0
  -2  -5  -5  564.51   24.53   0
  -2  -5  -5  585.84   24.49   0
   2   5   5  556.99   24.10   0
   2   5   5  571.52   24.02   0
   2   5   5  573.69   24.64   0
  -3  -5  -5 4923.18  186.86   0
  -3  -5  -5 4776.98  186.52   0
  -3  -5  -5 4942.24  186.02   0
   3   5   5 4455.69  185.99   0
   3   5   5 5068.90  186.87   0
   3   5   5 4853.12  185.91   0
  -4  -5  -5   47.43    4.25   0
  -4  -5  -5   36.67    4.97   0
  -4  -5  -5   37.79    5.12   0
   4   5   5   42.17    4.09   0
   4   5   5   35.61    4.54   0
   4   5   5   44.42    5.24   0
  -5  -5  -5 1436.81   56.10   0
  -5  -5  -5 1347.91   56.83   0
  -5  -5  -5 1454.26   57.96   0
   5   5   5 1400.79   56.65   0
   5   5   5 1351.00   55.75   0
   5   5   5 1437.64   57.35   0
  -6  -5  -5   -0.30    2.07   0
  -6  -5  -5    2.32    3.53   0
  -6  -5  -5    2.62    3.09   0
   6   5   5    0.22    2.72   0
   6   5   5    4.28    3.33   0
  -7  -5  -5   15.49    4.99   0
  -7  -5  -5   13.09    4.33   0
  -7  -5  -5   14.34    3.42   0
  -7  -5  -5   22.60    5.88   0
   7   5   5   15.63    4.35   0
   7   5   5   18.02    4.33   0
  -8  -5  -5  521.49   27.17   0
  -8  -5  -5  510.04   26.62   0
  -8  -5  -5  482.80   22.02   0
  -8  -5  -5  489.40   24.97   0
   8   5   5  507.47   24.21   0
   8   5   5  494.26   24.51   0
   7  -6  -5    9.64    3.18   0
   7  -6  -5   14.60    5.07   0
  -7   6   5   -0.40    6.91   0
  -7   6   5    8.02    4.76   0
  -7   6   5   17.52    7.29   0
   6  -6  -5   62.41    7.94   0
   6  -6  -5   61.74    8.55   0
   6  -6  -5   71.28    6.12   0
  -6   6   5   67.52    7.15   0
  -6   6   5   68.34   10.61   0
   5  -6  -5  528.29   24.44   0
   5  -6  -5  588.15   24.00   0
   5  -6  -5  574.24   25.08   0
   5  -6  -5  506.78   26.38   0
  -5   6   5  559.65   26.68   0
  -5   6   5  548.88   23.82   0
  -5   6   5  558.48   26.50   0
   4  -6  -5  828.64   34.82   0
   4  -6  -5  898.69   34.75   0
   4  -6  -5  863.29   35.42   0
   4  -6  -5  808.35   36.92   0
  -4   6   5  704.04   35.77   0
  -4   6   5  897.57   36.75   0
  -4   6   5  860.16   34.17   0
   3  -6  -5  315.05   14.58   0
   3  -6  -5  270.59   13.77   0
   3  -6  -5  308.68   13.99   0
   3  -6  -5  281.76   16.07   0
  -3   6   5  305.11   15.22   0
  -3   6   5  295.82   13.33   0
  -3   6   5  286.48   15.25   0
   2  -6  -5  266.22   12.62   0
   2  -6  -5  239.17   12.46   0
   2  -6  -5  264.41   14.89   0
   2  -6  -5  272.08   13.05   0
  -2   6   5  262.24   13.33   0
  -2   6   5  267.05   13.67   0
   1  -6  -5 2219.79   87.83   0
   1  -6  -5 2267.28   87.91   0
   1  -6  -5 2297.25   88.18   0
   1  -6  -5 2125.82   89.44   0
  -1   6   5 2226.95   88.25   0
  -1   6   5 2345.06   88.73   0
   0  -6  -5  525.62   21.92   0
   0  -6  -5  502.65   21.79   0
   0  -6  -5  518.26   22.04   0
   0  -6  -5  509.09   23.13   0
   0   6   5  516.69   22.52   0
   0   6   5  469.63   21.80   0
  -1  -6  -5 3156.41  122.71   0
  -1  -6  -5 3236.21  122.58   0
  -1  -6  -5 3096.97  123.35   0
   1   6   5 3296.04  123.29   0
   1   6   5 3011.09  122.42   0
  -2  -6  -5 1046.62   41.34   0
  -2  -6  -5  958.70   41.25   0
  -2  -6  -5 1055.74   40.91   0
   2   6   5 1027.47   41.48   0
   2   6   5  934.68   40.62   0
  -3  -6  -5    6.22    2.55   0
  -3  -6  -5    4.08    2.31   0
  -3  -6  -5    7.78    2.19   0
   3   6   5    8.39    2.48   0
   3   6   5    5.07    2.76   0
  -4  -6  -5 3791.53  152.98   0
  -4  -6  -5 4103.17  153.79   0
  -4  -6  -5 3945.82  152.38   0
   4   6   5 3757.92  152.46   0
   4   6   5 4113.07  153.47   0
  -5  -6  -5  215.39   13.08   0
  -5  -6  -5  223.36   12.63   0
  -5  -6  -5  226.92   11.41   0
   5   6   5  221.60   12.51   0
   5   6   5  218.96   11.87   0
  -6  -6  -5 1025.47   43.61   0
  -6  -6  -5 1049.35   42.39   0
  -6  -6  -5 1021.21   44.76   0
   6   6   5  985.96   42.75   0
   6   6   5 1086.27   43.88   0
  -7  -6  -5   20.39    5.55   0
  -7  -6  -5   15.39    3.39   0
  -7  -6  -5   18.60    5.06   0
   7   6   5   11.93    3.91   0
   7   6   5    7.75    3.99   0
  -8  -6  -5   67.69   10.97   0
  -8  -6  -5   58.89    9.29   0
  -8  -6  -5   69.74   12.72   0
  -8  -6  -5   73.78    7.45   0
   8   6   5   55.95    8.70   0
   8   6   5   73.60    9.37   0
   6  -7  -5  123.75   10.46   0
   6  -7  -5  116.81   10.38   0
   6  -7  -5  110.45    8.44   0
  -6   7   5  111.12    9.13   0
  -6   7   5  117.17   13.26   0
  -6   7   5  115.99   13.18   0
   5  -7  -5  472.15   22.66   0
   5  -7  -5  496.14   21.71   0
   5  -7  -5  444.33   24.73   0
   5  -7  -5  490.57   22.86   0
  -5   7   5  504.17   24.69   0
  -5   7   5  471.64   21.49   0
  -5   7   5  481.83   24.35   0
   4  -7  -5   20.94    3.83   0
   4  -7  -5   16.05    4.90   0
   4  -7  -5   22.86    3.76   0
  -4   7   5   28.30    5.38   0
  -4   7   5   17.68    4.56   0
  -4   7   5   16.80    3.50   0
   3  -7  -5 1016.33   46.78   0
   3  -7  -5  978.99   44.48   0
   3  -7  -5 1107.93   44.47   0
   3  -7  -5 1137.23   45.10   0
  -3   7   5 1170.60   45.92   0
  -3   7   5 1113.31   45.75   0
   2  -7  -5    5.17    2.07   0
   2  -7  -5   -0.32    1.96   0
   2  -7  -5    8.10    3.99   0
   2  -7  -5    8.77    3.12   0
  -2   7   5    1.52    2.63   0
  -2   7   5    3.59    2.84   0
   1  -7  -5   40.57    6.97   0
   1  -7  -5   30.90    5.26   0
   1  -7  -5   43.82    4.46   0
   1  -7  -5   45.34    4.95   0
  -1   7   5   49.46    5.90   0
  -1   7   5   50.76    5.34   0
   0  -7  -5 2763.55  111.14   0
   0  -7  -5 2828.57  111.01   0
   0  -7  -5 2846.89  111.27   0
   0  -7  -5 2782.70  112.46   0
   0   7   5 3143.89  111.98   0
   0   7   5 2718.26  111.03   0
  -1  -7  -5   67.90    5.63   0
  -1  -7  -5   46.09    6.35   0
  -1  -7  -5   56.54    4.97   0
   1   7   5   59.04    5.43   0
   1   7   5   58.30    6.43   0
  -2  -7  -5 2266.76   87.52   0
  -2  -7  -5 2189.99   87.88   0
   2   7   5 2150.67   87.28   0
   2   7   5 2295.51   88.18   0
  -3  -7  -5    1.84    1.87   0
  -3  -7  -5    9.13    3.08   0
  -3  -7  -5    2.38    2.41   0
   3   7   5    2.36    2.65   0
   3   7   5    2.90    2.07   0
  -4  -7  -5  233.37   12.95   0
  -4  -7  -5  220.37   11.54   0
  -4  -7  -5  213.12   12.50   0
   4   7   5  221.04   11.71   0
   4   7   5  227.80   12.60   0
  -5  -7  -5  990.65   40.94   0
  -5  -7  -5  937.81   41.76   0
  -5  -7  -5 1016.33   42.83   0
   5   7   5  976.36   41.00   0
   5   7   5 1045.85   42.00   0
  -6  -7  -5  841.52   35.35   0
  -6  -7  -5  850.64   37.86   0
  -6  -7  -5  838.34   36.85   0
   6   7   5  801.94   35.44   0
   6   7   5  880.28   36.59   0
  -7  -7  -5  214.01   11.78   0
  -7  -7  -5  213.86   15.34   0
   7   7   5  190.00   12.97   0
   7   7   5  206.83   12.32   0
  -8  -7  -5   14.85    4.17   0
  -8  -7  -5   29.01    7.69   0
   8   7   5    3.83    4.70   0
   6  -8  -5   39.62    5.53   0
   6  -8  -5   39.20    6.72   0
   6  -8  -5   40.25    7.25   0
   6  -8  -5   32.62    8.21   0
  -6   8   5   36.66    5.96   0
  -6   8   5   36.43    8.22   0
  -6   8   5   28.20    7.78   0
   5  -8  -5  139.76   10.85   0
   5  -8  -5  138.77   11.25   0
   5  -8  -5  135.03    9.52   0
  -5   8   5  135.05   12.90   0
  -5   8   5  109.83   12.09   0
  -5   8   5  130.12    9.45   0
   4  -8  -5  505.04   25.29   0
   4  -8  -5  580.65   25.68   0
   4  -8  -5  580.32   24.87   0
   4  -8  -5  541.50   28.37   0
  -4   8   5  523.68   26.35   0
  -4   8   5  569.12   26.76   0
   3  -8  -5  166.56   13.87   0
   3  -8  -5  187.43   11.74   0
   3  -8  -5  190.05   10.76   0
   3  -8  -5  210.82   11.74   0
  -3   8   5  193.32   12.20   0
  -3   8   5  167.90   12.24   0
   2  -8  -5  883.12   37.13   0
   2  -8  -5  803.23   37.12   0
   2  -8  -5  877.20   39.52   0
   2  -8  -5  870.75   36.65   0
  -2   8   5  930.46   37.67   0
  -2   8   5  876.51   37.58   0
   1  -8  -5  609.88   28.04   0
   1  -8  -5  636.38   27.69   0
   1  -8  -5  688.89   30.29   0
   1  -8  -5  618.88   27.33   0
  -1   8   5  604.07   27.65   0
   0  -8  -5  120.46    8.06   0
   0  -8  -5  119.16   10.08   0
   0  -8  -5  113.94    8.69   0
   0  -8  -5  117.27    7.73   0
   0   8   5  111.07    8.08   0
   0   8   5  131.12    9.25   0
  -1  -8  -5 1023.96   43.44   0
  -1  -8  -5 1026.91   42.85   0
  -1  -8  -5 1031.65   44.22   0
  -1  -8  -5 1022.85   43.20   0
   1   8   5 1148.48   44.03   0
   1   8   5  993.01   42.72   0
  -2  -8  -5  791.13   32.47   0
  -2  -8  -5  742.82   32.72   0
  -2  -8  -5  760.26   33.41   0
   2   8   5  745.92   32.07   0
   2   8   5  768.01   32.98   0
  -3  -8  -5  229.81   13.69   0
  -3  -8  -5  268.00   13.05   0
   3   8   5  251.57   12.77   0
   3   8   5  247.60   13.57   0
  -4  -8  -5  100.23    8.78   0
  -4  -8  -5  119.10    7.85   0
  -4  -8  -5   93.75    8.79   0
   4   8   5  105.96    8.68   0
   4   8   5  103.41    7.64   0
  -5  -8  -5  149.28   11.24   0
  -5  -8  -5  142.18   11.14   0
  -5  -8  -5  144.62    9.29   0
   5   8   5  151.15   10.30   0
   5   8   5  139.84    9.30   0
  -6  -8  -5  263.89   16.57   0
  -6  -8  -5  247.44   15.50   0
  -6  -8  -5  244.22   13.78   0
   6   8   5  289.77   14.10   0
   6   8   5  265.40   14.71   0
  -7  -8  -5  695.96   31.71   0
  -7  -8  -5  705.91   33.31   0
  -7  -8  -5  656.28   29.35   0
   7   8   5  650.33   29.77   0
   7   8   5  647.89   29.07   0
   5  -9  -5  407.81   22.92   0
   5  -9  -5  460.88   21.59   0
   5  -9  -5  403.15   26.10   0
   5  -9  -5  476.10   22.94   0
  -5   9   5  414.97   24.04   0
  -5   9   5  462.18   24.77   0
   4  -9  -5   83.78    9.85   0
   4  -9  -5   80.57    7.91   0
   4  -9  -5   95.34    9.47   0
  -4   9   5   75.66   10.79   0
   3  -9  -5  109.20   10.64   0
   3  -9  -5  124.43   13.96   0
   3  -9  -5  133.64    9.21   0
   3  -9  -5  131.44    9.83   0
  -3   9   5  127.59   11.03   0
  -3   9   5  120.63   10.76   0
   2  -9  -5  804.57   38.56   0
   2  -9  -5  785.65   36.28   0
   2  -9  -5  844.95   35.53   0
   2  -9  -5  836.10   35.91   0
  -2   9   5  869.11   36.56   0
  -2   9   5  819.75   36.12   0
   1  -9  -5  342.70   17.06   0
   1  -9  -5  317.37   17.86   0
   1  -9  -5  335.14   16.62   0
   1  -9  -5  339.11   19.76   0
  -1   9   5  303.34   16.95   0
  -1   9   5  384.07   18.02   0
   0  -9  -5  873.07   39.46   0
   0  -9  -5  900.27   37.66   0
   0  -9  -5  851.32   37.10   0
   0  -9  -5  846.77   38.07   0
   0   9   5  956.26   38.28   0
   0   9   5  843.82   37.15   0
  -1  -9  -5  309.51   16.99   0
  -1  -9  -5  317.67   17.90   0
  -1  -9  -5  302.71   15.87   0
  -1  -9  -5  323.58   16.52   0
   1   9   5  304.95   15.92   0
   1   9   5  380.45   17.51   0
  -2  -9  -5  137.48    9.52   0
  -2  -9  -5  122.89   10.73   0
  -2  -9  -5  117.86    8.45   0
   2   9   5  125.35    9.64   0
   2   9   5  122.76    8.71   0
  -3  -9  -5 1574.72   62.39   0
  -3  -9  -5 1461.64   61.25   0
   3   9   5 1509.18   60.81   0
   3   9   5 1506.34   61.64   0
  -4  -9  -5   72.96    8.32   0
  -4  -9  -5   68.76    6.92   0
  -4  -9  -5   54.32    8.31   0
   4   9   5   66.00    7.97   0
   4   9   5   69.79    6.90   0
  -5  -9  -5  192.01   13.10   0
  -5  -9  -5  152.38   12.38   0
  -5  -9  -5  187.10   11.02   0
   5   9   5  162.35   10.48   0
   5   9   5  165.50   11.12   0
  -6  -9  -5   17.86    6.19   0
  -6  -9  -5   17.60    4.50   0
   6   9   5   10.71    4.35   0
   6   9   5   23.01    4.31   0
  -7  -9  -5   42.93    8.87   0
  -7  -9  -5   53.15    8.70   0
  -7  -9  -5   51.06    8.71   0
   7   9   5   66.07    7.84   0
   7   9   5   48.70    8.09   0
   5 -10  -5  256.69   18.00   0
   5 -10  -5  217.96   23.83   0
   5 -10  -5  245.05   15.37   0
   5 -10  -5  230.10   21.92   0
  -5  10   5  277.08   19.16   0
   4 -10  -5  329.99   23.94   0
   4 -10  -5  351.63   18.83   0
   4 -10  -5  373.16   19.97   0
   4 -10  -5  391.98   21.12   0
  -4  10   5  369.32   21.24   0
  -4  10   5  341.70   20.72   0
   3 -10  -5  137.95   15.80   0
   3 -10  -5  148.69   10.50   0
   3 -10  -5  141.34   12.70   0
   3 -10  -5  142.04   11.23   0
  -3  10   5  134.30   12.41   0
   2 -10  -5   17.47    4.81   0
   2 -10  -5   16.79    6.06   0
   2 -10  -5   17.35    7.07   0
   2 -10  -5   18.16    4.89   0
  -2  10   5   12.02    4.56   0
   1 -10  -5 2620.74  103.34   0
   1 -10  -5 2755.57  106.29   0
   1 -10  -5 2516.96  102.81   0
   1 -10  -5 2485.43  103.99   0
  -1  10   5 2596.77  103.17   0
   0 -10  -5   -7.51    4.12   0
   0 -10  -5   -1.14    3.34   0
   0 -10  -5   -2.25    5.17   0
   0  10   5    3.23    3.47   0
   0  10   5   -3.66    4.10   0
  -1 -10  -5 1201.81   51.52   0
  -1 -10  -5 1269.64   52.65   0
  -1 -10  -5 1156.65   50.18   0
  -1 -10  -5 1252.82   51.00   0
   1  10   5 1181.59   49.97   0
  -2 -10  -5    9.37    4.98   0
  -2 -10  -5   12.60    4.12   0
  -2 -10  -5    4.41    2.98   0
  -2 -10  -5    8.33    5.20   0
   2  10   5   12.54    4.67   0
   2  10   5    9.47    3.87   0
  -3 -10  -5   60.13    7.09   0
  -3 -10  -5   59.92    9.71   0
  -3 -10  -5   68.06    8.60   0
   3  10   5   59.25    7.08   0
   3  10   5   51.74    8.17   0
  -4 -10  -5  330.41   17.52   0
  -4 -10  -5  357.70   19.11   0
   4  10   5  337.30   16.71   0
   4  10   5  335.57   17.67   0
  -5 -10  -5  360.10   19.29   0
  -5 -10  -5  314.64   17.23   0
  -5 -10  -5  325.81   19.31   0
   5  10   5  312.89   16.06   0
   5  10   5  320.48   16.83   0
  -6 -10  -5    0.87    4.13   0
  -6 -10  -5   -7.25    5.43   0
  -6 -10  -5   -7.47    6.07   0
   6  10   5    2.20    3.77   0
   6  10   5    2.56    4.15   0
   4 -11  -5   16.64    5.50   0
   4 -11  -5   14.91   10.32   0
  -4  11   5   33.40    7.68   0
  -4  11   5   19.92    7.74   0
   3 -11  -5  528.63   28.31   0
   3 -11  -5  533.15   26.10   0
   3 -11  -5  568.52   31.29   0
   3 -11  -5  552.16   27.14   0
  -3  11   5  526.44   27.49   0
   2 -11  -5   10.98    6.64   0
   2 -11  -5   12.78    7.03   0
   2 -11  -5    8.54    4.93   0
  -2  11   5    2.29    5.56   0
   1 -11  -5  105.32   12.15   0
   1 -11  -5  105.65   10.46   0
   1 -11  -5   88.67    9.11   0
  -1  11   5  106.41   10.53   0
  -1  11   5  135.56   12.03   0
   0 -11  -5 1033.22   44.72   0
   0 -11  -5  957.14   43.15   0
   0 -11  -5  943.54   42.61   0
   0 -11  -5 1123.84   46.78   0
   0  11   5  941.32   42.47   0
  -1 -11  -5  413.51   22.87   0
  -1 -11  -5  441.62   24.45   0
  -1 -11  -5  423.67   20.92   0
  -1 -11  -5  417.89   21.49   0
   1  11   5  394.47   20.44   0
  -2 -11  -5  153.91   11.39   0
  -2 -11  -5  161.35   12.36   0
  -2 -11  -5  192.25   14.20   0
  -2 -11  -5  194.07   15.32   0
   2  11   5  156.87   11.39   0
   2  11   5  172.95   12.70   0
  -3 -11  -5  105.79   10.09   0
  -3 -11  -5  118.82   11.84   0
  -3 -11  -5  102.12   12.83   0
  -3 -11  -5  120.32   13.33   0
   3  11   5  122.54   10.64   0
   3  11   5  115.47    9.41   0
  -4 -11  -5   72.05   10.80   0
  -4 -11  -5   89.16    9.38   0
   4  11   5   88.63    8.35   0
   4  11   5   83.52    9.71   0
  -5 -11  -5  143.59   12.14   0
  -5 -11  -5  151.69   14.64   0
   5  11   5  142.22   10.57   0
   5  11   5  146.64    9.85   0
   2 -12  -5  130.95   15.07   0
   2 -12  -5  187.02   17.09   0
   2 -12  -5  163.78   20.27   0
   2 -12  -5  134.64   12.53   0
  -2  12   5  154.74   14.57   0
   1 -12  -5   46.49   10.21   0
   1 -12  -5   59.34    7.98   0
   1 -12  -5   42.35    7.16   0
   1 -12  -5   80.54   13.23   0
  -1  12   5   58.38    8.83   0
   0 -12  -5   22.70    5.68   0
   0 -12  -5   31.17    9.07   0
   0 -12  -5   28.36    5.96   0
   0 -12  -5   40.24    8.37   0
   0  12   5   20.01    5.47   0
   0  12   5   21.65    7.08   0
  -1 -12  -5  209.52   18.89   0
  -1 -12  -5  188.38   14.32   0
  -1 -12  -5  180.81   13.19   0
  -1 -12  -5  179.70   16.63   0
   1  12   5  173.22   13.03   0
   1  12   5  225.81   15.06   0
  -2 -12  -5  557.52   28.44   0
  -2 -12  -5  577.10   30.66   0
  -2 -12  -5  572.77   30.15   0
  -2 -12  -5  552.02   27.66   0
   2  12   5  545.11   26.26   0
   2  12   5  658.20   28.23   0
  -3 -12  -5   23.48    7.05   0
  -3 -12  -5   18.81    5.35   0
  -3 -12  -5   23.34    7.96   0
  -3 -12  -5   19.54    6.24   0
   3  12   5   23.03    5.95   0
   3  12   5   24.11    4.94   0
  -4 -12  -5   59.39   11.35   0
  -4 -12  -5   51.84    8.03   0
  -4 -12  -5   55.66    9.26   0
  -4 -12  -5   46.94    9.01   0
   4  12   5   57.25    9.17   0
   4  12   5   60.85    7.92   0
  -1 -13  -5  -16.78    9.84   0
  -1 -13  -5   10.16    9.19   0
   1  13   5    8.97    7.07   0
   1  13   5    0.98    5.56   0
  -2  -8   6    9.55    6.09   0
  -2  -8   6   -6.07    4.60   0
  -2  -8   6    8.12    7.31   0
  -2  -8   6    3.45    3.63   0
  -1  -8   6   96.38   11.74   0
  -1  -8   6   71.24    8.04   0
  -1  -8   6   83.62    9.38   0
  -1  -8   6   73.44   13.20   0
   0  -8   6  726.58   30.72   0
   0  -8   6  691.67   31.40   0
   0  -8   6  687.65   33.43   0
   0  -8   6  721.23   34.69   0
   1  -8   6  241.81   14.89   0
   1  -8   6  233.67   13.98   0
   1  -8   6  238.14   17.74   0
   1  -8   6  217.47   15.99   0
   2  -8   6  469.67   25.78   0
   2  -8   6  495.72   23.92   0
   2  -8   6  492.91   24.91   0
   2  -8   6  527.50   27.38   0
   3  -8   6   62.98   10.11   0
   3  -8   6   62.26   10.57   0
   3  -8   6   50.03    8.08   0
  -3  -7   6  259.13   15.93   0
  -3  -7   6  252.03   11.91   0
  -3  -7   6  239.44   12.46   0
  -2  -7   6  364.22   18.09   0
  -2  -7   6  453.13   17.78   0
  -2  -7   6  438.92   22.79   0
  -2  -7   6  350.37   20.66   0
  -1  -7   6  389.37   17.73   0
  -1  -7   6  411.76   21.94   0
  -1  -7   6  404.17   20.91   0
  -1  -7   6  385.52   18.32   0
   0  -7   6   92.26   11.47   0
   0  -7   6   87.23    8.25   0
   0  -7   6  108.73    7.60   0
   1  -7   6  148.75   11.78   0
   1  -7   6  138.14   10.36   0
   1  -7   6  137.07    9.40   0
  -2   7  -6  895.15   40.88   0
   2  -7   6  912.83   39.11   0
   2  -7   6  895.02   40.01   0
   2  -7   6  917.78   40.77   0
   2  -7   6  873.63   38.25   0
  -3   7  -6   36.78    8.06   0
   3  -7   6   24.49    5.47   0
   3  -7   6   36.05    6.48   0
   3  -7   6   30.62    5.46   0
   3  -7   6   42.61    8.12   0
  -4   7  -6  174.00    9.79   0
  -4   7  -6  106.28   15.21   0
  -4   7  -6  125.02    8.55   0
   4  -7   6  155.12   12.12   0
   4  -7   6  156.30   13.10   0
   4  -7   6  138.28   14.69   0
   4  -7   6  174.80   13.25   0
  -5   7  -6   61.16    7.92   0
  -5   7  -6   57.48   10.26   0
   5  -7   6   84.82   12.66   0
   5  -7   6   88.90   11.48   0
   5  -7   6   65.43   10.03   0
   5  -7   6   68.57   11.01   0
  -4  -6   6    8.65    6.48   0
  -4  -6   6   12.87    4.75   0
  -3  -6   6   12.46    4.18   0
  -3  -6   6    4.14    5.49   0
  -3  -6   6    6.57    2.08   0
  -2  -6   6  666.01   31.42   0
  -2  -6   6  692.66   27.84   0
  -2  -6   6  663.69   27.40   0
  -2  -6   6  711.70   30.77   0
  -1  -6   6   25.79    5.05   0
  -1  -6   6   30.24    4.89   0
  -1  -6   6   35.17    6.46   0
  -1  -6   6   34.28    4.09   0
   0  -6   6 1306.30   51.17   0
   0  -6   6 1211.26   51.35   0
   0  -6   6 1333.41   53.59   0
   0  -6   6 1278.45   53.88   0
   1  -6   6   11.80    5.08   0
   1  -6   6   15.18    3.51   0
   1  -6   6   11.08    2.97   0
   1  -6   6    7.61    3.53   0
  -2   6  -6   73.40    9.45   0
   2  -6   6   80.01    7.87   0
   2  -6   6   77.36    8.51   0
   2  -6   6   81.42    7.04   0
   2  -6   6   76.58    9.41   0
  -3   6  -6 1448.73   61.93   0
  -3   6  -6 1385.25   56.96   0
   3  -6   6 1498.16   61.74   0
   3  -6   6 1598.23   61.43   0
   3  -6   6 1418.65   60.34   0
   3  -6   6 1446.26   59.84   0
  -4   6  -6  180.21   11.52   0
  -4   6  -6  202.07   15.45   0
  -4   6  -6  185.93   10.70   0
   4  -6   6  199.00   13.59   0
   4  -6   6  203.12   14.86   0
   4  -6   6  198.15   12.77   0
   4  -6   6  200.30   13.65   0
  -5   6  -6  321.68   21.58   0
  -5   6  -6  354.26   18.89   0
   5  -6   6  361.81   21.26   0
   5  -6   6  353.96   19.22   0
   5  -6   6  349.83   19.56   0
   5  -6   6  344.88   20.14   0
  -6   6  -6   50.67    8.00   0
  -6   6  -6   41.51    6.48   0
   6  -6   6   44.03    7.25   0
   6  -6   6   41.70    8.26   0
   6  -6   6   53.79    9.01   0
  -5  -5   6   35.01    5.47   0
  -5  -5   6   32.71    7.02   0
  -5  -5   6   34.41    5.09   0
  -5  -5   6   30.11    4.35   0
  -4  -5   6 1063.85   45.02   0
  -4  -5   6 1138.56   46.95   0
  -3  -5   6   12.65    3.77   0
  -3  -5   6   20.57    5.00   0
  -2  -5   6  153.57   11.21   0
  -2  -5   6  156.22    7.42   0
  -2  -5   6  151.63   10.14   0
  -1  -5   6 2026.67   78.48   0
  -1  -5   6 2003.63   81.27   0
  -1  -5   6 2016.02   81.03   0
  -1  -5   6 2068.73   78.71   0
   0  -5   6  819.36   35.00   0
   0  -5   6  788.89   32.75   0
   0  -5   6  797.87   32.51   0
  -1   5  -6 1561.86   62.42   0
   1  -5   6 1482.72   61.86   0
   1  -5   6 1565.08   61.81   0
   1  -5   6 1532.40   60.05   0
   1  -5   6 1419.72   60.11   0
  -2   5  -6  380.08   19.63   0
   2  -5   6  381.03   18.89   0
   2  -5   6  369.88   18.00   0
   2  -5   6  379.58   17.61   0
   2  -5   6  381.55   19.35   0
  -3   5  -6  125.13   11.00   0
  -3   5  -6  130.06    7.79   0
  -3   5  -6  130.20    7.26   0
   3  -5   6  141.13    9.19   0
   3  -5   6  139.48    9.68   0
   3  -5   6  137.30    9.88   0
   3  -5   6  138.99   10.68   0
  -4   5  -6  475.12   21.82   0
  -4   5  -6  491.35   22.68   0
  -4   5  -6  515.10   25.37   0
   4  -5   6  503.76   23.40   0
   4  -5   6  498.97   23.84   0
   4  -5   6  468.11   23.70   0
   4  -5   6  506.62   24.73   0
  -5   5  -6  704.60   30.99   0
  -5   5  -6  695.81   31.94   0
  -5   5  -6  702.43   33.97   0
   5  -5   6  621.99   31.65   0
   5  -5   6  800.82   32.81   0
   5  -5   6  695.94   33.40   0
   5  -5   6  734.84   33.09   0
  -6   5  -6   66.42    9.78   0
  -6   5  -6   61.11    8.21   0
  -6   5  -6   78.77    8.95   0
   6  -5   6   60.90    9.35   0
   6  -5   6   74.90    9.75   0
   6  -5   6   90.37   11.89   0
   6  -5   6   80.57   11.12   0
  -6  -4   6    1.39    5.94   0
  -6  -4   6    5.89    3.87   0
  -6  -4   6    3.58    4.21   0
  -5  -4   6  706.75   30.71   0
  -5  -4   6  679.06   27.80   0
  -5  -4   6  646.47   27.89   0
  -5  -4   6  691.81   27.99   0
  -4  -4   6  102.97    5.40   0
  -4  -4   6  100.53    5.36   0
  -4  -4   6   91.54    7.15   0
  -4  -4   6  101.45    9.15   0
  -3  -4   6 1917.03   76.56   0
  -3  -4   6 1917.58   75.88   0
  -2  -4   6  268.49   14.01   0
  -2  -4   6  258.12   13.39   0
  -1  -4   6  745.65   29.88   0
  -1  -4   6  760.83   32.48   0
  -1  -4   6  764.52   30.02   0
  -1  -4   6  766.72   32.35   0
   0  -4   6 1327.28   54.58   0
   0  -4   6 1356.86   52.79   0
   0  -4   6 1338.16   52.65   0
   0  -4   6 1348.07   54.59   0
  -1   4  -6 2158.55   81.99   0
   1  -4   6 2110.75   81.44   0
   1  -4   6 2101.43   80.08   0
   1  -4   6 1828.71   79.64   0
   1  -4   6 2022.90   81.33   0
  -2   4  -6  531.76   25.52   0
   2  -4   6  549.86   24.13   0
   2  -4   6  567.08   25.32   0
   2  -4   6  555.54   23.95   0
   2  -4   6  564.30   25.01   0
  -3   4  -6  618.63   28.56   0
  -3   4  -6  606.97   26.19   0
  -3   4  -6  637.01   25.84   0
   3  -4   6  632.53   27.17   0
   3  -4   6  615.01   28.00   0
   3  -4   6  627.49   27.71   0
   3  -4   6  606.62   27.28   0
  -4   4  -6  177.12   12.62   0
  -4   4  -6  206.18   10.42   0
  -4   4  -6  183.49   11.11   0
   4  -4   6  154.12   11.19   0
   4  -4   6  198.97   11.64   0
   4  -4   6  189.95   12.19   0
   4  -4   6  190.07   11.29   0
  -5   4  -6   12.11    4.35   0
  -5   4  -6   21.53    6.26   0
  -5   4  -6   22.31    4.43   0
   5  -4   6   19.57    5.57   0
   5  -4   6   14.63    4.49   0
   5  -4   6   25.24    4.79   0
   5  -4   6   17.60    4.19   0
  -6   4  -6 1206.95   51.51   0
  -6   4  -6 1273.22   53.85   0
  -6   4  -6 1223.52   52.75   0
   6  -4   6 1215.23   53.26   0
   6  -4   6 1236.80   51.74   0
   6  -4   6 1206.37   52.38   0
   6  -4   6 1255.47   53.08   0
  -7   4  -6   71.53    9.98   0
  -7   4  -6   82.85   13.33   0
  -7   4  -6   83.69   13.04   0
   7  -4   6   81.70    9.59   0
   7  -4   6   84.52   12.68   0
   7  -4   6   77.66   10.92   0
   7  -4   6   80.88   11.72   0
  -6  -3   6   69.77    7.50   0
  -6  -3   6   63.27    9.33   0
  -6  -3   6   73.75    7.94   0
  -5  -3   6   -0.15    2.33   0
  -5  -3   6    2.16    2.36   0
  -5  -3   6    0.68    3.77   0
  -5  -3   6    2.33    1.92   0
  -4  -3   6  457.97   21.08   0
  -4  -3   6  480.03   18.83   0
  -4  -3   6  452.79   19.82   0
  -4  -3   6  452.15   18.81   0
  -3  -3   6  568.80   24.45   0
  -3  -3   6  580.17   25.05   0
  -2  -3   6  589.09   24.63   0
  -2  -3   6  543.04   24.30   0
  -1  -3   6 1472.88   59.56   0
  -1  -3   6 1518.39   59.75   0
  -1  -3   6 1497.16   57.46   0
  -1  -3   6 1488.63   57.45   0
   0  -3   6  474.38   19.44   0
   0  -3   6  468.85   21.03   0
   0  -3   6  481.83   19.52   0
   0  -3   6  472.32   21.13   0
  -1   3  -6   23.39    4.00   0
   1  -3   6   28.57    3.22   0
   1  -3   6   28.47    3.33   0
   1  -3   6   27.10    4.20   0
   1  -3   6   26.75    4.31   0
  -2   3  -6 4024.28  155.99   0
  -2   3  -6 4282.98  158.99   0
  -2   3  -6 3987.41  156.11   0
   2  -3   6 4104.44  157.51   0
   2  -3   6 3956.07  157.48   0
   2  -3   6 4083.55  158.29   0
   2  -3   6 4125.42  158.32   0
  -3   3  -6    5.77    2.54   0
  -3   3  -6    0.85    1.75   0
  -3   3  -6    1.96    3.24   0
   3  -3   6    0.16    2.28   0
   3  -3   6   -0.03    1.87   0
   3  -3   6    1.17    2.06   0
   3  -3   6    1.11    2.16   0
  -4   3  -6 1873.54   75.25   0
  -4   3  -6 1955.79   76.14   0
  -4   3  -6 1950.15   77.21   0
   4  -3   6 1903.38   76.12   0
   4  -3   6 1848.92   76.07   0
   4  -3   6 1850.51   76.23   0
   4  -3   6 1938.42   76.79   0
  -5   3  -6  355.82   18.81   0
  -5   3  -6  307.64   17.60   0
  -5   3  -6  356.82   17.15   0
   5  -3   6  367.11   17.52   0
   5  -3   6  348.36   18.11   0
   5  -3   6  351.69   17.83   0
   5  -3   6  346.75   18.35   0
  -6   3  -6  263.71   14.84   0
  -6   3  -6  255.35   16.53   0
  -6   3  -6  263.46   16.19   0
   6  -3   6  283.75   16.45   0
   6  -3   6  254.63   15.91   0
   6  -3   6  273.26   14.63   0
   6  -3   6  248.11   15.30   0
  -7   3  -6 1082.71   47.75   0
  -7   3  -6 1040.46   47.27   0
  -7   3  -6 1054.06   46.00   0
   7  -3   6 1054.57   47.06   0
   7  -3   6 1066.58   47.33   0
   7  -3   6 1085.73   46.82   0
   7  -3   6 1068.57   45.21   0
  -8   3  -6  238.13   17.55   0
  -8   3  -6  248.84   20.11   0
   8  -3   6  299.57   19.21   0
  -7  -2   6   72.66    9.87   0
  -7  -2   6   96.18   11.29   0
  -7  -2   6   85.60   10.51   0
  -6  -2   6   90.01    8.57   0
  -6  -2   6   97.49    8.26   0
  -5  -2   6  566.24   24.31   0
  -5  -2   6  584.41   24.30   0
  -4  -2   6    9.82    1.99   0
  -4  -2   6    6.93    2.10   0
  -4  -2   6    2.54    2.65   0
  -4  -2   6    7.53    1.98   0
  -3  -2   6   10.11    1.86   0
  -3  -2   6   10.74    2.46   0
  -3  -2   6   13.40    2.91   0
  -2  -2   6 1529.10   61.26   0
  -2  -2   6 1573.13   61.21   0
  -1  -2   6   73.44    5.23   0
  -1  -2   6   69.70    5.48   0
  -1  -2   6   69.37    3.47   0
   0   2  -6 1240.36   49.45   0
   0  -2   6 1218.09   47.85   0
   0  -2   6 1184.06   49.25   0
   0  -2   6 1269.00   47.88   0
   0  -2   6 1226.14   48.96   0
  -1   2  -6   56.74    5.28   0
   1  -2   6   62.75    4.26   0
   1  -2   6   57.76    4.97   0
   1  -2   6   69.40    4.44   0
   1  -2   6   57.91    4.88   0
  -2   2  -6  107.14    6.03   0
  -2   2  -6  108.75    7.49   0
  -2   2  -6  114.51    5.90   0
   2  -2   6  125.21    6.95   0
   2  -2   6  108.32    7.12   0
   2  -2   6  107.67    7.00   0
   2  -2   6  109.25    6.70   0
  -3   2  -6 3643.16  139.11   0
  -3   2  -6 3564.83  137.51   0
  -3   2  -6 3548.73  137.93   0
   3  -2   6 3486.72  138.36   0
   3  -2   6 3552.99  138.30   0
   3  -2   6 3568.96  138.31   0
   3  -2   6 3564.70  138.60   0
  -4   2  -6  433.07   19.39   0
  -4   2  -6  455.07   20.92   0
  -4   2  -6  424.60   20.01   0
   4  -2   6  425.61   20.12   0
   4  -2   6  426.05   19.81   0
   4  -2   6  416.33   19.99   0
   4  -2   6  431.37   20.39   0
  -5   2  -6 1775.67   72.51   0
  -5   2  -6 1843.22   73.51   0
  -5   2  -6 1883.53   74.01   0
   5  -2   6 1665.83   73.03   0
   5  -2   6 1862.09   73.72   0
   5  -2   6 1829.60   72.58   0
   5  -2   6 1835.92   73.33   0
  -6   2  -6  212.72   13.73   0
  -6   2  -6  216.87   12.80   0
  -6   2  -6  209.06   13.76   0
   6  -2   6  225.37   13.31   0
   6  -2   6  202.48   11.94   0
   6  -2   6  212.27   13.37   0
   6  -2   6  208.91   13.52   0
  -7   2  -6 1070.12   49.55   0
  -7   2  -6 1205.49   48.95   0
  -7   2  -6 1148.48   49.84   0
   7  -2   6 1163.24   49.47   0
   7  -2   6 1127.83   49.20   0
   7  -2   6 1112.33   47.34   0
  -8   2  -6  368.83   23.06   0
  -8   2  -6  387.25   23.61   0
  -8   2  -6  392.00   21.81   0
   8  -2   6  396.92   22.53   0
   8  -2   6  383.08   19.50   0
   8  -2   6  393.23   22.06   0
  -7  -1   6  135.27   10.43   0
  -7  -1   6  131.20   12.25   0
  -7  -1   6  128.22   11.53   0
  -6  -1   6  319.95   15.51   0
  -6  -1   6  313.32   16.17   0
  -6  -1   6  323.03   16.02   0
  -5  -1   6  324.75   15.47   0
  -5  -1   6  337.68   15.62   0
  -4  -1   6 1090.85   43.06   0
  -4  -1   6 1061.75   42.33   0
  -4  -1   6 1090.53   42.79   0
  -4  -1   6 1063.37   42.73   0
  -3  -1   6  442.77   18.53   0
  -3  -1   6  442.86   17.84   0
  -3  -1   6  432.21   17.79   0
  -3  -1   6  426.19   18.44   0
  -2  -1   6  187.80    8.71   0
  -2  -1   6  178.92    8.94   0
  -2  -1   6  168.07    7.57   0
  -2  -1   6  181.33    7.67   0
  -1  -1   6 1746.18   65.13   0
  -1  -1   6 1620.37   64.16   0
  -1  -1   6 1645.36   65.65   0
   0   1  -6  315.98   14.70   0
   0  -1   6  332.28   13.80   0
   0  -1   6  333.77   14.98   0
   0  -1   6  333.25   13.81   0
   0  -1   6  337.07   14.44   0
  -1   1  -6  751.02   30.98   0
   1  -1   6  760.58   30.22   0
   1  -1   6  738.43   30.10   0
   1  -1   6  750.80   30.49   0
   1  -1   6  734.91   30.89   0
  -2   1  -6   89.51    6.19   0
  -2   1  -6   88.68    5.37   0
  -2   1  -6   84.26    5.10   0
   2  -1   6   83.40    5.56   0
   2  -1   6   93.39    5.81   0
   2  -1   6   92.22    5.93   0
   2  -1   6   96.09    5.91   0
  -3   1  -6  693.08   29.46   0
  -3   1  -6  690.88   28.45   0
  -3   1  -6  691.25   28.85   0
   3  -1   6  648.12   28.83   0
   3  -1   6  716.35   29.22   0
   3  -1   6  689.87   29.11   0
   3  -1   6  672.78   28.89   0
  -4   1  -6 1243.04   51.71   0
  -4   1  -6 1327.91   52.87   0
  -4   1  -6 1311.80   52.48   0
   4  -1   6 1274.81   52.50   0
   4  -1   6 1284.02   52.38   0
   4  -1   6 1272.82   51.83   0
   4  -1   6 1282.15   52.41   0
  -5   1  -6 1425.97   58.12   0
  -5   1  -6 1426.98   58.94   0
  -5   1  -6 1454.48   59.17   0
   5  -1   6 1407.76   57.78   0
   5  -1   6 1449.60   58.84   0
   5  -1   6 1443.42   58.94   0
   5  -1   6 1442.58   58.82   0
  -6   1  -6  113.26   10.22   0
  -6   1  -6  132.58   10.01   0
  -6   1  -6  106.15    8.98   0
   6  -1   6  123.45    9.67   0
   6  -1   6  119.41    9.28   0
   6  -1   6  115.92    8.14   0
  -7   1  -6   11.13    4.06   0
  -7   1  -6    9.41    4.95   0
  -7   1  -6   23.16    5.93   0
   7  -1   6   11.54    3.98   0
   7  -1   6    9.16    3.36   0
  -8   1  -6  837.98   38.54   0
  -8   1  -6  761.54   37.32   0
  -8   1  -6  815.72   36.53   0
   8  -1   6  784.81   36.92   0
   8  -1   6  775.69   36.88   0
   8  -1   6  784.15   34.23   0
  -7   0   6   92.88   11.25   0
  -7   0   6   93.62   10.45   0
  -7   0   6  112.47    8.82   0
  -6   0   6   96.35    8.96   0
  -6   0   6  100.10    8.88   0
  -6   0   6  112.00    7.45   0
  -5   0   6  305.58   14.67   0
  -5   0   6  290.11   14.55   0
  -5   0   6  301.00   13.68   0
  -4   0   6 1480.99   56.26   0
  -4   0   6 1429.54   57.18   0
  -4   0   6 1432.83   57.16   0
  -3   0   6  626.87   26.62   0
  -3   0   6  676.33   26.32   0
  -3   0   6  664.86   26.65   0
  -3   0   6  666.20   26.70   0
   2   0  -6 1162.54   46.88   0
  -2   0   6 1167.50   46.69   0
  -2   0   6 1135.70   45.93   0
  -2   0   6 1212.21   46.11   0
  -2   0   6 1224.97   45.91   0
   1   0  -6  493.68   21.14   0
  -1   0   6  489.65   20.95   0
  -1   0   6  496.11   20.05   0
  -1   0   6  509.30   20.04   0
  -1   0   6  502.04   20.11   0
   0   0  -6   29.78    2.85   0
   0   0   6   25.22    3.07   0
   0   0   6   30.45    2.59   0
   0   0   6   35.05    2.69   0
   0   0   6   33.56    2.68   0
  -1   0  -6 2751.27  116.86   0
  -1   0  -6 3204.45  116.97   0
  -1   0  -6 3135.52  117.94   0
  -1   0  -6 3022.65  118.42   0
   1   0   6 3129.56  117.67   0
   1   0   6 3051.22  117.57   0
   1   0   6 3002.59  118.10   0
   1   0   6 3119.14  117.61   0
  -2   0  -6  112.56    6.19   0
  -2   0  -6  106.63    6.67   0
  -2   0  -6  111.03    6.04   0
  -2   0  -6  103.14    6.52   0
   2   0   6  106.89    6.31   0
   2   0   6  108.94    6.34   0
   2   0   6  106.00    6.38   0
   2   0   6  106.44    6.43   0
  -3   0  -6  152.90    8.89   0
  -3   0  -6  186.74    9.14   0
  -3   0  -6  165.85    9.08   0
  -3   0  -6  166.39    8.55   0
   3   0   6  150.16    8.52   0
   3   0   6  160.84    8.86   0
   3   0   6  153.19    8.83   0
   3   0   6  151.29    8.71   0
  -4   0  -6  795.25   34.69   0
  -4   0  -6  807.51   34.17   0
  -4   0  -6  820.46   34.74   0
   4   0   6  808.69   33.97   0
   4   0   6  843.25   34.74   0
   4   0   6  884.52   35.06   0
   4   0   6  794.21   34.51   0
  -5   0  -6    3.65    2.95   0
  -5   0  -6   -2.35    2.27   0
  -5   0  -6   -0.40    1.94   0
   5   0   6   -2.72    2.22   0
   5   0   6    2.61    2.79   0
   5   0   6    4.28    2.14   0
  -6   0  -6 1542.19   62.97   0
  -6   0  -6 1558.26   62.25   0
  -6   0  -6 1534.23   63.19   0
   6   0   6 1486.00   62.58   0
   6   0   6 1556.31   62.90   0
   6   0   6 1473.75   61.11   0
  -7   0  -6  173.42   13.32   0
  -7   0  -6  179.48   12.15   0
  -7   0  -6  174.42   12.72   0
   7   0   6  193.80   12.82   0
   7   0   6  160.50   12.15   0
   7   0   6  173.95   10.42   0
  -8   0  -6   23.15    5.93   0
  -8   0  -6   34.65    7.18   0
  -8   0  -6   14.48    6.40   0
   8   0   6   30.39    6.14   0
   8   0   6   12.49    5.45   0
   8   0   6   20.29    4.17   0
  -7   1   6  365.67   19.73   0
  -7   1   6  349.24   16.90   0
  -7   1   6  360.68   20.24   0
  -6   1   6  434.78   21.56   0
  -6   1   6  408.72   21.44   0
  -6   1   6  497.18   19.59   0
  -5   1   6  261.05   11.83   0
  -5   1   6  259.02   13.64   0
  -5   1   6  267.76   13.63   0
  -4   1   6   18.23    2.44   0
  -4   1   6   17.39    3.02   0
  -4   1   6   17.55    3.04   0
   3  -1  -6 3806.78  146.78   0
  -3   1   6 3709.55  146.52   0
  -3   1   6 3973.07  147.15   0
  -3   1   6 3747.50  146.98   0
  -3   1   6 3791.66  145.67   0
  -3   1   6 3898.31  145.68   0
   2  -1  -6  198.46    9.54   0
  -2   1   6  191.57    9.31   0
  -2   1   6  200.05    9.31   0
  -2   1   6  202.27    9.17   0
   1  -1  -6 1954.87   75.26   0
  -1   1   6 1845.00   74.43   0
  -1   1   6 1997.32   74.67   0
  -1   1   6 1921.55   74.99   0
  -1   1   6 1910.32   73.57   0
   0  -1  -6   50.98    4.00   0
   0  -1  -6   54.81    3.29   0
   0  -1  -6   47.63    2.78   0
   0  -1  -6   62.20    3.10   0
   0   1   6   56.74    3.67   0
   0   1   6   49.50    3.82   0
   0   1   6   48.72    3.49   0
   0   1   6   49.62    3.01   0
  -1  -1  -6 1097.14   43.21   0
  -1  -1  -6 1101.23   43.04   0
  -1  -1  -6  986.37   43.72   0
   1   1   6 1191.57   43.17   0
   1   1   6 1058.68   43.63   0
   1   1   6 1104.18   43.46   0
   1   1   6 1113.09   43.41   0
  -2  -1  -6 5367.49  208.31   0
  -2  -1  -6 5562.52  207.94   0
  -2  -1  -6 5579.39  207.99   0
  -2  -1  -6 5443.06  207.77   0
   2   1   6 5380.01  207.99   0
   2   1   6 5404.15  208.04   0
   2   1   6 5252.15  208.03   0
   2   1   6 5377.45  207.75   0
  -3  -1  -6 2040.41   80.08   0
  -3  -1  -6 2014.39   80.01   0
  -3  -1  -6 2046.89   79.72   0
   3   1   6 2154.73   80.39   0
   3   1   6 1947.11   79.91   0
   3   1   6 2006.24   79.70   0
  -4  -1  -6  819.54   34.82   0
  -4  -1  -6  814.19   34.38   0
  -4  -1  -6  823.88   34.95   0
  -4  -1  -6  828.68   34.50   0
   4   1   6  832.74   34.97   0
   4   1   6  839.94   34.15   0
   4   1   6  836.79   34.80   0
  -5  -1  -6  212.61   11.28   0
  -5  -1  -6  207.31   12.13   0
  -5  -1  -6  226.83   12.21   0
  -5  -1  -6  198.17   11.40   0
   5   1   6  206.89   10.75   0
   5   1   6  212.30   11.82   0
   5   1   6  204.01   11.94   0
  -6  -1  -6  482.43   23.27   0
  -6  -1  -6  502.38   22.76   0
  -6  -1  -6  472.82   23.40   0
   6   1   6  483.13   21.47   0
   6   1   6  486.32   23.11   0
   6   1   6  473.87   23.10   0
  -7  -1  -6  871.82   39.49   0
  -7  -1  -6  874.87   38.82   0
  -7  -1  -6  936.75   40.37   0
   7   1   6  909.06   39.40   0
   7   1   6  908.42   39.49   0
   7   1   6  859.44   37.12   0
  -8  -1  -6  313.02   19.18   0
  -8  -1  -6  352.31   20.57   0
   8   1   6  312.93   18.72   0
   8   1   6  332.33   18.95   0
   8   1   6  312.94   16.00   0
  -9  -1  -6    1.05    5.49   0
   9   1   6   15.54    6.61   0
   9   1   6   11.44    6.70   0
   9   1   6   14.70    4.40   0
  -7   2   6  441.51   23.38   0
  -7   2   6  432.16   19.86   0
  -7   2   6  458.89   23.63   0
  -6   2   6   16.72    4.85   0
  -6   2   6   14.43    4.51   0
  -6   2   6   15.16    3.09   0
   5  -2  -6 1012.08   40.29   0
  -5   2   6 1051.00   43.18   0
  -5   2   6 1062.54   40.82   0
  -5   2   6 1015.41   43.11   0
   4  -2  -6   49.44    3.70   0
  -4   2   6   43.64    5.08   0
  -4   2   6   52.60    5.44   0
  -4   2   6   41.40    3.02   0
   3  -2  -6  260.62   10.82   0
   3  -2  -6  255.26   11.70   0
   3  -2  -6  259.84   10.69   0
  -3   2   6  253.88   12.27   0
  -3   2   6  260.87   12.43   0
  -3   2   6  260.48   11.54   0
   2  -2  -6 4694.76  178.03   0
   2  -2  -6 4627.21  178.93   0
   2  -2  -6 4573.91  177.91   0
  -2   2   6 4525.00  178.72   0
  -2   2   6 4556.53  178.90   0
  -2   2   6 5011.41  179.28   0
   1  -2  -6 1586.61   62.81   0
   1  -2  -6 1559.44   61.88   0
   1  -2  -6 1668.15   62.15   0
  -1   2   6 1531.83   62.59   0
  -1   2   6 1534.72   62.45   0
  -1   2   6 1728.86   62.85   0
   0  -2  -6 1881.16   75.21   0
   0  -2  -6 1994.69   74.97   0
   0  -2  -6 2037.71   74.32   0
   0  -2  -6 1954.11   75.64   0
   0   2   6 1864.94   75.19   0
   0   2   6 1887.91   75.41   0
   0   2   6 1927.00   75.37   0
  -1  -2  -6  264.18   12.24   0
  -1  -2  -6  250.42   12.31   0
  -1  -2  -6  257.01   12.00   0
  -1  -2  -6  288.29   11.77   0
   1   2   6  280.74   12.31   0
   1   2   6  260.72   12.24   0
   1   2   6  279.62   12.45   0
  -2  -2  -6 2395.33   93.53   0
  -2  -2  -6 2585.05   93.86   0
  -2  -2  -6 2477.51   93.43   0
  -2  -2  -6 2112.42   93.47   0
   2   2   6 2467.47   93.89   0
   2   2   6 2439.07   93.71   0
   2   2   6 2360.74   93.47   0
  -3  -2  -6 4108.27  159.99   0
  -3  -2  -6 3591.64  159.74   0
  -3  -2  -6 4219.89  160.40   0
  -3  -2  -6 4284.01  160.18   0
   3   2   6 4344.41  160.55   0
   3   2   6 4256.49  159.84   0
   3   2   6 4229.71  160.25   0
  -4  -2  -6 4236.42  162.64   0
  -4  -2  -6 3986.60  162.13   0
  -4  -2  -6 4379.13  163.03   0
  -4  -2  -6 4212.70  162.18   0
   4   2   6 3977.69  161.65   0
   4   2   6 4195.36  162.55   0
   4   2   6 4386.85  162.92   0
  -5  -2  -6  297.47   14.59   0
  -5  -2  -6  313.20   15.90   0
  -5  -2  -6  315.46   15.63   0
  -5  -2  -6  274.97   14.80   0
   5   2   6  320.15   15.57   0
   5   2   6  300.12   14.20   0
   5   2   6  289.24   15.49   0
  -6  -2  -6  171.34   10.77   0
  -6  -2  -6  177.17   11.62   0
  -6  -2  -6  183.71   12.04   0
  -6  -2  -6  182.32   10.15   0
   6   2   6  175.08    9.69   0
   6   2   6  176.30   11.29   0
   6   2   6  148.50   10.88   0
  -7  -2  -6  748.32   33.74   0
  -7  -2  -6  775.90   34.77   0
  -7  -2  -6  744.41   35.04   0
   7   2   6  739.09   34.28   0
   7   2   6  764.48   32.18   0
   7   2   6  805.94   34.46   0
  -8  -2  -6    5.61    5.17   0
  -8  -2  -6   -2.81    4.23   0
  -8  -2  -6   -3.23    3.67   0
   8   2   6   -1.03    4.18   0
   8   2   6    1.52    2.94   0
  -9  -2  -6  291.37   18.14   0
   9   2   6  258.74   18.31   0
   9   2   6  272.44   18.36   0
   9   2   6  260.61   14.06   0
   7  -3  -6   18.23    3.34   0
   7  -3  -6   19.84    2.94   0
  -7   3   6   29.19    4.52   0
  -7   3   6   18.93    6.46   0
   6  -3  -6  486.14   20.05   0
   6  -3  -6  459.62   20.48   0
  -6   3   6  473.42   20.11   0
  -6   3   6  467.36   23.17   0
  -6   3   6  473.44   23.56   0
   5  -3  -6  665.90   27.85   0
   5  -3  -6  649.45   26.80   0
   5  -3  -6  679.92   27.30   0
  -5   3   6  703.70   29.63   0
  -5   3   6  646.92   26.72   0
  -5   3   6  647.07   29.51   0
   4  -3  -6  525.74   22.89   0
   4  -3  -6  538.55   22.34   0
   4  -3  -6  546.72   22.40   0
  -4   3   6  531.30   24.01   0
  -4   3   6  536.79   21.43   0
  -4   3   6  561.07   24.11   0
   3  -3  -6   25.01    2.91   0
   3  -3  -6   25.61    3.03   0
   3  -3  -6   27.56    3.70   0
  -3   3   6   25.72    4.25   0
  -3   3   6   25.94    4.02   0
   2  -3  -6   41.40    3.69   0
   2  -3  -6   46.63    3.56   0
   2  -3  -6   54.77    4.34   0
  -2   3   6   49.05    4.20   0
  -2   3   6   44.46    3.73   0
   1  -3  -6 4413.20  169.94   0
   1  -3  -6 4637.14  169.69   0
   1  -3  -6 4359.35  170.13   0
  -1   3   6 4627.44  170.28   0
  -1   3   6 4243.63  169.85   0
  -1   3   6 4260.78  169.77   0
   0  -3  -6 3706.77  144.02   0
   0  -3  -6 3844.75  142.43   0
   0  -3  -6 3588.36  143.68   0
   0  -3  -6 3960.67  143.65   0
   0   3   6 3772.22  143.88   0
   0   3   6 3616.84  143.56   0
   0   3   6 3627.09  143.58   0
  -1  -3  -6 2628.54  103.03   0
  -1  -3  -6 2609.66  102.90   0
  -1  -3  -6 2700.21  102.12   0
  -1  -3  -6 2735.17  102.89   0
   1   3   6 2712.18  103.13   0
   1   3   6 2595.02  102.78   0
   1   3   6 2578.49  102.69   0
  -2  -3  -6  162.52    8.41   0
  -2  -3  -6  165.04    8.18   0
  -2  -3  -6  159.02    8.56   0
  -2  -3  -6  162.24    8.48   0
   2   3   6  153.11    8.58   0
   2   3   6  152.19    8.35   0
   2   3   6  156.51    8.18   0
  -3  -3  -6 2735.80  116.45   0
  -3  -3  -6 2938.59  116.63   0
  -3  -3  -6 3214.11  117.25   0
  -3  -3  -6 3121.79  116.64   0
   3   3   6 3032.39  116.34   0
   3   3   6 3061.03  117.13   0
   3   3   6 2911.39  116.71   0
  -4  -3  -6  117.75    7.10   0
  -4  -3  -6  108.09    7.47   0
  -4  -3  -6  102.76    7.10   0
  -4  -3  -6  126.88    8.02   0
   4   3   6  108.02    7.72   0
   4   3   6   95.48    6.50   0
   4   3   6  104.19    7.34   0
  -5  -3  -6 3352.10  134.82   0
  -5  -3  -6 3463.57  135.54   0
  -5  -3  -6 3400.40  134.38   0
  -5  -3  -6 3575.33  135.91   0
   5   3   6 3428.78  134.02   0
   5   3   6 3482.92  135.21   0
   5   3   6 3523.92  135.64   0
  -6  -3  -6   64.63    7.86   0
  -6  -3  -6   47.19    6.29   0
  -6  -3  -6   49.21    7.23   0
  -6  -3  -6   56.07    5.79   0
   6   3   6   60.82    7.21   0
   6   3   6   52.33    5.15   0
   6   3   6   70.21    7.25   0
  -7  -3  -6  151.25   12.14   0
  -7  -3  -6  173.61   13.02   0
  -7  -3  -6  170.89   10.16   0
  -7  -3  -6  172.22   11.57   0
   7   3   6  167.48    9.68   0
   7   3   6  164.29   11.80   0
   7   3   6  175.35   12.08   0
  -8  -3  -6  492.10   25.44   0
  -8  -3  -6  462.10   24.00   0
  -8  -3  -6  476.98   25.62   0
   8   3   6  461.23   24.27   0
   8   3   6  539.04   24.76   0
   8   3   6  445.53   21.25   0
  -9  -3  -6  128.68   13.45   0
   9   3   6  127.96   13.70   0
   9   3   6  120.88   13.41   0
   9   3   6  126.92    9.04   0
   7  -4  -6  431.31   18.91   0
   7  -4  -6  407.50   19.97   0
  -7   4   6  395.47   23.27   0
  -7   4   6  409.43   22.92   0
  -7   4   6  396.42   18.71   0
   6  -4  -6    0.18    2.59   0
   6  -4  -6   -0.36    3.55   0
   6  -4  -6   -0.50    1.85   0
  -6   4   6    9.07    4.76   0
  -6   4   6   -2.41    4.41   0
   5  -4  -6  244.24   11.81   0
   5  -4  -6  231.58   10.94   0
   5  -4  -6  237.28   12.98   0
  -5   4   6  233.53   13.96   0
  -5   4   6  227.02   10.69   0
  -5   4   6  228.15   13.78   0
   4  -4  -6 1065.09   46.48   0
   4  -4  -6 1108.37   45.33   0
   4  -4  -6 1207.78   45.97   0
  -4   4   6 1181.79   47.34   0
  -4   4   6 1152.29   47.25   0
  -4   4   6 1131.88   44.44   0
   3  -4  -6  108.85    6.21   0
   3  -4  -6   89.23    6.86   0
   3  -4  -6   94.67    5.80   0
  -3   4   6   89.95    6.83   0
  -3   4   6   98.42    7.16   0
   2  -4  -6  126.51    6.67   0
   2  -4  -6  106.84    7.50   0
   2  -4  -6  113.92    6.55   0
  -2   4   6  114.36    7.11   0
  -2   4   6  112.09    7.41   0
   1  -4  -6  240.88   11.17   0
   1  -4  -6  245.41   11.21   0
   1  -4  -6  222.96    9.73   0
   1  -4  -6  214.93   11.97   0
  -1   4   6  255.33   11.93   0
  -1   4   6  245.81   11.18   0
  -1   4   6  225.08   11.31   0
   0  -4  -6  369.80   16.88   0
   0   4   6  309.59   16.10   0
   0   4   6  384.19   16.21   0
   0   4   6  391.74   16.13   0
  -1  -4  -6 5274.31  184.43   0
  -1  -4  -6 4794.17  184.52   0
  -1  -4  -6 4995.54  184.18   0
   1   4   6 4903.14  184.01   0
   1   4   6 4683.76  184.03   0
   1   4   6 4077.76  184.07   0
  -2  -4  -6   68.93    5.27   0
  -2  -4  -6   63.45    4.80   0
  -2  -4  -6   80.80    5.52   0
   2   4   6   71.27    5.11   0
   2   4   6   65.90    5.39   0
   2   4   6   65.95    4.72   0
  -3  -4  -6  362.57   17.11   0
  -3  -4  -6  365.76   16.88   0
  -3  -4  -6  377.76   16.58   0
   3   4   6  362.86   16.31   0
   3   4   6  365.85   17.16   0
   3   4   6  356.22   16.69   0
  -4  -4  -6 1735.81   70.68   0
  -4  -4  -6 1772.69   70.30   0
  -4  -4  -6 1824.86   71.43   0
   4   4   6 1734.00   69.98   0
   4   4   6 1745.18   70.69   0
   4   4   6 1852.89   71.38   0
  -5  -4  -6  343.26   16.29   0
  -5  -4  -6  340.51   16.91   0
  -5  -4  -6  333.44   17.37   0
  -5  -4  -6  358.70   17.85   0
   5   4   6  353.94   16.02   0
   5   4   6  351.07   17.05   0
   5   4   6  364.04   17.62   0
  -6  -4  -6 2255.06   89.92   0
  -6  -4  -6 2221.43   88.03   0
  -6  -4  -6 2211.08   90.08   0
  -6  -4  -6 2254.73   89.05   0
   6   4   6 2304.35   89.76   0
   6   4   6 2207.90   88.95   0
   6   4   6 2179.53   87.55   0
  -7  -4  -6  182.68   10.93   0
  -7  -4  -6  218.10   13.88   0
  -7  -4  -6  220.73   12.89   0
  -7  -4  -6  196.47   14.05   0
   7   4   6  166.43   10.17   0
   7   4   6  168.94   12.50   0
   7   4   6  191.05   12.40   0
  -8  -4  -6   82.64   10.19   0
  -8  -4  -6   99.36   11.89   0
  -8  -4  -6   89.04   12.30   0
   8   4   6   85.81    7.09   0
   8   4   6   97.51   10.50   0
   8   4   6   97.07   10.54   0
  -9  -4  -6  187.45   15.55   0
   9   4   6  162.21   15.10   0
   9   4   6  207.52   14.97   0
   7  -5  -6    7.37    4.34   0
   7  -5  -6    7.85    5.88   0
   7  -5  -6    1.18    2.25   0
  -7   5   6   13.34    4.21   0
  -7   5   6    5.89    6.52   0
  -7   5   6   17.25    7.23   0
   6  -5  -6  835.19   35.27   0
   6  -5  -6  688.15   33.01   0
   6  -5  -6  687.57   31.83   0
  -6   5   6  892.94   36.93   0
  -6   5   6  815.91   32.36   0
  -6   5   6  806.12   36.03   0
   5  -5  -6    6.59    2.84   0
   5  -5  -6    5.51    2.31   0
   5  -5  -6    0.64    3.50   0
  -5   5   6    6.73    4.07   0
  -5   5   6    6.68    2.35   0
  -5   5   6    7.08    4.11   0
   4  -5  -6   21.49    4.46   0
   4  -5  -6   28.61    3.88   0
   4  -5  -6   18.71    2.85   0
  -4   5   6   24.56    3.01   0
  -4   5   6   25.35    4.68   0
  -4   5   6   22.52    4.42   0
   3  -5  -6 1230.59   48.42   0
   3  -5  -6 1227.48   48.05   0
   3  -5  -6 1121.08   49.38   0
   3  -5  -6 1202.90   47.06   0
  -3   5   6 1230.57   49.38   0
  -3   5   6 1184.82   49.11   0
   2  -5  -6  618.88   26.07   0
   2  -5  -6  588.16   28.36   0
   2  -5  -6  684.92   27.32   0
   2  -5  -6  704.99   27.59   0
  -2   5   6  669.66   28.14   0
  -2   5   6  646.59   27.87   0
   1  -5  -6  664.42   26.67   0
   1  -5  -6  637.61   26.49   0
   1  -5  -6  636.56   25.63   0
   1  -5  -6  575.28   27.55   0
  -1   5   6  658.43   27.21   0
  -1   5   6  619.81   26.74   0
   0  -5  -6  227.06   11.60   0
   0  -5  -6  243.77   11.62   0
   0  -5  -6  209.60   12.50   0
   0   5   6  284.54   12.62   0
   0   5   6  246.80   11.81   0
   0   5   6  238.11   11.62   0
  -1  -5  -6  252.42   12.09   0
  -1  -5  -6  245.71   11.87   0
  -1  -5  -6  249.14   12.64   0
   1   5   6  249.56   11.82   0
   1   5   6  233.65   11.84   0
   1   5   6  249.91   12.55   0
  -2  -5  -6 2206.27   85.11   0
  -2  -5  -6 2242.70   84.72   0
  -2  -5  -6 2070.82   84.96   0
   2   5   6 2088.03   84.64   0
   2   5   6 2281.31   85.40   0
   2   5   6 2071.30   84.42   0
  -3  -5  -6  857.46   34.73   0
  -3  -5  -6  861.38   35.45   0
  -3  -5  -6  810.11   35.02   0
   3   5   6  867.13   35.55   0
   3   5   6  836.38   34.49   0
   3   5   6  809.50   34.75   0
  -4  -5  -6   17.31    3.60   0
  -4  -5  -6   15.29    3.40   0
  -4  -5  -6   16.41    2.98   0
   4   5   6   16.02    3.20   0
   4   5   6   13.70    2.61   0
  -5  -5  -6  333.26   17.33   0
  -5  -5  -6  321.94   16.46   0
  -5  -5  -6  337.33   15.73   0
   5   5   6  326.41   15.40   0
   5   5   6  341.24   17.03   0
   5   5   6  326.97   16.32   0
  -6  -5  -6  277.05   16.05   0
  -6  -5  -6  280.32   13.97   0
  -6  -5  -6  263.77   14.97   0
   6   5   6  261.39   13.38   0
   6   5   6  284.98   14.92   0
   6   5   6  282.93   15.55   0
  -7  -5  -6  594.21   26.89   0
  -7  -5  -6  590.24   29.38   0
  -7  -5  -6  639.52   30.19   0
  -7  -5  -6  607.42   28.60   0
   7   5   6  630.72   28.91   0
   7   5   6  618.66   26.48   0
   7   5   6  628.13   28.30   0
  -8  -5  -6   82.49   11.33   0
  -8  -5  -6   62.68    7.28   0
   8   5   6   41.18    6.82   0
   8   5   6   62.60    9.50   0
   7  -6  -6  620.34   31.23   0
   7  -6  -6  667.94   29.14   0
  -7   6   6  644.29   33.21   0
  -7   6   6  604.41   27.64   0
   6  -6  -6  268.79   12.96   0
   6  -6  -6  270.13   14.57   0
   6  -6  -6  233.03   16.62   0
  -6   6   6  253.70   13.11   0
  -6   6   6  288.85   18.12   0
  -6   6   6  231.69   16.77   0
   5  -6  -6  898.09   37.73   0
   5  -6  -6  886.18   36.70   0
  -5   6   6  897.15   36.17   0
  -5   6   6  906.20   39.71   0
  -5   6   6  872.98   39.33   0
   4  -6  -6   34.34    5.99   0
   4  -6  -6   35.92    5.17   0
   4  -6  -6   35.59    4.46   0
   4  -6  -6   30.74    4.53   0
  -4   6   6   38.23    5.79   0
  -4   6   6   23.84    4.71   0
  -4   6   6   33.13    3.83   0
   3  -6  -6  498.44   21.57   0
   3  -6  -6  512.12   22.14   0
   3  -6  -6  495.05   21.02   0
   3  -6  -6  442.89   23.42   0
  -3   6   6  504.68   23.00   0
  -3   6   6  504.91   22.91   0
   2  -6  -6  481.88   20.67   0
   2  -6  -6  489.57   21.02   0
   2  -6  -6  439.37   19.94   0
   2  -6  -6  450.26   22.58   0
  -2   6   6  467.42   21.37   0
  -2   6   6  491.03   21.74   0
   1  -6  -6 3753.11  140.25   0
   1  -6  -6 3527.12  140.24   0
   1  -6  -6 3555.39  141.82   0
   1  -6  -6 3544.82  139.62   0
  -1   6   6 3532.68  140.45   0
  -1   6   6 3805.42  141.05   0
   0  -6  -6   60.46    5.44   0
   0  -6  -6   69.82    7.17   0
   0  -6  -6   88.55    5.96   0
   0   6   6   75.90    5.75   0
   0   6   6   71.82    6.19   0
  -1  -6  -6   48.90    4.83   0
  -1  -6  -6   42.44    5.62   0
  -1  -6  -6   49.10    4.37   0
   1   6   6   47.17    4.63   0
   1   6   6   47.93    5.50   0
  -2  -6  -6  274.79   13.63   0
  -2  -6  -6  287.96   13.29   0
   2   6   6  244.15   13.08   0
   2   6   6  285.21   14.09   0
  -3  -6  -6   83.54    5.89   0
  -3  -6  -6   76.68    6.57   0
  -3  -6  -6   84.58    6.70   0
   3   6   6   69.16    5.99   0
   3   6   6   74.63    6.99   0
  -4  -6  -6  983.16   41.34   0
  -4  -6  -6  963.18   40.08   0
  -4  -6  -6  944.07   40.78   0
   4   6   6  992.57   40.45   0
   4   6   6  990.99   41.25   0
  -5  -6  -6   -0.06    1.96   0
  -5  -6  -6    3.65    3.04   0
  -5  -6  -6   -2.20    2.90   0
   5   6   6    4.42    3.30   0
   5   6   6    5.57    2.98   0
  -6  -6  -6   74.90    8.90   0
  -6  -6  -6   77.75    6.71   0
   6   6   6   68.65    8.04   0
   6   6   6   82.98    7.81   0
  -7  -6  -6  318.12   18.96   0
  -7  -6  -6  300.28   15.64   0
  -7  -6  -6  300.99   17.51   0
   7   6   6  317.20   17.62   0
   7   6   6  328.35   17.05   0
  -8  -6  -6    6.14    3.97   0
  -8  -6  -6   12.56    6.60   0
  -8  -6  -6   12.19    5.79   0
  -8  -6  -6   13.34    6.97   0
   8   6   6    7.62    5.20   0
   8   6   6    4.07    4.83   0
   6  -7  -6  400.70   23.44   0
   6  -7  -6  415.51   20.77   0
   6  -7  -6  432.53   19.19   0
  -6   7   6  390.47   18.83   0
  -6   7   6  421.26   23.74   0
  -6   7   6  383.84   23.02   0
   5  -7  -6 1175.94   46.34   0
   5  -7  -6 1180.08   47.42   0
   5  -7  -6 1091.05   46.40   0
   5  -7  -6 1049.29   49.23   0
  -5   7   6 1085.72   45.52   0
  -5   7   6 1240.36   49.64   0
  -5   7   6 1082.90   48.62   0
   4  -7  -6  200.77   10.78   0
   4  -7  -6  173.15   13.75   0
   4  -7  -6  193.21   11.39   0
   4  -7  -6  185.64   10.70   0
  -4   7   6  179.60   12.58   0
  -4   7   6  196.52   12.77   0
   3  -7  -6  224.20   12.07   0
   3  -7  -6  198.59   14.18   0
   3  -7  -6  227.68   11.63   0
   3  -7  -6  198.44   11.26   0
  -3   7   6  235.18   13.18   0
  -3   7   6  215.08   13.02   0
   2  -7  -6  909.90   40.75   0
   2  -7  -6  969.81   38.49   0
   2  -7  -6  976.56   38.85   0
   2  -7  -6  838.34   37.92   0
  -2   7   6  934.03   39.13   0
  -2   7   6  929.07   39.29   0
   1  -7  -6  163.86    9.66   0
   1  -7  -6  159.17    9.53   0
   1  -7  -6  175.68    9.56   0
  -1   7   6  160.48    9.94   0
  -1   7   6  176.25   10.62   0
   0  -7  -6 4516.13  172.14   0
   0  -7  -6 4449.34  173.68   0
   0  -7  -6 4273.71  171.79   0
   0  -7  -6 4545.80  172.40   0
   0   7   6 4614.61  172.84   0
   0   7   6 4314.82  172.14   0
  -1  -7  -6   15.91    2.99   0
  -1  -7  -6   23.66    4.47   0
   1   7   6   19.75    3.45   0
  -2  -7  -6  947.35   38.90   0
  -2  -7  -6  926.21   39.76   0
  -2  -7  -6  954.24   39.45   0
   2   7   6  912.08   38.80   0
   2   7   6  964.40   39.81   0
  -3  -7  -6  335.61   16.31   0
  -3  -7  -6  327.81   15.38   0
  -3  -7  -6  315.38   16.16   0
   3   7   6  300.16   15.34   0
   3   7   6  315.23   16.41   0
  -4  -7  -6 1038.93   41.52   0
  -4  -7  -6 1053.21   42.86   0
  -4  -7  -6  956.21   42.05   0
   4   7   6  983.45   42.41   0
   4   7   6  983.21   41.48   0
  -5  -7  -6  372.52   18.54   0
  -5  -7  -6  362.37   19.09   0
  -5  -7  -6  361.84   17.38   0
   5   7   6  359.97   18.67   0
   5   7   6  364.90   17.72   0
  -6  -7  -6  319.25   16.78   0
  -6  -7  -6  283.57   14.85   0
  -6  -7  -6  282.97   17.34   0
   6   7   6  285.84   15.39   0
   6   7   6  298.77   16.48   0
  -7  -7  -6  103.72    8.59   0
  -7  -7  -6  133.42   12.82   0
   7   7   6  107.96   10.52   0
   7   7   6  110.54    9.88   0
  -8  -7  -6   97.73   14.56   0
  -8  -7  -6  104.68   13.16   0
  -8  -7  -6   97.11    9.64   0
   8   7   6  118.70   10.77   0
   8   7   6  112.46   11.66   0
   6  -8  -6   38.62    9.01   0
   6  -8  -6   66.94    8.09   0
   6  -8  -6   45.16    6.95   0
  -6   8   6   54.51    8.12   0
  -6   8   6   56.82   10.09   0
   5  -8  -6  254.69   14.98   0
   5  -8  -6  271.89   15.63   0
   5  -8  -6  278.11   14.46   0
  -5   8   6  273.84   17.84   0
  -5   8   6  253.73   17.24   0
   4  -8  -6 1666.99   64.98   0
   4  -8  -6 1713.16   65.82   0
   4  -8  -6 1530.87   64.90   0
   4  -8  -6 1545.45   68.05   0
  -4   8   6 1666.14   66.91   0
  -4   8   6 1525.85   66.33   0
   3  -8  -6   42.89    6.32   0
   3  -8  -6   28.72    6.35   0
   3  -8  -6   49.89    6.32   0
   3  -8  -6   54.40    5.78   0
  -3   8   6   40.51    7.23   0
  -3   8   6   46.00    7.66   0
   2  -8  -6 1550.85   61.55   0
   2  -8  -6 1443.58   61.57   0
  -2   8   6 1569.14   62.56   0
  -2   8   6 1541.75   62.37   0
   1  -8  -6 1790.57   71.39   0
   1  -8  -6 1823.85   73.68   0
   1  -8  -6 1874.38   71.59   0
   1  -8  -6 1529.71   70.57   0
  -1   8   6 1879.77   71.72   0
   0  -8  -6  808.60   35.98   0
   0  -8  -6  739.26   33.96   0
   0  -8  -6  812.84   33.96   0
   0  -8  -6  791.06   34.14   0
   0   8   6  840.54   34.88   0
   0   8   6  812.88   34.21   0
  -1  -8  -6 2288.88   91.34   0
  -1  -8  -6 2290.40   89.98   0
  -1  -8  -6 2327.00   90.36   0
   1   8   6 2246.33   90.71   0
   1   8   6 2233.92   89.88   0
  -2  -8  -6 1720.81   65.51   0
  -2  -8  -6 1543.13   66.21   0
   2   8   6 1644.84   66.18   0
   2   8   6 1601.86   65.18   0
  -3  -8  -6  194.27   11.44   0
  -3  -8  -6  172.79   10.29   0
  -3  -8  -6  171.57   11.24   0
   3   8   6  170.51   11.51   0
   3   8   6  183.94   10.55   0
  -4  -8  -6   74.74    7.95   0
  -4  -8  -6   70.30    7.84   0
  -4  -8  -6   75.53    6.54   0
   4   8   6   70.33    7.00   0
   4   8   6   72.74    8.29   0
  -5  -8  -6  574.92   27.19   0
  -5  -8  -6  624.34   28.26   0
  -5  -8  -6  604.04   26.21   0
   5   8   6  592.74   26.16   0
   5   8   6  531.11   26.84   0
  -6  -8  -6   92.71   10.17   0
  -6  -8  -6   89.89    7.91   0
  -6  -8  -6   70.59   10.43   0
   6   8   6   82.04    9.17   0
   6   8   6   77.98    8.09   0
  -7  -8  -6  272.69   14.65   0
  -7  -8  -6  272.85   18.29   0
  -7  -8  -6  290.34   17.08   0
   7   8   6  221.12   15.50   0
   7   8   6  237.30   14.46   0
   5  -9  -6  101.05   15.65   0
   5  -9  -6  111.69   11.11   0
   5  -9  -6  102.44    9.62   0
   5  -9  -6  114.94   11.55   0
  -5   9   6  102.59   13.53   0
  -5   9   6   81.82   13.19   0
   4  -9  -6   51.70    6.90   0
   4  -9  -6   47.00    8.38   0
   4  -9  -6   49.30    8.25   0
  -4   9   6   55.61    9.94   0
  -4   9   6   31.57    7.11   0
   3  -9  -6 1149.42   47.36   0
   3  -9  -6 1144.91   46.74   0
   3  -9  -6 1108.66   50.32   0
   3  -9  -6 1116.02   47.25   0
  -3   9   6 1059.67   47.71   0
  -3   9   6 1128.95   47.97   0
   2  -9  -6  636.45   30.08   0
   2  -9  -6  674.77   30.00   0
   2  -9  -6  658.30   32.99   0
   2  -9  -6  673.88   29.57   0
  -2   9   6  677.81   30.50   0
  -2   9   6  702.23   30.83   0
   1  -9  -6  561.15   24.84   0
   1  -9  -6  519.22   27.55   0
   1  -9  -6  525.58   25.51   0
   1  -9  -6  553.73   25.23   0
  -1   9   6  546.77   25.27   0
  -1   9   6  572.18   25.75   0
   0  -9  -6  239.07   14.75   0
   0  -9  -6  256.65   16.81   0
   0  -9  -6  287.21   14.64   0
   0  -9  -6  258.76   13.98   0
   0   9   6  289.71   15.63   0
   0   9   6  266.34   14.50   0
  -1  -9  -6 1108.08   45.38   0
  -1  -9  -6 1039.62   45.35   0
  -1  -9  -6 1072.05   44.84   0
   1   9   6 1107.62   45.81   0
   1   9   6 1061.12   44.82   0
  -2  -9  -6  579.65   26.32   0
  -2  -9  -6  578.95   27.14   0
  -2  -9  -6  573.72   25.56   0
   2   9   6  550.52   26.28   0
   2   9   6  557.82   25.45   0
  -3  -9  -6 1475.48   59.56   0
  -3  -9  -6 1418.05   58.57   0
   3   9   6 1415.72   59.30   0
   3   9   6 1437.26   58.30   0
  -4  -9  -6  169.59   10.57   0
  -4  -9  -6  159.75   11.88   0
  -4  -9  -6  170.04   12.03   0
   4   9   6  159.56   11.79   0
   4   9   6  169.60   10.66   0
  -5  -9  -6   59.48    9.12   0
  -5  -9  -6   50.49    8.95   0
  -5  -9  -6   51.72    6.96   0
   5   9   6   53.68    8.70   0
   5   9   6   54.94    7.40   0
  -6  -9  -6  545.43   25.48   0
  -6  -9  -6  613.97   27.70   0
  -6  -9  -6  551.35   28.12   0
   6   9   6  563.33   26.38   0
   6   9   6  481.50   24.75   0
  -7  -9  -6   16.51    6.46   0
  -7  -9  -6   -0.08    4.49   0
  -7  -9  -6   18.76    7.67   0
   7   9   6    1.17    5.16   0
   7   9   6    6.66    4.65   0
   4 -10  -6    2.22    5.59   0
   4 -10  -6   16.34    8.68   0
   4 -10  -6    2.43    4.06   0
   4 -10  -6   -0.43    4.82   0
  -4  10   6   -6.31    5.33   0
  -4  10   6    1.94    6.02   0
   3 -10  -6  269.02   16.16   0
   3 -10  -6  290.90   20.80   0
   3 -10  -6  287.19   15.50   0
   3 -10  -6  257.04   16.63   0
  -3  10   6  260.47   17.25   0
  -3  10   6  273.34   17.18   0
   2 -10  -6  431.99   22.29   0
   2 -10  -6  454.08   26.01   0
   2 -10  -6  450.11   21.76   0
   2 -10  -6  447.45   23.07   0
  -2  10   6  468.53   22.92   0
   1 -10  -6  845.30   36.42   0
   1 -10  -6  807.03   35.77   0
   1 -10  -6  816.99   37.02   0
   1 -10  -6  837.07   39.26   0
  -1  10   6  818.49   36.41   0
   0 -10  -6   -3.86    4.00   0
   0 -10  -6    4.01    3.05   0
   0 -10  -6   -2.66    5.39   0
   0 -10  -6   11.60    4.05   0
   0  10   6   -2.97    4.12   0
   0  10   6    9.38    4.13   0
  -1 -10  -6    0.71    4.03   0
  -1 -10  -6    6.68    4.97   0
  -1 -10  -6   -1.87    3.15   0
  -1 -10  -6    0.04    2.67   0
   1  10   6    2.42    4.22   0
   1  10   6    3.00    3.71   0
  -2 -10  -6  814.69   34.96   0
  -2 -10  -6  741.67   33.89   0
  -2 -10  -6  781.63   35.81   0
   2  10   6  699.18   33.41   0
   2  10   6  854.54   35.23   0
  -3 -10  -6   18.59    4.78   0
  -3 -10  -6   26.34    6.33   0
  -3 -10  -6   19.49    4.01   0
   3  10   6   18.20    5.08   0
   3  10   6   23.88    4.67   0
  -4 -10  -6  708.02   32.27   0
  -4 -10  -6  742.11   33.84   0
   4  10   6  725.77   32.87   0
   4  10   6  735.47   31.87   0
  -5 -10  -6   50.19    7.64   0
  -5 -10  -6   63.04    8.89   0
   5  10   6   40.90    5.89   0
   5  10   6   43.16    6.74   0
  -6 -10  -6   -3.11    5.81   0
  -6 -10  -6   -3.62    4.22   0
  -6 -10  -6    1.91    6.04   0
   6  10   6   -1.95    5.05   0
   6  10   6   -1.83    4.19   0
   4 -11  -6   14.01   10.00   0
   4 -11  -6    6.67    7.29   0
   4 -11  -6    4.09    5.09   0
  -4  11   6    0.49    7.16   0
   3 -11  -6  100.81   13.82   0
   3 -11  -6  110.98   11.88   0
   3 -11  -6  103.62   10.48   0
   3 -11  -6  127.12   13.34   0
  -3  11   6  110.04   13.08   0
   2 -11  -6  335.46   20.21   0
   2 -11  -6  335.89   18.18   0
   2 -11  -6  360.28   23.38   0
   2 -11  -6  341.98   19.18   0
  -2  11   6  336.90   19.41   0
  -2  11   6  314.63   19.56   0
   1 -11  -6   19.74    4.45   0
   1 -11  -6   26.33    5.66   0
   1 -11  -6   19.43    6.37   0
   1 -11  -6   26.23    7.87   0
  -1  11   6   27.33    6.14   0
  -1  11   6   22.36    5.49   0
   0 -11  -6  432.62   21.68   0
   0 -11  -6  428.93   22.86   0
   0 -11  -6  388.94   20.72   0
   0  11   6  426.72   21.36   0
  -1 -11  -6   64.57    9.43   0
  -1 -11  -6   64.13   10.42   0
  -1 -11  -6   48.78    7.62   0
   1  11   6   64.89    8.77   0
   1  11   6   74.34   10.88   0
  -2 -11  -6    6.38    5.96   0
  -2 -11  -6   -2.11    3.33   0
  -2 -11  -6   -6.79    4.79   0
  -2 -11  -6    7.61    4.43   0
   2  11   6   -0.49    5.20   0
   2  11   6   -0.32    3.95   0
  -3 -11  -6  442.77   23.80   0
  -3 -11  -6  444.65   22.37   0
   3  11   6  468.00   22.02   0
   3  11   6  453.38   23.11   0
  -4 -11  -6   61.26   10.61   0
  -4 -11  -6   45.91    6.63   0
  -4 -11  -6   55.00    8.68   0
   4  11   6   51.43    8.43   0
   4  11   6   65.85   10.21   0
  -5 -11  -6   72.05    9.85   0
  -5 -11  -6   89.03   12.65   0
   5  11   6   80.88    9.35   0
   5  11   6   83.62   10.47   0
   2 -12  -6  131.78   12.31   0
   2 -12  -6  132.97   19.26   0
  -2  12   6  158.36   14.83   0
  -2  12   6  150.04   15.25   0
   1 -12  -6   84.83   11.04   0
   1 -12  -6   58.72   10.98   0
   1 -12  -6   70.74    9.80   0
  -1  12   6   83.58   11.49   0
  -1  12   6   97.21   13.24   0
   0 -12  -6  358.05   25.50   0
   0 -12  -6  362.93   21.30   0
   0  12   6  457.92   23.05   0
  -1 -12  -6  121.44   13.81   0
  -1 -12  -6  139.90   17.27   0
  -1 -12  -6  118.52   12.65   0
  -1 -12  -6   99.42   10.59   0
   1  12   6  152.70   14.09   0
   1  12   6  118.35   11.30   0
  -2 -12  -6  241.12   19.99   0
  -2 -12  -6  228.80   15.34   0
  -2 -12  -6  238.34   16.65   0
  -2 -12  -6  236.58   17.63   0
   2  12   6  268.86   17.35   0
   2  12   6  232.95   15.02   0
  -3 -12  -6   11.97    6.94   0
  -3 -12  -6    3.17    4.62   0
  -3 -12  -6    3.35    6.03   0
  -3 -12  -6   17.52    7.97   0
   3  12   6    4.21    4.88   0
   3  12   6   16.65    6.23   0
  -4 -12  -6  160.44   15.82   0
  -4 -12  -6  172.73   14.16   0
  -4 -12  -6  187.37   17.94   0
   4  12   6  187.45   14.50   0
   4  12   6  187.05   12.90   0
   0 -13  -6   24.26    9.24   0
   0 -13  -6   18.76   11.21   0
   0  13   6    8.47    6.37   0
   0  13   6   10.61    8.24   0
  -1 -13  -6  440.59   28.03   0
  -1 -13  -6  490.08   31.23   0
   1  13   6  529.81   26.67   0
  -2  -7   7  368.38   17.27   0
  -2  -7   7  387.95   21.21   0
  -2  -7   7  378.27   22.01   0
  -1  -7   7   10.08    3.56   0
  -1  -7   7   17.29    5.93   0
  -1  -7   7   20.01    6.90   0
  -1  -7   7    9.09    3.85   0
   0  -7   7  270.36   14.21   0
   0  -7   7  298.37   18.37   0
   0  -7   7  266.75   14.79   0
   0  -7   7  266.67   17.30   0
   1  -7   7  603.65   29.54   0
   1  -7   7  568.11   26.53   0
   1  -7   7  576.99   28.39   0
   1  -7   7  571.87   25.98   0
   2  -7   7  710.77   33.91   0
   2  -7   7  716.81   32.65   0
   2  -7   7  752.51   35.10   0
   2  -7   7  720.44   32.13   0
  -3   7  -7   42.10    8.49   0
   3  -7   7   43.68    9.06   0
   3  -7   7   42.74    6.44   0
   3  -7   7   33.66    6.22   0
  -3  -6   7  566.35   26.58   0
  -3  -6   7  551.67   27.50   0
  -2  -6   7  830.28   34.67   0
  -2  -6   7  766.54   34.90   0
  -2  -6   7  759.98   30.88   0
  -2  -6   7  717.44   30.54   0
  -1  -6   7  336.72   18.32   0
  -1  -6   7  304.00   14.57   0
  -1  -6   7  312.80   17.66   0
   0  -6   7    4.18    5.02   0
   0  -6   7   -3.31    3.99   0
   0  -6   7    0.40    2.80   0
   0  -6   7    5.12    2.67   0
   1  -6   7  671.05   30.59   0
   1  -6   7  724.51   33.10   0
   1  -6   7  781.00   33.03   0
   1  -6   7  680.72   30.28   0
  -2   6  -7  160.67   13.04   0
   2  -6   7  148.19   10.65   0
   2  -6   7  152.17   10.17   0
   2  -6   7  146.04   11.80   0
  -3   6  -7 1323.57   56.12   0
   3  -6   7 1300.96   54.95   0
   3  -6   7 1283.29   54.12   0
   3  -6   7 1247.68   53.56   0
   3  -6   7 1311.85   55.55   0
  -4   6  -7   15.21    7.02   0
  -4   6  -7    9.35    2.80   0
   4  -6   7    2.97    4.77   0
   4  -6   7    8.22    5.96   0
   4  -6   7   17.77    4.59   0
  -5   6  -7   85.34    8.28   0
  -5   6  -7   95.50   10.10   0
   5  -6   7  101.17   11.35   0
   5  -6   7   87.76   11.96   0
   5  -6   7   92.50   11.49   0
   5  -6   7  128.50   14.23   0
  -4  -5   7   35.54    6.94   0
  -4  -5   7   34.62    5.28   0
  -3  -5   7  133.16   10.16   0
  -3  -5   7  121.48   11.20   0
  -2  -5   7   19.56    4.67   0
  -2  -5   7   21.88    5.16   0
  -1  -5   7 1202.36   54.81   0
  -1  -5   7 1373.42   52.35   0
  -1  -5   7 1351.43   52.22   0
  -1  -5   7 1400.37   55.28   0
   0  -5   7   10.08    3.81   0
   0  -5   7   15.95    4.94   0
   0  -5   7   16.06    2.99   0
  -1   5  -7  157.90   11.46   0
   1  -5   7  155.48    8.82   0
   1  -5   7  133.92   11.10   0
   1  -5   7  145.88    8.99   0
   1  -5   7  146.20   10.57   0
  -2   5  -7  835.45   37.17   0
   2  -5   7  836.14   36.36   0
   2  -5   7  814.36   34.88   0
   2  -5   7  844.07   36.69   0
   2  -5   7  805.76   35.08   0
  -3   5  -7   87.21   10.42   0
   3  -5   7   58.22    8.84   0
   3  -5   7   73.07    7.38   0
   3  -5   7   58.32    7.59   0
   3  -5   7   91.22    8.77   0
  -4   5  -7 1835.97   75.70   0
  -4   5  -7 1839.03   75.22   0
  -4   5  -7 1851.72   79.29   0
   4  -5   7 2033.80   78.44   0
   4  -5   7 1928.00   77.61   0
   4  -5   7 2031.17   79.06   0
   4  -5   7 1889.82   77.88   0
  -5   5  -7   -0.32    3.31   0
  -5   5  -7   -0.11    7.04   0
  -5   5  -7    0.12    4.17   0
   5  -5   7   10.46    4.91   0
   5  -5   7   -0.82    5.34   0
   5  -5   7   -3.84    3.58   0
   5  -5   7    1.14    4.14   0
  -6   5  -7  441.09   23.65   0
  -6   5  -7  445.47   22.10   0
   6  -5   7  444.54   23.99   0
   6  -5   7  458.77   25.53   0
   6  -5   7  425.45   24.52   0
   6  -5   7  484.38   23.93   0
  -5  -4   7  534.84   24.33   0
  -5  -4   7  596.30   23.78   0
  -5  -4   7  583.41   23.93   0
  -5  -4   7  584.13   27.02   0
  -4  -4   7  325.68   15.78   0
  -4  -4   7  313.17   17.06   0
  -3  -4   7  375.10   18.05   0
  -3  -4   7  380.17   18.80   0
  -2  -4   7   46.53    7.22   0
  -2  -4   7   70.08    6.83   0
  -1  -4   7   81.81    7.76   0
  -1  -4   7   76.07    4.79   0
  -1  -4   7   80.28    7.50   0
  -1  -4   7   72.08    4.59   0
   0  -4   7  860.87   35.57   0
   0  -4   7  868.58   37.47   0
   0  -4   7  880.54   35.55   0
   0  -4   7  932.93   37.90   0
  -1   4  -7  120.94    9.56   0
   1  -4   7  150.10    8.15   0
   1  -4   7  133.56    9.54   0
   1  -4   7  132.90    8.03   0
   1  -4   7  140.22    9.79   0
  -2   4  -7  317.69   16.94   0
   2  -4   7  284.05   15.59   0
   2  -4   7  295.60   16.04   0
   2  -4   7  304.68   14.66   0
   2  -4   7  300.35   14.77   0
  -3   4  -7  914.70   38.94   0
  -3   4  -7  863.47   34.97   0
  -3   4  -7  841.89   35.16   0
   3  -4   7  900.68   38.18   0
   3  -4   7  837.68   37.10   0
   3  -4   7  899.35   37.17   0
   3  -4   7  875.69   37.82   0
  -4   4  -7  759.03   33.25   0
  -4   4  -7  845.99   36.84   0
  -4   4  -7  787.74   34.02   0
   4  -4   7  826.72   35.41   0
   4  -4   7  816.17   35.95   0
   4  -4   7  797.85   34.94   0
   4  -4   7  778.88   35.12   0
  -5   4  -7  913.56   41.72   0
  -5   4  -7  850.52   38.43   0
   5  -4   7  862.10   39.80   0
   5  -4   7  961.84   40.17   0
   5  -4   7 1009.20   41.44   0
   5  -4   7  900.74   40.35   0
  -6   4  -7   85.62   11.08   0
  -6   4  -7   81.25   12.82   0
  -6   4  -7   86.61    8.83   0
   6  -4   7   93.72   11.03   0
   6  -4   7   95.30   10.34   0
   6  -4   7   92.98    9.61   0
   6  -4   7   94.32   11.37   0
  -7   4  -7  434.16   22.75   0
  -7   4  -7  445.24   25.33   0
   7  -4   7  437.60   22.97   0
   7  -4   7  439.80   25.15   0
   7  -4   7  483.88   26.04   0
  -6  -3   7    0.06    4.44   0
  -6  -3   7   -0.21    4.02   0
  -6  -3   7    4.80    5.64   0
  -5  -3   7  186.79    9.92   0
  -5  -3   7  201.18   10.38   0
  -5  -3   7  201.95   12.46   0
  -5  -3   7  211.60   10.56   0
  -4  -3   7  569.55   22.99   0
  -4  -3   7  538.16   24.32   0
  -4  -3   7  608.45   25.51   0
  -3  -3   7  853.86   35.71   0
  -3  -3   7  853.81   35.47   0
  -2  -3   7  301.07   14.87   0
  -2  -3   7  306.76   14.94   0
  -1  -3   7   83.47    6.87   0
  -1  -3   7   92.81    7.14   0
  -1  -3   7   93.94    4.76   0
   0  -3   7  646.69   28.46   0
   0  -3   7  677.00   27.03   0
   0  -3   7  675.29   27.03   0
   0  -3   7  666.84   28.89   0
  -1   3  -7  259.85   13.86   0
   1  -3   7  271.15   12.33   0
   1  -3   7  253.55   13.31   0
   1  -3   7  245.39   12.14   0
   1  -3   7  257.12   13.55   0
  -2   3  -7  713.55   31.21   0
   2  -3   7  685.69   29.59   0
   2  -3   7  719.27   30.55   0
   2  -3   7  688.53   30.46   0
   2  -3   7  707.95   29.67   0
  -3   3  -7  113.56    9.20   0
  -3   3  -7  102.39    6.90   0
  -3   3  -7  105.19    6.37   0
   3  -3   7  114.27    8.49   0
   3  -3   7  110.01    7.68   0
   3  -3   7  109.86    7.86   0
   3  -3   7  107.27    7.98   0
  -4   3  -7  148.50   10.90   0
  -4   3  -7  135.28    8.34   0
  -4   3  -7  145.33    9.39   0
   4  -3   7  141.07    9.61   0
   4  -3   7  128.96    9.60   0
   4  -3   7  131.81   10.11   0
   4  -3   7  142.05    9.56   0
  -5   3  -7 1019.29   42.92   0
  -5   3  -7 1032.59   45.15   0
  -5   3  -7 1006.69   43.86   0
   5  -3   7 1033.54   43.69   0
   5  -3   7 1007.43   44.03   0
   5  -3   7 1041.96   44.27   0
   5  -3   7 1068.51   44.77   0
  -6   3  -7   39.12    6.90   0
  -6   3  -7   33.14    6.94   0
  -6   3  -7   32.51    5.39   0
   6  -3   7   29.94    5.58   0
   6  -3   7   31.94    5.17   0
   6  -3   7   30.82    6.44   0
  -7   3  -7  162.21   12.49   0
  -7   3  -7  170.16   15.49   0
  -7   3  -7  167.58   14.79   0
   7  -3   7  176.05   12.26   0
   7  -3   7  158.79   14.05   0
   7  -3   7  181.43   14.67   0
   7  -3   7  172.28   13.81   0
  -6  -2   7  169.31   11.22   0
  -6  -2   7  154.71   10.64   0
  -6  -2   7  165.83   11.28   0
  -5  -2   7    0.11    1.80   0
  -5  -2   7   -0.07    2.55   0
  -5  -2   7   -3.46    3.37   0
  -4  -2   7  862.08   35.44   0
  -4  -2   7  888.18   36.06   0
  -4  -2   7  891.06   34.82   0
  -4  -2   7  861.39   34.82   0
  -3  -2   7  259.74   12.48   0
  -3  -2   7  250.15   12.43   0
  -3  -2   7  255.27   10.77   0
  -3  -2   7  255.87   10.71   0
  -2  -2   7 1969.33   77.10   0
  -2  -2   7 1968.24   77.53   0
  -1  -2   7    4.72    2.38   0
  -1  -2   7    0.47    1.91   0
  -1  -2   7    2.36    1.20   0
   0   2  -7  275.52   13.66   0
   0  -2   7  289.64   12.21   0
   0  -2   7  268.79   13.16   0
   0  -2   7  281.67   13.70   0
   0  -2   7  273.73   12.12   0
  -1   2  -7 1830.19   72.90   0
   1  -2   7 1850.65   71.58   0
   1  -2   7 1796.88   71.46   0
   1  -2   7 1862.88   72.74   0
   1  -2   7 1802.16   72.16   0
  -2   2  -7  609.93   25.34   0
  -2   2  -7  659.95   28.24   0
  -2   2  -7  624.20   25.45   0
   2  -2   7  628.71   27.67   0
   2  -2   7  615.57   26.92   0
   2  -2   7  686.85   27.28   0
   2  -2   7  649.15   27.50   0
  -3   2  -7 1482.75   60.02   0
  -3   2  -7 1557.21   62.13   0
  -3   2  -7 1514.00   60.48   0
   3  -2   7 1533.63   61.52   0
   3  -2   7 1548.31   61.31   0
   3  -2   7 1460.38   61.00   0
   3  -2   7 1561.21   61.52   0
  -4   2  -7  176.35   11.37   0
  -4   2  -7  171.27    9.62   0
  -4   2  -7  163.43   10.22   0
   4  -2   7  163.33   10.43   0
   4  -2   7  165.95   10.69   0
   4  -2   7  180.82   10.41   0
   4  -2   7  165.24   10.38   0
  -5   2  -7   25.69    5.72   0
  -5   2  -7   18.76    3.63   0
  -5   2  -7   29.76    5.15   0
   5  -2   7   23.03    4.70   0
   5  -2   7   27.94    4.45   0
   5  -2   7   25.22    5.39   0
  -6   2  -7  705.52   32.04   0
  -6   2  -7  702.18   30.73   0
  -6   2  -7  671.94   32.24   0
   6  -2   7  678.27   31.93   0
   6  -2   7  652.41   31.56   0
   6  -2   7  707.99   30.64   0
   6  -2   7  697.59   31.77   0
  -7   2  -7  409.79   22.94   0
  -7   2  -7  469.34   21.54   0
  -7   2  -7  370.29   22.34   0
   7  -2   7  395.41   20.03   0
   7  -2   7  373.02   21.64   0
   7  -2   7  392.00   21.88   0
  -8   2  -7   97.56   11.41   0
  -8   2  -7   78.71   14.62   0
   8  -2   7   82.59   12.41   0
  -6  -1   7  484.75   22.98   0
  -6  -1   7  520.39   22.38   0
  -6  -1   7  523.11   22.43   0
  -6  -1   7  486.29   23.19   0
  -5  -1   7   -2.10    2.73   0
  -5  -1   7   -1.88    2.88   0
  -5  -1   7    1.57    2.70   0
  -4  -1   7  261.38   11.94   0
  -4  -1   7  252.12   11.99   0
  -4  -1   7  253.21   11.89   0
  -4  -1   7  254.34   11.74   0
  -3  -1   7 1502.97   57.31   0
  -3  -1   7 1460.05   56.75   0
  -3  -1   7 1412.51   57.62   0
  -3  -1   7 1464.23   56.81   0
  -2  -1   7  235.02   10.13   0
  -2  -1   7  229.63    9.99   0
  -2  -1   7  243.14   10.87   0
  -2  -1   7  229.67   11.50   0
  -1  -1   7 2843.15  113.92   0
  -1  -1   7 2977.73  113.99   0
  -1  -1   7 3068.19  114.69   0
  -1  -1   7 3007.31  115.55   0
   0   1  -7  634.95   27.62   0
   0  -1   7  670.68   26.75   0
   0  -1   7  683.92   27.29   0
   0  -1   7  656.59   27.98   0
   0  -1   7  669.91   26.74   0
   1  -1   7 1235.95   50.59   0
   1  -1   7 1261.15   49.76   0
   1  -1   7 1272.25   49.85   0
   1  -1   7 1257.25   50.06   0
  -2   1  -7 2449.73   92.17   0
  -2   1  -7 2428.77   93.76   0
  -2   1  -7 2252.46   91.91   0
   2  -1   7 2313.24   92.91   0
   2  -1   7 2528.10   93.26   0
   2  -1   7 2321.17   93.41   0
   2  -1   7 2380.16   93.19   0
  -3   1  -7 2838.25  114.36   0
  -3   1  -7 3001.51  114.86   0
  -3   1  -7 3081.37  115.99   0
   3  -1   7 2951.25  115.30   0
   3  -1   7 2915.70  115.31   0
   3  -1   7 2861.72  115.12   0
   3  -1   7 3012.13  115.45   0
  -4   1  -7 1309.29   52.23   0
  -4   1  -7 1312.87   52.85   0
  -4   1  -7 1251.06   51.48   0
   4  -1   7 1280.87   52.46   0
   4  -1   7 1226.26   51.82   0
   4  -1   7 1290.90   52.32   0
   4  -1   7 1261.29   52.37   0
  -5   1  -7 1072.57   45.79   0
  -5   1  -7 1150.13   47.25   0
  -5   1  -7 1139.46   46.84   0
   5  -1   7 1101.76   46.74   0
   5  -1   7 1130.01   46.70   0
   5  -1   7 1111.72   46.77   0
   5  -1   7 1062.43   45.70   0
  -6   1  -7  219.82   13.93   0
  -6   1  -7  222.43   12.67   0
  -6   1  -7  210.04   13.78   0
   6  -1   7  214.80   12.13   0
   6  -1   7  201.41   13.22   0
   6  -1   7  210.09   13.31   0
  -7   1  -7  154.05   13.66   0
  -7   1  -7  212.08   12.91   0
  -7   1  -7  177.41   13.96   0
   7  -1   7  158.03   10.96   0
   7  -1   7  169.06   12.95   0
   7  -1   7  179.16   13.00   0
  -8   1  -7  485.44   27.37   0
  -8   1  -7  525.57   28.17   0
  -8   1  -7  492.39   25.69   0
   8  -1   7  466.35   26.34   0
   8  -1   7  559.14   27.27   0
   8  -1   7  539.63   24.37   0
  -6   0   7   34.69    5.39   0
  -6   0   7   37.82    5.75   0
  -5   0   7  922.17   35.21   0
  -5   0   7  879.46   36.51   0
  -5   0   7  875.57   35.14   0
  -5   0   7  829.85   36.32   0
  -4   0   7  280.85   13.15   0
  -4   0   7  330.49   14.29   0
  -4   0   7  288.57   13.93   0
  -4   0   7  307.63   13.09   0
  -3   0   7  131.18    7.30   0
  -3   0   7  137.25    7.25   0
  -3   0   7  130.79    7.09   0
  -3   0   7  138.36    6.58   0
  -2   0   7 1503.90   57.64   0
  -2   0   7 1511.80   57.23   0
  -2   0   7 1416.48   57.43   0
  -2   0   7 1482.70   58.41   0
   1   0  -7 1420.39   56.20   0
  -1   0   7 1472.09   54.70   0
  -1   0   7 1375.17   54.78   0
  -1   0   7 1361.25   55.80   0
   0   0  -7 3604.74  141.22   0
   0   0  -7 3664.26  142.17   0
   0   0   7 3677.25  140.90   0
   0   0   7 3647.84  140.86   0
   0   0   7 3809.85  140.82   0
   0   0   7 3608.77  141.79   0
  -1   0  -7 1727.19   66.57   0
  -1   0  -7 1711.17   64.90   0
  -1   0  -7 1688.49   67.22   0
  -1   0  -7 1534.24   64.87   0
   1   0   7 1686.44   66.81   0
   1   0   7 1674.70   66.15   0
   1   0   7 1751.68   66.17   0
   1   0   7 1743.65   66.28   0
  -2   0  -7 1929.78   72.46   0
  -2   0  -7 1804.25   73.16   0
  -2   0  -7 1816.97   73.60   0
  -2   0  -7 1804.91   72.23   0
   2   0   7 1826.40   73.16   0
   2   0   7 1824.07   72.85   0
   2   0   7 1857.85   72.84   0
   2   0   7 1966.75   73.21   0
  -3   0  -7  609.68   26.49   0
  -3   0  -7  621.69   25.73   0
  -3   0  -7  601.91   26.58   0
   3   0   7  605.90   26.33   0
   3   0   7  597.79   26.11   0
   3   0   7  615.12   26.15   0
   3   0   7  609.02   26.20   0
  -4   0  -7 4210.98  158.32   0
  -4   0  -7 4048.24  157.59   0
  -4   0  -7 4112.66  158.48   0
   4   0   7 4114.46  158.50   0
   4   0   7 3968.67  157.64   0
   4   0   7 3995.76  158.09   0
   4   0   7 4046.34  158.15   0
  -5   0  -7    6.47    2.93   0
  -5   0  -7    7.20    3.58   0
  -5   0  -7    8.99    3.38   0
   5   0   7    5.35    2.38   0
   5   0   7    5.06    2.77   0
   5   0   7    5.37    2.86   0
  -6   0  -7 1469.32   61.47   0
  -6   0  -7 1577.89   62.86   0
  -6   0  -7 1552.12   62.71   0
   6   0   7 1490.68   62.16   0
   6   0   7 1465.92   62.31   0
   6   0   7 1484.28   60.86   0
  -7   0  -7   14.17    4.65   0
  -7   0  -7    6.27    5.07   0
  -7   0  -7   11.10    5.32   0
   7   0   7   14.42    3.46   0
   7   0   7    6.22    3.92   0
  -8   0  -7   18.20    6.48   0
  -8   0  -7   29.56    5.90   0
  -8   0  -7   12.88    6.47   0
   8   0   7    9.41    5.02   0
   8   0   7   18.18    4.38   0
   8   0   7   11.57    5.51   0
  -6   1   7    0.61    2.41   0
  -6   1   7    3.19    4.20   0
  -6   1   7   -1.27    4.31   0
  -5   1   7  212.49   11.94   0
  -5   1   7  193.55   11.59   0
  -5   1   7  202.82    9.16   0
  -4   1   7  775.70   30.27   0
  -4   1   7  732.42   32.17   0
  -4   1   7  787.68   31.18   0
  -4   1   7  793.07   30.32   0
  -4   1   7  795.00   32.36   0
   3  -1  -7  357.00   16.04   0
  -3   1   7  379.15   16.26   0
  -3   1   7  358.46   15.81   0
  -3   1   7  361.26   16.05   0
  -2   1   7    3.89    1.83   0
  -2   1   7    5.95    1.69   0
  -2   1   7    2.72    1.58   0
   1  -1  -7  752.68   31.18   0
  -1   1   7  756.05   29.25   0
  -1   1   7  760.74   30.40   0
  -1   1   7  725.08   30.80   0
  -1   1   7  769.61   30.30   0
   0  -1  -7 3502.49  134.62   0
   0  -1  -7 3433.63  133.29   0
   0   1   7 3659.77  133.08   0
   0   1   7 3417.97  133.70   0
   0   1   7 3416.40  133.66   0
   0   1   7 3412.92  134.20   0
  -1  -1  -7 1074.54   43.77   0
  -1  -1  -7 1090.91   42.89   0
  -1  -1  -7 1092.92   42.41   0
  -1  -1  -7  996.27   42.45   0
   1   1   7 1037.47   43.34   0
   1   1   7 1096.46   42.62   0
   1   1   7 1178.42   43.29   0
   1   1   7 1047.37   42.97   0
  -2  -1  -7 3416.78  131.65   0
  -2  -1  -7 3478.43  132.31   0
  -2  -1  -7 3583.24  131.54   0
  -2  -1  -7 3202.78  131.20   0
   2   1   7 3355.45  131.37   0
   2   1   7 3374.62  131.67   0
   2   1   7 3384.19  131.85   0
   2   1   7 3429.36  131.87   0
  -3  -1  -7  218.99   10.99   0
  -3  -1  -7  192.94   10.43   0
  -3  -1  -7  216.91   10.87   0
  -3  -1  -7  212.55   11.08   0
   3   1   7  210.22   11.11   0
   3   1   7  198.78   10.77   0
   3   1   7  199.16   10.56   0
  -4  -1  -7  239.02   12.77   0
  -4  -1  -7  237.17   12.26   0
  -4  -1  -7  225.65   12.56   0
  -4  -1  -7  238.41   12.54   0
   4   1   7  242.88   12.16   0
   4   1   7  262.76   13.08   0
   4   1   7  234.42   12.58   0
  -5  -1  -7 2586.16  104.72   0
  -5  -1  -7 2675.72  104.98   0
  -5  -1  -7 2699.42  105.57   0
  -5  -1  -7 2725.52  105.70   0
   5   1   7 2636.75  105.29   0
   5   1   7 2724.99  105.80   0
   5   1   7 2600.19  104.31   0
  -6  -1  -7  494.56   24.05   0
  -6  -1  -7  534.65   25.07   0
  -6  -1  -7  525.92   25.26   0
   6   1   7  524.55   23.34   0
   6   1   7  529.00   24.87   0
  -7  -1  -7  796.71   36.96   0
  -7  -1  -7  838.96   37.61   0
  -7  -1  -7  826.12   36.22   0
   7   1   7  772.44   36.69   0
   7   1   7  825.54   34.84   0
   7   1   7  846.80   36.89   0
  -8  -1  -7   -7.64    4.35   0
  -8  -1  -7   -2.96    5.27   0
  -8  -1  -7   -0.76    5.13   0
   8   1   7    1.14    3.34   0
   8   1   7    1.50    4.92   0
   8   1   7   -3.40    4.77   0
  -7   2   7  744.42   35.31   0
  -7   2   7  789.04   31.12   0
  -7   2   7  743.09   35.20   0
  -6   2   7   36.61    4.47   0
  -6   2   7   53.12    8.70   0
  -6   2   7   60.60    8.70   0
  -5   2   7   10.05    3.83   0
  -5   2   7   13.35    1.97   0
  -5   2   7   17.17    4.10   0
   4  -2  -7  419.58   18.09   0
  -4   2   7  423.98   19.36   0
  -4   2   7  425.33   19.36   0
   3  -2  -7   50.51    4.40   0
  -3   2   7   50.61    4.99   0
  -3   2   7   56.27    4.24   0
  -3   2   7   51.76    4.81   0
   2  -2  -7 2030.97   80.15   0
  -2   2   7 1983.15   79.87   0
  -2   2   7 1957.85   79.86   0
  -2   2   7 2230.55   80.29   0
   1  -2  -7   85.59    4.31   0
   1  -2  -7   87.52    4.50   0
  -1   2   7   94.46    5.65   0
  -1   2   7   86.35    5.66   0
  -1   2   7   84.43    5.34   0
   0  -2  -7  316.46   14.22   0
   0  -2  -7  339.37   15.10   0
   0  -2  -7  323.67   13.49   0
   0  -2  -7  335.45   13.93   0
   0   2   7  311.11   14.42   0
   0   2   7  343.93   14.73   0
   0   2   7  324.36   14.76   0
  -1  -2  -7 2717.55  110.62   0
  -1  -2  -7 2855.48  111.27   0
  -1  -2  -7 2879.10  110.51   0
  -1  -2  -7 2927.31  110.21   0
   1   2   7 2819.62  110.96   0
   1   2   7 2834.21  110.81   0
   1   2   7 2982.33  111.08   0
  -2  -2  -7  593.05   25.24   0
  -2  -2  -7  601.02   25.66   0
  -2  -2  -7  587.55   25.15   0
  -2  -2  -7  614.86   25.08   0
   2   2   7  565.79   25.26   0
   2   2   7  625.08   25.65   0
   2   2   7  607.62   25.35   0
  -3  -2  -7 1696.47   71.16   0
  -3  -2  -7 1830.30   71.71   0
  -3  -2  -7 1807.42   71.40   0
  -3  -2  -7 1871.15   71.76   0
   3   2   7 1813.53   71.88   0
   3   2   7 1819.48   71.59   0
   3   2   7 1796.75   71.24   0
  -4  -2  -7  109.28    7.47   0
  -4  -2  -7  115.14    7.52   0
  -4  -2  -7  116.01    7.81   0
  -4  -2  -7  106.90    7.88   0
   4   2   7  112.28    7.74   0
   4   2   7  110.06    7.03   0
   4   2   7  118.42    8.12   0
  -5  -2  -7  836.01   35.54   0
  -5  -2  -7  801.66   34.47   0
  -5  -2  -7  813.15   35.17   0
  -5  -2  -7  755.38   34.40   0
   5   2   7  827.46   34.04   0
   5   2   7  842.34   35.54   0
   5   2   7  813.63   34.99   0
  -6  -2  -7 1306.21   53.73   0
  -6  -2  -7 1304.52   54.84   0
  -6  -2  -7 1296.05   54.11   0
  -6  -2  -7 1360.22   55.39   0
   6   2   7 1346.34   55.07   0
   6   2   7 1320.48   54.64   0
   6   2   7 1252.28   53.01   0
  -7  -2  -7  718.01   33.03   0
  -7  -2  -7  677.78   32.28   0
  -7  -2  -7  664.88   31.38   0
   7   2   7  712.71   30.21   0
   7   2   7  656.22   32.05   0
   7   2   7  750.04   32.40   0
  -8  -2  -7  249.41   17.13   0
  -8  -2  -7  253.51   16.23   0
  -8  -2  -7  254.52   17.89   0
   8   2   7  264.02   16.82   0
   8   2   7  264.14   16.83   0
   8   2   7  266.28   14.10   0
  -7   3   7   14.89    3.62   0
  -7   3   7   11.65    6.55   0
  -7   3   7   -0.95    6.23   0
  -6   3   7 1313.86   54.99   0
  -6   3   7 1321.87   54.63   0
  -6   3   7 1270.75   50.70   0
   5  -3  -7  237.38   10.22   0
   5  -3  -7  234.37   10.43   0
   5  -3  -7  231.65   10.88   0
  -5   3   7  233.72   13.62   0
  -5   3   7  239.57   13.86   0
   4  -3  -7  521.53   21.81   0
   4  -3  -7  526.64   21.36   0
   4  -3  -7  506.09   21.02   0
  -4   3   7  536.95   23.43   0
  -4   3   7  491.67   23.18   0
   3  -3  -7  331.82   14.28   0
   3  -3  -7  306.20   14.55   0
   3  -3  -7  322.76   13.91   0
  -3   3   7  352.11   15.78   0
  -3   3   7  318.38   15.37   0
   2  -3  -7 2249.35   86.67   0
   2  -3  -7 2194.85   86.35   0
  -2   3   7 2160.66   87.21   0
  -2   3   7 2189.42   86.94   0
  -2   3   7 2374.25   87.59   0
   1  -3  -7 2820.09  107.10   0
   1  -3  -7 2884.74  106.39   0
   1  -3  -7 2824.37  106.79   0
  -1   3   7 2713.45  106.81   0
  -1   3   7 2679.10  106.76   0
  -1   3   7 2605.22  106.90   0
   0  -3  -7 1184.02   49.84   0
   0  -3  -7 1295.58   50.09   0
   0  -3  -7 1283.51   48.26   0
   0  -3  -7 1250.65   49.41   0
   0   3   7 1231.24   49.73   0
   0   3   7 1208.04   49.59   0
   0   3   7 1285.28   49.96   0
  -1  -3  -7  982.47   40.32   0
  -1  -3  -7 1023.94   39.31   0
  -1  -3  -7 1064.62   40.59   0
  -1  -3  -7 1027.05   40.13   0
   1   3   7  983.57   40.39   0
   1   3   7  931.53   40.02   0
   1   3   7  937.39   40.03   0
  -2  -3  -7  548.61   23.13   0
  -2  -3  -7  516.92   23.48   0
  -2  -3  -7  575.03   23.84   0
   2   3   7  530.61   23.55   0
   2   3   7  576.24   23.57   0
   2   3   7  559.58   23.98   0
  -3  -3  -7 1992.34   78.32   0
  -3  -3  -7 2003.78   77.90   0
  -3  -3  -7 1955.44   77.98   0
  -3  -3  -7 1941.84   77.94   0
   3   3   7 2000.64   78.12   0
   3   3   7 1928.66   77.60   0
   3   3   7 2000.48   78.43   0
  -4  -3  -7  157.32    9.38   0
  -4  -3  -7  155.30    8.94   0
  -4  -3  -7  138.86    9.01   0
  -4  -3  -7  156.19    9.71   0
   4   3   7  152.45    9.29   0
   4   3   7  153.93    9.74   0
   4   3   7  145.59    8.52   0
  -5  -3  -7   30.44    5.23   0
  -5  -3  -7   31.61    4.30   0
  -5  -3  -7   17.97    3.88   0
  -5  -3  -7   19.22    4.25   0
   5   3   7   23.63    3.68   0
   5   3   7   29.01    4.84   0
   5   3   7   28.92    4.40   0
  -6  -3  -7  435.25   21.38   0
  -6  -3  -7  419.50   20.75   0
  -6  -3  -7  402.69   19.35   0
  -6  -3  -7  391.63   19.93   0
   6   3   7  411.42   20.36   0
   6   3   7  411.75   20.79   0
   6   3   7  395.38   18.82   0
  -7  -3  -7  349.24   18.91   0
  -7  -3  -7  387.08   18.18   0
  -7  -3  -7  349.80   20.51   0
  -7  -3  -7  358.36   20.06   0
   7   3   7  362.54   17.41   0
   7   3   7  362.22   19.34   0
   7   3   7  376.13   19.89   0
  -8  -3  -7  667.18   33.07   0
  -8  -3  -7  664.03   31.25   0
  -8  -3  -7  665.56   32.48   0
   8   3   7  649.02   31.82   0
   8   3   7  662.29   29.05   0
   8   3   7  700.20   31.82   0
   7  -4  -7  199.62   11.29   0
  -7   4   7  192.54   17.00   0
  -7   4   7  237.83   11.27   0
  -7   4   7  207.82   17.02   0
   6  -4  -7  351.55   14.92   0
   6  -4  -7  311.68   14.02   0
   6  -4  -7  308.56   15.49   0
  -6   4   7  336.82   18.65   0
  -6   4   7  304.24   13.86   0
  -6   4   7  320.16   18.91   0
   5  -4  -7 1345.65   54.42   0
   5  -4  -7 1338.17   53.50   0
   5  -4  -7 1320.98   53.62   0
  -5   4   7 1381.94   56.33   0
  -5   4   7 1397.87   56.19   0
  -5   4   7 1333.24   52.17   0
   4  -4  -7  644.56   26.73   0
   4  -4  -7  624.90   27.40   0
   4  -4  -7  612.67   26.66   0
  -4   4   7  669.47   28.58   0
  -4   4   7  661.86   28.60   0
   3  -4  -7  644.60   26.57   0
   3  -4  -7  606.30   27.13   0
   3  -4  -7  636.23   26.68   0
  -3   4   7  649.24   27.71   0
  -3   4   7  658.63   27.85   0
   2  -4  -7   43.22    3.95   0
   2  -4  -7   41.35    4.14   0
   2  -4  -7   42.90    5.00   0
  -2   4   7   43.63    4.66   0
  -2   4   7   50.50    5.14   0
  -2   4   7   37.63    4.07   0
   1  -4  -7 4316.82  160.20   0
   1  -4  -7 3892.64  160.75   0
   1  -4  -7 4219.69  160.43   0
  -1   4   7 4455.23  160.91   0
  -1   4   7 4057.86  160.19   0
  -1   4   7 4011.21  160.34   0
   0  -4  -7  367.15   15.88   0
   0  -4  -7  351.87   15.95   0
   0  -4  -7  318.32   16.36   0
   0   4   7  347.40   15.89   0
   0   4   7  368.35   16.31   0
   0   4   7  353.55   15.83   0
  -1  -4  -7 1436.52   59.24   0
  -1  -4  -7 1545.35   59.08   0
   1   4   7 1439.62   58.78   0
   1   4   7 1448.75   58.72   0
   1   4   7 1538.85   59.43   0
  -2  -4  -7  279.43   13.19   0
  -2  -4  -7  259.85   13.24   0
  -2  -4  -7  290.39   13.48   0
   2   4   7  261.17   13.06   0
   2   4   7  270.62   13.54   0
   2   4   7  267.85   12.85   0
  -3  -4  -7   40.27    4.28   0
  -3  -4  -7   35.77    4.29   0
  -3  -4  -7   42.82    4.74   0
  -3  -4  -7   37.34    4.81   0
   3   4   7   38.24    4.49   0
   3   4   7   36.22    4.88   0
   3   4   7   38.23    3.99   0
  -4  -4  -7 2851.54  109.30   0
  -4  -4  -7 2750.99  108.30   0
  -4  -4  -7 2799.32  108.82   0
  -4  -4  -7 2695.34  108.52   0
   4   4   7 2777.49  108.66   0
   4   4   7 2777.08  109.24   0
   4   4   7 2732.14  107.95   0
  -5  -4  -7  153.14    8.98   0
  -5  -4  -7  144.66   10.18   0
  -5  -4  -7  117.44    9.38   0
  -5  -4  -7  132.99    9.38   0
   5   4   7  140.03    8.47   0
   5   4   7  163.20   10.28   0
   5   4   7  140.53    9.46   0
  -6  -4  -7  123.34    8.46   0
  -6  -4  -7  126.50   10.36   0
  -6  -4  -7  116.32    9.80   0
  -6  -4  -7  129.20    9.58   0
   6   4   7   98.58    7.66   0
   6   4   7  117.70    9.33   0
   6   4   7  100.54    9.40   0
  -7  -4  -7   49.23    6.57   0
  -7  -4  -7   64.18    9.59   0
  -7  -4  -7   50.40    7.78   0
  -7  -4  -7   45.61    6.46   0
   7   4   7   46.09    7.91   0
   7   4   7   46.30    7.96   0
   7   4   7   42.22    5.82   0
  -8  -4  -7   33.28    5.26   0
  -8  -4  -7   62.78   10.04   0
  -8  -4  -7   44.34    8.34   0
  -8  -4  -7   39.13    7.37   0
   8   4   7   30.39    6.48   0
   8   4   7   38.75    5.08   0
   8   4   7   41.29    7.13   0
   6  -5  -7   98.95   10.11   0
   6  -5  -7  115.56    8.31   0
  -6   5   7  113.82   12.00   0
  -6   5   7  109.06    6.60   0
   5  -5  -7  541.05   23.50   0
   5  -5  -7  554.56   24.13   0
   5  -5  -7  524.78   25.27   0
  -5   5   7  570.56   26.37   0
  -5   5   7  564.41   26.60   0
   4  -5  -7  460.47   19.79   0
   4  -5  -7  448.78   20.07   0
   4  -5  -7  417.87   21.08   0
  -4   5   7  460.21   21.81   0
  -4   5   7  457.46   21.69   0
   3  -5  -7 1002.38   40.11   0
   3  -5  -7  897.17   41.06   0
   3  -5  -7 1026.36   40.30   0
  -3   5   7 1006.39   41.29   0
  -3   5   7  988.11   41.19   0
   2  -5  -7 1047.05   41.09   0
   2  -5  -7  924.40   41.97   0
   2  -5  -7 1029.93   41.07   0
  -2   5   7 1015.39   41.63   0
  -2   5   7 1027.81   41.85   0
   1  -5  -7    5.22    3.02   0
   1  -5  -7    2.01    1.36   0
   1  -5  -7    1.49    1.69   0
   1  -5  -7    3.36    1.81   0
  -1   5   7    3.37    2.59   0
  -1   5   7    2.39    1.81   0
   0  -5  -7 5487.54  206.66   0
   0  -5  -7 5183.00  207.41   0
   0  -5  -7 5547.59  206.62   0
   0   5   7 5407.62  206.99   0
   0   5   7 5274.27  206.58   0
   0   5   7 5316.85  206.43   0
  -1  -5  -7  860.26   33.97   0
  -1  -5  -7  818.80   33.98   0
  -1  -5  -7  805.69   34.51   0
   1   5   7  786.93   33.76   0
   1   5   7  851.92   34.51   0
   1   5   7  771.41   33.54   0
  -2  -5  -7 2444.41   94.28   0
  -2  -5  -7 2402.22   93.88   0
   2   5   7 2296.50   93.77   0
   2   5   7 2471.84   94.56   0
   2   5   7 2359.32   93.67   0
  -3  -5  -7  138.67    8.72   0
  -3  -5  -7  123.92    8.32   0
  -3  -5  -7  127.35    7.84   0
   3   5   7  138.38    8.99   0
   3   5   7  131.40    7.78   0
   3   5   7  119.87    8.07   0
  -4  -5  -7 1094.79   43.90   0
  -4  -5  -7 1073.80   42.82   0
  -4  -5  -7 1004.07   43.03   0
   4   5   7 1031.25   43.67   0
   4   5   7 1021.74   42.98   0
   4   5   7  999.92   42.32   0
  -5  -5  -7  920.32   38.42   0
  -5  -5  -7  901.99   39.03   0
  -5  -5  -7  954.26   40.00   0
   5   5   7  895.03   38.04   0
   5   5   7  922.29   39.71   0
   5   5   7  927.63   39.03   0
  -6  -5  -7  829.65   36.89   0
  -6  -5  -7  783.14   35.57   0
  -6  -5  -7  826.64   36.50   0
  -6  -5  -7  831.63   34.87   0
   6   5   7  825.94   36.54   0
   6   5   7  838.32   35.69   0
   6   5   7  789.48   34.28   0
  -7  -5  -7    1.06    4.65   0
  -7  -5  -7    8.75    3.57   0
  -7  -5  -7    2.68    5.34   0
   7   5   7    4.74    3.10   0
   7   5   7   15.67    4.63   0
   7   5   7    0.29    4.16   0
  -8  -5  -7   49.37    8.63   0
  -8  -5  -7   63.02   10.33   0
  -8  -5  -7   45.98    7.68   0
  -8  -5  -7   46.65    8.33   0
   8   5   7   60.74   10.30   0
   8   5   7   43.47    6.63   0
   6  -6  -7    2.54    3.85   0
   6  -6  -7    7.59    5.50   0
   6  -6  -7    6.23    3.20   0
  -6   6   7    3.99    6.41   0
  -6   6   7   -0.50    5.82   0
   5  -6  -7   73.45    9.72   0
   5  -6  -7   75.68    6.41   0
   5  -6  -7   77.50    7.17   0
  -5   6   7   66.50    9.82   0
  -5   6   7   58.62    9.60   0
   4  -6  -7 1102.48   51.11   0
   4  -6  -7 1266.90   50.00   0
   4  -6  -7 1267.98   49.50   0
  -4   6   7 1221.22   51.16   0
  -4   6   7 1244.89   51.43   0
   3  -6  -7  180.51    9.74   0
   3  -6  -7  154.15   11.67   0
   3  -6  -7  181.87    8.51   0
   3  -6  -7  178.49   10.08   0
  -3   6   7  182.16   11.24   0
  -3   6   7  174.60   11.09   0
   2  -6  -7 2710.92  115.03   0
   2  -6  -7 3063.89  113.86   0
   2  -6  -7 2885.04  112.16   0
   2  -6  -7 2973.79  113.58   0
  -2   6   7 3006.94  114.50   0
  -2   6   7 2830.45  114.16   0
   1  -6  -7   44.33    4.41   0
   1  -6  -7   34.88    5.42   0
   1  -6  -7   36.49    4.47   0
   1  -6  -7   41.01    3.96   0
  -1   6   7   32.41    5.50   0
  -1   6   7   32.08    4.75   0
   0  -6  -7  591.54   24.88   0
   0  -6  -7  570.44   24.60   0
   0  -6  -7  550.93   26.01   0
   0   6   7  551.23   24.73   0
   0   6   7  578.46   25.23   0
  -1  -6  -7 1915.10   73.71   0
  -1  -6  -7 1773.31   74.33   0
  -1  -6  -7 1894.62   73.83   0
   1   6   7 1833.21   73.51   0
   1   6   7 1807.12   73.57   0
   1   6   7 1920.86   74.37   0
  -2  -6  -7 2200.47   86.07   0
  -2  -6  -7 2149.89   86.43   0
   2   6   7 2301.56   86.99   0
   2   6   7 2096.47   85.98   0
   2   6   7 2169.88   85.91   0
  -3  -6  -7  511.74   22.20   0
  -3  -6  -7  482.71   22.59   0
  -3  -6  -7  503.56   22.84   0
   3   6   7  483.79   22.21   0
   3   6   7  493.41   23.04   0
   3   6   7  504.06   22.01   0
  -4  -6  -7   22.20    3.58   0
  -4  -6  -7   12.58    3.67   0
  -4  -6  -7   18.35    3.98   0
   4   6   7   12.09    2.75   0
   4   6   7   17.32    4.38   0
   4   6   7   15.58    3.64   0
  -5  -6  -7  561.15   25.13   0
  -5  -6  -7  564.51   25.96   0
  -5  -6  -7  553.09   24.34   0
   5   6   7  513.37   25.43   0
   5   6   7  543.99   24.70   0
   5   6   7  521.27   23.87   0
  -6  -6  -7  505.71   22.32   0
  -6  -6  -7  476.41   24.22   0
  -6  -6  -7  493.88   23.48   0
   6   6   7  471.22   21.81   0
   6   6   7  460.94   23.76   0
   6   6   7  481.80   22.91   0
  -7  -6  -7 1179.21   53.14   0
  -7  -6  -7 1326.18   52.78   0
  -7  -6  -7 1211.04   53.75   0
  -7  -6  -7 1216.66   50.86   0
   7   6   7 1223.43   51.74   0
   7   6   7 1241.23   52.86   0
  -8  -6  -7    1.23    4.28   0
  -8  -6  -7    2.72    6.61   0
  -8  -6  -7   -8.04    5.03   0
  -8  -6  -7    1.29    5.81   0
   8   6   7   -2.92    5.40   0
   6  -7  -7  138.00    9.70   0
   6  -7  -7  130.95   11.34   0
   6  -7  -7  154.99   14.70   0
  -6   7   7  120.20   14.97   0
  -6   7   7  154.28   15.75   0
   5  -7  -7  247.58   17.17   0
   5  -7  -7  272.59   13.73   0
   5  -7  -7  262.82   14.65   0
  -5   7   7  250.38   16.68   0
  -5   7   7  273.22   17.20   0
   4  -7  -7   11.32    3.20   0
   4  -7  -7    7.37    3.25   0
   4  -7  -7   13.13    3.21   0
   4  -7  -7   10.41    5.46   0
  -4   7   7   19.69    5.36   0
  -4   7   7   14.27    4.74   0
   3  -7  -7  268.93   13.11   0
   3  -7  -7  250.76   16.63   0
   3  -7  -7  292.48   14.08   0
   3  -7  -7  302.44   14.64   0
  -3   7   7  270.83   15.40   0
  -3   7   7  274.04   15.52   0
   2  -7  -7 1139.17   45.20   0
   2  -7  -7 1049.58   44.15   0
   2  -7  -7 1161.45   45.47   0
   2  -7  -7 1060.59   47.31   0
  -2   7   7 1091.73   45.82   0
  -2   7   7 1086.18   45.99   0
   1  -7  -7  200.97   10.55   0
   1  -7  -7  200.63   11.13   0
   1  -7  -7  192.12   13.20   0
   1  -7  -7  203.32   10.88   0
  -1   7   7  201.64   11.48   0
   0  -7  -7   77.71    6.63   0
   0  -7  -7   80.60    8.62   0
   0  -7  -7   86.93    6.49   0
   0  -7  -7   82.18    6.32   0
   0   7   7  100.25    7.27   0
   0   7   7   95.14    7.82   0
  -1  -7  -7  195.35   12.45   0
  -1  -7  -7  208.13   11.12   0
  -1  -7  -7  210.52   11.61   0
   1   7   7  205.78   11.40   0
   1   7   7  216.39   12.47   0
  -2  -7  -7  872.58   36.94   0
  -2  -7  -7  858.36   37.35   0
  -2  -7  -7  879.15   36.49   0
   2   7   7  888.75   37.45   0
   2   7   7  851.85   36.48   0
  -3  -7  -7 2276.04   94.34   0
  -3  -7  -7 2506.84   94.02   0
  -3  -7  -7 2054.87   94.10   0
   3   7   7 2608.43   95.22   0
   3   7   7 2454.24   94.02   0
  -4  -7  -7  196.07   11.80   0
  -4  -7  -7  184.53   11.88   0
  -4  -7  -7  191.32   10.84   0
   4   7   7  183.68   11.09   0
  -5  -7  -7    0.81    3.19   0
  -5  -7  -7    3.23    2.51   0
  -5  -7  -7   -1.88    3.59   0
   5   7   7   10.51    3.70   0
   5   7   7   -2.06    3.55   0
  -6  -7  -7  288.59   17.10   0
  -6  -7  -7  289.84   14.94   0
  -6  -7  -7  263.20   15.90   0
   6   7   7  270.12   15.37   0
   6   7   7  278.59   16.50   0
  -7  -7  -7    3.66    5.05   0
  -7  -7  -7    4.63    3.62   0
  -7  -7  -7    7.16    5.94   0
   7   7   7    2.06    4.21   0
   7   7   7    4.85    5.01   0
  -8  -7  -7  469.16   30.51   0
  -8  -7  -7  580.11   26.42   0
  -8  -7  -7  577.03   29.10   0
   8   7   7  614.80   28.84   0
   5  -8  -7   12.50    4.31   0
   5  -8  -7    3.75    4.36   0
   5  -8  -7   14.42    4.02   0
  -5   8   7   10.14    6.27   0
  -5   8   7   10.80    6.36   0
   4  -8  -7  769.91   32.38   0
   4  -8  -7  676.12   35.37   0
   4  -8  -7  763.00   33.06   0
   4  -8  -7  722.82   31.75   0
  -4   8   7  688.06   33.91   0
  -4   8   7  854.94   35.13   0
   3  -8  -7    6.29    3.18   0
   3  -8  -7    5.86    2.75   0
   3  -8  -7    6.85    3.24   0
   3  -8  -7    3.93    5.25   0
  -3   8   7    4.13    3.67   0
  -3   8   7    8.20    4.42   0
   2  -8  -7   53.64    6.67   0
   2  -8  -7   79.09   10.47   0
   2  -8  -7   64.83    6.35   0
   2  -8  -7   66.35    6.77   0
  -2   8   7   71.83    7.69   0
  -2   8   7   65.25    8.07   0
   1  -8  -7  636.90   30.64   0
   1  -8  -7  659.13   27.99   0
   1  -8  -7  644.37   28.29   0
   1  -8  -7  606.26   27.74   0
  -1   8   7  642.99   28.49   0
   0  -8  -7  443.76   22.76   0
   0  -8  -7  457.21   20.70   0
   0  -8  -7  442.11   20.27   0
   0  -8  -7  418.37   20.17   0
   0   8   7  416.47   20.52   0
   0   8   7  442.72   21.27   0
  -1  -8  -7  115.97    9.81   0
  -1  -8  -7  107.60    7.68   0
  -1  -8  -7  105.53    8.14   0
   1   8   7   92.02    8.78   0
   1   8   7   92.74    7.99   0
  -2  -8  -7    4.27    2.55   0
  -2  -8  -7   -1.59    3.16   0
  -2  -8  -7    5.15    2.58   0
   2   8   7    9.90    4.00   0
   2   8   7    4.07    2.90   0
  -3  -8  -7  105.14    8.64   0
  -3  -8  -7  111.34    7.80   0
   3   8   7   86.56    9.07   0
   3   8   7  103.05    8.13   0
  -4  -8  -7 1266.89   53.13   0
  -4  -8  -7 1265.17   53.54   0
  -4  -8  -7 1276.20   52.27   0
   4   8   7 1294.98   53.50   0
   4   8   7 1259.80   52.26   0
  -5  -8  -7   43.67    7.95   0
  -5  -8  -7   44.26    6.31   0
  -5  -8  -7   51.90    8.05   0
   5   8   7   53.47    8.64   0
   5   8   7   42.52    6.80   0
  -6  -8  -7  119.49    9.65   0
  -6  -8  -7  115.57   12.08   0
   6   8   7  134.62   11.67   0
   6   8   7  131.59   10.46   0
  -7  -8  -7  138.30   10.83   0
  -7  -8  -7  173.91   13.16   0
  -7  -8  -7  136.66   14.13   0
   7   8   7  103.27   10.93   0
   7   8   7  139.46   13.03   0
   5  -9  -7  829.67   41.55   0
   5  -9  -7  860.59   36.91   0
   5  -9  -7  877.35   37.96   0
   5  -9  -7  875.47   36.87   0
  -5   9   7  744.46   40.92   0
  -5   9   7  858.96   40.15   0
   4  -9  -7  381.38   19.20   0
   4  -9  -7  401.23   19.34   0
   4  -9  -7  375.96   20.05   0
  -4   9   7  380.19   21.43   0
  -4   9   7  373.18   21.48   0
   3  -9  -7  992.17   42.76   0
   3  -9  -7 1024.90   42.89   0
   3  -9  -7 1048.36   43.48   0
   3  -9  -7 1026.70   46.61   0
  -3   9   7 1062.88   44.52   0
  -3   9   7  926.90   43.77   0
   2  -9  -7   94.09    8.79   0
   2  -9  -7   95.77   12.31   0
   2  -9  -7   95.33    7.98   0
   2  -9  -7   97.83    8.62   0
  -2   9   7   83.52    9.35   0
  -2   9   7   97.13   10.10   0
   1  -9  -7    3.61    5.56   0
   1  -9  -7   14.57    3.62   0
   1  -9  -7   13.19    3.99   0
   1  -9  -7   11.63    4.32   0
  -1   9   7   13.07    3.94   0
  -1   9   7    8.40    3.96   0
   0  -9  -7  460.66   22.30   0
   0  -9  -7  456.98   22.26   0
   0  -9  -7  457.38   21.82   0
   0  -9  -7  472.70   24.81   0
   0   9   7  507.75   23.28   0
   0   9   7  461.69   22.26   0
  -1  -9  -7  811.50   33.82   0
  -1  -9  -7  772.58   33.49   0
  -1  -9  -7  781.80   33.18   0
  -1  -9  -7  763.38   35.00   0
   1   9   7  807.09   34.41   0
   1   9   7  649.88   32.68   0
  -2  -9  -7  124.44   10.82   0
  -2  -9  -7  104.01    8.45   0
  -2  -9  -7  110.59    9.37   0
   2   9   7  117.55    9.08   0
   2   9   7  126.17   10.45   0
  -3  -9  -7    7.91    3.75   0
  -3  -9  -7    4.28    3.34   0
  -3  -9  -7   -2.81    2.43   0
   3   9   7   -0.83    4.06   0
   3   9   7    4.58    3.24   0
  -4  -9  -7   44.61    6.25   0
  -4  -9  -7   24.90    4.79   0
  -4  -9  -7   33.13    5.94   0
   4   9   7   26.45    5.40   0
  -5  -9  -7   88.96    9.91   0
  -5  -9  -7   82.18    8.20   0
  -5  -9  -7   76.21   10.15   0
   5   9   7   81.71    8.76   0
   5   9   7   77.85   10.41   0
  -6  -9  -7  413.48   20.97   0
  -6  -9  -7  448.59   22.89   0
  -6  -9  -7  411.22   23.45   0
   6   9   7  437.63   21.25   0
   6   9   7  405.62   22.25   0
  -7  -9  -7    1.23    7.15   0
  -7  -9  -7    4.77    4.67   0
  -7  -9  -7    9.29    6.34   0
   7   9   7   10.71    6.28   0
   7   9   7   -0.90    4.98   0
   4 -10  -7  699.43   31.44   0
   4 -10  -7  698.83   36.76   0
   4 -10  -7  688.22   31.85   0
   4 -10  -7  657.23   32.06   0
  -4  10   7  749.98   34.10   0
  -4  10   7  640.68   33.04   0
   3 -10  -7  935.98   40.21   0
   3 -10  -7  908.56   39.91   0
   3 -10  -7  895.73   39.45   0
   3 -10  -7  931.12   43.90   0
  -3  10   7  896.79   40.87   0
  -3  10   7  899.82   40.85   0
   2 -10  -7  630.51   31.13   0
   2 -10  -7  623.45   30.39   0
   2 -10  -7  643.89   31.00   0
   2 -10  -7  778.36   35.97   0
  -2  10   7  759.46   32.31   0
   1 -10  -7  690.11   35.27   0
   1 -10  -7  703.05   31.66   0
   1 -10  -7  695.95   32.00   0
   1 -10  -7  690.16   32.35   0
  -1  10   7  746.04   32.85   0
  -1  10   7  736.82   32.57   0
   0 -10  -7  619.72   28.80   0
   0 -10  -7  651.90   32.17   0
   0 -10  -7  612.75   29.54   0
   0 -10  -7  652.52   29.55   0
   0  10   7  627.18   29.24   0
   0  10   7  674.04   30.17   0
  -1 -10  -7   30.84    6.75   0
  -1 -10  -7   20.82    4.08   0
  -1 -10  -7   32.60    5.70   0
  -1 -10  -7   37.48    6.05   0
   1  10   7   27.41    6.19   0
   1  10   7   24.06    4.89   0
  -2 -10  -7 1196.63   49.42   0
  -2 -10  -7 1135.95   50.06   0
  -2 -10  -7 1103.77   48.19   0
   2  10   7 1184.82   48.42   0
   2  10   7 1142.10   49.21   0
  -3 -10  -7   14.70    4.32   0
  -3 -10  -7    8.51    4.09   0
  -3 -10  -7   12.74    5.13   0
   3  10   7   13.82    4.52   0
   3  10   7   29.04    6.21   0
  -4 -10  -7    1.24    3.32   0
  -4 -10  -7    7.41    4.49   0
   4  10   7    6.33    3.98   0
   4  10   7   -5.35    4.66   0
  -5 -10  -7   34.96    5.76   0
  -5 -10  -7   53.23    8.40   0
  -5 -10  -7   56.02   10.14   0
   5  10   7   64.40    8.50   0
   5  10   7   49.30    7.71   0
  -6 -10  -7    3.51    4.66   0
  -6 -10  -7   -4.16    5.74   0
  -6 -10  -7    8.67    6.88   0
   6  10   7   11.57    5.79   0
   6  10   7   14.56    5.01   0
   3 -11  -7  100.04   12.03   0
   3 -11  -7   54.73   10.90   0
   3 -11  -7   85.20   11.11   0
   3 -11  -7   67.73    9.67   0
  -3  11   7   67.60   11.94   0
   2 -11  -7  931.89   44.01   0
   2 -11  -7  907.67   40.24   0
   2 -11  -7  893.45   39.79   0
   2 -11  -7  871.26   39.07   0
  -2  11   7  888.57   40.21   0
  -2  11   7  861.58   40.08   0
   1 -11  -7   29.09    8.72   0
   1 -11  -7   21.22    6.60   0
   1 -11  -7   24.35    5.04   0
   1 -11  -7   32.98    5.96   0
  -1  11   7   26.78    6.41   0
   0 -11  -7  387.90   21.43   0
   0 -11  -7  360.34   19.77   0
   0 -11  -7  397.57   20.65   0
   0  11   7  384.90   20.60   0
   0  11   7  408.22   21.52   0
  -1 -11  -7  347.81   19.44   0
  -1 -11  -7  346.54   18.93   0
  -1 -11  -7  311.25   17.55   0
   1  11   7  323.21   18.19   0
  -3 -11  -7  987.43   43.63   0
  -3 -11  -7  932.47   42.22   0
  -3 -11  -7  971.21   44.27   0
   3  11   7 1000.90   43.52   0
   3  11   7  992.17   42.05   0
  -4 -11  -7  119.30   13.61   0
  -4 -11  -7  105.74   10.17   0
  -4 -11  -7  117.99   12.34   0
   4  11   7   89.98   12.15   0
   4  11   7  111.81   10.63   0
  -5 -11  -7  103.22   10.79   0
  -5 -11  -7   99.63   13.57   0
   5  11   7   78.88   12.74   0
   5  11   7   95.13   10.67   0
   2 -12  -7   25.47    7.97   0
   2 -12  -7   17.72    5.54   0
   2 -12  -7   16.92    9.55   0
  -2  12   7   21.68    6.70   0
  -2  12   7   20.38    7.59   0
   1 -12  -7  754.32   35.76   0
   1 -12  -7  702.11   34.72   0
   1 -12  -7  749.05   36.54   0
   1 -12  -7  819.86   40.38   0
  -1  12   7  728.89   35.58   0
  -1  12   7  878.28   37.04   0
   0 -12  -7   19.39    5.76   0
   0 -12  -7   18.53    9.26   0
   0 -12  -7   18.37    5.04   0
   0  12   7   29.97    6.59   0
   0  12   7   34.90    7.81   0
  -1 -12  -7  141.98   17.99   0
  -1 -12  -7  115.02   11.30   0
  -1 -12  -7  141.87   13.18   0
   1  12   7  145.16   14.58   0
  -2 -12  -7  208.58   16.43   0
  -2 -12  -7  174.72   18.81   0
  -2 -12  -7  198.65   13.95   0
  -2 -12  -7  195.32   15.69   0
   2  12   7  205.12   16.19   0
   2  12   7  201.62   14.35   0
  -3 -12  -7  129.74   14.19   0
  -3 -12  -7  128.05   15.54   0
  -3 -12  -7  132.43   14.74   0
  -3 -12  -7  124.97   12.18   0
   3  12   7  126.23   14.06   0
   3  12   7  144.76   12.37   0
  -4 -12  -7  257.24   19.55   0
  -4 -12  -7  281.08   17.69   0
  -4 -12  -7  285.75   21.26   0
   4  12   7  299.12   17.10   0
   4  12   7  278.36   18.47   0
  -1 -13  -7  164.80   22.55   0
  -1 -13  -7  165.54   17.43   0
   1  13   7  160.13   14.65   0
   1  13   7  182.68   16.95   0
   1  -7   8   66.98    9.61   0
   1  -7   8   87.84    9.58   0
   1  -7   8   95.79   12.72   0
   1  -7   8   84.67   13.22   0
  -2  -6   8   80.89    6.19   0
  -2  -6   8   70.81    5.75   0
  -1  -6   8    7.33    5.18   0
  -1  -6   8    8.26    5.47   0
  -1  -6   8    7.94    3.32   0
  -1  -6   8    8.06    3.16   0
   0  -6   8  261.14   14.23   0
   0  -6   8  284.83   14.09   0
   0  -6   8  301.00   17.43   0
   1  -6   8  490.70   22.91   0
   1  -6   8  465.62   22.49   0
   1  -6   8  538.35   25.48   0
  -2   6  -8  145.76   13.69   0
   2  -6   8  151.72   10.58   0
   2  -6   8  137.62   12.48   0
   2  -6   8  138.95   10.80   0
   2  -6   8  162.54   13.74   0
  -3   6  -8   -8.31    6.54   0
   3  -6   8   -3.07    4.71   0
   3  -6   8    1.77    5.72   0
   3  -6   8    1.89    4.12   0
   3  -6   8    7.47    4.68   0
  -4   6  -8  299.38   24.14   0
   4  -6   8  334.39   21.34   0
   4  -6   8  330.53   19.42   0
   4  -6   8  342.41   19.02   0
   4  -6   8  339.42   20.21   0
  -3  -5   8  741.94   33.28   0
  -3  -5   8  754.97   33.78   0
  -2  -5   8   68.58    9.56   0
  -2  -5   8   59.50    8.97   0
  -1  -5   8  280.42   16.13   0
  -1  -5   8  271.99   12.82   0
  -1  -5   8  271.10   12.72   0
  -1  -5   8  309.76   16.47   0
   0  -5   8  141.98   11.49   0
   0  -5   8  135.80    8.43   0
   0  -5   8  136.99   10.91   0
   0  -5   8  150.05    8.44   0
   1  -5   8   -0.08    2.80   0
   1  -5   8   11.83    4.84   0
   1  -5   8   -0.16    2.81   0
  -2   5  -8 1498.24   62.94   0
   2  -5   8 1435.31   60.55   0
   2  -5   8 1553.76   62.36   0
   2  -5   8 1465.69   60.51   0
   2  -5   8 1524.40   62.31   0
  -3   5  -8   33.61    6.89   0
   3  -5   8   36.02    5.78   0
   3  -5   8   37.98    6.98   0
  -4   5  -8   90.49   12.70   0
  -4   5  -8   85.65    5.94   0
  -4   5  -8   78.97    6.44   0
   4  -5   8   82.58   11.38   0
   4  -5   8   96.86   10.13   0
   4  -5   8   90.81    9.41   0
   4  -5   8  100.79   10.30   0
  -5   5  -8  127.63   10.76   0
  -5   5  -8  134.22    9.26   0
  -5   5  -8  149.46   15.72   0
   5  -5   8  116.50   13.84   0
   5  -5   8  131.14   12.87   0
   5  -5   8  148.82   12.55   0
   5  -5   8  142.13   12.19   0
  -4  -4   8  145.68   11.65   0
  -4  -4   8  133.15   10.18   0
  -3  -4   8   40.92    5.47   0
  -3  -4   8   38.55    6.01   0
  -2  -4   8 1329.31   55.08   0
  -2  -4   8 1363.43   55.34   0
  -1  -4   8  117.73    9.27   0
  -1  -4   8  118.08    6.45   0
  -1  -4   8  116.86    6.49   0
  -1  -4   8  117.03    9.56   0
   0  -4   8  875.21   38.32   0
   0  -4   8  912.25   36.06   0
   0  -4   8  896.65   38.05   0
   0  -4   8  876.11   35.99   0
  -1   4  -8  142.22   10.93   0
   1  -4   8  121.95    9.98   0
   1  -4   8  134.61    8.32   0
   1  -4   8  146.82   10.20   0
   1  -4   8  145.88    8.49   0
  -2   4  -8  642.35   29.48   0
   2  -4   8  607.35   27.26   0
   2  -4   8  610.73   28.45   0
   2  -4   8  625.54   27.32   0
   2  -4   8  642.23   28.67   0
  -3   4  -8 1580.27   62.48   0
   3  -4   8 1431.66   60.09   0
   3  -4   8 1444.47   60.95   0
   3  -4   8 1479.61   61.21   0
   3  -4   8 1447.41   60.25   0
  -4   4  -8 1086.78   47.87   0
  -4   4  -8 1034.35   43.60   0
  -4   4  -8  986.62   43.97   0
   4  -4   8 1098.25   46.18   0
   4  -4   8 1146.04   46.81   0
   4  -4   8 1083.83   46.24   0
   4  -4   8 1160.60   47.35   0
  -5   4  -8  143.30   14.06   0
  -5   4  -8  128.95   10.68   0
  -5   4  -8  143.82    9.46   0
   5  -4   8  145.74   11.58   0
   5  -4   8  143.77   11.30   0
   5  -4   8  138.34   12.56   0
  -6   4  -8   46.94    7.62   0
  -6   4  -8   19.59    8.54   0
  -6   4  -8   53.43    7.81   0
   6  -4   8   46.14    7.62   0
   6  -4   8   41.97    7.33   0
   6  -4   8   37.82    6.92   0
   6  -4   8   31.54    6.71   0
  -5  -3   8   55.35    6.34   0
  -5  -3   8   45.75    6.18   0
  -5  -3   8   58.84    8.81   0
  -5  -3   8   60.65    6.61   0
  -4  -3   8  499.39   22.44   0
  -4  -3   8  475.45   21.74   0
  -3  -3   8   42.54    5.41   0
  -3  -3   8   31.28    4.69   0
  -2  -3   8  130.28    9.27   0
  -2  -3   8  155.42    9.68   0
  -1  -3   8 1821.29   73.47   0
  -1  -3   8 1878.25   74.17   0
  -1  -3   8 1853.64   71.66   0
  -1  -3   8 1856.71   71.67   0
   0  -3   8 1359.28   54.38   0
   0  -3   8 1351.68   56.39   0
   0  -3   8 1419.11   54.47   0
   0  -3   8 1395.09   55.90   0
  -1   3  -8 1290.71   52.14   0
   1  -3   8 1216.80   51.17   0
   1  -3   8 1284.54   50.34   0
   1  -3   8 1208.74   50.11   0
   1  -3   8 1269.65   51.80   0
  -2   3  -8   87.63    8.47   0
   2  -3   8   88.48    7.82   0
   2  -3   8   98.35    7.09   0
   2  -3   8   82.73    7.75   0
   2  -3   8   93.65    6.91   0
  -3   3  -8 1235.60   50.92   0
  -3   3  -8 1332.99   54.84   0
  -3   3  -8 1256.37   51.14   0
   3  -3   8 1275.85   53.26   0
   3  -3   8 1371.40   54.15   0
   3  -3   8 1339.42   53.50   0
   3  -3   8 1314.09   53.97   0
  -4   3  -8  829.74   35.32   0
  -4   3  -8  851.08   37.89   0
  -4   3  -8  790.05   34.57   0
   4  -3   8  851.93   37.04   0
   4  -3   8  829.27   36.45   0
   4  -3   8  870.25   36.75   0
   4  -3   8  848.95   36.58   0
  -5   3  -8 2433.95   98.31   0
  -5   3  -8 2313.64   95.32   0
  -5   3  -8 2404.13   96.40   0
   5  -3   8 2369.67   97.06   0
   5  -3   8 2524.96   97.84   0
   5  -3   8 2381.94   97.08   0
   5  -3   8 2496.96   96.88   0
  -6   3  -8  106.14   12.77   0
  -6   3  -8   93.39   11.40   0
  -6   3  -8   87.23    8.99   0
   6  -3   8  101.41    9.62   0
   6  -3   8  106.36   11.57   0
   6  -3   8  103.91   10.58   0
   6  -3   8  103.30   11.11   0
  -7   3  -8   34.91    8.16   0
  -7   3  -8   35.21    6.35   0
   7  -3   8   28.54    7.71   0
   7  -3   8   20.26    6.72   0
   7  -3   8   27.30    5.88   0
  -5  -2   8  254.66   12.14   0
  -5  -2   8  273.42   13.34   0
  -5  -2   8  258.77   13.58   0
  -5  -2   8  259.05   12.91   0
  -4  -2   8  354.74   15.45   0
  -4  -2   8  342.63   16.31   0
  -4  -2   8  359.27   16.53   0
  -4  -2   8  360.18   15.35   0
  -3  -2   8   72.34    6.22   0
  -3  -2   8   73.75    4.49   0
  -3  -2   8   69.90    6.43   0
  -3  -2   8   76.80    4.83   0
  -2  -2   8   -0.09    2.35   0
  -2  -2   8    1.64    2.41   0
  -2  -2   8    2.58    1.33   0
  -1  -2   8  430.92   17.81   0
  -1  -2   8  427.77   19.89   0
  -1  -2   8  422.57   19.09   0
  -1  -2   8  449.12   17.93   0
   0  -2   8 1859.68   74.46   0
   0  -2   8 1900.45   73.58   0
   0  -2   8 1918.20   73.63   0
   0  -2   8 1879.27   75.26   0
  -1   2  -8 3099.25  117.83   0
   1  -2   8 3032.08  117.48   0
   1  -2   8 3000.76  116.82   0
   1  -2   8 2978.15  116.23   0
   1  -2   8 2880.60  116.07   0
  -2   2  -8  631.32   28.03   0
   2  -2   8  649.99   27.69   0
   2  -2   8  644.48   26.97   0
   2  -2   8  625.24   27.24   0
   2  -2   8  576.13   26.52   0
  -3   2  -8  134.23    9.58   0
  -3   2  -8  118.14    7.35   0
  -3   2  -8  119.19    6.88   0
   3  -2   8  127.76    8.42   0
   3  -2   8  123.29    8.56   0
   3  -2   8  127.26    8.85   0
   3  -2   8  122.58    8.40   0
  -4   2  -8 1059.02   46.14   0
  -4   2  -8 1120.41   44.78   0
  -4   2  -8 1069.61   44.00   0
   4  -2   8 1087.43   45.25   0
   4  -2   8 1044.89   45.27   0
   4  -2   8 1122.76   45.73   0
   4  -2   8 1053.09   45.22   0
  -5   2  -8    4.14    3.67   0
  -5   2  -8    2.05    2.95   0
  -5   2  -8   11.30    5.25   0
   5  -2   8    5.30    3.68   0
   5  -2   8    6.62    3.98   0
   5  -2   8    5.78    3.87   0
   5  -2   8    2.24    2.83   0
  -6   2  -8 1524.98   64.18   0
  -6   2  -8 1585.39   65.53   0
  -6   2  -8 1546.07   66.35   0
   6  -2   8 1609.97   65.73   0
   6  -2   8 1569.43   65.68   0
   6  -2   8 1616.55   64.64   0
   6  -2   8 1563.96   65.81   0
  -7   2  -8    3.80    4.42   0
  -7   2  -8  -10.61    6.59   0
  -7   2  -8    2.07    5.87   0
   7  -2   8   -3.75    4.43   0
   7  -2   8    0.67    5.08   0
   7  -2   8    3.25    3.91   0
  -6  -1   8  222.95   13.30   0
  -6  -1   8  213.61   11.74   0
  -6  -1   8  211.74   13.66   0
  -5  -1   8    8.55    2.39   0
  -5  -1   8   10.39    3.58   0
  -5  -1   8    7.47    3.37   0
  -5  -1   8    4.63    3.06   0
  -4  -1   8  418.80   17.91   0
  -4  -1   8  415.00   17.65   0
  -4  -1   8  394.37   17.93   0
  -4  -1   8  405.28   17.76   0
  -3  -1   8  556.68   22.91   0
  -3  -1   8  532.97   23.97   0
  -3  -1   8  574.32   23.22   0
  -3  -1   8  579.78   23.08   0
  -2  -1   8    5.64    1.89   0
  -2  -1   8    5.74    2.24   0
  -2  -1   8    8.18    2.65   0
  -1  -1   8  241.25   12.48   0
  -1  -1   8  258.47   11.09   0
  -1  -1   8  240.50   10.94   0
  -1  -1   8  253.27   11.55   0
   0   1  -8  389.99   17.60   0
   0  -1   8  383.78   17.82   0
   0  -1   8  373.41   16.85   0
   0  -1   8  385.41   16.54   0
   0  -1   8  395.72   16.60   0
  -1   1  -8   64.28    5.75   0
   1  -1   8   50.26    5.36   0
   1  -1   8   51.29    4.84   0
   1  -1   8   61.00    4.62   0
  -2   1  -8 2193.70   84.56   0
  -2   1  -8 2297.90   87.18   0
   2  -1   8 2210.93   86.37   0
   2  -1   8 2140.96   86.74   0
   2  -1   8 2214.63   86.36   0
   2  -1   8 2111.35   86.05   0
  -3   1  -8  175.54    9.31   0
  -3   1  -8  181.74   11.02   0
  -3   1  -8  172.58    9.71   0
   3  -1   8  180.55   10.41   0
   3  -1   8  173.23   10.25   0
   3  -1   8  189.44   10.62   0
   3  -1   8  182.47   10.49   0
  -4   1  -8  562.40   24.66   0
  -4   1  -8  554.00   25.19   0
  -4   1  -8  566.38   26.22   0
   4  -1   8  567.92   25.69   0
   4  -1   8  575.82   25.88   0
   4  -1   8  552.29   25.49   0
   4  -1   8  583.58   25.45   0
  -5   1  -8  643.37   28.21   0
  -5   1  -8  600.45   27.09   0
  -5   1  -8  611.36   28.62   0
   5  -1   8  605.10   27.95   0
   5  -1   8  601.07   28.08   0
   5  -1   8  616.99   27.42   0
   5  -1   8  612.08   28.22   0
  -6   1  -8  366.62   19.85   0
  -6   1  -8  353.80   18.57   0
  -6   1  -8  384.85   20.62   0
   6  -1   8  360.48   19.75   0
   6  -1   8  374.45   19.74   0
   6  -1   8  371.87   18.50   0
  -7   1  -8  745.77   34.70   0
  -7   1  -8  690.67   34.30   0
  -7   1  -8  744.50   33.05   0
   7  -1   8  697.02   33.74   0
   7  -1   8  733.86   32.35   0
   7  -1   8  719.27   34.12   0
  -8   1  -8   68.14   11.00   0
   8  -1   8   95.43   12.28   0
   8  -1   8   91.03    9.71   0
  -6   0   8   23.00    5.32   0
  -6   0   8   27.54    3.51   0
  -6   0   8   27.29    5.63   0
  -6   0   8   22.12    3.55   0
  -5   0   8  499.25   22.81   0
  -5   0   8  500.10   22.78   0
  -5   0   8  512.85   20.84   0
  -5   0   8  528.07   20.90   0
  -4   0   8   -2.63    2.53   0
  -4   0   8    0.40    2.35   0
  -4   0   8   -0.36    1.96   0
  -4   0   8    0.50    1.59   0
  -4   0   8    1.74    1.77   0
  -3   0   8  115.95    6.89   0
  -3   0   8  114.32    5.63   0
  -3   0   8  108.58    6.62   0
  -3   0   8  116.16    7.09   0
  -2   0   8 1726.84   70.05   0
  -2   0   8 1807.35   69.18   0
  -2   0   8 1708.89   68.98   0
  -2   0   8 1861.73   68.59   0
   1   0  -8 1164.76   47.14   0
  -1   0   8 1149.61   45.52   0
  -1   0   8 1172.88   45.22   0
  -1   0   8 1121.11   45.46   0
  -1   0   8 1164.34   46.71   0
   0   0  -8 1047.19   42.56   0
   0   0  -8  995.85   41.26   0
   0   0   8 1026.34   41.02   0
   0   0   8 1063.12   41.12   0
   0   0   8 1021.72   40.79   0
   0   0   8 1018.52   42.03   0
  -1   0  -8    8.80    2.31   0
  -1   0  -8    3.59    2.22   0
   1   0   8    0.75    1.51   0
   1   0   8    0.74    1.51   0
   1   0   8    4.49    1.75   0
  -2   0  -8  615.19   25.32   0
  -2   0  -8  620.80   27.19   0
  -2   0  -8  612.95   26.61   0
   2   0   8  636.88   26.49   0
   2   0   8  609.28   26.18   0
   2   0   8  609.65   26.61   0
   2   0   8  608.71   26.09   0
  -3   0  -8  229.41   12.40   0
  -3   0  -8  254.32   13.32   0
  -3   0  -8  244.88   12.25   0
  -3   0  -8  266.38   13.65   0
   3   0   8  256.49   13.20   0
   3   0   8  253.69   13.03   0
   3   0   8  251.72   12.98   0
   3   0   8  271.09   13.10   0
  -4   0  -8  864.89   36.80   0
  -4   0  -8  876.23   37.36   0
  -4   0  -8  916.14   37.99   0
   4   0   8  867.44   37.47   0
   4   0   8  884.40   37.47   0
   4   0   8  898.29   37.25   0
  -5   0  -8  115.67    9.16   0
  -5   0  -8  123.76    9.46   0
  -5   0  -8  116.73    8.52   0
   5   0   8  120.02    8.32   0
   5   0   8  115.41    9.07   0
   5   0   8  120.05    9.40   0
  -6   0  -8  494.69   24.25   0
  -6   0  -8  476.98   23.03   0
  -6   0  -8  479.07   24.32   0
   6   0   8  498.48   22.84   0
   6   0   8  498.08   23.97   0
  -7   0  -8  533.76   27.16   0
  -7   0  -8  602.64   26.38   0
  -7   0  -8  518.18   27.22   0
   7   0   8  516.56   24.79   0
   7   0   8  527.93   26.84   0
   7   0   8  538.71   26.55   0
  -8   0  -8  245.30   19.34   0
  -8   0  -8  243.64   22.18   0
  -8   0  -8  246.81   16.60   0
   8   0   8  256.81   17.77   0
   8   0   8  266.20   15.06   0
   8   0   8  243.22   19.09   0
  -6   1   8  765.15   32.69   0
  -6   1   8  691.14   32.41   0
  -5   1   8  477.89   21.98   0
  -5   1   8  469.93   21.97   0
  -4   1   8 1013.78   40.30   0
  -4   1   8 1051.14   41.40   0
  -4   1   8  958.37   41.11   0
   3  -1  -8  449.42   19.41   0
  -3   1   8  427.79   18.94   0
  -3   1   8  433.10   19.13   0
  -3   1   8  437.73   19.06   0
   2  -1  -8 2817.12  106.75   0
  -2   1   8 2638.25  106.17   0
  -2   1   8 2621.64  105.63   0
  -2   1   8 2854.93  105.91   0
   1  -1  -8  598.85   25.50   0
  -1   1   8  593.40   23.17   0
  -1   1   8  579.61   25.04   0
  -1   1   8  581.29   24.28   0
   0  -1  -8 3632.37  142.14   0
   0  -1  -8 3789.36  143.74   0
   0   1   8 3832.07  141.81   0
   0   1   8 3668.01  142.53   0
   0   1   8 3583.88  143.12   0
   0   1   8 3693.13  142.60   0
  -1  -1  -8   65.09    4.05   0
  -1  -1  -8   72.87    5.00   0
  -1  -1  -8   66.98    5.70   0
  -1  -1  -8   62.13    4.36   0
   1   1   8   62.44    4.94   0
   1   1   8   65.66    5.26   0
   1   1   8   69.80    4.66   0
  -2  -1  -8   87.94    5.74   0
  -2  -1  -8   93.55    6.78   0
   2   1   8   85.42    5.83   0
   2   1   8   87.05    6.31   0
   2   1   8   86.40    6.18   0
   2   1   8  107.52    6.69   0
  -3  -1  -8 1083.28   43.23   0
  -3  -1  -8 1052.38   43.45   0
  -3  -1  -8 1072.92   43.95   0
  -3  -1  -8 1028.40   42.84   0
   3   1   8 1018.96   43.26   0
   3   1   8 1029.08   43.32   0
   3   1   8 1106.94   43.85   0
  -4  -1  -8   33.79    4.98   0
  -4  -1  -8   27.71    4.88   0
  -4  -1  -8   24.96    4.61   0
  -4  -1  -8   37.41    5.23   0
   4   1   8   26.79    3.98   0
   4   1   8   30.09    4.54   0
   4   1   8   26.91    4.97   0
  -5  -1  -8  577.71   25.82   0
  -5  -1  -8  573.17   26.08   0
  -5  -1  -8  548.67   25.20   0
   5   1   8  557.74   24.98   0
   5   1   8  551.51   25.82   0
   5   1   8  567.62   26.31   0
  -6  -1  -8    1.66    3.54   0
  -6  -1  -8    6.63    3.66   0
  -6  -1  -8    2.15    3.86   0
   6   1   8   -4.22    2.97   0
   6   1   8    3.21    2.60   0
   6   1   8    1.31    2.97   0
  -7  -1  -8   34.28    6.63   0
  -7  -1  -8   40.66    7.18   0
   7   1   8   52.45    8.72   0
   7   1   8   45.91    6.47   0
   7   1   8   52.62    8.69   0
  -8  -1  -8  412.98   23.01   0
  -8  -1  -8  380.26   21.03   0
  -8  -1  -8  383.01   23.23   0
   8   1   8  395.08   19.50   0
   8   1   8  372.96   21.90   0
   8   1   8  366.87   21.82   0
  -6   2   8  293.36   17.28   0
  -6   2   8  304.33   17.36   0
  -5   2   8  570.78   25.20   0
  -5   2   8  522.98   25.07   0
   4  -2  -8 1243.53   49.39   0
  -4   2   8 1189.38   50.26   0
  -4   2   8 1278.50   50.42   0
   3  -2  -8  264.17   12.83   0
  -3   2   8  253.21   12.44   0
  -3   2   8  288.19   13.24   0
  -3   2   8  250.80   12.85   0
   2  -2  -8  399.22   17.85   0
  -2   2   8  394.38   17.31   0
  -2   2   8  400.43   17.52   0
  -2   2   8  372.97   17.33   0
   1  -2  -8 2621.44   98.73   0
  -1   2   8 2411.35   97.77   0
  -1   2   8 2528.19   98.28   0
   0  -2  -8   10.91    1.70   0
   0  -2  -8   14.34    2.35   0
   0  -2  -8   11.37    2.84   0
   0   2   8   11.87    2.29   0
  -1  -2  -8 4329.82  161.03   0
  -1  -2  -8 4286.79  161.09   0
  -1  -2  -8 4019.01  161.22   0
  -1  -2  -8 4175.52  162.31   0
   1   2   8 4222.82  161.93   0
   1   2   8 4156.92  161.78   0
   1   2   8 4148.76  161.62   0
  -2  -2  -8  542.12   22.41   0
  -2  -2  -8  499.56   23.07   0
  -2  -2  -8  505.24   22.34   0
  -2  -2  -8  537.20   22.53   0
   2   2   8  510.01   22.69   0
   2   2   8  519.92   22.72   0
   2   2   8  537.05   23.02   0
  -3  -2  -8 1142.17   45.82   0
  -3  -2  -8 1162.44   45.72   0
  -3  -2  -8 1102.21   46.07   0
  -3  -2  -8 1063.07   45.37   0
   3   2   8 1097.27   45.75   0
   3   2   8 1135.78   46.21   0
   3   2   8 1127.91   45.62   0
  -4  -2  -8  982.00   42.41   0
  -4  -2  -8 1049.38   43.04   0
  -4  -2  -8 1046.75   42.94   0
  -4  -2  -8 1036.12   43.10   0
   4   2   8 1063.99   43.47   0
   4   2   8 1012.67   42.88   0
   4   2   8 1018.51   42.37   0
  -5  -2  -8  824.87   35.36   0
  -5  -2  -8  874.77   36.13   0
  -5  -2  -8  864.35   36.38   0
   5   2   8  855.97   36.47   0
   5   2   8  678.01   35.12   0
   5   2   8  869.31   35.07   0
  -6  -2  -8  206.07   12.52   0
  -6  -2  -8  232.30   13.54   0
  -6  -2  -8  192.35   12.12   0
  -6  -2  -8  203.69   13.29   0
   6   2   8  183.37   13.02   0
   6   2   8  204.54   11.66   0
   6   2   8  205.60   12.99   0
  -7  -2  -8  326.61   18.66   0
  -7  -2  -8  301.20   18.84   0
  -7  -2  -8  389.65   18.76   0
   7   2   8  313.98   18.67   0
   7   2   8  313.11   16.57   0
  -8  -2  -8    3.17    5.12   0
  -8  -2  -8    6.50    5.75   0
  -8  -2  -8    2.60    6.55   0
   8   2   8   -0.58    4.71   0
   8   2   8    1.73    5.38   0
  -6   3   8    1.31    5.29   0
  -6   3   8   -0.16    5.04   0
   5  -3  -8  265.80   12.60   0
  -5   3   8  281.48   15.42   0
  -5   3   8  266.70   15.41   0
  -4   3   8  151.83    9.79   0
  -4   3   8  121.00    9.26   0
   3  -3  -8 2985.66  117.66   0
  -3   3   8 2981.43  118.12   0
  -3   3   8 3203.93  118.35   0
  -3   3   8 2949.27  117.35   0
   2  -3  -8   17.75    2.85   0
   2  -3  -8   14.85    2.30   0
   2  -3  -8   18.54    3.08   0
  -2   3   8   25.22    4.34   0
  -2   3   8   19.47    3.21   0
  -2   3   8   17.43    2.99   0
   1  -3  -8  878.93   35.80   0
   1  -3  -8  862.96   34.50   0
   1  -3  -8  883.15   34.86   0
  -1   3   8  839.15   35.43   0
  -1   3   8  872.66   35.71   0
  -1   3   8  856.28   35.39   0
   0  -3  -8 1305.38   49.24   0
   0  -3  -8 1229.91   50.77   0
   0  -3  -8 1306.99   51.36   0
   0  -3  -8 1274.39   50.33   0
   0   3   8 1316.41   51.15   0
   0   3   8 1194.75   50.66   0
   0   3   8 1275.46   50.99   0
  -1  -3  -8 2430.78   93.78   0
  -1  -3  -8 2442.24   95.24   0
  -1  -3  -8 2281.58   94.72   0
  -1  -3  -8 2507.74   94.60   0
   1   3   8 2409.76   94.88   0
   1   3   8 2370.15   94.78   0
   1   3   8 2538.81   95.20   0
  -2  -3  -8 2076.30   80.00   0
  -2  -3  -8 2023.58   78.95   0
  -2  -3  -8 2049.67   79.60   0
   2   3   8 2035.63   79.93   0
   2   3   8 1936.44   79.47   0
   2   3   8 1983.27   79.45   0
  -3  -3  -8 2919.55  111.77   0
  -3  -3  -8 2754.97  111.28   0
  -3  -3  -8 2856.93  111.67   0
  -3  -3  -8 2904.28  111.27   0
   3   3   8 2831.24  111.91   0
   3   3   8 2820.41  111.54   0
   3   3   8 2860.80  111.28   0
  -4  -3  -8  534.33   24.86   0
  -4  -3  -8  554.52   25.51   0
  -4  -3  -8  563.95   25.17   0
  -4  -3  -8  604.74   25.38   0
   4   3   8  565.10   25.30   0
   4   3   8  565.91   25.81   0
   4   3   8  556.26   24.64   0
  -5  -3  -8  236.18   13.25   0
  -5  -3  -8  244.94   14.09   0
  -5  -3  -8  247.48   13.71   0
  -5  -3  -8  255.51   13.33   0
   5   3   8  248.05   12.78   0
   5   3   8  213.52   13.18   0
   5   3   8  246.37   14.13   0
  -6  -3  -8 1718.54   72.22   0
  -6  -3  -8 1837.75   73.67   0
  -6  -3  -8 1836.51   72.27   0
  -6  -3  -8 1787.23   73.12   0
   6   3   8 1788.15   71.47   0
   6   3   8 1779.04   72.74   0
   6   3   8 1752.38   73.36   0
  -7  -3  -8   63.95   10.53   0
  -7  -3  -8   70.74    9.31   0
  -7  -3  -8   64.57    7.92   0
   7   3   8   61.39    6.97   0
  -8  -3  -8  422.43   22.73   0
  -8  -3  -8  418.69   23.64   0
  -8  -3  -8  417.86   24.30   0
   8   3   8  434.09   20.49   0
   8   3   8  430.01   23.02   0
   8   3   8  402.32   23.33   0
   6  -4  -8   98.44    6.34   0
  -6   4   8  109.38   12.07   0
   5  -4  -8   76.28    5.89   0
   5  -4  -8   78.78    5.32   0
  -5   4   8   79.27    9.44   0
  -5   4   8   81.37    9.31   0
   4  -4  -8   61.16    4.90   0
   4  -4  -8   71.42    5.83   0
   4  -4  -8   70.71    5.73   0
  -4   4   8   64.78    7.34   0
  -4   4   8   74.19    7.91   0
   3  -4  -8  969.29   38.80   0
   3  -4  -8  940.68   38.22   0
   3  -4  -8  950.81   38.98   0
  -3   4   8  926.43   39.70   0
  -3   4   8  972.37   39.83   0
   2  -4  -8 2613.28  101.12   0
   2  -4  -8 2581.23  101.22   0
   2  -4  -8 2587.86  100.53   0
  -2   4   8 2495.16  101.35   0
  -2   4   8 2508.88  100.93   0
  -2   4   8 2759.93  101.79   0
   1  -4  -8 1638.23   61.27   0
   1  -4  -8 1569.41   61.79   0
   1  -4  -8 1421.34   61.65   0
  -1   4   8 1498.14   61.57   0
  -1   4   8 1633.89   62.09   0
  -1   4   8 1529.16   61.51   0
   0  -4  -8  421.22   16.57   0
   0  -4  -8  377.88   18.79   0
   0  -4  -8  417.37   18.65   0
   0  -4  -8  441.06   18.32   0
   0   4   8  400.30   18.29   0
   0   4   8  416.35   18.76   0
   0   4   8  393.73   18.32   0
  -1  -4  -8  356.55   15.98   0
  -1  -4  -8  336.52   14.81   0
  -1  -4  -8  352.90   16.26   0
  -1  -4  -8  319.98   16.19   0
   1   4   8  333.62   15.81   0
   1   4   8  332.02   15.86   0
   1   4   8  373.29   16.59   0
  -2  -4  -8 3041.81  118.41   0
  -2  -4  -8 3141.81  118.44   0
  -2  -4  -8 3042.50  117.51   0
   2   4   8 3013.76  118.01   0
   2   4   8 2911.75  118.10   0
   2   4   8 3037.33  118.61   0
  -3  -4  -8 1334.88   54.39   0
  -3  -4  -8 1291.82   54.02   0
  -3  -4  -8 1370.81   54.21   0
  -3  -4  -8 1354.06   53.85   0
   3   4   8 1324.19   54.06   0
   3   4   8 1321.94   53.73   0
   3   4   8 1344.01   54.63   0
  -4  -4  -8 1365.48   56.09   0
  -4  -4  -8 1406.31   55.68   0
  -4  -4  -8 1389.57   55.49   0
  -4  -4  -8 1247.87   55.23   0
   4   4   8 1419.07   56.35   0
   4   4   8 1334.59   54.89   0
   4   4   8 1373.66   55.58   0
  -5  -4  -8  176.52   11.30   0
  -5  -4  -8  175.32   11.25   0
  -5  -4  -8  174.00   11.73   0
  -5  -4  -8  195.60   10.95   0
   5   4   8  172.70   10.24   0
   5   4   8  168.09   11.74   0
  -6  -4  -8   13.46    3.86   0
  -6  -4  -8   19.37    5.14   0
  -6  -4  -8   17.35    4.94   0
  -6  -4  -8   13.06    4.00   0
   6   4   8   12.56    3.31   0
   6   4   8    8.35    3.69   0
   6   4   8   22.86    5.20   0
  -7  -4  -8 1625.38   67.92   0
  -7  -4  -8 1648.28   67.04   0
  -7  -4  -8 1648.90   66.30   0
  -7  -4  -8 1578.17   68.31   0
   7   4   8 1503.71   65.21   0
   7   4   8 1706.85   67.36   0
   7   4   8 1651.20   68.06   0
  -8  -4  -8   60.06    9.22   0
  -8  -4  -8   72.75   13.37   0
  -8  -4  -8   61.65    8.38   0
  -8  -4  -8   60.32    8.94   0
   8   4   8   47.24    7.84   0
   8   4   8   67.81    7.66   0
   8   4   8   74.82   10.66   0
   6  -5  -8  229.48   11.77   0
   6  -5  -8  205.38   13.04   0
  -6   5   8  231.05   16.39   0
  -6   5   8  214.73   16.64   0
   5  -5  -8 1278.95   50.10   0
   5  -5  -8 1243.84   50.03   0
   5  -5  -8 1230.75   50.91   0
  -5   5   8 1232.13   52.84   0
  -5   5   8 1228.92   52.47   0
   4  -5  -8   40.13    4.99   0
   4  -5  -8   38.06    6.39   0
   4  -5  -8   35.23    4.85   0
  -4   5   8   39.01    7.16   0
  -4   5   8   39.42    6.02   0
   3  -5  -8   36.36    4.74   0
   3  -5  -8   34.92    4.65   0
   3  -5  -8   52.64    6.53   0
  -3   5   8   35.97    6.15   0
  -3   5   8   45.40    6.52   0
   2  -5  -8  885.11   36.25   0
   2  -5  -8  772.79   36.67   0
   2  -5  -8  938.59   36.20   0
  -2   5   8  891.54   36.98   0
  -2   5   8  882.12   36.75   0
   1  -5  -8  196.54   10.20   0
   1  -5  -8  198.10   10.32   0
   1  -5  -8  181.29   11.44   0
  -1   5   8  187.49   10.14   0
  -1   5   8  195.49   11.07   0
  -1   5   8  184.44   10.49   0
   0  -5  -8 2255.35   87.63   0
   0  -5  -8 2135.49   88.42   0
   0  -5  -8 2262.53   87.80   0
   0   5   8 2270.36   88.14   0
   0   5   8 2253.19   87.59   0
   0   5   8 2195.85   87.66   0
  -1  -5  -8   12.57    3.36   0
  -1  -5  -8    1.64    1.93   0
  -1  -5  -8    3.46    1.86   0
   1   5   8    1.12    1.72   0
   1   5   8    4.93    2.02   0
   1   5   8    1.39    2.65   0
  -2  -5  -8   79.31    6.22   0
  -2  -5  -8   81.36    6.60   0
   2   5   8   83.20    6.34   0
   2   5   8   81.20    6.11   0
   2   5   8   81.49    6.99   0
  -3  -5  -8 2835.71  116.22   0
  -3  -5  -8 3103.20  116.82   0
  -3  -5  -8 2908.60  116.11   0
   3   5   8 2921.66  115.75   0
   3   5   8 2929.54  116.14   0
   3   5   8 3105.83  117.05   0
  -4  -5  -8  168.28   10.07   0
  -4  -5  -8  163.95   10.79   0
  -4  -5  -8  175.13   10.42   0
  -4  -5  -8  167.30   10.47   0
   4   5   8  167.66    9.73   0
   4   5   8  182.89   10.64   0
   4   5   8  160.69   11.01   0
  -5  -5  -8 1130.32   48.82   0
  -5  -5  -8 1216.82   49.98   0
  -5  -5  -8 1163.19   48.49   0
  -5  -5  -8 1193.69   49.41   0
   5   5   8 1183.76   48.98   0
   5   5   8 1156.81   49.77   0
   5   5   8 1174.32   48.07   0
  -6  -5  -8   -2.68    2.65   0
  -6  -5  -8   -1.57    3.91   0
  -6  -5  -8   -0.21    3.80   0
  -6  -5  -8    6.77    3.59   0
   6   5   8   -0.29    2.69   0
   6   5   8    0.26    4.01   0
   6   5   8   -0.93    3.13   0
  -7  -5  -8  107.85    9.51   0
  -7  -5  -8  117.37   12.12   0
  -7  -5  -8   98.95   11.35   0
   7   5   8  132.33   11.02   0
   7   5   8   97.92    8.51   0
   7   5   8  113.57   11.57   0
  -8  -5  -8  491.81   27.56   0
  -8  -5  -8  494.33   27.16   0
  -8  -5  -8  488.20   25.68   0
  -8  -5  -8  519.62   24.43   0
   8   5   8  503.37   25.67   0
   8   5   8  522.79   23.56   0
   8   5   8  497.01   26.60   0
   6  -6  -8  361.19   16.78   0
   6  -6  -8  371.51   17.44   0
   6  -6  -8  358.88   19.79   0
  -6   6   8  314.01   21.50   0
  -6   6   8  331.29   21.44   0
   5  -6  -8   12.80    3.28   0
   5  -6  -8   10.39    4.89   0
   5  -6  -8   17.32    3.86   0
  -5   6   8    5.11    4.88   0
   4  -6  -8 2234.31   86.62   0
   4  -6  -8 2226.92   86.43   0
   4  -6  -8 2024.48   87.74   0
  -4   6   8 2304.84   88.65   0
  -4   6   8 2167.04   88.02   0
   3  -6  -8   94.44    7.02   0
   3  -6  -8   97.42    7.09   0
   3  -6  -8   92.12    9.44   0
  -3   6   8  108.08    8.74   0
  -3   6   8   71.10    7.86   0
   2  -6  -8   22.49    4.59   0
   2  -6  -8   25.60    3.89   0
   2  -6  -8   17.11    3.12   0
  -2   6   8   19.57    4.15   0
  -2   6   8   22.74    4.13   0
   1  -6  -8  115.29    7.53   0
   1  -6  -8  110.83    7.55   0
   1  -6  -8  114.98    9.67   0
   1  -6  -8  103.31    5.91   0
  -1   6   8  109.50    8.00   0
   0  -6  -8  177.02   11.93   0
   0  -6  -8  198.18   10.65   0
   0  -6  -8  200.28   10.67   0
   0   6   8  182.00   10.61   0
   0   6   8  190.65   11.20   0
   0   6   8  197.42   10.54   0
  -1  -6  -8 1323.76   53.53   0
  -1  -6  -8 1269.25   54.23   0
  -1  -6  -8 1331.65   53.68   0
   1   6   8 1353.81   54.20   0
   1   6   8 1299.01   53.47   0
   1   6   8 1340.98   53.38   0
  -2  -6  -8  303.28   14.96   0
  -2  -6  -8  313.79   15.47   0
  -2  -6  -8  307.75   15.80   0
   2   6   8  326.82   15.99   0
   2   6   8  276.53   14.79   0
   2   6   8  290.94   14.72   0
  -3  -6  -8   58.71    5.81   0
  -3  -6  -8   60.74    6.78   0
  -3  -6  -8   60.90    6.47   0
   3   6   8   55.34    5.74   0
   3   6   8   57.61    5.98   0
   3   6   8   60.47    7.13   0
  -4  -6  -8  943.69   39.55   0
  -4  -6  -8  941.87   38.50   0
  -4  -6  -8  862.44   38.71   0
   4   6   8  911.67   39.49   0
   4   6   8  894.13   38.01   0
   4   6   8  907.37   38.54   0
  -5  -6  -8  772.78   33.67   0
  -5  -6  -8  755.67   34.33   0
  -5  -6  -8  807.21   35.29   0
   5   6   8  796.12   35.24   0
   5   6   8  764.79   34.02   0
   5   6   8  787.35   33.36   0
  -6  -6  -8  699.75   32.44   0
  -6  -6  -8  744.17   31.83   0
  -6  -6  -8  699.23   32.98   0
  -6  -6  -8  747.49   33.83   0
   6   6   8  735.87   32.46   0
   6   6   8  725.78   33.43   0
   6   6   8  694.34   31.15   0
  -7  -6  -8  170.71   12.71   0
  -7  -6  -8  126.99   12.87   0
  -7  -6  -8  129.03   12.82   0
  -7  -6  -8  124.06   10.38   0
   7   6   8  141.69   13.02   0
   7   6   8  129.78    9.72   0
   7   6   8  174.34   12.68   0
  -8  -6  -8  236.70   15.11   0
  -8  -6  -8  242.56   17.32   0
  -8  -6  -8  241.79   18.89   0
  -8  -6  -8  247.39   18.58   0
   8   6   8  233.44   17.56   0
   8   6   8  249.39   16.96   0
   6  -7  -8  177.41   11.99   0
   6  -7  -8  221.88   13.86   0
   6  -7  -8  203.59   17.19   0
  -6   7   8  228.72   18.64   0
   5  -7  -8  172.35   11.16   0
   5  -7  -8  153.13   10.10   0
   5  -7  -8  142.65   13.73   0
  -5   7   8  140.98   13.19   0
  -5   7   8  155.19   13.86   0
   4  -7  -8  189.44   11.42   0
   4  -7  -8  162.89   13.83   0
   4  -7  -8  181.21   10.68   0
  -4   7   8  174.36   13.20   0
  -4   7   8  185.47   13.03   0
   3  -7  -8 1681.93   72.58   0
   3  -7  -8 1885.64   70.92   0
   3  -7  -8 1839.45   68.51   0
   3  -7  -8 1484.09   69.89   0
  -3   7   8 1819.26   71.91   0
  -3   7   8 1849.84   71.85   0
   2  -7  -8  639.42   27.37   0
   2  -7  -8  597.98   29.46   0
   2  -7  -8  612.58   25.67   0
   2  -7  -8  647.14   27.51   0
  -2   7   8  637.07   28.26   0
  -2   7   8  610.14   28.15   0
   1  -7  -8  362.03   17.26   0
   1  -7  -8  392.26   17.34   0
   1  -7  -8  343.01   15.94   0
   1  -7  -8  338.64   19.14   0
  -1   7   8  338.42   17.40   0
   0  -7  -8  164.61   12.21   0
   0  -7  -8  180.59   10.24   0
   0  -7  -8  184.30   10.60   0
   0  -7  -8  170.38    9.42   0
   0   7   8  173.67   10.56   0
  -1  -7  -8 1468.55   59.45   0
  -1  -7  -8 1391.51   60.14   0
  -1  -7  -8 1534.84   59.39   0
   1   7   8 1401.80   59.10   0
   1   7   8 1518.32   60.08   0
  -2  -7  -8  767.38   33.13   0
  -2  -7  -8  633.22   31.56   0
  -2  -7  -8  819.00   32.89   0
   2   7   8  709.58   32.85   0
   2   7   8  804.33   32.39   0
  -3  -7  -8  684.29   31.98   0
  -3  -7  -8  773.29   31.77   0
  -3  -7  -8  740.17   32.42   0
   3   7   8  723.32   32.66   0
   3   7   8  721.11   31.67   0
   3   7   8  743.27   31.55   0
  -4  -7  -8   37.29    6.76   0
  -4  -7  -8   36.53    6.65   0
  -4  -7  -8   45.78    5.85   0
   4   7   8   43.49    6.31   0
   4   7   8   43.88    7.47   0
   4   7   8   32.97    5.61   0
  -5  -7  -8    0.02    3.70   0
  -5  -7  -8    9.40    3.57   0
  -5  -7  -8   -3.00    3.55   0
   5   7   8    6.13    3.24   0
   5   7   8   15.55    5.15   0
   5   7   8    6.55    3.61   0
  -6  -7  -8  771.91   37.16   0
  -6  -7  -8  752.70   36.02   0
  -6  -7  -8  850.15   35.49   0
   6   7   8  820.96   37.03   0
   6   7   8  852.26   35.94   0
  -7  -7  -8   24.84    7.07   0
  -7  -7  -8   27.83    5.20   0
  -7  -7  -8   17.04    6.10   0
  -7  -7  -8   21.01    6.08   0
   7   7   8   22.73    6.62   0
  -8  -7  -8    3.16    5.24   0
   8   7   8    4.39    5.82   0
   8   7   8    1.83    6.40   0
   5  -8  -8  274.42   15.91   0
   5  -8  -8  295.61   19.76   0
   5  -8  -8  267.90   14.97   0
  -5   8   8  273.66   18.90   0
  -5   8   8  250.28   18.18   0
   4  -8  -8  126.71    9.31   0
   4  -8  -8  123.01    8.25   0
   4  -8  -8  122.38   14.22   0
   4  -8  -8  133.89   10.22   0
  -4   8   8  147.04   12.71   0
  -4   8   8  122.07   12.32   0
   3  -8  -8  805.52   34.93   0
   3  -8  -8  840.52   35.49   0
   3  -8  -8  816.32   33.64   0
   3  -8  -8  815.35   38.12   0
  -3   8   8  810.74   36.48   0
  -3   8   8  800.13   36.25   0
   2  -8  -8  591.23   26.09   0
   2  -8  -8  554.54   28.96   0
   2  -8  -8  558.02   25.00   0
   2  -8  -8  607.72   26.54   0
  -2   8   8  609.45   27.40   0
  -2   8   8  571.18   27.01   0
   1  -8  -8 1953.62   85.36   0
   1  -8  -8 2175.18   83.43   0
   1  -8  -8 2037.81   82.50   0
   1  -8  -8 2146.43   83.56   0
  -1   8   8 2129.06   84.00   0
  -1   8   8 2101.88   83.86   0
   0  -8  -8  458.87   20.99   0
   0  -8  -8  462.03   21.48   0
   0  -8  -8  454.42   23.92   0
   0  -8  -8  474.97   21.93   0
   0   8   8  467.05   22.48   0
  -1  -8  -8    0.12    2.05   0
  -1  -8  -8    1.00    3.07   0
  -1  -8  -8   11.94    4.91   0
   1   8   8   -1.25    2.82   0
   1   8   8    1.56    4.02   0
  -2  -8  -8 1470.16   65.69   0
  -2  -8  -8 1639.88   65.01   0
  -2  -8  -8 1662.54   65.58   0
   2   8   8 1599.97   64.89   0
   2   8   8 1644.64   65.98   0
  -3  -8  -8   10.24    3.80   0
  -3  -8  -8   14.93    3.29   0
   3   8   8   10.31    4.46   0
   3   8   8    7.78    3.05   0
  -4  -8  -8  278.49   14.49   0
  -4  -8  -8  257.80   15.37   0
  -4  -8  -8  250.21   15.19   0
   4   8   8  271.07   15.90   0
   4   8   8  258.14   14.57   0
  -5  -8  -8   22.05    4.22   0
  -5  -8  -8   24.47    5.22   0
  -5  -8  -8   42.48    6.55   0
   5   8   8   25.13    5.65   0
   5   8   8   30.61    5.32   0
  -6  -8  -8    7.53    5.39   0
  -6  -8  -8   -0.50    3.33   0
  -6  -8  -8    3.47    4.49   0
   6   8   8   -2.53    5.16   0
   6   8   8   -1.75    4.13   0
  -7  -8  -8  411.26   23.00   0
  -7  -8  -8  401.03   23.85   0
  -7  -8  -8  397.12   20.44   0
   7   8   8  400.23   22.83   0
   5  -9  -8  403.93   21.39   0
   5  -9  -8  405.67   19.44   0
   5  -9  -8  408.32   20.49   0
   5  -9  -8  349.10   25.57   0
  -5   9   8  417.20   24.76   0
   4  -9  -8   22.59    4.93   0
   4  -9  -8   24.20    5.51   0
   4  -9  -8   31.34    5.23   0
  -4   9   8   13.36    5.88   0
  -4   9   8   19.17    6.05   0
   3  -9  -8    5.34    3.65   0
   3  -9  -8    8.68    3.95   0
   3  -9  -8    2.79    6.29   0
   3  -9  -8    8.85    4.00   0
  -3   9   8    4.15    5.41   0
   2  -9  -8  291.81   19.65   0
   2  -9  -8  291.66   16.09   0
   2  -9  -8  298.93   15.37   0
   2  -9  -8  292.66   15.57   0
  -2   9   8  282.45   16.67   0
   1  -9  -8    5.99    3.59   0
   1  -9  -8    9.57    5.46   0
   1  -9  -8    4.83    2.96   0
  -1   9   8    2.41    3.46   0
  -1   9   8    4.11    3.85   0
   0  -9  -8  737.32   32.34   0
   0  -9  -8  728.19   35.02   0
   0  -9  -8  727.88   32.17   0
   0  -9  -8  752.15   32.78   0
   0   9   8  738.26   32.78   0
   0   9   8  747.50   33.30   0
  -1  -9  -8  132.66    9.86   0
  -1  -9  -8  135.06   12.18   0
  -1  -9  -8  138.17   10.42   0
  -1  -9  -8  140.67    9.51   0
   1   9   8  134.95   11.38   0
   1   9   8  143.01   10.26   0
  -2  -9  -8   30.69    5.42   0
  -2  -9  -8   33.47    5.42   0
  -2  -9  -8   17.12    5.37   0
   2   9   8   24.23    5.40   0
   2   9   8   23.73    4.75   0
  -3  -9  -8 1381.87   57.16   0
  -3  -9  -8 1429.86   58.51   0
  -3  -9  -8 1326.66   57.88   0
   3   9   8 1397.23   57.14   0
   3   9   8 1402.72   58.42   0
  -4  -9  -8  808.58   37.03   0
  -4  -9  -8  822.40   35.74   0
   4   9   8  841.00   35.79   0
   4   9   8  798.48   36.94   0
  -5  -9  -8  571.80   25.67   0
  -5  -9  -8  463.12   23.46   0
  -5  -9  -8  454.51   25.12   0
   5   9   8  495.75   23.75   0
   5   9   8  480.40   25.33   0
  -6  -9  -8   35.69    6.58   0
  -6  -9  -8   31.05    5.70   0
  -6  -9  -8   24.64    7.51   0
   6   9   8   29.05    5.87   0
   6   9   8   29.23    7.11   0
  -7  -9  -8   46.88    6.84   0
  -7  -9  -8   40.62    8.30   0
   7   9   8   41.71    8.22   0
   4 -10  -8  103.21   17.81   0
   4 -10  -8   64.57    9.93   0
   4 -10  -8   60.93    9.33   0
   4 -10  -8   75.31   10.44   0
  -4  10   8   56.53    9.03   0
   3 -10  -8   31.15    5.57   0
   3 -10  -8   38.07    9.47   0
   3 -10  -8   33.14    5.95   0
   3 -10  -8   36.09    6.35   0
  -3  10   8   27.01    6.25   0
  -3  10   8   30.47    7.10   0
   2 -10  -8    6.80    4.96   0
   2 -10  -8   17.24    5.13   0
   2 -10  -8   12.88    4.16   0
  -2  10   8    6.75    4.70   0
   1 -10  -8  661.15   33.52   0
   1 -10  -8  640.11   29.36   0
   1 -10  -8  625.20   29.57   0
   1 -10  -8  627.53   29.93   0
  -1  10   8  674.94   30.72   0
  -1  10   8  657.71   30.33   0
   0 -10  -8  172.29   11.24   0
   0 -10  -8  157.68   11.99   0
   0 -10  -8  158.72   11.67   0
   0 -10  -8  157.05   15.41   0
   0  10   8  160.42   12.18   0
   0  10   8  154.95   13.05   0
  -1 -10  -8  419.19   21.41   0
  -1 -10  -8  413.67   23.50   0
  -1 -10  -8  417.19   20.53   0
  -1 -10  -8  408.92   20.88   0
   1  10   8  410.48   21.99   0
   1  10   8  411.83   21.01   0
  -2 -10  -8   59.88   10.36   0
  -2 -10  -8   63.32    7.62   0
  -2 -10  -8   55.95    8.47   0
   2  10   8   57.07    8.40   0
   2  10   8   81.12   10.43   0
  -3 -10  -8  152.38   11.98   0
  -3 -10  -8  151.79   12.98   0
  -3 -10  -8  144.02   10.51   0
   3  10   8  143.90   11.09   0
   3  10   8  142.95   13.05   0
  -4 -10  -8  148.05   11.14   0
  -4 -10  -8  141.61   12.67   0
   4  10   8  159.84   13.33   0
   4  10   8  150.80   11.51   0
  -5 -10  -8 1164.09   52.41   0
  -5 -10  -8 1241.33   53.67   0
  -5 -10  -8 1230.03   51.55   0
   5  10   8 1223.39   52.98   0
   5  10   8 1228.99   51.28   0
  -6 -10  -8    9.95    6.78   0
  -6 -10  -8   10.55    4.91   0
  -6 -10  -8    4.94    7.16   0
   6  10   8    2.34    6.49   0
   3 -11  -8   10.67    9.49   0
   3 -11  -8    4.95    5.13   0
   3 -11  -8    6.82    5.12   0
   3 -11  -8   18.04    6.64   0
  -3  11   8    7.30    6.91   0
   2 -11  -8  357.97   20.40   0
   2 -11  -8  363.04   19.69   0
   2 -11  -8  407.79   25.61   0
   2 -11  -8  391.10   20.95   0
  -2  11   8  351.90   21.41   0
  -2  11   8  359.84   21.40   0
   1 -11  -8    7.15    5.54   0
   1 -11  -8   12.00    5.03   0
   1 -11  -8   15.97    4.76   0
   1 -11  -8    9.51    7.76   0
  -1  11   8   14.38    6.01   0
  -1  11   8   15.10    5.24   0
   0 -11  -8  330.04   17.99   0
   0 -11  -8  317.90   18.80   0
   0 -11  -8  316.34   19.19   0
   0 -11  -8  348.66   22.67   0
   0  11   8  357.81   20.26   0
  -1 -11  -8  632.70   32.44   0
  -1 -11  -8  588.18   29.13   0
  -1 -11  -8  596.93   29.83   0
  -1 -11  -8  632.60   30.26   0
   1  11   8  730.25   31.37   0
   1  11   8  632.60   29.72   0
  -2 -11  -8   26.88    6.61   0
  -2 -11  -8   23.22    6.87   0
  -2 -11  -8    9.44    4.25   0
  -2 -11  -8   18.43    5.64   0
   2  11   8   14.03    5.09   0
   2  11   8   19.09    6.17   0
  -3 -11  -8  166.37   12.36   0
  -3 -11  -8  182.15   14.15   0
  -3 -11  -8  179.80   15.66   0
   3  11   8  179.65   15.52   0
   3  11   8  177.35   13.30   0
  -4 -11  -8   48.76    6.99   0
  -4 -11  -8   44.32    8.33   0
  -4 -11  -8   44.08    7.58   0
   4  11   8   45.22    8.22   0
   4  11   8   58.69    9.61   0
  -5 -11  -8   53.28    9.19   0
  -5 -11  -8   43.37    7.09   0
   5  11   8   43.82    8.30   0
   2 -12  -8    3.35    5.59   0
   2 -12  -8   15.62   10.45   0
   2 -12  -8   15.84    7.42   0
  -2  12   8    9.88   12.62   0
  -2  12   8    5.46    7.18   0
   1 -12  -8  521.06   31.74   0
   1 -12  -8  479.29   25.87   0
   1 -12  -8  539.03   27.44   0
   1 -12  -8  502.83   26.88   0
  -1  12   8  605.82   28.66   0
  -1  12   8  509.10   27.17   0
   0 -12  -8    2.57    4.80   0
   0 -12  -8   -1.79    8.84   0
   0 -12  -8    8.38    6.46   0
   0  12   8    0.59    6.99   0
   0  12   8   -0.93    5.79   0
  -1 -12  -8   -6.73    5.84   0
  -1 -12  -8   -1.35    5.17   0
  -1 -12  -8    7.81    8.69   0
  -1 -12  -8    6.31    5.12   0
   1  12   8    4.71    5.87   0
   1  12   8  -10.54    6.52   0
  -2 -12  -8  442.29   23.81   0
  -2 -12  -8  384.80   23.53   0
  -2 -12  -8  374.48   21.93   0
  -2 -12  -8  440.69   26.55   0
   2  12   8  423.14   23.95   0
   2  12   8  448.99   22.56   0
  -3 -12  -8  140.23   12.86   0
  -3 -12  -8  151.74   16.76   0
  -3 -12  -8  160.10   15.20   0
  -3 -12  -8  165.91   15.41   0
   3  12   8  145.31   16.36   0
  -4 -12  -8   47.37    7.76   0
  -4 -12  -8   43.09    8.99   0
   4  12   8   47.04    8.81   0
   0  -6   9  890.60   38.99   0
   0  -6   9  943.22   42.05   0
   0  -6   9  934.16   38.94   0
   0  -6   9  984.51   42.58   0
   1  -6   9  125.51   13.43   0
   1  -6   9  109.61   10.19   0
   1  -6   9  103.28   12.61   0
   1  -6   9  113.78    9.81   0
   2  -6   9  232.33   14.59   0
   2  -6   9  245.23   17.52   0
   2  -6   9  237.51   17.13   0
   2  -6   9  244.78   15.19   0
  -1  -5   9  251.90   15.64   0
  -1  -5   9  238.56   15.40   0
  -1  -5   9  224.18   11.67   0
   0  -5   9  770.89   33.62   0
   0  -5   9  732.64   30.93   0
   0  -5   9  689.73   30.88   0
   0  -5   9  765.22   34.00   0
   1  -5   9  674.14   29.08   0
   1  -5   9  711.81   31.33   0
   1  -5   9  622.37   28.91   0
   1  -5   9  667.09   31.43   0
  -2   5  -9  315.61   19.49   0
   2  -5   9  361.49   19.09   0
   2  -5   9  285.94   16.61   0
   2  -5   9  317.08   16.73   0
   2  -5   9  329.31   18.61   0
  -3   5  -9  216.18   16.63   0
   3  -5   9  205.58   14.64   0
   3  -5   9  195.68   15.02   0
   3  -5   9  202.80   13.54   0
   3  -5   9  208.67   13.79   0
  -4   5  -9   18.63    8.05   0
   4  -5   9   17.65    5.61   0
   4  -5   9    4.73    4.99   0
   4  -5   9   14.79    6.97   0
   4  -5   9   12.59    6.06   0
  -3  -4   9   18.28    5.28   0
  -3  -4   9   23.58    5.77   0
  -2  -4   9  425.11   21.00   0
  -2  -4   9  408.33   20.37   0
  -1  -4   9   36.24    5.95   0
  -1  -4   9   51.88    5.10   0
  -1  -4   9   45.08    6.39   0
  -1  -4   9   47.24    4.78   0
   0  -4   9   52.39    5.53   0
   0  -4   9   53.95    7.90   0
   0  -4   9   59.75    5.71   0
   0  -4   9   61.35    8.18   0
   1  -4   9 1577.68   64.51   0
   1  -4   9 1536.27   62.96   0
   1  -4   9 1574.31   63.04   0
   1  -4   9 1623.36   65.13   0
  -2   4  -9    6.69    5.31   0
   2  -4   9   10.21    3.58   0
   2  -4   9   10.43    3.71   0
   2  -4   9   11.60    4.49   0
   2  -4   9    6.98    4.08   0
  -3   4  -9  981.26   42.98   0
   3  -4   9  939.86   40.66   0
   3  -4   9  969.63   41.69   0
   3  -4   9  961.93   41.68   0
   3  -4   9  901.22   40.48   0
  -4   4  -9   24.57    3.24   0
  -4   4  -9   35.28    4.03   0
  -4   4  -9   34.71    8.08   0
   4  -4   9   26.52    5.42   0
   4  -4   9   38.47    7.31   0
   4  -4   9   24.88    5.52   0
   4  -4   9   23.30    5.69   0
  -5   4  -9   87.18    9.34   0
  -5   4  -9   82.57   14.02   0
  -5   4  -9   77.28    7.59   0
   5  -4   9   97.96   10.40   0
   5  -4   9   91.91   10.87   0
   5  -4   9  105.89   12.54   0
   5  -4   9   96.34   11.09   0
  -4  -3   9    2.65    3.96   0
  -4  -3   9    3.67    4.41   0
  -3  -3   9  279.27   14.87   0
  -3  -3   9  260.56   14.24   0
  -2  -3   9   62.36    4.34   0
  -2  -3   9   65.58    7.05   0
  -2  -3   9   63.63    7.74   0
  -1  -3   9 1039.53   41.76   0
  -1  -3   9 1043.38   43.51   0
  -1  -3   9 1082.17   44.53   0
  -1  -3   9 1056.96   41.82   0
   0  -3   9   85.58    8.35   0
   0  -3   9   82.65    7.68   0
   0  -3   9   96.27    6.39   0
  -1   3  -9   88.89    8.92   0
   1  -3   9   92.43    6.99   0
   1  -3   9  100.03    8.39   0
   1  -3   9   85.16    8.08   0
   1  -3   9   95.07    6.88   0
  -2   3  -9  427.74   21.36   0
   2  -3   9  384.03   19.08   0
   2  -3   9  425.00   20.47   0
   2  -3   9  404.91   20.05   0
   2  -3   9  414.85   19.40   0
  -3   3  -9  859.80   37.46   0
   3  -3   9  819.64   35.65   0
   3  -3   9  843.66   36.32   0
   3  -3   9  797.59   35.48   0
   3  -3   9  805.64   36.16   0
  -4   3  -9  679.30   27.66   0
  -4   3  -9  583.96   26.82   0
  -4   3  -9  670.90   31.38   0
   4  -3   9  654.04   30.20   0
   4  -3   9  630.95   29.55   0
   4  -3   9  640.44   29.65   0
   4  -3   9  666.63   29.90   0
  -5   3  -9    7.19    3.46   0
  -5   3  -9   10.71    6.88   0
  -5   3  -9    8.13    4.21   0
   5  -3   9    3.60    4.25   0
   5  -3   9    2.50    4.46   0
   5  -3   9    3.63    3.93   0
  -6   3  -9  411.79   22.15   0
  -6   3  -9  389.79   20.26   0
  -6   3  -9  401.09   24.73   0
   6  -3   9  411.15   22.77   0
   6  -3   9  427.15   21.94   0
   6  -3   9  419.36   22.97   0
   6  -3   9  440.04   23.49   0
  -4  -2   9  207.92   10.53   0
  -4  -2   9  213.18   11.32   0
  -4  -2   9  207.34   10.23   0
  -4  -2   9  193.47   11.57   0
  -3  -2   9  477.45   22.10   0
  -3  -2   9  478.13   21.20   0
  -3  -2   9  506.09   20.06   0
  -2  -2   9  369.85   16.02   0
  -2  -2   9  402.16   18.64   0
  -2  -2   9  386.40   17.43   0
  -2  -2   9  381.99   16.04   0
  -1  -2   9 1404.98   57.05   0
  -1  -2   9 1403.52   56.01   0
  -1  -2   9 1473.74   58.37   0
  -1  -2   9 1447.20   56.10   0
   0  -2   9  728.76   29.95   0
   0  -2   9  714.04   30.66   0
   0  -2   9  735.16   29.91   0
   0  -2   9  734.03   31.75   0
  -1   2  -9  716.17   30.72   0
   1  -2   9  680.63   29.07   0
   1  -2   9  718.27   29.28   0
   1  -2   9  680.23   29.68   0
   1  -2   9  672.87   30.43   0
  -2   2  -9  265.05   14.27   0
   2  -2   9  233.55   12.97   0
   2  -2   9  228.47   12.46   0
   2  -2   9  235.10   13.29   0
   2  -2   9  239.69   12.70   0
  -3   2  -9    9.08    2.32   0
  -3   2  -9   24.62    5.36   0
   3  -2   9   10.46    3.90   0
   3  -2   9   15.32    3.76   0
   3  -2   9    9.57    3.03   0
  -4   2  -9 1271.39   51.76   0
  -4   2  -9 1165.40   50.97   0
  -4   2  -9 1337.71   54.31   0
   4  -2   9 1253.87   52.93   0
   4  -2   9 1334.00   53.36   0
   4  -2   9 1273.40   53.08   0
   4  -2   9 1278.81   53.30   0
  -5   2  -9   65.05    8.65   0
  -5   2  -9   58.34    9.92   0
  -5   2  -9   61.10    7.07   0
   5  -2   9   63.42    8.70   0
   5  -2   9   59.07    8.50   0
  -6   2  -9    7.06    3.96   0
  -6   2  -9   -0.46    6.39   0
  -6   2  -9    0.18    5.10   0
   6  -2   9    0.33    4.93   0
   6  -2   9    2.69    3.81   0
   6  -2   9   -1.53    4.75   0
  -7   2  -9  490.01   25.01   0
  -7   2  -9  536.03   27.38   0
   7  -2   9  493.14   26.83   0
   7  -2   9  514.27   25.31   0
  -5  -1   9  314.51   13.80   0
  -5  -1   9  285.99   15.20   0
  -5  -1   9  311.54   13.68   0
  -5  -1   9  302.99   14.02   0
  -5  -1   9  311.43   15.74   0
  -4  -1   9  428.64   19.96   0
  -4  -1   9  452.09   19.59   0
  -4  -1   9  466.19   18.96   0
  -3  -1   9 1311.99   52.84   0
  -3  -1   9 1381.46   52.99   0
  -3  -1   9 1362.71   52.81   0
  -3  -1   9 1327.46   54.23   0
  -2  -1   9  985.61   40.96   0
  -2  -1   9  943.80   39.09   0
  -2  -1   9 1039.15   39.53   0
  -1  -1   9   10.18    2.23   0
  -1  -1   9   19.17    3.36   0
  -1  -1   9   14.51    2.69   0
  -1  -1   9   11.69    3.23   0
   0  -1   9 2569.61  104.02   0
   0  -1   9 2729.10  103.96   0
   0  -1   9 2735.84  105.48   0
   0  -1   9 2686.97  103.92   0
  -1   1  -9    2.35    3.09   0
   1  -1   9    3.86    2.45   0
   1  -1   9    3.30    2.58   0
   1  -1   9    6.80    2.40   0
  -2   1  -9  836.03   35.04   0
   2  -1   9  815.95   34.70   0
   2  -1   9  812.35   34.14   0
   2  -1   9  780.42   33.83   0
   2  -1   9  805.57   34.07   0
  -3   1  -9  590.47   27.89   0
  -3   1  -9  653.41   26.14   0
  -3   1  -9  587.11   25.64   0
   3  -1   9  626.90   27.59   0
   3  -1   9  619.56   27.59   0
   3  -1   9  635.57   27.48   0
   3  -1   9  622.00   27.28   0
  -4   1  -9    0.56    3.08   0
  -4   1  -9    5.18    2.63   0
  -4   1  -9    3.08    3.70   0
   4  -1   9    4.16    2.91   0
   4  -1   9    0.74    3.04   0
   4  -1   9    2.90    3.06   0
   4  -1   9   -0.87    2.95   0
  -5   1  -9 1762.45   71.44   0
  -5   1  -9 1660.71   69.26   0
  -5   1  -9 1724.38   70.22   0
   5  -1   9 1746.19   70.95   0
   5  -1   9 1752.92   70.14   0
   5  -1   9 1747.11   70.74   0
   5  -1   9 1684.22   70.47   0
  -6   1  -9  178.61   12.09   0
  -6   1  -9  198.77   13.69   0
  -6   1  -9  179.25   14.34   0
   6  -1   9  180.77   13.56   0
   6  -1   9  192.34   13.49   0
  -7   1  -9   89.96   11.93   0
  -7   1  -9   81.40   12.74   0
  -7   1  -9   83.20   10.09   0
   7  -1   9   77.80   11.06   0
   7  -1   9   68.12    9.21   0
   7  -1   9   91.67   11.70   0
  -5   0   9   59.39    8.09   0
  -5   0   9   86.42    8.62   0
  -4   0   9  593.60   24.55   0
  -4   0   9  537.49   24.04   0
  -4   0   9  565.13   24.33   0
  -3   0   9   73.03    6.51   0
  -3   0   9   82.62    5.90   0
  -2   0   9  719.72   27.66   0
  -2   0   9  695.73   29.65   0
  -2   0   9  676.10   28.39   0
  -1   0   9  388.30   18.16   0
  -1   0   9  379.03   16.95   0
  -1   0   9  416.06   16.58   0
  -1   0   9  386.88   16.95   0
   0   0  -9   52.98    5.88   0
   0   0  -9   54.16    4.93   0
   0   0   9   58.38    4.77   0
   0   0   9   55.89    4.45   0
   0   0   9   64.94    5.87   0
  -1   0  -9 3196.64  122.05   0
   1   0   9 3209.84  122.52   0
   1   0   9 3159.69  121.66   0
   1   0   9 3038.66  121.18   0
   1   0   9 3054.71  121.43   0
  -2   0  -9 1473.28   56.79   0
  -2   0  -9 1397.71   56.76   0
  -2   0  -9 1495.29   58.96   0
  -2   0  -9 1448.76   59.62   0
   2   0   9 1417.90   58.15   0
   2   0   9 1423.82   58.86   0
   2   0   9 1449.64   58.35   0
   2   0   9 1537.58   58.78   0
  -3   0  -9 1729.30   66.41   0
  -3   0  -9 1738.19   65.10   0
  -3   0  -9 1577.40   64.57   0
   3   0   9 1464.28   65.55   0
   3   0   9 1643.41   66.06   0
   3   0   9 1647.27   65.62   0
   3   0   9 1647.92   65.75   0
  -4   0  -9   21.64    3.73   0
  -4   0  -9   22.05    4.52   0
  -4   0  -9   26.55    4.50   0
   4   0   9   36.40    5.18   0
   4   0   9   19.54    4.33   0
   4   0   9   19.45    3.90   0
   4   0   9   29.98    4.86   0
  -5   0  -9  392.36   19.60   0
  -5   0  -9  373.97   18.71   0
  -5   0  -9  390.94   20.11   0
   5   0   9  381.59   19.98   0
   5   0   9  386.23   18.98   0
   5   0   9  384.20   19.52   0
  -6   0  -9  580.77   27.42   0
  -6   0  -9  528.59   25.91   0
  -6   0  -9  541.35   27.56   0
   6   0   9  611.77   27.48   0
   6   0   9  563.33   26.05   0
   6   0   9  549.85   27.39   0
  -7   0  -9  768.43   36.29   0
  -7   0  -9  733.07   34.53   0
  -7   0  -9  769.90   36.37   0
   7   0   9  753.00   35.58   0
   7   0   9  712.85   35.79   0
   7   0   9  852.50   34.45   0
  -5   1   9    5.90    4.28   0
  -5   1   9   11.19    4.31   0
  -4   1   9   -3.52    2.21   0
  -4   1   9    1.86    3.17   0
  -4   1   9   -2.65    3.26   0
  -3   1   9 1550.61   62.96   0
  -3   1   9 1674.85   63.03   0
  -3   1   9 1536.71   62.79   0
   2  -1  -9  258.04   13.22   0
  -2   1   9  236.02   12.02   0
  -2   1   9  244.70   12.72   0
  -2   1   9  288.24   12.53   0
   1  -1  -9  659.79   28.25   0
  -1   1   9  673.25   27.85   0
  -1   1   9  611.72   26.75   0
  -1   1   9  648.90   26.91   0
   0  -1  -9   82.56    6.64   0
   0  -1  -9   81.61    5.22   0
   0   1   9   84.82    6.25   0
   0   1   9   78.20    4.81   0
   0   1   9   78.96    5.65   0
  -1  -1  -9  349.01   15.63   0
  -1  -1  -9  338.94   16.80   0
   1   1   9  337.83   15.03   0
   1   1   9  346.37   15.83   0
   1   1   9  332.03   15.64   0
   1   1   9  335.02   16.17   0
  -2  -1  -9 1319.93   50.34   0
  -2  -1  -9 1322.13   51.31   0
  -2  -1  -9 1209.10   50.24   0
  -2  -1  -9 1200.79   51.95   0
   2   1   9 1274.77   51.41   0
   2   1   9 1266.81   51.19   0
   2   1   9 1296.47   51.59   0
   2   1   9 1231.11   50.60   0
  -3  -1  -9 2299.28   90.86   0
  -3  -1  -9 2272.56   91.47   0
  -3  -1  -9 2411.66   90.46   0
  -3  -1  -9 2161.58   89.92   0
   3   1   9 2207.04   90.61   0
   3   1   9 2336.34   90.89   0
   3   1   9 2387.33   91.29   0
  -4  -1  -9  515.87   22.82   0
  -4  -1  -9  479.30   22.93   0
  -4  -1  -9  468.67   21.84   0
  -4  -1  -9  501.59   22.45   0
   4   1   9  500.31   23.06   0
   4   1   9  435.43   21.85   0
   4   1   9  479.01   22.47   0
  -5  -1  -9   32.60    5.92   0
  -5  -1  -9   53.96    6.67   0
  -5  -1  -9   35.82    5.52   0
  -5  -1  -9   38.94    6.82   0
   5   1   9   43.72    7.17   0
   5   1   9   37.13    6.71   0
   5   1   9   49.49    5.81   0
  -6  -1  -9 1204.41   49.13   0
  -6  -1  -9 1107.36   48.78   0
  -6  -1  -9 1126.60   47.63   0
   6   1   9 1089.10   48.84   0
   6   1   9 1147.47   48.47   0
   6   1   9 1121.31   47.27   0
  -7  -1  -9   72.62   10.97   0
  -7  -1  -9   95.25   11.53   0
   7   1   9   91.49   10.53   0
   7   1   9   77.30   10.37   0
   7   1   9   65.18    8.21   0
  -8  -1  -9 1279.30   56.55   0
  -8  -1  -9 1294.28   58.41   0
   8   1   9 1386.60   55.47   0
   8   1   9 1334.28   57.66   0
  -6   2   9  381.48   20.84   0
  -6   2   9  368.70   20.75   0
  -5   2   9   89.16    9.50   0
  -5   2   9   90.59    9.39   0
   4  -2  -9  853.77   35.51   0
  -4   2   9  828.75   36.25   0
  -4   2   9  887.91   36.40   0
  -4   2   9  868.40   35.18   0
   3  -2  -9  135.97    8.68   0
  -3   2   9  125.36    8.44   0
  -3   2   9  147.76    8.94   0
  -3   2   9  133.84    8.23   0
   2  -2  -9  383.05   17.69   0
  -2   2   9  394.75   17.29   0
  -2   2   9  362.12   16.96   0
  -2   2   9  364.43   17.14   0
   1  -2  -9 1602.89   61.89   0
  -1   2   9 1550.89   60.87   0
  -1   2   9 1482.95   60.71   0
  -1   2   9 1505.42   61.24   0
   0  -2  -9   89.42    6.83   0
   0  -2  -9   95.72    5.09   0
   0   2   9   84.32    6.37   0
   0   2   9   83.24    6.02   0
   0   2   9   91.16    6.29   0
  -1  -2  -9  198.40    9.49   0
  -1  -2  -9  201.97   11.12   0
  -1  -2  -9  205.42    9.87   0
  -1  -2  -9  196.39    9.91   0
   1   2   9  203.22   10.64   0
   1   2   9  189.36   10.31   0
   1   2   9  195.19   10.64   0
  -2  -2  -9  724.97   34.46   0
  -2  -2  -9  875.96   36.07   0
  -2  -2  -9  818.16   34.76   0
  -2  -2  -9  891.12   34.82   0
   2   2   9  865.08   35.34   0
   2   2   9  861.73   35.43   0
   2   2   9  871.45   35.60   0
  -3  -2  -9 1011.88   40.43   0
  -3  -2  -9  857.85   40.63   0
  -3  -2  -9 1033.86   40.51   0
  -3  -2  -9  978.75   40.13   0
   3   2   9 1004.55   41.08   0
   3   2   9  978.96   40.58   0
   3   2   9  938.90   40.32   0
  -4  -2  -9 2071.26   80.00   0
  -4  -2  -9 2022.54   79.81   0
  -4  -2  -9 1863.17   79.18   0
  -4  -2  -9 2022.22   80.24   0
   4   2   9 1990.01   79.82   0
   4   2   9 1987.22   80.38   0
   4   2   9 2009.06   79.44   0
  -5  -2  -9    3.94    2.99   0
  -5  -2  -9   -0.68    2.78   0
  -5  -2  -9   -2.63    2.74   0
  -5  -2  -9    4.97    3.43   0
   5   2   9    5.48    2.54   0
   5   2   9    0.82    3.26   0
   5   2   9   -0.80    3.24   0
  -6  -2  -9  162.41   11.28   0
  -6  -2  -9  160.64   12.04   0
  -6  -2  -9  159.39   11.39   0
  -6  -2  -9  166.90   12.15   0
   6   2   9  166.18   10.62   0
   6   2   9  159.87   12.37   0
   6   2   9  175.34   11.95   0
  -7  -2  -9  493.43   25.50   0
  -7  -2  -9  491.41   25.66   0
  -7  -2  -9  503.51   24.59   0
   7   2   9  494.09   23.37   0
   7   2   9  470.67   25.23   0
   7   2   9  503.33   25.04   0
  -8  -2  -9   62.11    8.57   0
  -8  -2  -9   46.90    9.27   0
  -8  -2  -9   45.46   10.05   0
   8   2   9   63.88    9.31   0
   8   2   9   44.40    8.82   0
   8   2   9   51.22    8.72   0
  -6   3   9    7.10    6.04   0
  -6   3   9   -7.55    5.69   0
   5  -3  -9 1353.20   54.39   0
  -5   3   9 1414.64   56.80   0
  -5   3   9 1339.10   56.83   0
   4  -3  -9    3.85    2.85   0
  -4   3   9    1.19    3.32   0
  -4   3   9   -1.37    3.24   0
   3  -3  -9 1381.52   53.84   0
  -3   3   9 1310.18   53.31   0
  -3   3   9 1350.09   54.02   0
  -3   3   9 1285.01   53.89   0
  -2   3   9   26.10    4.11   0
  -2   3   9   30.94    4.35   0
  -2   3   9   25.34    3.74   0
   1  -3  -9   53.98    5.32   0
   1  -3  -9   52.86    3.54   0
  -1   3   9   47.73    4.98   0
  -1   3   9   54.50    5.05   0
   0  -3  -9 1557.16   59.71   0
   0  -3  -9 1580.95   61.37   0
   0  -3  -9 1498.48   60.05   0
   0  -3  -9 1526.72   58.76   0
   0   3   9 1446.17   60.42   0
   0   3   9 1526.48   60.80   0
   0   3   9 1514.65   60.82   0
  -1  -3  -9  345.49   15.00   0
  -1  -3  -9  335.95   15.53   0
  -1  -3  -9  338.69   16.02   0
  -1  -3  -9  350.27   16.65   0
   1   3   9  327.02   16.01   0
   1   3   9  361.57   16.52   0
   1   3   9  351.51   16.27   0
  -2  -3  -9  213.87   10.42   0
  -2  -3  -9  203.37   11.10   0
  -2  -3  -9  202.55   10.83   0
  -2  -3  -9  213.01   11.54   0
   2   3   9  203.44   11.49   0
   2   3   9  199.96   11.07   0
   2   3   9  208.11   11.10   0
  -3  -3  -9  524.74   23.17   0
  -3  -3  -9  481.58   22.12   0
  -3  -3  -9  510.60   22.51   0
  -3  -3  -9  511.27   22.74   0
   3   3   9  484.75   23.01   0
   3   3   9  503.99   22.74   0
   3   3   9  487.47   22.40   0
  -4  -3  -9   31.73    5.26   0
  -4  -3  -9   26.36    4.53   0
  -4  -3  -9   24.03    3.89   0
   4   3   9   26.32    4.49   0
   4   3   9   21.42    3.56   0
   4   3   9   26.78    4.28   0
  -5  -3  -9 1705.01   65.44   0
  -5  -3  -9 1660.36   64.81   0
  -5  -3  -9 1338.56   63.65   0
  -5  -3  -9 1628.29   64.77   0
   5   3   9 1706.25   65.68   0
   5   3   9 1360.88   63.33   0
   5   3   9 1670.60   64.92   0
  -6  -3  -9  352.01   19.33   0
  -6  -3  -9  356.47   18.41   0
  -6  -3  -9  341.84   18.63   0
  -6  -3  -9  349.14   18.16   0
   6   3   9  328.66   19.16   0
   6   3   9  357.13   17.46   0
   6   3   9  340.30   18.48   0
  -7  -3  -9  268.91   17.81   0
  -7  -3  -9  284.96   17.57   0
  -7  -3  -9  288.75   16.41   0
  -7  -3  -9  284.53   16.59   0
   7   3   9  296.20   15.55   0
   7   3   9  285.99   17.16   0
   7   3   9  270.73   17.54   0
  -8  -3  -9   34.08    7.61   0
  -8  -3  -9   46.73    8.06   0
  -8  -3  -9   57.53    8.26   0
   8   3   9   69.81   10.97   0
   8   3   9   50.51    6.56   0
   8   3   9   35.63    6.96   0
  -6   4   9   10.86    6.78   0
   5  -4  -9  187.02   10.34   0
  -5   4   9  179.76   13.45   0
  -5   4   9  175.01   13.34   0
   4  -4  -9 1294.37   53.36   0
  -4   4   9 1357.98   54.73   0
  -4   4   9 1326.54   54.87   0
   3  -4  -9  475.04   22.38   0
   3  -4  -9  491.67   20.86   0
   3  -4  -9  520.80   21.21   0
  -3   4   9  501.71   23.22   0
  -3   4   9  552.97   23.50   0
   2  -4  -9  445.42   18.76   0
   2  -4  -9  427.11   18.25   0
   2  -4  -9  440.98   19.60   0
  -2   4   9  420.93   19.85   0
  -2   4   9  404.80   19.56   0
  -2   4   9  423.83   19.29   0
   1  -4  -9  405.76   17.70   0
   1  -4  -9  411.62   18.78   0
   1  -4  -9  388.71   18.34   0
  -1   4   9  409.08   18.66   0
  -1   4   9  410.83   18.54   0
   0  -4  -9  288.70   13.19   0
   0  -4  -9  286.07   11.41   0
   0  -4  -9  271.30   13.78   0
   0  -4  -9  253.24   13.81   0
   0   4   9  273.59   13.55   0
   0   4   9  272.06   13.84   0
   0   4   9  272.18   13.53   0
  -1  -4  -9  962.87   43.28   0
  -1  -4  -9 1093.78   43.17   0
  -1  -4  -9 1089.09   43.77   0
  -1  -4  -9 1063.73   41.88   0
   1   4   9 1058.79   43.68   0
   1   4   9 1091.66   43.37   0
   1   4   9 1029.65   43.20   0
  -2  -4  -9 1792.72   71.88   0
  -2  -4  -9 1719.59   71.58   0
  -2  -4  -9 1784.53   70.63   0
  -2  -4  -9 1826.25   71.61   0
   2   4   9 1773.54   71.40   0
   2   4   9 1814.29   71.65   0
   2   4   9 1854.71   72.13   0
  -3  -4  -9  263.56   13.76   0
  -3  -4  -9  258.58   13.23   0
  -3  -4  -9  264.21   13.99   0
  -3  -4  -9  280.92   14.13   0
   3   4   9  253.26   13.36   0
   3   4   9  259.17   13.76   0
   3   4   9  279.66   14.54   0
  -4  -4  -9  235.09   13.24   0
  -4  -4  -9  231.36   12.60   0
  -4  -4  -9  236.26   12.84   0
  -4  -4  -9  222.51   12.64   0
   4   4   9  212.98   13.37   0
   4   4   9  226.56   12.27   0
   4   4   9  230.89   12.87   0
  -5  -4  -9  840.11   36.12   0
  -5  -4  -9  812.36   36.21   0
  -5  -4  -9  780.08   35.81   0
  -5  -4  -9  850.38   36.99   0
   5   4   9  838.94   37.10   0
   5   4   9  840.67   35.43   0
   5   4   9  854.90   36.36   0
  -6  -4  -9  169.51   11.34   0
  -6  -4  -9  155.96   12.07   0
  -6  -4  -9  170.96   11.93   0
  -6  -4  -9  177.29   12.97   0
   6   4   9  173.30   10.69   0
   6   4   9  156.83   12.63   0
   6   4   9  166.84   11.86   0
  -7  -4  -9  480.87   24.03   0
  -7  -4  -9  511.90   24.89   0
  -7  -4  -9  486.30   25.56   0
  -7  -4  -9  486.93   26.14   0
   7   4   9  497.62   23.17   0
   7   4   9  512.46   25.08   0
   7   4   9  483.60   25.75   0
  -8  -4  -9   72.74   11.58   0
  -8  -4  -9   73.65   12.81   0
  -8  -4  -9   89.84   13.47   0
  -8  -4  -9   75.62   10.16   0
   8   4   9   72.61   11.56   0
   8   4   9   65.48   11.73   0
   8   4   9   85.34    8.93   0
  -6   5   9  454.11   25.79   0
  -6   5   9  479.02   25.85   0
   5  -5  -9   34.81    5.99   0
   5  -5  -9   41.91    5.93   0
  -5   5   9   27.71    6.63   0
  -5   5   9   30.73    6.06   0
   4  -5  -9  316.91   15.02   0
   4  -5  -9  293.36   14.10   0
   4  -5  -9  294.55   14.96   0
  -4   5   9  294.83   16.55   0
  -4   5   9  309.04   16.89   0
   3  -5  -9 1064.52   44.94   0
   3  -5  -9 1113.30   45.00   0
   3  -5  -9 1111.71   44.28   0
  -3   5   9 1104.55   45.86   0
  -3   5   9 1080.90   45.89   0
   2  -5  -9 2184.48   91.83   0
   2  -5  -9 2377.05   91.22   0
   2  -5  -9 2374.18   91.86   0
  -2   5   9 2428.25   92.39   0
  -2   5   9 2278.89   92.11   0
   1  -5  -9 1039.51   41.93   0
   1  -5  -9 1060.64   41.46   0
   1  -5  -9  925.64   42.12   0
  -1   5   9  991.50   41.84   0
  -1   5   9 1033.81   41.70   0
   0  -5  -9  869.68   40.41   0
   0  -5  -9  967.06   37.76   0
   0  -5  -9  993.30   40.30   0
   0  -5  -9 1013.22   39.94   0
   0   5   9  924.78   39.96   0
   0   5   9  990.91   40.52   0
   0   5   9  999.06   40.06   0
  -1  -5  -9 1711.77   66.70   0
  -1  -5  -9 1706.21   67.00   0
  -1  -5  -9 1538.20   66.93   0
  -1  -5  -9 1636.46   65.11   0
   1   5   9 1688.23   67.18   0
   1   5   9 1678.86   66.70   0
   1   5   9 1697.35   66.63   0
  -2  -5  -9   42.01    5.50   0
  -2  -5  -9   54.87    5.58   0
  -2  -5  -9   54.11    6.39   0
   2   5   9   66.75    6.68   0
   2   5   9   53.94    5.75   0
   2   5   9   55.13    5.38   0
  -3  -5  -9 1830.59   82.91   0
  -3  -5  -9 2184.31   83.84   0
  -3  -5  -9 2169.34   82.91   0
  -3  -5  -9 2066.42   83.37   0
   3   5   9 2079.71   83.28   0
   3   5   9 2076.79   83.96   0
   3   5   9 2236.47   83.20   0
  -4  -5  -9   76.14    6.84   0
  -4  -5  -9   65.43    6.80   0
  -4  -5  -9   74.97    7.18   0
  -4  -5  -9   76.04    7.51   0
   4   5   9   68.97    6.40   0
   4   5   9   76.81    7.92   0
   4   5   9   61.50    6.88   0
  -5  -5  -9  251.69   14.19   0
  -5  -5  -9  252.63   14.70   0
  -5  -5  -9  237.73   13.45   0
  -5  -5  -9  218.25   13.85   0
   5   5   9  201.80   12.56   0
   5   5   9  228.89   14.79   0
   5   5   9  242.68   13.91   0
  -6  -5  -9  499.22   25.24   0
  -6  -5  -9  493.63   23.55   0
  -6  -5  -9  455.42   23.74   0
  -6  -5  -9  512.37   24.77   0
   6   5   9  500.20   22.83   0
   6   5   9  490.36   25.13   0
   6   5   9  492.91   23.93   0
  -7  -5  -9   12.56    5.33   0
  -7  -5  -9    4.63    4.03   0
  -7  -5  -9   -0.63    5.45   0
  -7  -5  -9   13.05    5.93   0
   7   5   9    1.68    3.39   0
   7   5   9    2.85    5.50   0
   7   5   9    7.86    4.66   0
  -8  -5  -9  104.45   10.82   0
  -8  -5  -9  104.61   14.32   0
  -8  -5  -9   95.16   12.84   0
  -8  -5  -9   75.34   12.02   0
   8   5   9  100.21   12.31   0
   8   5   9   99.60   13.35   0
   8   5   9  118.23    9.89   0
   5  -6  -9  513.24   24.55   0
   5  -6  -9  536.54   23.40   0
   5  -6  -9  532.85   23.27   0
  -5   6   9  519.39   26.70   0
  -5   6   9  478.33   25.72   0
   4  -6  -9  297.91   14.63   0
   4  -6  -9  287.36   14.57   0
   4  -6  -9  274.08   15.98   0
  -4   6   9  300.23   16.96   0
  -4   6   9  266.84   16.42   0
   3  -6  -9  589.48   25.71   0
   3  -6  -9  556.15   26.85   0
   3  -6  -9  611.53   25.68   0
  -3   6   9  562.66   26.77   0
  -3   6   9  584.14   26.99   0
   2  -6  -9   37.93    5.19   0
   2  -6  -9   27.57    4.85   0
   2  -6  -9   27.53    5.12   0
  -2   6   9   33.14    6.00   0
  -2   6   9   33.60    5.36   0
   1  -6  -9 3667.86  135.89   0
   1  -6  -9 3607.86  136.10   0
   1  -6  -9 3264.56  136.86   0
  -1   6   9 3402.61  136.12   0
   0  -6  -9  177.46   10.09   0
   0  -6  -9  151.65   11.56   0
   0  -6  -9  168.12    9.94   0
   0   6   9  170.27   10.64   0
   0   6   9  156.89   10.08   0
   0   6   9  165.80    9.78   0
  -1  -6  -9  705.82   30.10   0
  -1  -6  -9  681.95   29.93   0
  -1  -6  -9  667.63   30.66   0
   1   6   9  691.12   29.74   0
   1   6   9  687.70   30.56   0
   1   6   9  703.82   29.99   0
  -2  -6  -9 1454.82   56.13   0
  -2  -6  -9 1416.11   56.24   0
  -2  -6  -9 1361.61   56.40   0
   2   6   9 1334.68   55.51   0
   2   6   9 1283.24   56.29   0
   2   6   9 1371.60   55.83   0
  -3  -6  -9  210.61   12.56   0
  -3  -6  -9  211.21   12.12   0
  -3  -6  -9  206.98   12.40   0
   3   6   9  218.63   12.00   0
   3   6   9  220.89   12.35   0
   3   6   9  220.29   13.26   0
  -4  -6  -9 1455.89   59.60   0
  -4  -6  -9 1463.58   59.59   0
  -4  -6  -9 1424.03   59.80   0
  -4  -6  -9 1482.13   60.51   0
   4   6   9 1454.14   59.19   0
   4   6   9 1483.89   60.72   0
   4   6   9 1435.14   59.56   0
  -5  -6  -9  293.53   15.93   0
  -5  -6  -9  307.20   17.30   0
  -5  -6  -9  307.10   16.73   0
  -5  -6  -9  285.38   16.48   0
   5   6   9  310.14   16.64   0
   5   6   9  313.50   15.77   0
   5   6   9  308.87   17.66   0
  -6  -6  -9   20.04    4.82   0
  -6  -6  -9   35.68    6.80   0
  -6  -6  -9   24.69    5.54   0
   6   6   9   36.98    6.92   0
   6   6   9   27.87    5.31   0
   6   6   9   27.89    4.51   0
  -7  -6  -9  101.22   10.88   0
  -7  -6  -9  105.34   10.15   0
  -7  -6  -9  105.98   12.17   0
  -7  -6  -9  114.95   13.41   0
   7   6   9  108.09   12.22   0
   7   6   9  124.09    9.55   0
   7   6   9   83.98   10.67   0
  -8  -6  -9  201.29   14.77   0
  -8  -6  -9  217.03   16.94   0
   8   6   9  216.83   16.24   0
   8   6   9  238.03   13.75   0
   8   6   9  208.39   17.26   0
   5  -7  -9  453.61   20.64   0
   5  -7  -9  415.75   22.65   0
   5  -7  -9  426.67   20.17   0
  -5   7   9  392.32   22.99   0
  -5   7   9  404.27   23.60   0
   4  -7  -9   -3.97    3.14   0
   4  -7  -9    0.55    3.15   0
   4  -7  -9    3.19    5.12   0
  -4   7   9    0.48    5.15   0
   3  -7  -9   95.41    7.61   0
   3  -7  -9   87.13    7.72   0
   3  -7  -9   67.37   10.45   0
  -3   7   9   66.15    8.95   0
  -3   7   9   78.86    9.26   0
   2  -7  -9  225.64   15.18   0
   2  -7  -9  232.75   12.73   0
   2  -7  -9  234.37   12.83   0
  -2   7   9  213.89   13.86   0
  -2   7   9  227.49   13.74   0
   1  -7  -9   26.46    3.83   0
   1  -7  -9   17.00    3.51   0
   1  -7  -9   35.08    5.49   0
   1  -7  -9   21.19    5.29   0
  -1   7   9   24.48    5.11   0
  -1   7   9   30.19    4.86   0
   0  -7  -9 2162.58   83.98   0
   0  -7  -9 2104.23   87.06   0
   0  -7  -9 2182.81   85.71   0
   0  -7  -9 2191.34   85.71   0
   0   7   9 2114.25   86.08   0
   0   7   9 2150.07   85.78   0
  -1  -7  -9  224.64   12.47   0
  -1  -7  -9  209.14   13.55   0
  -1  -7  -9  219.68   12.23   0
   1   7   9  213.97   12.02   0
   1   7   9  211.10   12.28   0
   1   7   9  209.84   13.17   0
  -2  -7  -9  470.35   23.41   0
  -2  -7  -9  474.82   22.78   0
  -2  -7  -9  473.29   22.44   0
   2   7   9  497.50   22.39   0
   2   7   9  496.65   22.59   0
   2   7   9  494.58   23.51   0
  -3  -7  -9  248.49   13.16   0
  -3  -7  -9  247.41   14.01   0
   3   7   9  196.55   12.39   0
   3   7   9  234.20   13.24   0
   3   7   9  235.33   14.64   0
  -4  -7  -9 2136.02   85.54   0
  -4  -7  -9 2091.43   84.94   0
   4   7   9 2158.41   84.73   0
   4   7   9 2062.53   86.04   0
   4   7   9 2168.81   85.19   0
  -5  -7  -9  558.91   25.55   0
  -5  -7  -9  544.83   26.08   0
  -5  -7  -9  546.86   26.91   0
   5   7   9  550.92   25.73   0
   5   7   9  530.47   26.96   0
   5   7   9  544.31   24.99   0
  -6  -7  -9 1042.34   47.28   0
  -6  -7  -9 1115.87   46.61   0
  -6  -7  -9 1030.40   46.64   0
  -6  -7  -9 1059.95   45.52   0
   6   7   9 1080.04   45.15   0
   6   7   9 1069.19   47.39   0
   6   7   9 1095.59   46.02   0
  -7  -7  -9    6.79    5.84   0
  -7  -7  -9   -4.84    4.43   0
  -7  -7  -9   -3.95    5.16   0
  -7  -7  -9   -2.48    4.25   0
   7   7   9    8.40    6.38   0
   7   7   9    2.62    5.10   0
   7   7   9   -3.61    3.97   0
   5  -8  -9   13.22    7.65   0
   5  -8  -9   18.57    4.97   0
   5  -8  -9   10.50    4.80   0
  -5   8   9    4.09    7.00   0
  -5   8   9    1.50    9.20   0
   4  -8  -9  166.22   15.41   0
   4  -8  -9  171.80   11.24   0
   4  -8  -9  166.36   11.33   0
  -4   8   9  140.42   13.36   0
  -4   8   9  159.66   13.98   0
   3  -8  -9  411.32   19.66   0
   3  -8  -9  402.88   16.91   0
   3  -8  -9  406.17   19.77   0
   3  -8  -9  376.89   23.21   0
  -3   8   9  419.70   21.53   0
  -3   8   9  372.22   20.75   0
   2  -8  -9   52.01    5.39   0
   2  -8  -9   61.78    6.91   0
   2  -8  -9   64.08   11.08   0
   2  -8  -9   57.42    7.14   0
  -2   8   9   65.26    8.65   0
  -2   8   9   50.98    8.54   0
   1  -8  -9  120.20    8.31   0
   1  -8  -9  152.72   13.33   0
   1  -8  -9  139.01    9.90   0
   1  -8  -9  140.31    9.64   0
  -1   8   9  133.14   10.36   0
  -1   8   9  149.70   10.94   0
   0  -8  -9  588.30   25.69   0
   0  -8  -9  585.69   25.86   0
   0  -8  -9  519.63   27.56   0
   0  -8  -9  545.59   24.40   0
   0   8   9  558.38   26.36   0
   0   8   9  549.38   25.77   0
  -1  -8  -9  797.96   34.38   0
  -1  -8  -9  748.07   35.40   0
  -1  -8  -9  797.97   34.10   0
   1   8   9  777.83   34.13   0
   1   8   9  786.81   35.02   0
  -2  -8  -9 1746.97   74.56   0
  -2  -8  -9 1854.17   73.74   0
  -2  -8  -9 1839.04   74.17   0
   2   8   9 1817.06   73.64   0
   2   8   9 1866.34   74.71   0
  -3  -8  -9   53.72    6.71   0
  -3  -8  -9   62.41    7.79   0
  -3  -8  -9   51.49    8.35   0
   3   8   9   47.97    8.62   0
   3   8   9   53.15    7.20   0
  -4  -8  -9   13.34    3.56   0
  -4  -8  -9    9.81    3.94   0
  -4  -8  -9    8.37    4.79   0
   4   8   9   10.26    4.25   0
   4   8   9    4.00    4.48   0
  -5  -8  -9 1206.70   51.01   0
  -5  -8  -9 1202.84   51.86   0
  -5  -8  -9 1225.66   52.70   0
   5   8   9 1205.53   52.69   0
   5   8   9 1244.23   51.30   0
  -6  -8  -9   13.82    5.29   0
  -6  -8  -9   22.61    4.75   0
  -6  -8  -9   11.94    5.27   0
   6   8   9    6.68    6.01   0
  -7  -8  -9  449.87   23.15   0
  -7  -8  -9  484.23   25.04   0
  -7  -8  -9  458.19   26.20   0
  -7  -8  -9  417.95   25.06   0
   7   8   9  446.75   25.70   0
   7   8   9  493.66   24.27   0
   4  -9  -9  132.95   11.68   0
   4  -9  -9  151.36   11.08   0
   4  -9  -9  125.50    8.61   0
  -4   9   9  134.02   14.56   0
   3  -9  -9   93.32    7.63   0
   3  -9  -9   88.17   14.73   0
   3  -9  -9  102.04    9.03   0
   3  -9  -9   98.07    9.54   0
  -3   9   9   97.33   11.74   0
  -3   9   9   84.11   11.42   0
   2  -9  -9 1590.32   65.03   0
   2  -9  -9 1583.32   68.09   0
   2  -9  -9 1578.91   64.80   0
   2  -9  -9 1534.32   63.29   0
  -2   9   9 1643.77   66.10   0
   1  -9  -9   19.52    6.53   0
   1  -9  -9   18.28    4.04   0
   1  -9  -9   20.19    4.94   0
   1  -9  -9   14.50    3.97   0
  -1   9   9   17.25    4.75   0
  -1   9   9   17.32    4.61   0
   0  -9  -9    7.66    4.29   0
   0  -9  -9    4.23    5.79   0
   0  -9  -9   10.35    3.75   0
   0  -9  -9    6.44    3.61   0
   0   9   9   12.63    5.21   0
   0   9   9   13.89    4.75   0
  -1  -9  -9  659.30   29.72   0
  -1  -9  -9  640.39   29.14   0
  -1  -9  -9  644.70   31.34   0
   1   9   9  671.56   30.50   0
   1   9   9  615.65   29.25   0
  -2  -9  -9   15.79    4.10   0
  -2  -9  -9   12.47    5.18   0
  -2  -9  -9   15.20    4.36   0
   2   9   9   15.29    4.43   0
   2   9   9   26.44    5.53   0
  -3  -9  -9 1282.19   53.04   0
  -3  -9  -9 1210.10   53.98   0
  -3  -9  -9 1267.25   53.92   0
   3   9   9 1290.70   54.33   0
   3   9   9 1290.37   52.94   0
  -4  -9  -9   19.15    4.05   0
  -4  -9  -9    8.98    4.39   0
   4   9   9   10.85    4.47   0
   4   9   9   12.36    5.18   0
  -5  -9  -9   27.26    4.93   0
  -5  -9  -9   24.45    6.12   0
  -5  -9  -9   29.33    5.91   0
   5   9   9   33.81    5.68   0
   5   9   9   33.14    7.40   0
  -6  -9  -9  288.84   19.33   0
  -6  -9  -9  250.90   17.56   0
  -6  -9  -9  268.20   16.36   0
   6   9   9  259.49   18.82   0
   6   9   9  298.43   17.21   0
  -7  -9  -9   18.07    6.16   0
  -7  -9  -9   27.51    8.21   0
   7   9   9   14.00    7.66   0
   7   9   9   17.91    6.59   0
   3 -10  -9  308.63   18.24   0
   3 -10  -9  321.81   23.20   0
   3 -10  -9  307.50   17.47   0
   3 -10  -9  333.70   16.53   0
  -3  10   9  316.40   19.85   0
  -3  10   9  275.35   19.53   0
   2 -10  -9   11.78    4.22   0
   2 -10  -9   12.37    7.63   0
   2 -10  -9    0.94    4.36   0
   2 -10  -9   -1.19    4.50   0
  -2  10   9   -4.59    5.20   0
   1 -10  -9 1463.15   62.44   0
   1 -10  -9 1714.97   66.61   0
   1 -10  -9 1464.22   61.47   0
   1 -10  -9 1466.42   62.05   0
  -1  10   9 1352.07   62.55   0
  -1  10   9 1592.48   63.24   0
   0 -10  -9  282.30   19.91   0
   0 -10  -9  253.67   15.38   0
   0 -10  -9  257.23   15.17   0
   0 -10  -9  262.14   15.95   0
   0  10   9  299.78   16.85   0
   0  10   9  252.49   16.98   0
  -1 -10  -9   60.51    7.53   0
  -1 -10  -9   58.91    8.52   0
  -1 -10  -9   67.67   12.28   0
  -1 -10  -9   67.67    9.16   0
   1  10   9   63.90    8.74   0
   1  10   9   70.26    9.24   0
  -2 -10  -9   74.66   11.79   0
  -2 -10  -9   64.71    9.06   0
  -2 -10  -9   53.06    7.50   0
   2  10   9   59.45    8.82   0
   2  10   9   48.39    7.48   0
  -3 -10  -9  165.89   12.84   0
  -3 -10  -9  163.05   11.87   0
   3  10   9  163.59   14.44   0
   3  10   9  167.97   12.18   0
  -4 -10  -9  230.09   16.17   0
  -4 -10  -9  225.07   16.53   0
  -4 -10  -9  237.45   14.70   0
   4  10   9  238.66   16.86   0
   4  10   9  247.58   15.06   0
  -5 -10  -9   90.10   12.08   0
  -5 -10  -9   84.22   10.09   0
   5  10   9   85.30   12.95   0
  -6 -10  -9    4.58    9.69   0
  -6 -10  -9   15.90    6.81   0
  -6 -10  -9   29.23    6.40   0
   6  10   9   32.21    6.94   0
   6  10   9   15.42    7.88   0
   3 -11  -9  176.60   13.79   0
   3 -11  -9  185.25   21.55   0
   3 -11  -9  151.43   14.36   0
   3 -11  -9  192.16   13.92   0
  -3  11   9  187.62   16.95   0
   2 -11  -9   46.52    7.63   0
   2 -11  -9   51.31    7.75   0
  -2  11   9   70.36   12.18   0
   1 -11  -9  154.56   17.60   0
   1 -11  -9  156.46   12.01   0
   1 -11  -9  157.03   12.41   0
   1 -11  -9  153.38   12.70   0
  -1  11   9  125.80   13.36   0
  -1  11   9  113.51   13.64   0
   0 -11  -9  356.57   18.77   0
   0 -11  -9  313.97   18.84   0
   0 -11  -9  344.39   19.66   0
   0 -11  -9  358.03   23.37   0
   0  11   9  350.10   19.73   0
   0  11   9  318.67   20.19   0
  -1 -11  -9  833.10   38.23   0
  -1 -11  -9  864.96   39.15   0
  -1 -11  -9  858.40   41.30   0
  -1 -11  -9  849.70   38.02   0
   1  11   9  877.12   38.67   0
   1  11   9  866.50   39.52   0
  -2 -11  -9   31.37    6.88   0
  -2 -11  -9   32.94    7.11   0
  -2 -11  -9   31.87    6.02   0
   2  11   9   19.06    6.81   0
  -3 -11  -9    0.02    4.71   0
  -3 -11  -9   10.25    6.41   0
  -3 -11  -9    6.64    4.88   0
   3  11   9   -3.27    6.55   0
  -4 -11  -9  282.79   20.76   0
  -4 -11  -9  350.87   18.91   0
  -4 -11  -9  320.46   20.34   0
   4  11   9  304.14   20.73   0
   4  11   9  347.12   19.11   0
  -5 -11  -9   11.63    5.38   0
  -5 -11  -9    7.53    9.66   0
   5  11   9    9.69    7.72   0
   5  11   9    6.32    5.65   0
   1 -12  -9   -3.28    5.94   0
   1 -12  -9   -0.05    6.36   0
   1 -12  -9   -9.16    6.23   0
   1 -12  -9   -2.28    9.18   0
  -1  12   9    0.37    7.87   0
  -1  12   9   -5.52    6.81   0
   0 -12  -9  485.58   30.50   0
   0 -12  -9  461.98   25.64   0
   0 -12  -9  467.53   24.68   0
   0 -12  -9  539.61   26.26   0
   0  12   9  475.17   27.00   0
   0  12   9  479.32   25.79   0
  -1 -12  -9    5.26    8.53   0
  -1 -12  -9   17.05    5.53   0
  -1 -12  -9   12.47    6.59   0
  -1 -12  -9   24.30    7.21   0
   1  12   9   11.08    7.56   0
   1  12   9   17.36    6.06   0
  -2 -12  -9  932.45   44.17   0
  -2 -12  -9 1119.92   44.82   0
  -2 -12  -9 1019.10   46.83   0
  -2 -12  -9  868.64   42.69   0
   2  12   9  970.89   43.31   0
   2  12   9  939.72   44.29   0
  -3 -12  -9   -1.83    8.36   0
  -3 -12  -9   -5.84    4.82   0
  -3 -12  -9    2.00    7.38   0
   3  12   9    1.95    5.91   0
   3  12   9   -4.65    7.68   0
  -4 -12  -9    5.82    6.34   0
  -4 -12  -9   -0.61    8.64   0
   4  12   9    5.96    6.54   0
   4  12   9   19.05    8.24   0
   1  -5  10   31.09    7.27   0
   1  -5  10   34.25    5.47   0
   1  -5  10   33.25    5.56   0
   1  -5  10   29.06    6.48   0
  -2   5 -10   14.31    7.72   0
   2  -5  10   18.29    6.21   0
   2  -5  10   13.77    5.36   0
   2  -5  10   12.53    5.03   0
   2  -5  10    8.52    6.12   0
  -1  -4  10  601.32   24.39   0
  -1  -4  10  599.31   27.93   0
  -1  -4  10  567.46   26.85   0
  -1  -4  10  545.72   24.29   0
   0  -4  10   90.35    7.90   0
   0  -4  10  100.04   10.18   0
   0  -4  10  102.48   10.67   0
   0  -4  10   84.87    7.72   0
   1  -4  10  962.63   42.87   0
   1  -4  10 1023.02   42.36   0
   1  -4  10  950.05   40.73   0
   1  -4  10  976.44   40.82   0
  -2   4 -10    8.01    5.79   0
   2  -4  10   14.80    4.89   0
   2  -4  10    4.56    5.06   0
   2  -4  10   12.33    4.29   0
   2  -4  10    9.42    4.18   0
  -3   4 -10   43.88    8.54   0
   3  -4  10   34.14    6.81   0
   3  -4  10   38.95    6.16   0
   3  -4  10   31.56    5.97   0
   3  -4  10   20.59    5.15   0
  -4   4 -10  451.29   26.03   0
   4  -4  10  443.11   24.33   0
   4  -4  10  449.37   23.55   0
   4  -4  10  446.21   23.47   0
   4  -4  10  473.69   24.04   0
  -3  -3  10 1163.09   48.26   0
  -3  -3  10 1138.99   47.07   0
  -2  -3  10   35.63    6.21   0
  -2  -3  10   39.15    4.57   0
  -2  -3  10   38.65    4.44   0
  -2  -3  10   38.94    5.47   0
  -1  -3  10  159.47    8.81   0
  -1  -3  10  159.75    8.90   0
  -1  -3  10  168.11   11.80   0
  -1  -3  10  159.17   10.59   0
   0  -3  10  664.06   28.31   0
   0  -3  10  684.28   30.73   0
   0  -3  10  663.23   28.32   0
   0  -3  10  680.02   29.58   0
   1  -3  10  109.31    8.17   0
   1  -3  10   97.82    8.02   0
   1  -3  10  108.72    9.25   0
  -2   3 -10 1805.49   72.75   0
   2  -3  10 1703.90   70.62   0
   2  -3  10 1788.88   70.92   0
   2  -3  10 1759.22   72.08   0
   2  -3  10 1745.98   71.44   0
  -3   3 -10   29.05    6.99   0
   3  -3  10   28.24    5.92   0
   3  -3  10   24.64    5.06   0
  -4   3 -10  130.41   13.60   0
   4  -3  10  157.33   12.61   0
   4  -3  10  152.90   11.79   0
   4  -3  10  149.43   11.84   0
   4  -3  10  154.73   12.08   0
  -5   3 -10  350.15   17.15   0
  -5   3 -10  340.47   18.04   0
  -5   3 -10  376.99   22.64   0
   5  -3  10  355.01   20.92   0
   5  -3  10  346.45   19.98   0
   5  -3  10  383.22   20.90   0
   5  -3  10  383.50   20.75   0
  -3  -2  10    0.57    3.19   0
  -3  -2  10    4.70    2.67   0
  -3  -2  10    6.53    2.57   0
  -3  -2  10    6.16    3.99   0
  -2  -2  10  895.95   37.49   0
  -2  -2  10  991.19   40.41   0
  -2  -2  10  954.82   38.63   0
  -2  -2  10  943.10   37.59   0
  -1  -2  10   89.79    6.12   0
  -1  -2  10   85.58    7.18   0
  -1  -2  10   89.76    6.13   0
  -1  -2  10   88.54    8.63   0
   0  -2  10  307.55   14.46   0
   0  -2  10  298.46   14.98   0
   0  -2  10  310.55   16.36   0
   0  -2  10  295.35   14.28   0
  -1   2 -10  426.22   20.42   0
   1  -2  10  421.75   20.33   0
   1  -2  10  412.49   19.27   0
   1  -2  10  387.15   18.74   0
   1  -2  10  401.19   18.77   0
  -2   2 -10 1677.30   68.04   0
   2  -2  10 1636.81   67.49   0
   2  -2  10 1684.62   66.73   0
   2  -2  10 1634.03   66.37   0
   2  -2  10 1634.42   66.80   0
  -3   2 -10 1219.56   52.64   0
   3  -2  10 1227.59   51.64   0
   3  -2  10 1239.41   51.70   0
   3  -2  10 1272.09   52.17   0
  -4   2 -10  732.63   33.08   0
  -4   2 -10  804.31   37.35   0
  -4   2 -10  817.56   33.74   0
   4  -2  10  859.26   36.35   0
   4  -2  10  826.29   35.98   0
   4  -2  10  823.35   36.23   0
   4  -2  10  832.72   36.33   0
  -5   2 -10  160.83   10.52   0
  -5   2 -10  171.76   14.66   0
  -5   2 -10  164.98   11.91   0
   5  -2  10  185.29   13.43   0
   5  -2  10  173.06   12.51   0
   5  -2  10  164.04   12.96   0
   5  -2  10  198.61   13.28   0
  -6   2 -10   25.10    8.43   0
  -6   2 -10   28.98    6.91   0
  -6   2 -10   23.90    5.11   0
   6  -2  10   25.37    6.39   0
   6  -2  10   22.89    6.52   0
   6  -2  10   17.42    5.11   0
   6  -2  10   21.74    6.12   0
  -4  -1  10  121.67    9.14   0
  -4  -1  10  126.27    8.89   0
  -4  -1  10  112.75    8.49   0
  -3  -1  10  115.76    9.18   0
  -3  -1  10  124.24    7.05   0
  -3  -1  10  126.14    7.74   0
  -2  -1  10  259.41   12.34   0
  -2  -1  10  281.24   14.49   0
  -2  -1  10  262.37   12.34   0
  -2  -1  10  269.72   12.33   0
  -1  -1  10  498.54   20.38   0
  -1  -1  10  453.92   20.25   0
  -1  -1  10  465.79   20.33   0
  -1  -1  10  477.93   22.24   0
   0  -1  10 1142.01   45.65   0
   0  -1  10 1170.52   47.35   0
   0  -1  10 1131.78   45.59   0
   0  -1  10 1086.64   45.53   0
  -1   1 -10  141.87    9.75   0
   1  -1  10  154.14    9.94   0
   1  -1  10  138.78    8.89   0
   1  -1  10  139.79    8.89   0
   1  -1  10  138.27    8.70   0
  -2   1 -10  121.12    9.40   0
   2  -1  10  116.10    8.31   0
   2  -1  10  107.86    8.36   0
   2  -1  10  126.54    8.62   0
   2  -1  10  120.89    9.10   0
  -3   1 -10 1843.62   73.58   0
  -3   1 -10 1728.55   69.95   0
   3  -1  10 1856.43   72.66   0
   3  -1  10 1847.17   73.07   0
   3  -1  10 1707.96   72.30   0
   3  -1  10 1829.37   72.91   0
  -4   1 -10  171.71   10.16   0
  -4   1 -10  192.91   13.21   0
  -4   1 -10  183.53   10.99   0
   4  -1  10  199.96   12.39   0
   4  -1  10  188.61   12.50   0
   4  -1  10  179.61   12.05   0
   4  -1  10  169.63   11.93   0
  -5   1 -10 1674.65   66.97   0
  -5   1 -10 1529.11   65.86   0
  -5   1 -10 1677.05   68.73   0
   5  -1  10 1601.41   68.02   0
   5  -1  10 1646.72   67.75   0
   5  -1  10 1687.82   67.47   0
   5  -1  10 1664.35   67.77   0
  -6   1 -10  170.51   14.63   0
  -6   1 -10  169.51   13.56   0
  -6   1 -10  160.44   11.48   0
   6  -1  10  162.86   13.29   0
   6  -1  10  167.14   13.74   0
   6  -1  10  164.42   12.16   0
  -4   0  10 1283.64   52.06   0
  -4   0  10 1264.43   51.99   0
  -4   0  10 1327.41   52.12   0
  -3   0  10   11.84    3.05   0
  -3   0  10   11.77    3.47   0
  -3   0  10    8.38    3.35   0
  -2   0  10   28.14    4.38   0
  -2   0  10   24.08    3.01   0
  -2   0  10   24.65    4.27   0
  -1   0  10  742.01   32.34   0
  -1   0  10  722.23   30.88   0
  -1   0  10  766.47   30.25   0
  -1   0  10  777.29   31.05   0
   0   0  10   60.27    5.43   0
   0   0  10   63.71    5.55   0
   0   0  10   48.99    6.25   0
   0   0  10   61.61    4.90   0
  -1   0 -10 2015.25   78.09   0
   1   0  10 2052.04   77.75   0
   1   0  10 1919.16   77.08   0
   1   0  10 1890.27   78.38   0
   1   0  10 1935.52   77.48   0
  -2   0 -10  190.21   11.06   0
   2   0  10  174.07   10.31   0
   2   0  10  171.13   10.12   0
   2   0  10  192.05   11.03   0
   2   0  10  164.75   10.51   0
  -3   0 -10    7.21    2.71   0
   3   0  10    0.28    2.55   0
   3   0  10    1.08    3.10   0
   3   0  10    1.21    2.33   0
   3   0  10    1.57    2.70   0
  -4   0 -10 1485.97   60.79   0
  -4   0 -10 1550.31   59.59   0
  -4   0 -10 1363.55   58.73   0
   4   0  10 1502.14   60.85   0
   4   0  10 1442.28   60.16   0
   4   0  10 1474.52   60.21   0
   4   0  10 1441.24   59.92   0
  -5   0 -10  126.93    9.74   0
  -5   0 -10  139.74   10.74   0
  -5   0 -10  136.65   11.51   0
   5   0  10  133.14   11.19   0
   5   0  10  121.79   10.12   0
   5   0  10  137.04   10.99   0
  -6   0 -10 1056.36   46.75   0
  -6   0 -10 1013.21   44.76   0
  -6   0 -10 1099.77   46.19   0
   6   0  10 1086.93   45.25   0
   6   0  10 1044.41   46.59   0
   6   0  10 1027.80   45.99   0
  -7   0 -10    2.54    6.51   0
  -7   0 -10    6.99    5.10   0
  -7   0 -10   -2.52    6.06   0
   7   0  10    4.16    4.49   0
   7   0  10    4.01    5.77   0
   7   0  10    2.14    7.84   0
  -5   1  10  435.70   21.94   0
  -5   1  10  461.65   21.99   0
  -4   1  10   -0.28    3.00   0
  -4   1  10   -2.35    3.49   0
  -4   1  10   -1.38    3.67   0
  -3   1  10 1459.00   59.22   0
  -3   1  10 1534.33   59.12   0
  -3   1  10 1437.02   58.89   0
   2  -1 -10  290.99   14.84   0
  -2   1  10  273.90   14.14   0
  -2   1  10  269.34   13.30   0
   1  -1 -10  232.44   13.58   0
  -1   1  10  255.38   12.41   0
  -1   1  10  265.35   13.51   0
  -1   1  10  272.71   12.69   0
   0  -1 -10  543.37   25.11   0
   0   1  10  525.38   23.54   0
   0   1  10  580.77   23.89   0
   0   1  10  542.77   24.52   0
  -1  -1 -10  268.39   14.32   0
   1   1  10  262.87   13.21   0
   1   1  10  242.42   12.10   0
   1   1  10  255.38   12.97   0
   1   1  10  266.85   13.73   0
  -2  -1 -10 1412.05   58.03   0
  -2  -1 -10 1357.88   55.27   0
  -2  -1 -10 1415.62   56.83   0
  -2  -1 -10 1430.01   55.24   0
   2   1  10 1415.57   57.24   0
   2   1  10 1366.79   56.72   0
   2   1  10 1435.80   57.15   0
  -3  -1 -10    9.23    3.60   0
  -3  -1 -10   13.48    3.56   0
   3   1  10   11.96    3.53   0
   3   1  10    9.45    2.66   0
   3   1  10   15.72    4.08   0
  -4  -1 -10  299.42   16.82   0
  -4  -1 -10  315.24   16.55   0
  -4  -1 -10  295.94   15.32   0
  -4  -1 -10  313.29   15.96   0
   4   1  10  320.13   16.08   0
   4   1  10  315.07   16.85   0
   4   1  10  303.10   16.24   0
  -5  -1 -10  889.05   39.56   0
  -5  -1 -10  944.43   39.40   0
  -5  -1 -10  844.09   38.24   0
   5   1  10  933.89   39.46   0
   5   1  10  880.54   39.98   0
   5   1  10  912.33   38.72   0
  -6  -1 -10 1131.55   48.83   0
  -6  -1 -10 1169.67   48.76   0
  -6  -1 -10 1085.93   47.39   0
   6   1  10 1104.60   48.32   0
   6   1  10 1077.32   48.96   0
   6   1  10 1153.64   47.48   0
  -7  -1 -10  390.79   21.59   0
  -7  -1 -10  356.16   21.45   0
  -7  -1 -10  321.52   19.20   0
   7   1  10  336.52   20.71   0
   7   1  10  359.66   20.72   0
   7   1  10  356.09   18.87   0
  -5   2  10  165.72   12.35   0
  -5   2  10  143.28   12.17   0
  -4   2  10  183.30   10.22   0
  -4   2  10  177.72   11.43   0
  -4   2  10  170.48   11.34   0
   3  -2 -10   97.27    7.69   0
  -3   2  10   90.62    7.61   0
  -3   2  10   89.08    7.35   0
  -3   2  10  109.33    8.15   0
   2  -2 -10  804.01   33.46   0
  -2   2  10  745.10   32.26   0
  -2   2  10  770.96   32.73   0
   1  -2 -10  618.26   27.09   0
  -1   2  10  562.62   25.69   0
  -1   2  10  615.65   26.54   0
  -1   2  10  626.24   26.05   0
   0  -2 -10  587.22   24.20   0
   0   2  10  595.46   25.65   0
   0   2  10  622.91   25.91   0
   0   2  10  581.88   26.17   0
  -1  -2 -10  435.33   20.12   0
  -1  -2 -10  416.05   17.21   0
  -1  -2 -10  404.56   18.11   0
  -1  -2 -10  395.81   17.46   0
   1   2  10  416.00   19.35   0
   1   2  10  399.19   18.80   0
   1   2  10  416.75   19.08   0
  -2  -2 -10 2401.79   95.54   0
  -2  -2 -10 2406.03   93.59   0
  -2  -2 -10 2230.75   93.60   0
  -2  -2 -10 2411.28   94.11   0
   2   2  10 2498.08   95.02   0
   2   2  10 2338.22   94.48   0
   2   2  10 2500.73   94.91   0
  -3  -2 -10  124.79    8.30   0
  -3  -2 -10  122.00    8.07   0
  -3  -2 -10  120.20    9.27   0
  -3  -2 -10  135.09    8.68   0
   3   2  10  134.87    8.74   0
   3   2  10  109.42    8.52   0
   3   2  10  123.83    9.28   0
  -4  -2 -10 1695.76   66.27   0
  -4  -2 -10 1594.57   65.63   0
  -4  -2 -10 1588.51   66.77   0
   4   2  10 1582.43   66.19   0
   4   2  10 1688.40   66.10   0
   4   2  10 1629.70   66.98   0
  -5  -2 -10  192.88   12.10   0
  -5  -2 -10  204.66   12.74   0
  -5  -2 -10  200.01   12.83   0
  -5  -2 -10  212.04   12.94   0
   5   2  10  196.18   13.43   0
   5   2  10  197.89   11.95   0
   5   2  10  186.47   12.63   0
  -6  -2 -10   14.42    4.54   0
  -6  -2 -10   19.80    5.61   0
  -6  -2 -10   19.97    5.82   0
  -6  -2 -10   15.53    4.98   0
   6   2  10   20.73    5.93   0
   6   2  10   18.35    4.31   0
  -7  -2 -10  596.87   30.35   0
  -7  -2 -10  605.63   28.98   0
  -7  -2 -10  575.09   30.01   0
   7   2  10  566.56   30.04   0
   7   2  10  713.27   28.84   0
   7   2  10  590.17   29.60   0
  -5   3  10   99.29   11.34   0
  -5   3  10  101.17   10.70   0
   4  -3 -10  129.09    9.09   0
  -4   3  10  124.78   10.23   0
  -4   3  10  138.11   10.47   0
   3  -3 -10  129.22    8.73   0
  -3   3  10  131.79    9.36   0
  -3   3  10  112.88    8.25   0
  -3   3  10  116.73    8.88   0
   2  -3 -10 1675.22   66.97   0
  -2   3  10 1633.41   66.38   0
  -2   3  10 1644.61   66.37   0
  -2   3  10 1697.70   66.62   0
   1  -3 -10  438.07   20.19   0
  -1   3  10  419.76   19.42   0
  -1   3  10  418.22   19.37   0
  -1   3  10  428.29   19.66   0
   0  -3 -10 2429.54   91.67   0
   0  -3 -10 2348.09   88.96   0
   0  -3 -10 2365.32   89.27   0
   0  -3 -10 2274.18   88.36   0
   0   3  10 2241.88   90.69   0
   0   3  10 2245.54   90.83   0
   0   3  10 2216.67   90.42   0
  -1  -3 -10  366.61   15.42   0
  -1  -3 -10  349.91   16.25   0
  -1  -3 -10  338.25   17.31   0
  -1  -3 -10  354.09   15.66   0
   1   3  10  344.09   16.80   0
   1   3  10  340.54   16.52   0
   1   3  10  323.51   16.61   0
  -2  -3 -10   12.78    3.65   0
  -2  -3 -10   18.13    3.48   0
   2   3  10   10.39    3.06   0
   2   3  10   18.51    3.46   0
   2   3  10   12.31    3.44   0
  -3  -3 -10 1622.88   68.10   0
  -3  -3 -10 1738.35   68.15   0
  -3  -3 -10 1803.44   68.65   0
  -3  -3 -10 1787.04   69.46   0
   3   3  10 1692.48   68.64   0
   3   3  10 1509.93   68.10   0
   3   3  10 1769.72   69.32   0
  -4  -3 -10  210.43   13.14   0
  -4  -3 -10  220.76   12.55   0
  -4  -3 -10  224.34   12.66   0
  -4  -3 -10  226.61   13.01   0
   4   3  10  206.86   12.68   0
   4   3  10  221.87   13.58   0
   4   3  10  208.24   12.21   0
  -5  -3 -10  629.05   29.41   0
  -5  -3 -10  682.00   30.00   0
  -5  -3 -10  664.20   30.27   0
  -5  -3 -10  641.80   29.96   0
   5   3  10  664.55   30.01   0
   5   3  10  633.12   30.55   0
   5   3  10  673.14   29.31   0
  -6  -3 -10   71.30    9.02   0
  -6  -3 -10   61.61    8.73   0
  -6  -3 -10   61.38    8.13   0
  -6  -3 -10   64.09    8.27   0
   6   3  10   64.92    7.58   0
   6   3  10   59.32    9.59   0
  -7  -3 -10   18.15    5.37   0
  -7  -3 -10   26.89    6.39   0
  -7  -3 -10   29.79    6.30   0
  -7  -3 -10   24.21    6.97   0
   7   3  10   20.60    5.54   0
   7   3  10   31.88    7.18   0
   7   3  10   26.28    5.13   0
  -8  -3 -10  249.95   17.38   0
   8   3  10  255.06   15.36   0
   8   3  10  224.36   17.74   0
   5  -4 -10   46.20    6.81   0
  -5   4  10   36.16    6.83   0
  -5   4  10   36.21    6.99   0
   4  -4 -10  536.13   24.45   0
  -4   4  10  558.11   25.76   0
  -4   4  10  550.79   25.93   0
   3  -4 -10    2.63    2.81   0
  -3   4  10   -1.20    3.36   0
  -3   4  10   -0.86    2.55   0
  -3   4  10   -3.02    2.97   0
   2  -4 -10   -0.44    2.74   0
   2  -4 -10    4.41    1.55   0
   2  -4 -10    2.88    1.81   0
  -2   4  10    8.76    3.56   0
  -2   4  10    1.76    2.90   0
  -2   4  10    1.06    2.61   0
   1  -4 -10 1725.40   68.35   0
   1  -4 -10 1759.99   66.90   0
   1  -4 -10 1704.41   66.40   0
  -1   4  10 1660.04   67.82   0
  -1   4  10 1690.21   67.95   0
  -1   4  10 1642.49   67.80   0
   0  -4 -10    7.64    2.82   0
   0   4  10    9.50    2.95   0
   0   4  10    4.43    2.45   0
   0   4  10    9.34    3.08   0
  -1  -4 -10 1479.06   65.22   0
  -1  -4 -10 1695.23   65.04   0
  -1  -4 -10 1644.66   63.82   0
  -1  -4 -10 1705.45   66.23   0
   1   4  10 1640.98   65.43   0
   1   4  10 1664.70   65.59   0
   1   4  10 1588.16   65.72   0
  -2  -4 -10   61.94    6.56   0
  -2  -4 -10   61.21    6.08   0
  -2  -4 -10   60.80    6.83   0
   2   4  10   66.42    6.98   0
   2   4  10   66.03    6.16   0
   2   4  10   58.98    6.30   0
  -3  -4 -10  596.52   26.83   0
  -3  -4 -10  628.29   28.09   0
  -3  -4 -10  651.66   27.88   0
   3   4  10  605.89   28.21   0
   3   4  10  622.99   27.67   0
  -4  -4 -10 1398.93   57.48   0
  -4  -4 -10 1333.15   57.46   0
  -4  -4 -10 1457.57   58.27   0
  -4  -4 -10 1391.34   58.09   0
   4   4  10 1410.98   57.39   0
   4   4  10 1487.73   58.06   0
   4   4  10 1356.41   58.48   0
  -5  -4 -10 1297.18   54.70   0
  -5  -4 -10 1338.99   54.70   0
  -5  -4 -10 1351.03   55.38   0
  -5  -4 -10 1293.39   54.37   0
   5   4  10 1348.68   54.01   0
   5   4  10 1266.75   55.50   0
   5   4  10 1261.29   54.47   0
  -6  -4 -10   66.36    9.62   0
  -6  -4 -10   48.91    7.94   0
  -6  -4 -10   54.47    8.25   0
  -6  -4 -10   61.04    8.76   0
   6   4  10   67.13   10.07   0
   6   4  10   47.62    6.96   0
  -7  -4 -10   61.96   10.38   0
  -7  -4 -10   70.96    9.45   0
  -7  -4 -10   55.06    9.73   0
  -7  -4 -10   58.62    9.42   0
   7   4  10   45.80    7.83   0
   7   4  10   60.37    9.77   0
  -8  -4 -10   51.83    9.08   0
  -8  -4 -10   53.08    7.80   0
   8   4  10   33.99    7.20   0
   5  -5 -10   44.85    7.05   0
  -5   5  10   25.63    6.70   0
   4  -5 -10   49.44    4.51   0
   4  -5 -10   49.34    5.29   0
   4  -5 -10   50.96    6.50   0
  -4   5  10   46.92    6.82   0
  -4   5  10   49.26    6.71   0
   3  -5 -10  289.61   13.55   0
   3  -5 -10  285.23   14.99   0
   3  -5 -10  296.37   14.19   0
  -3   5  10  296.62   16.18   0
  -3   5  10  306.52   16.27   0
   2  -5 -10   71.91    6.80   0
   2  -5 -10   70.39    7.04   0
  -2   5  10   71.01    7.39   0
  -2   5  10   65.96    6.42   0
  -2   5  10   63.41    7.74   0
   1  -5 -10   66.23    6.59   0
   1  -5 -10   78.08    7.77   0
   1  -5 -10   85.06    6.26   0
  -1   5  10   79.80    6.80   0
  -1   5  10   58.31    6.81   0
  -1   5  10   73.57    7.10   0
   0  -5 -10 1037.20   43.08   0
   0  -5 -10  939.93   42.94   0
   0  -5 -10 1049.96   42.26   0
   0   5  10 1048.69   42.76   0
   0   5  10 1025.84   42.77   0
   0   5  10 1061.87   43.20   0
  -1  -5 -10 1218.20   47.52   0
  -1  -5 -10 1209.12   48.11   0
  -1  -5 -10 1145.69   45.66   0
  -1  -5 -10 1135.29   47.98   0
   1   5  10 1065.32   47.72   0
   1   5  10 1152.35   47.43   0
   1   5  10 1141.30   47.54   0
  -2  -5 -10  322.06   16.33   0
  -2  -5 -10  341.44   15.24   0
  -2  -5 -10  324.53   16.64   0
  -2  -5 -10  315.45   16.75   0
   2   5  10  344.17   17.22   0
   2   5  10  317.67   16.29   0
   2   5  10  322.77   16.20   0
  -3  -5 -10  428.45   20.24   0
  -3  -5 -10  415.78   20.10   0
  -3  -5 -10  414.92   19.16   0
   3   5  10  413.11   19.55   0
   3   5  10  384.32   19.70   0
   3   5  10  414.98   20.80   0
  -4  -5 -10  930.71   38.51   0
  -4  -5 -10  867.67   38.54   0
  -4  -5 -10  791.23   37.74   0
  -4  -5 -10  885.37   37.80   0
   4   5  10  926.50   38.36   0
   4   5  10  898.15   37.68   0
   4   5  10  884.19   39.03   0
  -5  -5 -10  310.28   16.76   0
  -5  -5 -10  313.98   16.88   0
  -5  -5 -10  312.32   17.58   0
  -5  -5 -10  316.62   16.92   0
   5   5  10  295.33   16.66   0
   5   5  10  283.47   17.76   0
   5   5  10  322.37   16.21   0
  -6  -5 -10 1965.20   81.45   0
  -6  -5 -10 2012.03   82.80   0
  -6  -5 -10 2075.78   82.26   0
  -6  -5 -10 1887.55   81.31   0
   6   5  10 2169.30   82.06   0
   6   5  10 2060.84   80.79   0
   6   5  10 1876.30   82.52   0
  -7  -5 -10   14.25    6.13   0
  -7  -5 -10   19.30    6.72   0
  -7  -5 -10   14.09    5.13   0
  -7  -5 -10   11.54    5.39   0
   7   5  10   17.18    5.44   0
   7   5  10   15.81    4.78   0
   7   5  10   15.49    6.19   0
  -8  -5 -10  191.86   14.17   0
  -8  -5 -10  151.10   15.70   0
   8   5  10  159.01   15.02   0
   5  -6 -10    9.90    4.13   0
  -5   6  10   17.00    7.01   0
  -5   6  10    8.00    6.12   0
   4  -6 -10    7.84    3.53   0
   4  -6 -10   15.09    3.96   0
   4  -6 -10   13.09    4.38   0
  -4   6  10    9.11    5.27   0
  -4   6  10   15.51    5.69   0
   3  -6 -10  864.03   37.83   0
   3  -6 -10  925.22   36.94   0
   3  -6 -10  870.99   37.52   0
  -3   6  10  895.41   38.76   0
  -3   6  10  859.44   38.44   0
   2  -6 -10   25.77    4.14   0
   2  -6 -10   19.26    3.64   0
   2  -6 -10   31.10    5.56   0
  -2   6  10   29.27    5.21   0
  -2   6  10   24.82    5.32   0
   1  -6 -10  648.80   27.39   0
   1  -6 -10  614.87   27.69   0
   1  -6 -10  580.14   28.57   0
  -1   6  10  636.00   27.67   0
  -1   6  10  661.10   28.22   0
  -1   6  10  604.56   27.97   0
   0  -6 -10   71.22    7.05   0
   0  -6 -10   80.67    4.89   0
   0  -6 -10   80.44    4.54   0
   0  -6 -10   83.92    9.13   0
   0  -6 -10   80.81    7.01   0
   0   6  10   76.82    7.45   0
   0   6  10   74.17    7.94   0
   0   6  10   84.32    7.20   0
  -1  -6 -10  131.85   10.65   0
  -1  -6 -10  136.27    9.27   0
  -1  -6 -10  133.83    7.43   0
  -1  -6 -10  131.87    9.22   0
   1   6  10  141.03    9.54   0
   1   6  10  132.90   10.21   0
   1   6  10  129.80    8.90   0
  -2  -6 -10 2933.31  112.41   0
  -2  -6 -10 2790.61  110.70   0
  -2  -6 -10 2945.76  112.31   0
  -2  -6 -10 2800.64  112.55   0
   2   6  10 2870.80  111.85   0
   2   6  10 2847.86  112.69   0
   2   6  10 2701.25  111.81   0
  -3  -6 -10    8.06    2.91   0
  -3  -6 -10   15.71    4.29   0
  -3  -6 -10   12.52    3.36   0
   3   6  10   14.35    3.72   0
   3   6  10    8.36    3.00   0
   3   6  10   11.84    4.55   0
  -4  -6 -10  582.18   26.46   0
  -4  -6 -10  507.19   25.72   0
  -4  -6 -10  550.97   26.43   0
  -4  -6 -10  582.97   27.09   0
   4   6  10  576.97   25.90   0
   4   6  10  599.65   26.55   0
   4   6  10  584.20   27.49   0
  -5  -6 -10  204.36   13.76   0
  -5  -6 -10  200.85   13.09   0
  -5  -6 -10  192.56   12.64   0
  -5  -6 -10  197.02   13.09   0
   5   6  10  194.61   12.05   0
   5   6  10  188.58   12.86   0
   5   6  10  210.73   14.50   0
  -6  -6 -10   40.20    7.10   0
  -6  -6 -10   27.36    6.47   0
  -6  -6 -10   28.61    5.25   0
   6   6  10   24.22    4.66   0
   6   6  10   34.65    7.08   0
  -7  -6 -10 1000.89   42.35   0
  -7  -6 -10  978.94   43.61   0
  -7  -6 -10  929.92   44.16   0
  -7  -6 -10  889.77   42.30   0
   7   6  10  986.18   42.68   0
   7   6  10  917.28   44.07   0
   7   6  10  967.69   41.15   0
   5  -7 -10  693.03   32.06   0
   5  -7 -10  716.21   30.42   0
   5  -7 -10  722.51   30.85   0
  -5   7  10  642.23   33.39   0
  -5   7  10  671.74   34.31   0
   4  -7 -10   37.83    5.56   0
   4  -7 -10   31.15    5.03   0
   4  -7 -10   28.98    6.34   0
  -4   7  10   43.28    7.02   0
  -4   7  10   33.28    6.79   0
   3  -7 -10    2.80    3.27   0
   3  -7 -10    2.54    3.33   0
   3  -7 -10    6.25    5.50   0
  -3   7  10   -0.53    4.27   0
  -3   7  10   -0.90    4.61   0
   2  -7 -10 2103.65   90.26   0
   2  -7 -10 2253.01   89.08   0
   2  -7 -10 2308.91   88.92   0
  -2   7  10 2272.18   89.89   0
   1  -7 -10   99.17    8.01   0
   1  -7 -10   70.62   10.49   0
   1  -7 -10   97.88    8.24   0
  -1   7  10   90.90    8.88   0
  -1   7  10   99.85    9.09   0
   0  -7 -10 1344.57   53.70   0
   0  -7 -10 1308.36   57.23   0
   0  -7 -10 1321.95   55.78   0
   0  -7 -10 1392.81   56.12   0
   0   7  10 1365.60   56.51   0
   0   7  10 1434.08   56.35   0
  -1  -7 -10   74.62    6.96   0
  -1  -7 -10   56.82    6.91   0
  -1  -7 -10   64.03    9.13   0
   1   7  10   53.72    7.03   0
   1   7  10   58.63    6.64   0
   1   7  10   68.50    8.65   0
  -2  -7 -10   21.86    5.35   0
  -2  -7 -10   26.51    4.60   0
  -2  -7 -10   16.43    3.97   0
   2   7  10   19.73    4.28   0
   2   7  10   19.41    4.16   0
   2   7  10   28.70    5.69   0
  -3  -7 -10 1178.82   48.58   0
  -3  -7 -10 1169.76   48.07   0
  -3  -7 -10 1085.23   48.38   0
   3   7  10 1145.18   48.99   0
   3   7  10 1129.92   47.87   0
   3   7  10 1136.84   47.60   0
  -4  -7 -10  108.67    9.10   0
  -4  -7 -10   98.81    9.98   0
  -4  -7 -10  115.53    9.95   0
   4   7  10  112.93    8.91   0
   4   7  10  118.48   10.94   0
   4   7  10  121.27    9.83   0
  -5  -7 -10   23.04    4.80   0
  -5  -7 -10   19.77    5.96   0
  -5  -7 -10   26.69    5.62   0
  -5  -7 -10   21.07    5.53   0
   5   7  10   16.53    5.17   0
   5   7  10   18.96    4.37   0
   5   7  10   20.85    6.36   0
  -6  -7 -10   52.26    8.33   0
  -6  -7 -10   56.06    8.30   0
  -6  -7 -10   39.91    7.28   0
  -6  -7 -10   39.82    6.96   0
   6   7  10   41.52    8.11   0
   6   7  10   32.03    6.02   0
   6   7  10   45.48    7.39   0
  -7  -7 -10   11.19    5.78   0
  -7  -7 -10    3.84    4.93   0
  -7  -7 -10    7.17    7.18   0
  -7  -7 -10    7.05    7.07   0
   7   7  10   12.10    5.67   0
   7   7  10   13.12    7.55   0
   4  -8 -10 1471.03   57.44   0
   4  -8 -10 1399.86   59.52   0
   4  -8 -10 1448.31   57.30   0
  -4   8  10 1275.48   58.55   0
  -4   8  10 1315.93   59.37   0
   3  -8 -10    7.39    3.91   0
   3  -8 -10    5.60    6.19   0
   3  -8 -10    6.61    4.27   0
  -3   8  10   -2.64    4.93   0
  -3   8  10    2.51    4.93   0
   2  -8 -10  177.24   11.76   0
   2  -8 -10  157.30   14.73   0
   2  -8 -10  173.92   11.52   0
  -2   8  10  179.42   12.92   0
   1  -8 -10 1015.29   45.93   0
   1  -8 -10 1046.85   43.70   0
   1  -8 -10 1078.59   43.75   0
   1  -8 -10 1024.22   41.15   0
  -1   8  10  947.59   43.87   0
  -1   8  10 1052.36   44.30   0
   0  -8 -10  906.87   41.14   0
   0  -8 -10  906.25   39.13   0
   0  -8 -10  892.32   37.30   0
   0  -8 -10  934.56   39.28   0
   0   8  10  892.24   39.71   0
   0   8  10  919.37   39.44   0
  -1  -8 -10  358.39   18.46   0
  -1  -8 -10  349.87   20.02   0
  -1  -8 -10  362.49   18.27   0
   1   8  10  336.79   18.18   0
   1   8  10  362.57   19.39   0
  -2  -8 -10  429.31   22.21   0
  -2  -8 -10  424.87   21.28   0
  -2  -8 -10  426.32   20.82   0
   2   8  10  418.99   22.00   0
   2   8  10  411.77   20.85   0
  -3  -8 -10   53.95    9.33   0
  -3  -8 -10   47.82    7.77   0
  -3  -8 -10   56.44    7.23   0
   3   8  10   55.26    7.72   0
   3   8  10   54.28    9.64   0
   3   8  10   54.73    7.28   0
  -4  -8 -10  133.19   10.22   0
  -4  -8 -10  128.98   11.42   0
   4   8  10  136.27   10.74   0
   4   8  10  120.47   12.17   0
   4   8  10  133.89   10.08   0
  -5  -8 -10  426.18   21.54   0
  -5  -8 -10  374.82   20.15   0
  -5  -8 -10  366.86   21.64   0
   5   8  10  369.32   22.02   0
   5   8  10  403.22   20.01   0
  -6  -8 -10    3.84    5.22   0
  -6  -8 -10   -3.85    5.91   0
  -6  -8 -10    5.38    4.41   0
  -6  -8 -10    8.35    4.94   0
   6   8  10   -0.18    6.22   0
   6   8  10    5.39    5.31   0
  -7  -8 -10   -0.50    5.28   0
  -7  -8 -10   -5.26    5.80   0
  -7  -8 -10    5.08    7.46   0
   7   8  10    2.58    6.16   0
   7   8  10   -8.92    7.51   0
   4  -9 -10  205.74   14.54   0
   4  -9 -10  214.52   14.32   0
  -4   9  10  212.40   17.76   0
   3  -9 -10  624.77   28.65   0
   3  -9 -10  625.70   28.85   0
   3  -9 -10  659.05   33.33   0
  -3   9  10  613.55   30.52   0
  -3   9  10  562.49   30.00   0
   2  -9 -10  326.84   17.53   0
   2  -9 -10  336.99   15.04   0
   2  -9 -10  323.08   17.83   0
   2  -9 -10  320.99   21.40   0
  -2   9  10  310.98   18.85   0
   1  -9 -10  332.03   21.16   0
   1  -9 -10  325.36   17.26   0
   1  -9 -10  329.12   17.77   0
   1  -9 -10  321.88   15.58   0
  -1   9  10  298.55   18.14   0
   0  -9 -10   69.61    7.96   0
   0  -9 -10   82.04    8.69   0
   0  -9 -10   66.97    7.26   0
   0  -9 -10   77.39   12.16   0
   0   9  10   64.20    9.70   0
   0   9  10   61.00    8.74   0
  -1  -9 -10 1940.40   77.31   0
  -1  -9 -10 1852.71   78.60   0
  -1  -9 -10 1896.01   76.89   0
   1   9  10 1914.14   77.03   0
   1   9  10 1864.56   77.62   0
  -2  -9 -10   34.18    5.88   0
  -2  -9 -10   24.77    6.76   0
  -2  -9 -10   15.87    4.47   0
   2   9  10   22.52    5.63   0
   2   9  10   23.61    5.20   0
  -3  -9 -10  399.07   21.04   0
  -3  -9 -10  364.69   21.18   0
  -3  -9 -10  366.28   19.70   0
   3   9  10  379.45   20.09   0
   3   9  10  411.80   22.13   0
  -4  -9 -10  111.47   11.52   0
  -4  -9 -10  123.14   10.38   0
   4   9  10  122.45   12.83   0
  -5  -9 -10    5.72    5.58   0
  -5  -9 -10    9.85    4.73   0
  -5  -9 -10    7.49    4.97   0
   5   9  10   10.50    4.86   0
   5   9  10    7.24    6.21   0
  -6  -9 -10  495.25   25.13   0
  -6  -9 -10  497.33   27.52   0
  -6  -9 -10  485.76   26.17   0
   6   9  10  481.15   27.78   0
   6   9  10  522.44   25.69   0
   3 -10 -10  508.70   30.46   0
   3 -10 -10  493.58   24.63   0
   3 -10 -10  471.06   24.78   0
   3 -10 -10  490.58   21.89   0
  -3  10  10  496.82   27.16   0
   2 -10 -10   87.34   15.51   0
   2 -10 -10   68.54    9.19   0
   2 -10 -10   71.15    8.07   0
   2 -10 -10   62.02   10.04   0
  -2  10  10   45.55    7.89   0
  -2  10  10   66.88   11.57   0
   1 -10 -10  534.51   26.20   0
   1 -10 -10  561.49   26.78   0
   1 -10 -10  540.41   24.96   0
  -1  10  10  522.17   27.04   0
  -1  10  10  576.32   27.44   0
   0 -10 -10  256.29   15.70   0
   0 -10 -10  237.96   14.62   0
   0 -10 -10  241.24   14.09   0
   0  10  10  256.90   16.04   0
   0  10  10  202.98   16.18   0
  -1 -10 -10   57.45    8.16   0
  -1 -10 -10   49.22    7.71   0
  -1 -10 -10   44.27    7.68   0
   1  10  10   31.36    7.29   0
  -2 -10 -10 1465.69   64.66   0
  -2 -10 -10 1532.75   65.56   0
  -2 -10 -10 1670.77   67.23   0
   2  10  10 1681.18   65.39   0
   2  10  10 1495.32   65.88   0
  -3 -10 -10   87.99   10.83   0
  -3 -10 -10   75.87   12.09   0
  -3 -10 -10   91.30    9.74   0
   3  10  10   81.78   10.50   0
  -4 -10 -10  124.69   12.76   0
  -4 -10 -10  116.88   11.24   0
  -4 -10 -10  132.36   13.51   0
   4  10  10  136.54   11.98   0
   4  10  10  117.53   13.87   0
  -5 -10 -10   22.59    7.11   0
  -5 -10 -10   40.82    7.05   0
   5  10  10   22.72    7.93   0
   5  10  10   36.53    7.12   0
  -6 -10 -10   23.38    7.28   0
  -6 -10 -10   20.46    7.06   0
   6  10  10   41.27    7.31   0
   6  10  10   26.27    8.77   0
   2 -11 -10  498.24   25.90   0
   2 -11 -10  544.28   25.11   0
   2 -11 -10  550.05   32.09   0
   2 -11 -10  526.62   26.74   0
  -2  11  10  496.92   27.88   0
   1 -11 -10   68.70    9.90   0
   1 -11 -10   60.46   10.67   0
   1 -11 -10   62.39   11.41   0
   1 -11 -10   66.44    9.66   0
  -1  11  10   85.48   12.49   0
  -1  11  10   55.67    8.44   0
   0 -11 -10  112.60   11.12   0
   0 -11 -10  115.09   17.19   0
   0 -11 -10  145.81   11.77   0
   0 -11 -10  135.87   12.87   0
   0  11  10  131.15   12.88   0
   0  11  10  116.21   14.47   0
  -1 -11 -10   15.91    8.54   0
  -1 -11 -10   26.62    6.65   0
  -1 -11 -10    9.87    4.79   0
  -1 -11 -10    7.68    5.48   0
   1  11  10    4.02    6.48   0
   1  11  10   12.85    6.19   0
  -2 -11 -10   29.66    8.36   0
  -2 -11 -10   21.50    5.87   0
  -2 -11 -10   10.52    4.86   0
  -2 -11 -10   16.67    5.45   0
   2  11  10   16.35    5.83   0
   2  11  10   14.59    6.98   0
  -3 -11 -10  291.76   19.78   0
  -3 -11 -10  254.41   16.93   0
  -3 -11 -10  274.59   18.46   0
   3  11  10  264.18   19.76   0
   3  11  10  307.05   17.81   0
  -4 -11 -10  184.21   14.46   0
  -4 -11 -10  209.82   16.55   0
  -4 -11 -10  205.39   17.57   0
   4  11  10  195.41   17.49   0
   4  11  10  202.71   15.35   0
  -5 -11 -10   15.31    6.30   0
  -5 -11 -10    8.23    7.19   0
   5  11  10   20.26    8.59   0
   5  11  10   13.05    6.24   0
   0 -12 -10  329.72   19.27   0
   0 -12 -10  339.94   25.40   0
   0 -12 -10  262.09   22.56   0
   0  12  10  274.49   21.00   0
   0  12  10  283.18   19.91   0
  -1 -12 -10   -0.49    9.52   0
  -1 -12 -10   -4.00    6.80   0
  -1 -12 -10   -5.37    5.19   0
  -1 -12 -10    4.12    6.50   0
   1  12  10   -8.64    7.40   0
   1  12  10    0.87    6.02   0
  -2 -12 -10    1.82    5.56   0
  -2 -12 -10   16.10    8.33   0
  -2 -12 -10   13.45    9.00   0
   2  12  10   17.47    6.72   0
   2  12  10    5.54    8.01   0
  -3 -12 -10  112.10   16.93   0
   3  12  10   70.01   11.22   0
   3  12  10   90.92   13.54   0
  -1  -3  11   48.84    8.23   0
  -1  -3  11   52.99    6.48   0
  -1  -3  11   40.82    6.62   0
  -1  -3  11   49.58    6.37   0
   0  -3  11  686.67   29.60   0
   0  -3  11  682.02   29.66   0
   0  -3  11  719.59   32.28   0
   0  -3  11  682.33   30.68   0
   1  -3  11   25.98    4.86   0
   1  -3  11   24.74    5.56   0
   1  -3  11   15.04    4.58   0
   1  -3  11   16.61    5.45   0
  -2   3 -11   58.19    8.19   0
   2  -3  11   63.55    8.20   0
   2  -3  11   61.19    9.41   0
   2  -3  11   55.66    8.46   0
   2  -3  11   64.47    8.33   0
  -3   3 -11  239.05   17.24   0
   3  -3  11  243.06   15.35   0
   3  -3  11  226.78   14.48   0
   3  -3  11  211.80   15.03   0
   3  -3  11  220.03   14.84   0
  -4   3 -11    1.11    7.33   0
   4  -3  11   -2.06    4.94   0
   4  -3  11    3.53    5.59   0
   4  -3  11   -2.44    4.63   0
   4  -3  11    4.41    5.52   0
  -2  -2  11  492.63   18.90   0
  -2  -2  11  438.00   21.51   0
  -2  -2  11  375.77   18.38   0
  -2  -2  11  405.88   19.20   0
  -1  -2  11    4.22    3.02   0
  -1  -2  11    5.64    3.31   0
  -1  -2  11    2.94    4.30   0
  -1  -2  11    0.18    3.51   0
   0  -2  11   55.14    6.24   0
   0  -2  11   50.68    6.51   0
   0  -2  11   54.57    6.97   0
  -1   2 -11 1034.92   43.53   0
   1  -2  11 1012.74   41.79   0
   1  -2  11 1015.12   43.46   0
   1  -2  11 1000.09   42.16   0
   1  -2  11  967.17   41.73   0
  -2   2 -11   76.46   10.28   0
   2  -2  11   83.85    8.64   0
   2  -2  11   77.18    8.48   0
   2  -2  11   82.66    8.34   0
   2  -2  11   86.99    9.50   0
  -3   2 -11   84.03   11.16   0
   3  -2  11   76.92    9.26   0
   3  -2  11   92.39    9.65   0
   3  -2  11   95.46    9.24   0
   3  -2  11   90.89    9.63   0
  -4   2 -11  130.12   13.14   0
   4  -2  11  162.34   12.15   0
   4  -2  11  118.32   11.27   0
   4  -2  11  114.87   11.50   0
  -5   2 -11  177.03   10.82   0
  -5   2 -11  219.84   16.99   0
  -5   2 -11  155.89   11.80   0
   5  -2  11  189.96   14.85   0
   5  -2  11  160.19   14.19   0
   5  -2  11  203.09   14.30   0
   5  -2  11  193.07   14.39   0
  -3  -1  11  490.53   22.78   0
  -3  -1  11  475.61   20.74   0
  -3  -1  11  456.75   20.69   0
  -2  -1  11  587.07   24.86   0
  -2  -1  11  619.75   27.08   0
  -2  -1  11  556.21   24.62   0
  -2  -1  11  586.51   24.29   0
  -1  -1  11  457.44   21.27   0
  -1  -1  11  408.10   18.94   0
  -1  -1  11  437.58   19.25   0
  -1  -1  11  420.64   18.90   0
   0  -1  11    8.84    3.31   0
   0  -1  11   16.21    4.43   0
   0  -1  11   15.98    3.54   0
   0  -1  11   14.10    3.53   0
  -1   1 -11  411.21   20.46   0
   1  -1  11  419.19   20.94   0
   1  -1  11  429.28   19.88   0
   1  -1  11  413.50   19.45   0
   1  -1  11  431.07   19.65   0
  -2   1 -11  531.60   25.31   0
   2  -1  11  517.87   24.38   0
   2  -1  11  519.44   24.13   0
   2  -1  11  502.18   24.00   0
   2  -1  11  586.16   25.65   0
  -3   1 -11 1128.74   47.97   0
   3  -1  11 1094.95   46.76   0
   3  -1  11 1122.77   46.90   0
   3  -1  11 1101.48   47.27   0
   3  -1  11 1123.28   47.50   0
  -4   1 -11   84.12   10.57   0
   4  -1  11   90.98    9.20   0
   4  -1  11   83.70    9.91   0
   4  -1  11   80.93    9.21   0
   4  -1  11   96.41    9.28   0
  -5   1 -11    3.21    3.53   0
  -5   1 -11    5.76    4.71   0
  -5   1 -11    9.93    5.87   0
   5  -1  11   15.25    5.34   0
   5  -1  11    8.80    5.10   0
   5  -1  11   11.11    4.92   0
   5  -1  11    2.50    4.58   0
  -6   1 -11  421.32   24.50   0
  -6   1 -11  439.73   22.82   0
  -6   1 -11  405.91   20.96   0
   6  -1  11  388.98   25.85   0
   6  -1  11  449.48   23.61   0
   6  -1  11  417.52   22.40   0
  -4   0  11   26.40    5.66   0
  -4   0  11   22.61    4.74   0
  -3   0  11  152.61    9.55   0
  -3   0  11  134.59   10.32   0
  -2   0  11  408.83   18.81   0
  -2   0  11  398.41   18.67   0
  -2   0  11  455.87   20.61   0
  -1   0  11 1777.45   70.01   0
  -1   0  11 1806.30   71.53   0
  -1   0  11 1794.70   68.92   0
  -1   0  11 1706.45   69.82   0
   0   0  11  374.32   16.98   0
   0   0  11  385.61   17.76   0
   0   0  11  399.74   19.19   0
   0   0  11  370.31   17.80   0
  -1   0 -11  404.64   19.16   0
   1   0  11  426.78   19.91   0
   1   0  11  401.17   18.26   0
   1   0  11  391.03   18.76   0
   1   0  11  383.73   18.93   0
  -2   0 -11  966.76   40.84   0
   2   0  11  928.80   40.23   0
   2   0  11  943.02   39.83   0
   2   0  11  978.76   40.77   0
   2   0  11  981.17   41.19   0
  -3   0 -11  178.77    9.48   0
  -3   0 -11  191.98   12.68   0
  -3   0 -11  201.61    9.62   0
   3   0  11  183.27   11.51   0
   3   0  11  204.05   12.45   0
   3   0  11  190.17   11.88   0
   3   0  11  190.53   12.36   0
  -4   0 -11 2007.65   81.16   0
  -4   0 -11 2011.90   79.07   0
  -4   0 -11 1835.53   78.45   0
   4   0  11 2034.49   80.58   0
   4   0  11 2041.20   80.73   0
   4   0  11 2018.29   81.23   0
  -5   0 -11  138.72   11.54   0
  -5   0 -11  176.95   13.61   0
  -5   0 -11  166.83   10.92   0
   5   0  11  170.30   13.42   0
   5   0  11  179.26   12.11   0
  -6   0 -11   36.21    6.05   0
  -6   0 -11   52.37    8.88   0
  -6   0 -11   33.13    6.61   0
   6   0  11   25.64    6.23   0
   6   0  11   38.10    5.80   0
   6   0  11   41.66    7.25   0
  -4   1  11   71.22    8.23   0
  -4   1  11   89.10    9.44   0
  -4   1  11   81.68    9.12   0
  -3   1  11  237.36   12.81   0
  -3   1  11  206.64   12.23   0
  -2   1  11  627.43   26.67   0
  -2   1  11  585.84   27.39   0
  -2   1  11  642.87   26.67   0
   1  -1 -11    6.18    3.60   0
  -1   1  11   -0.51    2.67   0
  -1   1  11    5.87    2.80   0
  -1   1  11    4.09    3.25   0
   0  -1 -11 3135.14  120.08   0
   0   1  11 3076.10  119.10   0
   0   1  11 3004.01  118.10   0
   0   1  11 2898.98  117.92   0
  -1  -1 -11   52.69    7.35   0
  -1  -1 -11   57.64    6.07   0
   1   1  11   56.71    6.33   0
   1   1  11   59.92    6.61   0
   1   1  11   55.38    6.65   0
  -2  -1 -11  785.97   33.78   0
  -2  -1 -11  794.84   35.30   0
   2   1  11  781.12   34.13   0
   2   1  11  795.14   34.30   0
   2   1  11  781.48   33.84   0
  -3  -1 -11  520.78   24.64   0
  -3  -1 -11  469.89   21.63   0
  -3  -1 -11  500.32   23.38   0
  -3  -1 -11  546.18   21.99   0
   3   1  11  433.11   22.78   0
   3   1  11  503.32   23.39   0
   3   1  11  493.90   23.72   0
  -4  -1 -11  799.09   33.75   0
  -4  -1 -11  785.41   34.81   0
  -4  -1 -11  723.02   33.07   0
   4   1  11  778.36   34.56   0
   4   1  11  802.04   35.28   0
   4   1  11  799.04   34.53   0
  -5  -1 -11 1069.31   49.62   0
  -5  -1 -11 1245.96   51.69   0
  -5  -1 -11 1243.05   50.84   0
   5   1  11 1158.83   51.85   0
   5   1  11 1274.93   51.50   0
   5   1  11 1230.35   50.74   0
  -6  -1 -11  471.55   24.90   0
  -6  -1 -11  466.21   23.10   0
  -6  -1 -11  507.12   24.79   0
   6   1  11  428.64   24.86   0
   6   1  11  459.00   24.29   0
   6   1  11  479.15   23.30   0
  -7  -1 -11   92.70   13.84   0
  -7  -1 -11   74.72   10.78   0
   7   1  11   98.25   10.64   0
   7   1  11   91.49   12.89   0
  -4   2  11  619.45   28.05   0
  -4   2  11  625.31   28.18   0
  -4   2  11  611.92   27.05   0
   3  -2 -11   43.67    5.76   0
  -3   2  11   48.06    6.85   0
  -3   2  11   45.12    7.55   0
  -3   2  11   56.25    6.89   0
   2  -2 -11  308.00   16.25   0
  -2   2  11  299.67   15.12   0
  -2   2  11  301.72   15.08   0
  -2   2  11  308.99   15.64   0
   1  -2 -11  607.18   25.70   0
  -1   2  11  465.62   24.13   0
  -1   2  11  535.98   23.79   0
  -1   2  11  560.62   24.08   0
   0  -2 -11  170.75   11.42   0
   0   2  11  178.93   10.52   0
   0   2  11  181.48   11.03   0
   0   2  11  167.85   10.17   0
  -1  -2 -11 2428.80   95.81   0
  -1  -2 -11 2504.19   98.20   0
   1   2  11 2438.38   97.18   0
   1   2  11 2386.85   96.58   0
   1   2  11 2510.61   96.95   0
  -2  -2 -11 1026.03   42.96   0
  -2  -2 -11 1015.42   40.05   0
  -2  -2 -11 1020.00   41.20   0
  -2  -2 -11  931.74   40.12   0
   2   2  11  991.59   41.94   0
   2   2  11 1005.94   41.94   0
   2   2  11  958.83   41.51   0
  -3  -2 -11 1076.90   45.91   0
  -3  -2 -11 1177.42   46.10   0
  -3  -2 -11 1180.25   46.76   0
  -3  -2 -11 1161.58   48.09   0
   3   2  11 1121.51   47.49   0
   3   2  11 1166.32   47.06   0
   3   2  11  966.24   46.38   0
  -4  -2 -11   89.04    8.06   0
  -4  -2 -11   97.37    8.51   0
  -4  -2 -11  104.99    9.45   0
  -4  -2 -11  103.34    9.01   0
   4   2  11  109.43    9.90   0
   4   2  11  103.50    8.98   0
   4   2  11   98.56    8.67   0
  -5  -2 -11 1628.99   68.12   0
  -5  -2 -11 1654.43   68.79   0
  -5  -2 -11 1744.41   68.25   0
  -5  -2 -11 1585.55   67.14   0
   5   2  11 1579.67   68.71   0
   5   2  11 1686.21   68.23   0
   5   2  11 1692.51   67.69   0
  -6  -2 -11  110.63   11.92   0
  -6  -2 -11  115.54   10.69   0
  -6  -2 -11  141.30   12.40   0
   6   2  11  117.93   10.24   0
   6   2  11  133.25   11.78   0
   6   2  11  114.30   12.51   0
  -7  -2 -11  771.45   36.77   0
  -7  -2 -11  843.39   38.85   0
  -7  -2 -11  815.17   38.56   0
   7   2  11  823.54   36.61   0
   7   2  11  818.26   38.04   0
   4  -3 -11   72.92    8.14   0
  -4   3  11   77.63    9.58   0
  -4   3  11   76.94    9.64   0
   3  -3 -11  649.43   29.13   0
  -3   3  11  660.19   29.02   0
  -3   3  11  651.03   29.09   0
  -3   3  11  649.96   28.53   0
   2  -3 -11  719.08   31.32   0
  -2   3  11  689.52   30.49   0
  -2   3  11  709.80   30.61   0
   1  -3 -11  312.86   16.58   0
  -1   3  11  331.90   16.23   0
  -1   3  11  310.47   15.65   0
  -1   3  11  308.31   15.76   0
   0  -3 -11   23.18    4.33   0
   0   3  11   25.38    4.13   0
   0   3  11   17.67    3.74   0
   0   3  11   23.74    4.11   0
  -1  -3 -11  961.55   40.39   0
  -1  -3 -11 1014.63   40.25   0
  -1  -3 -11 1000.55   42.69   0
  -1  -3 -11  997.13   39.98   0
   1   3  11 1009.76   42.00   0
   1   3  11 1021.16   41.96   0
   1   3  11  982.01   41.59   0
  -2  -3 -11  378.81   17.87   0
  -2  -3 -11  388.34   17.43   0
  -2  -3 -11  391.50   17.59   0
  -2  -3 -11  372.41   19.19   0
   2   3  11  372.61   18.77   0
   2   3  11  347.25   18.09   0
   2   3  11  373.92   18.41   0
  -3  -3 -11 1870.13   74.07   0
  -3  -3 -11 1869.03   75.45   0
  -3  -3 -11 1804.05   73.82   0
   3   3  11 1870.69   75.18   0
   3   3  11 1820.92   74.50   0
   3   3  11 1864.65   74.54   0
  -4  -3 -11  252.99   14.19   0
  -4  -3 -11  234.50   14.19   0
  -4  -3 -11  274.63   14.60   0
  -4  -3 -11  273.68   15.55   0
   4   3  11  258.53   14.49   0
   4   3  11  263.21   14.78   0
   4   3  11  244.90   15.37   0
  -5  -3 -11    3.05    3.63   0
  -5  -3 -11    2.85    4.30   0
  -5  -3 -11    6.30    4.09   0
  -5  -3 -11    3.92    3.85   0
   5   3  11    5.48    4.70   0
   5   3  11   11.17    4.25   0
   5   3  11    2.53    3.55   0
  -6  -3 -11 1525.07   64.21   0
  -6  -3 -11 1457.95   63.26   0
  -6  -3 -11 1580.97   64.63   0
  -6  -3 -11 1510.02   64.15   0
   6   3  11 1653.15   63.41   0
   6   3  11 1479.77   65.07   0
   6   3  11 1500.06   63.97   0
  -7  -3 -11   25.31    6.90   0
  -7  -3 -11   15.24    6.40   0
  -7  -3 -11   19.46    6.09   0
  -7  -3 -11    4.49    5.58   0
   7   3  11    4.35    5.79   0
   7   3  11   14.70    7.22   0
   7   3  11   19.93    5.39   0
   4  -4 -11  170.19   11.31   0
  -4   4  11  176.24   12.96   0
  -4   4  11  146.67   12.59   0
   3  -4 -11  282.75   14.91   0
  -3   4  11  269.92   15.46   0
  -3   4  11  266.20   14.19   0
  -3   4  11  251.07   14.85   0
   2  -4 -11   52.73    6.89   0
  -2   4  11   49.44    6.85   0
  -2   4  11   41.24    6.29   0
   1  -4 -11 1719.26   62.78   0
   1  -4 -11 1601.50   65.80   0
   1  -4 -11 1641.02   62.60   0
  -1   4  11 1630.74   65.27   0
  -1   4  11 1568.11   65.24   0
  -1   4  11 1547.23   65.15   0
   0  -4 -11    0.80    1.97   0
   0  -4 -11    5.97    3.46   0
   0   4  11    3.59    2.74   0
   0   4  11    3.63    3.02   0
   0   4  11   -2.58    2.76   0
  -1  -4 -11  123.63    9.34   0
  -1  -4 -11  134.50    7.23   0
  -1  -4 -11  143.92    8.23   0
  -1  -4 -11  114.20    9.36   0
   1   4  11  113.46    9.29   0
   1   4  11  116.52    8.78   0
   1   4  11  125.52    9.09   0
  -2  -4 -11 1338.55   52.45   0
  -2  -4 -11 1298.41   53.64   0
  -2  -4 -11 1202.47   52.50   0
  -2  -4 -11 1302.16   51.58   0
   2   4  11 1247.99   53.24   0
   2   4  11 1321.29   52.98   0
   2   4  11 1272.05   52.77   0
  -3  -4 -11   23.16    4.44   0
  -3  -4 -11   17.73    3.96   0
  -3  -4 -11   22.02    3.95   0
  -3  -4 -11   20.46    4.19   0
   3   4  11   20.84    4.20   0
   3   4  11   17.00    4.45   0
   3   4  11   15.01    3.62   0
  -4  -4 -11 1226.50   50.48   0
  -4  -4 -11 1214.13   50.85   0
  -4  -4 -11 1098.29   49.59   0
  -4  -4 -11 1176.97   49.63   0
   4   4  11 1213.31   49.91   0
   4   4  11 1222.99   50.35   0
   4   4  11 1219.46   51.25   0
  -5  -4 -11   12.85    4.11   0
  -5  -4 -11   12.24    4.53   0
  -5  -4 -11   17.79    4.95   0
  -5  -4 -11   18.94    5.03   0
   5   4  11   10.24    4.46   0
   5   4  11   10.88    5.34   0
   5   4  11    9.53    4.04   0
  -6  -4 -11    3.79    4.73   0
  -6  -4 -11   -4.96    5.11   0
  -6  -4 -11    1.13    4.61   0
   6   4  11    5.35    5.67   0
   6   4  11    2.95    4.59   0
  -7  -4 -11  660.72   31.24   0
  -7  -4 -11  567.07   29.57   0
  -7  -4 -11  650.73   31.73   0
  -7  -4 -11  630.59   30.37   0
   7   4  11  625.01   29.03   0
   7   4  11  565.63   31.59   0
   7   4  11  650.78   30.79   0
   4  -5 -11   11.60    4.34   0
  -4   5  11    9.53    5.48   0
  -4   5  11   10.43    5.36   0
   3  -5 -11  249.67   14.33   0
  -3   5  11  254.27   15.40   0
  -3   5  11  257.42   15.19   0
   2  -5 -11  587.98   24.92   0
   2  -5 -11  600.28   27.20   0
   2  -5 -11  619.82   25.44   0
  -2   5  11  600.06   27.43   0
   1  -5 -11  271.73   14.66   0
   1  -5 -11  288.33   13.12   0
   1  -5 -11  259.64   13.74   0
  -1   5  11  246.17   14.37   0
  -1   5  11  255.94   14.46   0
  -1   5  11  266.98   14.26   0
   0  -5 -11 1580.93   62.38   0
   0  -5 -11 1572.03   63.77   0
   0  -5 -11 1455.00   62.97   0
   0   5  11 1585.03   63.35   0
   0   5  11 1575.37   63.61   0
   0   5  11 1589.92   63.33   0
  -1  -5 -11 1088.91   46.88   0
  -1  -5 -11 1130.37   47.19   0
  -1  -5 -11 1108.05   44.38   0
  -1  -5 -11 1127.81   46.12   0
   1   5  11 1145.13   46.63   0
   1   5  11 1096.45   47.00   0
   1   5  11 1135.15   46.72   0
  -2  -5 -11   80.07    7.32   0
  -2  -5 -11   83.81    8.17   0
  -2  -5 -11   84.16    8.60   0
  -2  -5 -11   79.25    6.22   0
   2   5  11   91.41    7.80   0
   2   5  11   72.70    7.29   0
   2   5  11   78.06    8.47   0
  -3  -5 -11  163.91    9.63   0
  -3  -5 -11  160.92   10.91   0
  -3  -5 -11  150.93   10.51   0
  -3  -5 -11  143.74   10.81   0
   3   5  11  146.01   10.56   0
   3   5  11  158.24   10.25   0
   3   5  11  139.86   11.35   0
  -4  -5 -11  100.27    9.12   0
  -4  -5 -11  109.68    9.62   0
  -4  -5 -11  104.35    9.27   0
  -4  -5 -11  111.99    8.75   0
   4   5  11   94.10   10.09   0
   4   5  11   97.18    9.29   0
   4   5  11  111.98    8.74   0
  -5  -5 -11  205.12   13.85   0
  -5  -5 -11  201.51   13.56   0
  -5  -5 -11  218.79   13.78   0
  -5  -5 -11  214.91   14.63   0
   5   5  11  223.58   13.23   0
   5   5  11  210.93   15.33   0
   5   5  11  256.61   14.63   0
  -6  -5 -11   72.98    9.40   0
  -6  -5 -11   64.36    9.86   0
  -6  -5 -11   73.47    9.75   0
   6   5  11   76.29   11.84   0
   6   5  11   77.23    9.81   0
  -7  -5 -11   31.93    7.46   0
  -7  -5 -11   19.90    6.44   0
  -7  -5 -11   33.27    8.23   0
   7   5  11   30.35    5.75   0
   7   5  11   27.49    8.45   0
   4  -6 -11 1158.51   46.53   0
   4  -6 -11 1167.22   48.34   0
  -4   6  11 1128.00   49.69   0
  -4   6  11 1174.02   50.30   0
   3  -6 -11  375.26   18.21   0
   3  -6 -11  398.44   17.41   0
   3  -6 -11  371.89   18.95   0
  -3   6  11  354.77   19.99   0
  -3   6  11  378.70   20.29   0
   2  -6 -11  295.72   16.23   0
   2  -6 -11  323.11   15.10   0
   2  -6 -11  308.30   16.21   0
  -2   6  11  284.08   16.54   0
   1  -6 -11   41.66    5.70   0
   1  -6 -11   38.08    6.12   0
   1  -6 -11   36.48    5.69   0
  -1   6  11   51.63    7.42   0
  -1   6  11   41.06    7.13   0
  -1   6  11   42.16    6.29   0
   0  -6 -11  616.72   29.33   0
   0  -6 -11  677.30   29.16   0
   0  -6 -11  646.53   28.13   0
   0   6  11  624.54   28.45   0
   0   6  11  618.18   28.95   0
   0   6  11  647.74   28.82   0
  -1  -6 -11  365.29   18.67   0
  -1  -6 -11  373.33   18.14   0
  -1  -6 -11  342.57   19.21   0
  -1  -6 -11  356.70   15.93   0
   1   6  11  353.39   18.30   0
   1   6  11  387.39   19.21   0
   1   6  11  371.84   18.26   0
  -2  -6 -11 1360.70   57.29   0
  -2  -6 -11 1336.13   56.70   0
  -2  -6 -11 1370.92   55.14   0
  -2  -6 -11 1375.37   57.17   0
   2   6  11 1375.44   56.59   0
   2   6  11 1420.61   56.98   0
   2   6  11 1398.40   57.54   0
  -3  -6 -11   10.78    3.79   0
  -3  -6 -11   12.75    3.62   0
  -3  -6 -11   18.22    4.31   0
  -3  -6 -11    6.44    3.92   0
   3   6  11   11.44    3.83   0
   3   6  11   12.73    4.68   0
   3   6  11   12.33    4.12   0
  -4  -6 -11   25.54    4.87   0
  -4  -6 -11   33.35    5.98   0
  -4  -6 -11   35.60    5.88   0
  -4  -6 -11   38.42    7.05   0
   4   6  11   27.20    5.14   0
   4   6  11   22.19    4.31   0
   4   6  11   20.70    5.07   0
  -5  -6 -11  598.37   28.22   0
  -5  -6 -11  610.94   28.50   0
  -5  -6 -11  570.94   28.94   0
  -5  -6 -11  581.46   28.21   0
   5   6  11  574.31   27.44   0
   5   6  11  575.37   29.54   0
   5   6  11  681.40   28.97   0
  -6  -6 -11   44.25    6.69   0
  -6  -6 -11   75.75   11.41   0
  -6  -6 -11   47.74    7.06   0
  -6  -6 -11   56.80    9.82   0
   6   6  11   47.12    8.29   0
   6   6  11   52.79    9.68   0
  -7  -6 -11  255.87   17.29   0
  -7  -6 -11  244.85   19.24   0
  -7  -6 -11  237.04   18.15   0
  -7  -6 -11  235.76   16.76   0
   7   6  11  259.51   15.71   0
   7   6  11  241.97   19.57   0
   7   6  11  289.62   17.84   0
   4  -7 -11   72.22    8.03   0
   4  -7 -11   74.04   10.50   0
   4  -7 -11   79.76    9.34   0
  -4   7  11   71.54   11.96   0
  -4   7  11   52.66    8.96   0
   3  -7 -11  339.20   17.16   0
   3  -7 -11  303.26   15.90   0
   3  -7 -11  300.45   17.78   0
  -3   7  11  296.77   18.24   0
   2  -7 -11 1263.29   52.25   0
   2  -7 -11 1292.30   51.71   0
   2  -7 -11 1228.86   53.18   0
  -2   7  11 1226.76   52.88   0
   1  -7 -11  163.65   10.45   0
   1  -7 -11  159.46   10.76   0
   1  -7 -11  133.92   12.90   0
  -1   7  11  152.01   11.39   0
  -1   7  11  129.40   11.06   0
   0  -7 -11  178.57   14.20   0
   0  -7 -11  189.90    8.80   0
   0  -7 -11  191.92   12.18   0
   0  -7 -11  205.18    9.30   0
   0  -7 -11  190.38   11.88   0
   0   7  11  203.94   12.59   0
   0   7  11  189.85   11.86   0
   0   7  11  181.17   12.82   0
  -1  -7 -11 1628.40   64.85   0
  -1  -7 -11 1587.91   65.87   0
  -1  -7 -11 1646.33   65.18   0
  -1  -7 -11 1495.26   62.30   0
   1   7  11 1559.79   65.33   0
   1   7  11 1571.17   64.52   0
   1   7  11 1592.96   64.82   0
  -2  -7 -11    9.52    3.09   0
  -2  -7 -11   19.09    5.20   0
  -2  -7 -11   15.24    4.35   0
  -2  -7 -11   17.88    4.51   0
   2   7  11    6.36    3.67   0
   2   7  11    8.35    3.64   0
   2   7  11   13.84    5.10   0
  -3  -7 -11 1320.01   56.21   0
  -3  -7 -11 1308.62   56.54   0
  -3  -7 -11 1346.43   55.07   0
  -3  -7 -11 1370.06   56.57   0
   3   7  11 1334.32   55.99   0
   3   7  11 1378.66   55.79   0
   3   7  11 1359.36   57.18   0
  -4  -7 -11    4.43    3.70   0
  -4  -7 -11   -2.09    3.30   0
  -4  -7 -11   -1.07    4.11   0
   4   7  11   -0.97    4.19   0
   4   7  11   -0.76    3.99   0
   4   7  11    6.42    3.61   0
  -5  -7 -11  172.32   12.43   0
  -5  -7 -11  174.63   12.90   0
  -5  -7 -11  171.15   13.55   0
   5   7  11  178.29   13.02   0
   5   7  11  158.00   14.40   0
  -6  -7 -11  575.12   29.22   0
  -6  -7 -11  549.75   27.54   0
  -6  -7 -11  526.87   27.74   0
  -6  -7 -11  537.20   28.13   0
   6   7  11  578.98   30.01   0
   6   7  11  590.45   28.12   0
   6   7  11  588.82   26.91   0
  -7  -7 -11  334.51   20.79   0
  -7  -7 -11  336.81   21.45   0
  -7  -7 -11  320.98   20.02   0
   7   7  11  344.79   20.52   0
   7   7  11  343.31   18.80   0
   7   7  11  288.82   22.71   0
   4  -8 -11   69.58    9.42   0
   4  -8 -11   57.73    9.73   0
   4  -8 -11   68.58    9.63   0
  -4   8  11   48.23   12.38   0
  -4   8  11   90.52   13.92   0
   3  -8 -11  139.63   11.49   0
   3  -8 -11  165.96   11.75   0
   3  -8 -11  176.80   15.28   0
  -3   8  11  135.56   13.92   0
  -3   8  11  154.41   14.20   0
   2  -8 -11   14.75    6.28   0
   2  -8 -11   19.79    4.95   0
   1  -8 -11 1001.99   40.61   0
   1  -8 -11  926.88   42.59   0
   1  -8 -11  956.05   40.60   0
  -1   8  11  931.00   41.07   0
  -1   8  11  860.99   40.76   0
   0  -8 -11    3.36    3.82   0
   0  -8 -11   10.50    4.19   0
   0  -8 -11    8.26    2.96   0
   0  -8 -11    6.50    6.16   0
   0   8  11    8.19    5.14   0
   0   8  11    5.09    4.34   0
  -1  -8 -11  188.25   15.23   0
  -1  -8 -11  219.84   13.58   0
  -1  -8 -11  228.73   13.57   0
   1   8  11  209.56   14.66   0
   1   8  11  211.99   13.48   0
  -2  -8 -11 1263.17   53.88   0
  -2  -8 -11 1229.65   52.70   0
  -2  -8 -11 1277.39   53.08   0
   2   8  11 1220.75   53.52   0
   2   8  11 1281.45   52.78   0
   2   8  11 1248.99   52.46   0
  -3  -8 -11  368.95   20.45   0
  -3  -8 -11  342.55   19.44   0
  -3  -8 -11  362.70   20.79   0
   3   8  11  375.06   21.27   0
   3   8  11  413.66   19.89   0
   3   8  11  425.76   20.37   0
  -4  -8 -11  696.62   34.37   0
  -4  -8 -11  686.89   33.52   0
   4   8  11  703.10   34.82   0
   4   8  11  824.29   34.35   0
   4   8  11  799.56   33.64   0
  -5  -8 -11   44.15    7.10   0
  -5  -8 -11   36.51    7.03   0
  -5  -8 -11   35.09    6.06   0
  -5  -8 -11   52.74    7.77   0
   5   8  11   40.12    6.50   0
   5   8  11   41.65    8.19   0
  -6  -8 -11  166.30   14.71   0
  -6  -8 -11  157.28   15.37   0
  -6  -8 -11  164.07   14.74   0
  -6  -8 -11  177.58   13.68   0
   6   8  11  190.01   13.38   0
   6   8  11  200.80   14.97   0
   6   8  11  178.09   17.45   0
   3  -9 -11   61.54    9.92   0
   3  -9 -11   63.32   10.00   0
  -3   9  11   58.41    8.98   0
   2  -9 -11  183.12   13.01   0
   2  -9 -11  176.49   12.89   0
   2  -9 -11  183.52   17.21   0
  -2   9  11  165.18   14.04   0
  -2   9  11  180.07   14.65   0
   1  -9 -11  151.61   15.71   0
   1  -9 -11  148.75   11.50   0
   1  -9 -11  151.08    8.65   0
   1  -9 -11  146.35   11.54   0
  -1   9  11  153.00   12.85   0
  -1   9  11  117.53   12.34   0
   0  -9 -11  197.52   13.04   0
   0  -9 -11  180.45   16.37   0
   0  -9 -11  188.58   12.94   0
   0  -9 -11  184.08   10.85   0
   0   9  11  191.30   14.30   0
  -1  -9 -11   93.58    9.62   0
  -1  -9 -11   85.00    7.97   0
  -1  -9 -11   77.82   12.64   0
  -1  -9 -11   70.96    8.97   0
   1   9  11   95.67   11.30   0
  -3  -9 -11  332.47   19.47   0
  -3  -9 -11  338.89   18.74   0
   3   9  11  351.32   20.87   0
  -4  -9 -11  675.89   32.79   0
  -4  -9 -11  674.52   31.78   0
  -4  -9 -11  656.33   32.90   0
   4   9  11  692.27   33.47   0
   4   9  11  711.49   32.02   0
  -5  -9 -11  147.13   12.34   0
  -5  -9 -11  116.86   14.12   0
   5   9  11  146.23   15.55   0
   5   9  11  139.70   12.83   0
  -6  -9 -11  222.93   16.58   0
  -6  -9 -11  199.28   15.03   0
  -6  -9 -11  155.85   16.28   0
   6   9  11  216.63   15.88   0
   6   9  11  203.42   19.13   0
   2 -10 -11    7.70    5.22   0
   2 -10 -11   -0.73    8.54   0
   2 -10 -11    7.67    5.19   0
   2 -10 -11    1.12    3.40   0
  -2  10  11   -2.75    7.00   0
  -2  10  11   -1.36    6.19   0
   1 -10 -11   -2.19    4.56   0
   1 -10 -11    4.70    7.70   0
   1 -10 -11    5.17    4.22   0
   1 -10 -11    0.80    4.92   0
  -1  10  11    2.96    5.47   0
  -1  10  11    9.62    5.77   0
   0 -10 -11  392.48   19.07   0
   0 -10 -11  417.43   24.86   0
   0 -10 -11  401.10   21.20   0
   0 -10 -11  378.96   20.61   0
   0  10  11  395.44   21.65   0
   0  10  11  337.84   21.30   0
  -1 -10 -11   20.37    7.90   0
  -1 -10 -11   11.07    4.93   0
  -1 -10 -11   10.52    4.88   0
   1  10  11    9.70    5.16   0
   1  10  11   13.90    6.83   0
  -2 -10 -11  162.33   13.38   0
  -2 -10 -11  179.32   16.10   0
  -2 -10 -11  155.91   12.41   0
   2  10  11  163.13   14.87   0
   2  10  11  170.34   13.32   0
  -3 -10 -11   11.79    7.00   0
  -3 -10 -11    8.48    6.13   0
  -3 -10 -11    5.32    4.84   0
   3  10  11    8.31    6.57   0
   3  10  11    7.17    5.03   0
  -4 -10 -11   48.25    8.60   0
  -4 -10 -11   40.72    6.53   0
  -4 -10 -11   41.45    7.76   0
   4  10  11   35.63    8.64   0
   4  10  11   39.82    6.75   0
  -5 -10 -11  645.58   32.01   0
  -5 -10 -11  619.49   35.37   0
   5  10  11  672.98   34.77   0
   5  10  11  747.97   32.85   0
   1 -11 -11   66.29   12.19   0
   1 -11 -11   60.43    9.48   0
   1 -11 -11   50.07    7.63   0
   1 -11 -11   57.82    8.24   0
  -1  11  11   44.40    8.59   0
   0 -11 -11   49.03    9.78   0
   0 -11 -11   49.22    7.94   0
   0 -11 -11   60.42    8.23   0
   0 -11 -11   56.53    7.56   0
   0  11  11   48.90    8.05   0
  -1 -11 -11  486.72   26.13   0
  -1 -11 -11  513.91   29.85   0
  -1 -11 -11  485.55   25.30   0
  -1 -11 -11  454.58   24.27   0
   1  11  11  552.97   26.72   0
   1  11  11  497.96   27.25   0
  -2 -11 -11  115.63   13.14   0
  -2 -11 -11  149.50   17.26   0
  -2 -11 -11  120.73   12.28   0
  -2 -11 -11  137.05   12.08   0
   2  11  11  122.13   14.92   0
   2  11  11  114.18   12.86   0
  -3 -11 -11  157.65   13.67   0
  -3 -11 -11  168.15   17.28   0
  -3 -11 -11  143.23   14.64   0
   3  11  11  159.72   17.11   0
   3  11  11  175.01   14.40   0
  -4 -11 -11    4.95    6.14   0
  -4 -11 -11   -3.30    7.75   0
   4  11  11   -7.44    7.01   0
   4  11  11   -2.41    5.97   0
  -1 -12 -11    8.05    6.56   0
  -1 -12 -11    1.81    9.99   0
   1  12  11    5.41    7.53   0
  -2 -12 -11  259.18   17.38   0
  -2 -12 -11  223.98   22.43   0
   2  12  11  204.71   17.87   0
   0  -2  12   44.78    7.74   0
   0  -2  12   40.28    6.70   0
   0  -2  12   52.51    7.41   0
   0  -2  12   31.28    5.71   0
   1  -2  12  739.42   33.35   0
   1  -2  12  771.15   33.37   0
   1  -2  12  782.24   35.29   0
   1  -2  12  770.27   33.48   0
  -2   2 -12    9.22    6.04   0
   2  -2  12    6.37    4.70   0
   2  -2  12    0.24    4.66   0
   2  -2  12    7.02    4.84   0
   2  -2  12   -5.87    4.74   0
  -3   2 -12   94.11   13.21   0
   3  -2  12   88.88   11.13   0
   3  -2  12  111.27   10.51   0
   3  -2  12   82.28   10.71   0
  -2  -1  12   13.94    4.33   0
  -2  -1  12    6.56    3.81   0
  -2  -1  12    6.83    3.92   0
  -1  -1  12    2.94    3.94   0
  -1  -1  12    8.10    3.73   0
  -1  -1  12    7.34    3.52   0
   0  -1  12  858.02   36.10   0
   0  -1  12  868.21   37.76   0
   0  -1  12  851.92   35.90   0
   0  -1  12  831.94   35.47   0
   1  -1  12  269.95   14.70   0
   1  -1  12  270.48   14.41   0
   1  -1  12  281.92   16.34   0
   1  -1  12  262.73   14.88   0
  -2   1 -12 1003.34   42.82   0
   2  -1  12  974.56   42.69   0
   2  -1  12  972.75   41.30   0
   2  -1  12  936.74   41.70   0
   2  -1  12  992.89   41.59   0
  -3   1 -12   31.19    7.19   0
   3  -1  12   34.21    6.11   0
   3  -1  12   37.61    6.10   0
   3  -1  12   38.06    5.94   0
   3  -1  12   43.84    6.92   0
  -4   1 -12  432.01   24.49   0
   4  -1  12  444.63   24.14   0
   4  -1  12  448.40   23.51   0
   4  -1  12  506.32   23.94   0
  -2   0  12  405.38   19.28   0
  -2   0  12  420.54   19.50   0
  -2   0  12  428.01   21.21   0
  -1   0  12  102.12    9.55   0
  -1   0  12   89.08    7.71   0
  -1   0  12   98.72    8.30   0
   0   0  12   81.34    7.88   0
   0   0  12   95.80    7.81   0
   0   0  12   88.10    6.67   0
  -1   0 -12  349.30   17.34   0
   1   0  12  342.63   17.38   0
   1   0  12  328.78   16.16   0
   1   0  12  340.16   17.10   0
  -2   0 -12 1022.18   45.20   0
   2   0  12 1082.82   44.16   0
   2   0  12 1077.46   45.28   0
   2   0  12 1127.69   45.88   0
   2   0  12 1016.54   44.59   0
  -3   0 -12  348.20   19.13   0
   3   0  12  349.08   18.85   0
   3   0  12  351.38   18.66   0
   3   0  12  339.94   18.31   0
  -4   0 -12  134.07   12.06   0
  -4   0 -12  117.92    8.85   0
   4   0  12  157.56   11.19   0
   4   0  12  142.91   12.64   0
  -5   0 -12  484.15   25.29   0
  -5   0 -12  435.18   21.89   0
  -5   0 -12  482.99   22.99   0
   5   0  12  469.96   24.44   0
   5   0  12  494.67   25.66   0
   5   0  12  479.33   24.17   0
  -3   1  12    8.62    4.28   0
  -3   1  12    0.96    4.32   0
  -3   1  12    1.27    4.33   0
  -2   1  12  767.53   33.72   0
  -2   1  12  795.11   33.89   0
  -2   1  12  837.96   35.16   0
  -1   1  12   45.70    6.62   0
  -1   1  12   48.67    6.36   0
  -1   1  12   31.51    5.44   0
   0   1  12  477.00   22.16   0
   0   1  12  471.83   23.04   0
   0   1  12  493.95   22.12   0
  -1  -1 -12   65.81    6.75   0
  -1  -1 -12   62.08    8.78   0
   1   1  12   47.41    7.16   0
   1   1  12   52.80    7.58   0
   1   1  12   56.68    6.94   0
  -2  -1 -12   16.28    4.54   0
   2   1  12   15.95    4.38   0
   2   1  12   25.55    5.07   0
  -3  -1 -12 1027.51   43.41   0
  -3  -1 -12 1102.08   43.49   0
  -3  -1 -12 1086.94   46.26   0
   3   1  12 1115.78   46.26   0
   3   1  12 1100.85   46.83   0
   3   1  12 1111.36   46.51   0
  -4  -1 -12    3.04    3.65   0
  -4  -1 -12    1.49    4.56   0
   4   1  12    1.96    4.64   0
   4   1  12    4.63    3.77   0
   4   1  12   -2.28    3.92   0
  -5  -1 -12  110.17   10.51   0
  -5  -1 -12   98.38    9.24   0
  -5  -1 -12  126.59   11.95   0
   5   1  12  106.75   12.32   0
   5   1  12  116.67   10.39   0
   5   1  12  113.87   11.47   0
  -6  -1 -12  223.23   16.97   0
  -6  -1 -12  210.40   13.84   0
  -6  -1 -12  221.57   15.81   0
   6   1  12  174.70   18.58   0
   6   1  12  207.94   16.21   0
   6   1  12  209.25   14.60   0
  -3   2  12   -3.05    4.02   0
  -3   2  12    5.07    4.39   0
   2  -2 -12  135.12   11.11   0
  -2   2  12  111.66    9.41   0
  -2   2  12  147.98   10.41   0
  -2   2  12  138.95    9.85   0
   1  -2 -12 1121.47   47.43   0
  -1   2  12 1092.66   45.68   0
  -1   2  12 1139.56   46.70   0
  -1   2  12 1085.19   45.85   0
   0  -2 -12  571.30   26.02   0
   0   2  12  465.97   23.93   0
   0   2  12  557.30   25.02   0
   0   2  12  539.26   24.06   0
  -1  -2 -12  889.65   39.31   0
  -1  -2 -12  918.69   36.78   0
   1   2  12  878.75   38.26   0
   1   2  12  849.91   37.60   0
   1   2  12  898.92   38.03   0
  -2  -2 -12   19.94    4.08   0
  -2  -2 -12   13.41    2.70   0
  -2  -2 -12   20.26    5.17   0
   2   2  12   14.29    4.37   0
   2   2  12   15.17    4.09   0
   2   2  12    5.45    3.32   0
  -3  -2 -12   99.59    8.35   0
  -3  -2 -12  113.90   10.51   0
  -3  -2 -12  128.97    9.50   0
   3   2  12  116.82    9.56   0
   3   2  12  116.96   10.38   0
  -4  -2 -12  505.10   22.85   0
  -4  -2 -12  475.53   24.62   0
  -4  -2 -12  477.90   23.57   0
   4   2  12  496.92   23.83   0
   4   2  12  509.00   23.68   0
   4   2  12  426.26   24.05   0
  -5  -2 -12  271.23   16.10   0
  -5  -2 -12  299.77   17.69   0
  -5  -2 -12  309.32   18.55   0
  -5  -2 -12  310.30   17.19   0
   5   2  12  279.87   18.48   0
   5   2  12  285.99   16.54   0
   5   2  12  304.65   17.57   0
  -6  -2 -12   27.05    6.62   0
  -6  -2 -12   17.36    6.41   0
   6   2  12   22.17    5.70   0
   6   2  12   17.27    5.81   0
   6   2  12   12.15    5.96   0
   3  -3 -12 1044.30   44.02   0
  -3   3  12 1004.43   43.48   0
  -3   3  12 1036.10   43.26   0
   2  -3 -12   60.91    7.34   0
  -2   3  12   68.42    8.12   0
  -2   3  12   66.03    7.68   0
  -2   3  12   50.00    7.57   0
   1  -3 -12  638.22   28.97   0
  -1   3  12  622.93   28.09   0
  -1   3  12  623.89   27.63   0
  -1   3  12  607.33   27.71   0
   0  -3 -12  367.20   18.97   0
   0   3  12  337.47   17.63   0
   0   3  12  354.28   17.54   0
   0   3  12  350.20   17.90   0
  -1  -3 -12 2203.48   87.34   0
  -1  -3 -12 2274.75   90.48   0
   1   3  12 2296.07   89.55   0
   1   3  12 2231.05   89.30   0
   1   3  12 2186.81   88.96   0
  -2  -3 -12  129.66   10.69   0
   2   3  12  115.89    9.34   0
   2   3  12  114.57   10.01   0
   2   3  12  120.64    9.47   0
  -3  -3 -12  302.83   15.20   0
  -3  -3 -12  263.18   15.24   0
  -3  -3 -12  301.10   17.25   0
  -3  -3 -12  311.34   15.55   0
   3   3  12  280.08   15.89   0
   3   3  12  301.94   16.89   0
   3   3  12  302.88   16.21   0
  -4  -3 -12  227.83   14.03   0
  -4  -3 -12  232.36   13.81   0
  -4  -3 -12  229.11   15.28   0
   4   3  12  221.92   14.35   0
   4   3  12  228.43   15.48   0
   4   3  12  282.19   14.79   0
  -5  -3 -12   78.34    9.76   0
  -5  -3 -12   82.55    9.37   0
  -5  -3 -12   62.95    8.76   0
  -5  -3 -12   61.75    9.72   0
   5   3  12   86.14    9.77   0
   5   3  12   56.33   10.55   0
   5   3  12   76.66    8.73   0
  -6  -3 -12  749.52   35.26   0
  -6  -3 -12  741.19   35.10   0
  -6  -3 -12  711.18   35.39   0
  -6  -3 -12  808.11   34.74   0
   6   3  12  730.58   36.51   0
   6   3  12  750.31   35.09   0
   6   3  12  754.26   34.04   0
   3  -4 -12  814.38   35.81   0
  -3   4  12  786.13   35.70   0
  -3   4  12  830.30   35.18   0
   2  -4 -12  579.12   27.12   0
  -2   4  12  610.29   26.86   0
  -2   4  12  570.77   26.49   0
  -2   4  12  559.89   26.42   0
   1  -4 -12  351.47   18.05   0
  -1   4  12  338.73   17.27   0
  -1   4  12  323.34   17.06   0
  -1   4  12  317.36   17.16   0
   0  -4 -12  716.12   27.28   0
   0  -4 -12  634.31   30.47   0
   0  -4 -12  666.50   26.89   0
   0   4  12  662.63   29.88   0
   0   4  12  655.26   29.61   0
   0   4  12  676.84   29.97   0
  -1  -4 -12  123.32    8.76   0
  -1  -4 -12  126.05    7.63   0
  -1  -4 -12   90.61    9.45   0
  -1  -4 -12  100.97    6.68   0
   1   4  12   97.16    8.76   0
   1   4  12   87.53    8.78   0
   1   4  12  112.27    9.51   0
  -2  -4 -12 2342.62   97.02   0
  -2  -4 -12 2505.36   96.79   0
  -2  -4 -12 2554.97   96.33   0
  -2  -4 -12 2460.82   98.76   0
   2   4  12 2457.32   97.73   0
   2   4  12 2452.94   98.21   0
   2   4  12 2418.63   97.70   0
  -3  -4 -12   15.43    3.82   0
  -3  -4 -12    5.61    3.50   0
  -3  -4 -12    8.93    4.26   0
   3   4  12    4.68    3.52   0
   3   4  12    8.19    3.72   0
   3   4  12    5.99    4.40   0
  -4  -4 -12  679.17   30.59   0
  -4  -4 -12  658.28   31.92   0
  -4  -4 -12  684.71   31.20   0
   4   4  12  662.09   31.24   0
   4   4  12  671.30   32.31   0
   4   4  12  764.31   31.61   0
  -5  -4 -12  212.28   14.79   0
  -5  -4 -12  258.74   15.77   0
  -5  -4 -12  247.90   15.98   0
  -5  -4 -12  253.71   15.08   0
   5   4  12  236.50   15.28   0
   5   4  12  215.07   16.66   0
   5   4  12  250.82   14.73   0
  -6  -4 -12  255.65   16.70   0
  -6  -4 -12  255.76   16.23   0
  -6  -4 -12  240.39   16.59   0
  -6  -4 -12  206.98   15.38   0
   6   4  12  227.34   17.97   0
   6   4  12  243.58   16.30   0
   6   4  12  252.32   15.06   0
  -7  -4 -12  564.17   29.70   0
  -7  -4 -12  551.96   28.78   0
  -7  -4 -12  581.09   30.42   0
  -7  -4 -12  583.29   30.01   0
   7   4  12  580.86   29.42   0
   7   4  12  595.88   28.05   0
   3  -5 -12   42.93    6.45   0
  -3   5  12   48.70    8.98   0
   2  -5 -12 1598.05   65.22   0
  -2   5  12 1591.30   64.70   0
  -2   5  12 1523.71   64.78   0
  -2   5  12 1642.40   65.28   0
   1  -5 -12   21.01    3.59   0
   1  -5 -12   14.45    2.84   0
   1  -5 -12   12.51    4.26   0
  -1   5  12   16.12    4.81   0
  -1   5  12   10.72    3.84   0
  -1   5  12   18.52    4.69   0
   0  -5 -12  950.99   39.45   0
   0  -5 -12  943.86   40.27   0
   0  -5 -12  969.54   41.78   0
   0   5  12  992.36   41.23   0
   0   5  12  957.59   41.41   0
   0   5  12  968.89   41.14   0
  -1  -5 -12  559.10   27.09   0
  -1  -5 -12  615.92   24.82   0
  -1  -5 -12  614.46   28.22   0
  -1  -5 -12  620.76   26.46   0
   1   5  12  583.96   27.78   0
   1   5  12  613.16   27.51   0
   1   5  12  587.75   27.27   0
  -2  -5 -12   77.11    8.90   0
  -2  -5 -12   69.19    8.54   0
  -2  -5 -12   67.35    7.27   0
  -2  -5 -12   74.28    6.40   0
   2   5  12   74.57    8.94   0
   2   5  12   85.65    7.96   0
   2   5  12   69.77    8.00   0
  -3  -5 -12 2110.04   83.76   0
  -3  -5 -12 2053.09   82.50   0
  -3  -5 -12 2054.35   84.51   0
  -3  -5 -12 2018.60   83.73   0
   3   5  12 2098.88   83.62   0
   3   5  12 2120.45   83.95   0
   3   5  12 2098.33   84.73   0
  -4  -5 -12  229.89   15.13   0
  -4  -5 -12  226.32   13.69   0
  -4  -5 -12  238.31   14.74   0
   4   5  12  274.84   15.31   0
   4   5  12  219.03   15.45   0
  -5  -5 -12  407.64   21.61   0
  -5  -5 -12  438.35   21.72   0
  -5  -5 -12  406.05   22.32   0
  -5  -5 -12  427.75   22.61   0
   5   5  12  441.33   21.52   0
   5   5  12  387.52   23.25   0
   5   5  12  425.00   22.17   0
  -6  -5 -12  129.03   12.11   0
  -6  -5 -12  117.81   13.24   0
  -6  -5 -12  125.34   12.29   0
  -6  -5 -12  133.62   12.42   0
   6   5  12  122.26   10.99   0
   6   5  12  113.92   14.15   0
   6   5  12  126.18   12.15   0
  -7  -5 -12  423.35   25.69   0
  -7  -5 -12  399.48   23.24   0
  -7  -5 -12  427.51   24.23   0
  -7  -5 -12  392.48   24.09   0
   7   5  12  476.91   23.03   0
   7   5  12  433.98   24.15   0
   3  -6 -12   -1.28    2.32   0
   3  -6 -12    3.25    2.98   0
   3  -6 -12    3.26    4.46   0
   2  -6 -12   10.08    3.87   0
   2  -6 -12    4.82    4.17   0
  -2   6  12    9.83    4.48   0
  -2   6  12   10.98    4.84   0
   1  -6 -12  697.16   30.20   0
   1  -6 -12  670.89   29.36   0
   1  -6 -12  644.65   28.10   0
  -1   6  12  660.15   29.51   0
  -1   6  12  607.05   29.71   0
  -1   6  12  642.15   29.88   0
   0  -6 -12  218.96   14.22   0
   0  -6 -12  233.19   13.93   0
   0  -6 -12  228.21   12.54   0
   0   6  12  209.85   14.03   0
   0   6  12  223.11   13.33   0
   0   6  12  227.27   13.87   0
  -1  -6 -12  318.12   18.52   0
  -1  -6 -12  329.08   14.55   0
  -1  -6 -12  316.04   17.80   0
  -1  -6 -12  329.93   16.82   0
   1   6  12  330.74   18.11   0
   1   6  12  322.21   17.26   0
   1   6  12  346.46   17.70   0
  -2  -6 -12  213.27   11.31   0
  -2  -6 -12  203.83   14.22   0
  -2  -6 -12  210.41   13.53   0
  -2  -6 -12  231.46   13.26   0
   2   6  12  205.81   12.92   0
   2   6  12  219.46   13.53   0
   2   6  12  217.26   14.22   0
  -3  -6 -12  545.49   25.28   0
  -3  -6 -12  515.20   23.67   0
  -3  -6 -12  541.41   25.87   0
  -3  -6 -12  515.59   25.51   0
   3   6  12  528.94   25.16   0
   3   6  12  526.26   24.73   0
   3   6  12  488.29   25.94   0
  -4  -6 -12 1165.33   49.61   0
  -4  -6 -12 1090.12   49.30   0
  -4  -6 -12 1104.35   48.15   0
   4   6  12 1188.07   48.79   0
   4   6  12 1120.62   50.17   0
   4   6  12 1228.71   49.49   0
  -5  -6 -12  807.66   34.79   0
  -5  -6 -12  780.54   34.22   0
  -5  -6 -12  736.82   34.68   0
  -5  -6 -12  733.13   34.96   0
   5   6  12  696.50   35.68   0
   5   6  12  744.67   34.39   0
   5   6  12  727.59   33.50   0
  -6  -6 -12  195.44   16.60   0
  -6  -6 -12  196.21   14.59   0
  -6  -6 -12  197.48   14.87   0
  -6  -6 -12  190.22   15.07   0
   6   6  12  205.74   13.59   0
   6   6  12  168.80   16.99   0
   6   6  12  194.59   15.04   0
   3  -7 -12  130.56   11.37   0
   3  -7 -12  124.99    9.45   0
   3  -7 -12  126.19   11.32   0
  -3   7  12  128.78   13.10   0
   2  -7 -12   12.83    4.62   0
   2  -7 -12   15.85    5.75   0
   2  -7 -12   13.94    4.12   0
  -2   7  12   19.69    5.31   0
   1  -7 -12   33.78    5.50   0
   1  -7 -12   47.37    7.35   0
   1  -7 -12   35.09    5.40   0
  -1   7  12   32.66    5.92   0
  -1   7  12   48.04    7.09   0
   0  -7 -12  200.13   12.20   0
   0  -7 -12  210.12   14.85   0
   0  -7 -12  184.91   12.78   0
   0   7  12  190.54   12.43   0
   0   7  12  178.29   13.20   0
   0   7  12  178.80   12.94   0
  -1  -7 -12  583.99   27.18   0
  -1  -7 -12  554.22   23.67   0
  -1  -7 -12  510.63   27.68   0
  -1  -7 -12  568.08   26.43   0
   1   7  12  559.50   27.31   0
   1   7  12  595.27   26.96   0
   1   7  12  593.85   26.64   0
  -2  -7 -12   10.42    3.67   0
  -2  -7 -12   13.00    3.22   0
  -2  -7 -12    6.17    5.22   0
   2   7  12    5.59    3.62   0
   2   7  12   12.54    4.48   0
   2   7  12    5.82    4.75   0
  -3  -7 -12    0.17    4.86   0
  -3  -7 -12    3.20    3.89   0
  -4  -7 -12  423.04   20.87   0
  -4  -7 -12  408.41   22.27   0
  -4  -7 -12  404.44   22.12   0
  -4  -7 -12  411.14   21.82   0
   4   7  12  420.19   23.06   0
   4   7  12  430.99   21.98   0
   4   7  12  407.04   21.14   0
  -5  -7 -12   56.81    9.41   0
  -5  -7 -12   61.34    8.36   0
  -5  -7 -12   55.13    8.68   0
  -5  -7 -12   58.05    9.69   0
   5   7  12   53.88    8.56   0
   5   7  12   56.73    9.77   0
   5   7  12   69.21   12.34   0
  -6  -7 -12  783.11   38.02   0
  -6  -7 -12  767.56   36.72   0
  -6  -7 -12  736.84   36.51   0
  -6  -7 -12  776.27   36.80   0
   6   7  12  808.48   35.81   0
   6   7  12  781.94   38.89   0
   6   7  12  856.45   37.10   0
   3  -8 -12 1039.93   45.68   0
   3  -8 -12 1062.75   44.71   0
   3  -8 -12 1067.76   46.64   0
  -3   8  12 1051.12   47.30   0
   2  -8 -12   19.19    7.18   0
   2  -8 -12    7.03    4.65   0
   2  -8 -12   27.33    5.53   0
  -2   8  12   16.14    5.59   0
  -2   8  12   29.51    7.05   0
   1  -8 -12  238.49   15.38   0
   1  -8 -12  264.19   15.38   0
   1  -8 -12  248.71   17.98   0
  -1   8  12  288.66   16.83   0
  -1   8  12  254.08   16.53   0
   0  -8 -12  109.63    6.54   0
   0  -8 -12  105.33   10.08   0
   0  -8 -12   96.46    9.61   0
   0  -8 -12   95.01   12.75   0
   0  -8 -12  113.96    5.96   0
  -2  -8 -12  853.75   37.90   0
  -2  -8 -12  880.75   41.21   0
  -2  -8 -12  886.67   40.32   0
  -2  -8 -12  919.48   40.34   0
   2   8  12  968.94   40.17   0
   2   8  12 1026.95   40.83   0
   2   8  12  849.69   40.78   0
  -3  -8 -12  162.10   12.19   0
  -3  -8 -12  138.07   10.34   0
  -3  -8 -12  137.74   13.42   0
  -3  -8 -12  139.70   12.54   0
   3   8  12  147.24   13.92   0
   3   8  12  150.09   12.25   0
   3   8  12  163.34   11.62   0
  -4  -8 -12   15.25    5.58   0
  -4  -8 -12   28.32    5.85   0
  -4  -8 -12    8.86    5.77   0
  -4  -8 -12   18.09    5.57   0
   4   8  12   13.68    4.98   0
   4   8  12   10.64    5.78   0
   4   8  12   11.84    4.69   0
  -5  -8 -12  116.56   11.75   0
  -5  -8 -12  119.20   13.29   0
  -5  -8 -12  102.08   11.42   0
   5   8  12   91.22   14.12   0
   5   8  12  128.43   11.14   0
   5   8  12  116.74   12.53   0
  -6  -8 -12   37.03    8.95   0
  -6  -8 -12   43.59    8.46   0
  -6  -8 -12   41.73    8.05   0
  -6  -8 -12   48.95    8.29   0
   6   8  12   59.42    9.78   0
   6   8  12   31.99   12.90   0
   2  -9 -12  949.57   42.56   0
   2  -9 -12 1019.22   42.49   0
   2  -9 -12 1014.33   45.43   0
  -2   9  12  850.00   42.90   0
  -2   9  12  994.10   44.09   0
   1  -9 -12  440.02   22.83   0
   1  -9 -12  453.65   26.32   0
   1  -9 -12  447.14   23.07   0
  -1   9  12  462.70   24.23   0
  -1   9  12  415.93   23.85   0
   0  -9 -12  511.37   25.10   0
   0  -9 -12  498.83   25.22   0
   0  -9 -12  509.48   27.99   0
   0  -9 -12  513.26   21.96   0
   0   9  12  497.50   25.60   0
   0   9  12  483.63   26.10   0
  -1  -9 -12   40.35    6.43   0
  -1  -9 -12   31.87    6.31   0
  -1  -9 -12   37.75    8.56   0
  -1  -9 -12   35.70    6.50   0
   1   9  12   45.85    7.52   0
   1   9  12   38.79    7.03   0
  -2  -9 -12  434.41   23.08   0
  -2  -9 -12  452.72   22.96   0
   2   9  12  436.89   22.84   0
   2   9  12  416.58   23.75   0
  -3  -9 -12  537.73   27.41   0
  -3  -9 -12  546.17   28.29   0
  -3  -9 -12  535.05   26.80   0
   3   9  12  548.30   26.86   0
   3   9  12  534.73   28.44   0
  -4  -9 -12  481.69   26.55   0
  -4  -9 -12  486.79   25.27   0
  -4  -9 -12  489.61   24.38   0
  -4  -9 -12  474.94   26.24   0
   4   9  12  525.70   25.57   0
   4   9  12  480.06   26.67   0
  -5  -9 -12   11.59    6.97   0
  -5  -9 -12   -6.51    5.42   0
  -5  -9 -12    6.04    5.42   0
   5   9  12    3.17    8.10   0
   5   9  12   -0.87    5.73   0
   1 -10 -12  566.96   28.24   0
   1 -10 -12  585.95   32.44   0
   1 -10 -12  569.59   24.08   0
   1 -10 -12  537.69   27.99   0
  -1  10  12  598.01   29.68   0
   0 -10 -12  572.83   26.35   0
   0 -10 -12  615.49   29.43   0
   0 -10 -12  605.06   32.83   0
   0 -10 -12  588.77   29.22   0
   0  10  12  548.68   30.07   0
   0  10  12  652.82   30.21   0
  -1 -10 -12  163.12   13.42   0
  -1 -10 -12  173.76   11.64   0
  -1 -10 -12  170.21   18.59   0
  -1 -10 -12  157.70   13.58   0
   1  10  12  181.26   14.32   0
   1  10  12  155.18   15.23   0
  -2 -10 -12    7.22    4.99   0
  -2 -10 -12   18.80    7.86   0
  -2 -10 -12    8.01    5.46   0
   2  10  12    0.21    6.51   0
   2  10  12    8.42    5.35   0
  -3 -10 -12  699.40   35.05   0
  -3 -10 -12  700.09   33.28   0
  -3 -10 -12  673.96   33.89   0
   3  10  12  723.39   33.39   0
   3  10  12  701.18   35.06   0
  -4 -10 -12   11.79    7.47   0
  -4 -10 -12   -1.09    5.35   0
  -4 -10 -12   -1.30    5.85   0
   4  10  12   -0.96    7.00   0
   4  10  12   -6.60    6.11   0
  -5 -10 -12  826.36   41.83   0
   5  10  12  931.08   40.82   0
   0 -11 -12  216.07   16.13   0
   0 -11 -12  175.58   13.31   0
   0 -11 -12  208.14   21.65   0
   0  11  12  185.21   16.99   0
  -1 -11 -12  882.39   39.10   0
  -1 -11 -12  867.89   41.19   0
  -1 -11 -12  898.05   44.41   0
   1  11  12  932.38   41.62   0
  -2 -11 -12   -9.44    5.24   0
  -2 -11 -12   10.89    8.76   0
  -2 -11 -12    5.93    6.57   0
   2  11  12   -2.42    8.82   0
   2  11  12   -4.76    6.27   0
  -3 -11 -12   64.71   13.06   0
  -3 -11 -12   97.17   17.03   0
   3  11  12   82.46   12.97   0
   1  -1  13    5.15    5.00   0
   1  -1  13    1.72    4.68   0
   1  -1  13    6.08    4.66   0
   1  -1  13    5.22    5.28   0
  -2   1 -13    9.60    6.45   0
   2  -1  13   23.50    6.10   0
   2  -1  13    8.77    5.00   0
   2  -1  13   14.23    5.33   0
  -1   0  13   74.18    8.69   0
  -1   0  13   79.45   10.57   0
  -1   0  13   78.34    9.30   0
   0   0  13  631.01   29.05   0
   0   0  13  599.02   27.32   0
   0   0  13  591.99   27.47   0
   1   0  13  438.17   21.27   0
   1   0  13  450.07   20.87   0
   1   0  13  347.78   21.08   0
  -2   0 -13  485.34   24.52   0
   2   0  13  496.65   24.07   0
   2   0  13  483.62   24.49   0
   2   0  13  525.71   25.05   0
  -3   0 -13   66.03   10.71   0
   3   0  13   57.86    9.45   0
   3   0  13   83.32    9.95   0
   3   0  13   53.94    7.99   0
  -4   0 -13  114.76   13.35   0
   4   0  13  121.02   12.04   0
   4   0  13  109.69   13.17   0
   4   0  13   92.39   11.26   0
  -1   1  13  124.76   11.17   0
  -1   1  13  117.40    9.86   0
  -1   1  13  126.53   10.33   0
   0   1  13   -0.64    4.06   0
   0   1  13    4.96    4.38   0
   0   1  13   -0.34    3.94   0
  -1  -1 -13 1176.37   48.46   0
   1   1  13 1167.79   50.23   0
   1   1  13 1172.84   49.52   0
   1   1  13 1208.90   49.32   0
  -2  -1 -13   70.87    9.04   0
   2   1  13   81.23    9.09   0
   2   1  13   85.49    9.87   0
   2   1  13   68.26    9.25   0
  -3  -1 -13 1280.11   53.35   0
   3   1  13 1213.30   53.68   0
   3   1  13 1284.49   53.18   0
   3   1  13 1259.22   53.38   0
  -4  -1 -13   81.95   10.50   0
  -4  -1 -13   60.95    7.54   0
   4   1  13   53.66    9.69   0
   4   1  13   62.50    8.70   0
   4   1  13   69.42    9.58   0
  -5  -1 -13   24.16    7.27   0
  -5  -1 -13    6.39    5.28   0
   5   1  13   14.97    6.98   0
   5   1  13   12.29    6.16   0
  -2   2  13  227.88   14.37   0
  -2   2  13  203.81   13.69   0
  -2   2  13  218.18   13.72   0
   1  -2 -13  980.24   43.56   0
  -1   2  13  930.27   41.57   0
  -1   2  13  956.11   41.45   0
  -1   2  13 1080.39   42.90   0
   0  -2 -13   84.77   10.49   0
   0   2  13   88.06    9.30   0
   0   2  13   87.84    8.47   0
  -1  -2 -13    8.69    5.11   0
   1   2  13    6.99    4.04   0
   1   2  13    2.98    4.37   0
   1   2  13    2.12    3.99   0
  -2  -2 -13 1301.63   56.41   0
  -2  -2 -13 1329.60   53.99   0
   2   2  13 1305.30   55.14   0
   2   2  13 1308.41   55.17   0
   2   2  13 1330.27   54.75   0
  -3  -2 -13   62.33    9.02   0
  -3  -2 -13   66.44    8.68   0
  -3  -2 -13   65.92    6.72   0
  -3  -2 -13   72.49    6.47   0
   3   2  13   51.59    7.16   0
   3   2  13   56.70    8.57   0
   3   2  13   53.07    7.65   0
  -4  -2 -13 1193.80   48.35   0
  -4  -2 -13 1105.58   47.99   0
  -4  -2 -13 1175.38   49.89   0
  -4  -2 -13 1169.80   51.53   0
   4   2  13 1194.27   50.14   0
   4   2  13 1166.00   49.83   0
   4   2  13 1149.98   50.97   0
  -5  -2 -13   16.53    5.89   0
  -5  -2 -13    7.45    6.28   0
   5   2  13   14.60    5.73   0
   5   2  13    7.64    6.96   0
   5   2  13   12.75    5.39   0
   2  -3 -13  276.37   16.81   0
  -2   3  13  260.99   15.66   0
  -2   3  13  264.11   15.78   0
  -2   3  13  272.37   15.68   0
   1  -3 -13   21.29    5.59   0
  -1   3  13   23.09    5.23   0
  -1   3  13   23.60    4.99   0
  -1   3  13   28.09    5.38   0
   0  -3 -13  880.80   40.52   0
   0   3  13  995.51   40.03   0
   0   3  13  840.64   39.08   0
   0   3  13  936.44   39.19   0
  -1  -3 -13    2.89    4.38   0
  -1  -3 -13    5.02    3.07   0
   1   3  13    4.18    3.94   0
   1   3  13   -1.61    4.00   0
  -2  -3 -13  127.89   11.71   0
  -2  -3 -13  130.33    8.28   0
  -2  -3 -13  125.45    8.95   0
  -2  -3 -13  127.21    7.45   0
   2   3  13  128.98   10.45   0
   2   3  13  122.25   10.43   0
   2   3  13  114.33   10.77   0
  -3  -3 -13 1059.94   46.63   0
  -3  -3 -13 1121.29   49.67   0
  -3  -3 -13 1172.90   46.65   0
  -3  -3 -13 1148.27   47.52   0
   3   3  13 1160.14   48.43   0
   3   3  13 1164.49   49.27   0
   3   3  13 1111.12   48.21   0
  -4  -3 -13  470.64   24.22   0
  -4  -3 -13  515.44   25.14   0
  -4  -3 -13  559.67   27.17   0
  -4  -3 -13  512.50   24.66   0
   4   3  13  558.11   25.61   0
   4   3  13  517.00   26.81   0
   4   3  13  513.92   25.57   0
  -5  -3 -13  604.15   31.38   0
  -5  -3 -13  633.51   30.09   0
  -5  -3 -13  670.75   30.04   0
   5   3  13  629.49   29.72   0
   5   3  13  615.84   30.22   0
   5   3  13  598.24   31.58   0
   2  -4 -13    0.89    5.04   0
  -2   4  13    0.42    4.28   0
  -2   4  13    6.78    4.86   0
  -2   4  13   -1.19    4.59   0
   1  -4 -13   35.85    6.37   0
  -1   4  13   18.27    5.04   0
  -1   4  13   28.89    5.45   0
  -1   4  13   32.15    5.44   0
   0  -4 -13  365.48   20.01   0
   0   4  13  349.95   18.90   0
   0   4  13  407.85   19.55   0
   0   4  13  356.66   19.16   0
  -1  -4 -13  270.71   12.54   0
  -1  -4 -13  259.36   12.27   0
  -1  -4 -13  252.95   16.09   0
  -1  -4 -13  284.81   13.10   0
   1   4  13  258.06   15.09   0
   1   4  13  276.53   16.00   0
  -2  -4 -13  267.03   15.15   0
  -2  -4 -13  281.84   14.08   0
  -2  -4 -13  277.09   16.92   0
  -2  -4 -13  289.64   14.13   0
   2   4  13  273.42   15.81   0
   2   4  13  283.33   15.91   0
   2   4  13  266.90   16.48   0
  -3  -4 -13  250.87   14.38   0
  -3  -4 -13  253.08   15.30   0
  -3  -4 -13  283.29   14.80   0
  -3  -4 -13  256.74   16.83   0
   3   4  13  279.22   16.09   0
   3   4  13  260.92   15.51   0
   3   4  13  274.91   16.68   0
  -4  -4 -13  357.69   18.81   0
  -4  -4 -13  334.66   18.47   0
  -4  -4 -13  355.96   19.13   0
  -4  -4 -13  341.05   20.34   0
   4   4  13  366.33   19.17   0
   4   4  13  351.29   19.40   0
   4   4  13  367.75   20.90   0
  -5  -4 -13 1191.09   52.77   0
  -5  -4 -13 1231.13   51.82   0
  -5  -4 -13 1233.49   51.56   0
  -5  -4 -13 1134.64   50.73   0
   5   4  13 1176.05   53.26   0
   5   4  13 1264.93   51.50   0
   5   4  13 1180.49   51.79   0
  -6  -4 -13  150.46   13.53   0
  -6  -4 -13  162.36   15.04   0
  -6  -4 -13  182.28   14.92   0
   6   4  13  152.04   14.58   0
   6   4  13  172.96   13.24   0
   2  -5 -13  711.69   32.53   0
  -2   5  13  645.63   31.83   0
  -2   5  13  713.24   31.76   0
  -2   5  13  737.10   32.38   0
   1  -5 -13    3.25    4.65   0
  -1   5  13    1.81    4.59   0
  -1   5  13    0.51    3.86   0
  -1   5  13    1.16    4.33   0
   0  -5 -13    7.47    3.45   0
   0  -5 -13    0.84    4.06   0
   0  -5 -13    1.16    2.63   0
   0   5  13    2.11    4.59   0
   0   5  13    8.53    4.56   0
  -1  -5 -13  677.27   29.25   0
  -1  -5 -13  657.50   31.77   0
  -1  -5 -13  673.85   30.13   0
  -1  -5 -13  690.58   27.76   0
   1   5  13  660.17   31.37   0
   1   5  13  761.70   31.48   0
   1   5  13  664.45   30.90   0
  -2  -5 -13   33.38    5.81   0
  -2  -5 -13   25.95    4.07   0
  -2  -5 -13   20.51    4.55   0
  -2  -5 -13   15.43    5.13   0
   2   5  13   27.08    5.17   0
   2   5  13   18.61    4.96   0
   2   5  13   25.10    5.81   0
  -3  -5 -13  370.92   21.18   0
  -3  -5 -13  370.51   20.36   0
  -3  -5 -13  400.00   18.86   0
  -3  -5 -13  404.56   19.92   0
   3   5  13  374.16   21.11   0
   3   5  13  391.80   20.09   0
  -4  -5 -13    3.66    5.03   0
  -4  -5 -13    4.37    4.10   0
  -4  -5 -13    4.54    4.78   0
  -4  -5 -13   10.24    5.30   0
   4   5  13    4.09    4.96   0
   4   5  13    0.55    4.15   0
   4   5  13   -1.54    5.56   0
  -5  -5 -13   -0.61    5.42   0
  -5  -5 -13    8.85    5.96   0
  -5  -5 -13   -6.95    4.76   0
   5   5  13   -0.31    5.02   0
   5   5  13   -4.47    6.08   0
   5   5  13    6.51    4.41   0
  -6  -5 -13  659.71   31.43   0
  -6  -5 -13  588.03   29.68   0
  -6  -5 -13  631.72   30.32   0
  -6  -5 -13  497.53   30.47   0
   6   5  13  623.52   30.60   0
   6   5  13  641.60   29.42   0
  -2   6  13   31.94    6.40   0
   1  -6 -13 1036.22   48.70   0
   1  -6 -13 1273.17   49.81   0
   1  -6 -13 1192.17   52.02   0
  -1   6  13 1374.19   52.05   0
  -1   6  13 1173.28   51.77   0
  -1   6  13 1291.04   52.12   0
   0  -6 -13   35.99    6.26   0
   0  -6 -13   25.76    5.77   0
   0  -6 -13   26.37    4.51   0
   0   6  13   36.94    6.66   0
   0   6  13   26.32    5.51   0
  -1  -6 -13  186.03   11.51   0
  -1  -6 -13  185.88   13.23   0
  -1  -6 -13  188.37    9.00   0
  -1  -6 -13  156.59   13.25   0
   1   6  13  184.27   12.94   0
   1   6  13  166.42   13.34   0
  -2  -6 -13  619.86   28.46   0
  -2  -6 -13  604.11   29.52   0
  -2  -6 -13  610.74   26.56   0
  -2  -6 -13  604.67   29.74   0
   2   6  13  687.27   29.72   0
   2   6  13  592.65   29.72   0
   2   6  13  638.90   29.00   0
  -3  -6 -13  427.64   23.37   0
  -3  -6 -13  453.21   23.58   0
  -3  -6 -13  464.98   22.82   0
  -3  -6 -13  428.90   21.03   0
   3   6  13  436.68   23.92   0
   3   6  13  457.92   22.54   0
   3   6  13  497.85   23.37   0
  -4  -6 -13   99.76   11.05   0
  -4  -6 -13   98.20   11.52   0
  -4  -6 -13  100.65    9.79   0
  -4  -6 -13  111.77   12.00   0
   4   6  13   97.75   10.05   0
   4   6  13  113.36   11.27   0
   4   6  13  106.80   12.66   0
  -5  -6 -13   73.30   11.30   0
  -5  -6 -13   76.54   11.74   0
  -5  -6 -13   76.61    9.98   0
   5   6  13   78.87   11.43   0
   5   6  13   60.22    9.31   0
   5   6  13   50.17    9.50   0
  -6  -6 -13   25.08    8.14   0
  -6  -6 -13   11.46    6.05   0
  -6  -6 -13   15.54    7.03   0
  -6  -6 -13   19.60    6.95   0
   6   6  13   29.46    7.62   0
   6   6  13   25.82    5.58   0
   2  -7 -13  461.26   22.90   0
   2  -7 -13  420.44   20.05   0
   2  -7 -13  461.73   21.56   0
  -2   7  13  427.26   23.37   0
  -2   7  13  400.82   22.99   0
   1  -7 -13  717.68   31.11   0
   1  -7 -13  641.76   31.02   0
   1  -7 -13  645.30   29.22   0
  -1   7  13  664.37   31.39   0
  -1   7  13  622.45   31.27   0
  -1   7  13  699.96   31.11   0
   0  -7 -13  927.69   41.47   0
   0  -7 -13  895.38   41.21   0
   0   7  13  935.76   40.78   0
   0   7  13 1035.37   41.68   0
   0   7  13  872.36   41.31   0
  -1  -7 -13  296.18   16.70   0
  -1  -7 -13  298.85   17.70   0
  -1  -7 -13  309.56   13.68   0
  -1  -7 -13  303.63   18.84   0
   1   7  13  300.51   18.52   0
   1   7  13  309.33   17.23   0
  -2  -7 -13  519.91   26.99   0
  -2  -7 -13  544.81   26.53   0
  -2  -7 -13  517.11   23.17   0
  -2  -7 -13  534.80   25.66   0
   2   7  13  535.91   25.67   0
   2   7  13  553.42   26.15   0
   2   7  13  501.19   26.69   0
  -3  -7 -13  116.75   13.27   0
  -3  -7 -13  116.77   11.41   0
  -3  -7 -13  119.22    9.24   0
  -3  -7 -13  130.32   11.36   0
   3   7  13  126.67   13.51   0
   3   7  13  112.96   11.62   0
   3   7  13  131.60   10.82   0
  -4  -7 -13 1408.55   55.93   0
  -4  -7 -13 1265.12   55.19   0
  -4  -7 -13 1281.67   53.65   0
  -4  -7 -13 1234.74   55.19   0
   4   7  13 1306.38   54.93   0
   4   7  13 1152.07   55.58   0
   4   7  13 1328.51   54.54   0
  -5  -7 -13   -0.88    5.38   0
  -5  -7 -13   -3.04    5.24   0
  -5  -7 -13  -10.14    5.56   0
   5   7  13    3.55    5.01   0
   5   7  13    5.06    6.67   0
   5   7  13    6.86    5.91   0
   2  -8 -13   67.00    8.81   0
   2  -8 -13   52.48    9.47   0
   2  -8 -13   58.27    9.09   0
  -2   8  13   74.26   12.89   0
   1  -8 -13  269.98   18.28   0
   1  -8 -13  251.42   15.11   0
   1  -8 -13  228.40   15.98   0
  -1   8  13  223.93   16.81   0
  -1   8  13  248.87   16.90   0
   0  -8 -13 1090.88   46.26   0
   0  -8 -13 1106.17   48.36   0
   0  -8 -13 1067.30   47.18   0
   0   8  13 1109.49   47.41   0
   0   8  13 1024.44   47.40   0
  -1  -8 -13  174.33   15.79   0
  -1  -8 -13  153.09   12.20   0
  -1  -8 -13  147.55   12.55   0
  -1  -8 -13  148.39    8.38   0
   1   8  13  153.44   12.89   0
   1   8  13  141.16   14.04   0
   1   8  13  141.64   11.84   0
  -2  -8 -13  538.93   28.18   0
  -2  -8 -13  559.87   27.09   0
  -2  -8 -13  516.03   26.36   0
  -2  -8 -13  517.97   23.67   0
   2   8  13  561.64   26.80   0
   2   8  13  501.83   27.51   0
   2   8  13  555.83   26.23   0
  -3  -8 -13  203.30   12.41   0
  -3  -8 -13  196.47   14.40   0
  -3  -8 -13  197.18   14.65   0
   3   8  13  156.06   16.13   0
   3   8  13  204.78   14.79   0
   3   8  13  205.16   13.81   0
  -4  -8 -13   45.91    7.92   0
  -4  -8 -13   38.05    7.06   0
  -4  -8 -13   42.13    7.62   0
  -4  -8 -13   42.06    6.79   0
   4   8  13   49.69    8.47   0
   4   8  13   48.84    7.31   0
   4   8  13   55.46    8.38   0
  -5  -8 -13 1120.64   48.52   0
  -5  -8 -13 1061.10   49.72   0
  -5  -8 -13 1041.28   49.36   0
   5   8  13 1158.77   49.33   0
   5   8  13 1162.73   48.58   0
   1  -9 -13   45.73    7.23   0
   1  -9 -13   62.36   10.54   0
  -1   9  13   71.19   10.06   0
  -1   9  13   39.87    8.41   0
   0  -9 -13   11.78    5.66   0
   0  -9 -13   40.19    9.45   0
   0  -9 -13   28.04    6.39   0
   0   9  13   20.38    7.13   0
   0   9  13   30.88    7.34   0
  -1  -9 -13  965.25   42.90   0
  -1  -9 -13  932.37   39.24   0
  -1  -9 -13  943.44   39.59   0
  -1  -9 -13  986.72   43.48   0
   1   9  13  927.98   43.84   0
   1   9  13 1032.10   43.58   0
  -2  -9 -13   53.65    7.58   0
  -2  -9 -13   64.20    8.96   0
  -2  -9 -13   46.38    9.49   0
  -2  -9 -13   76.28   10.70   0
   2   9  13   43.86    8.15   0
   2   9  13   68.46    9.13   0
  -3  -9 -13  290.48   20.19   0
  -3  -9 -13  273.82   18.40   0
  -3  -9 -13  300.20   16.56   0
  -3  -9 -13  297.96   19.09   0
   3   9  13  274.53   20.29   0
   3   9  13  296.68   18.12   0
   3   9  13  314.88   18.77   0
  -4  -9 -13    7.04    6.17   0
  -4  -9 -13   17.70    7.35   0
  -4  -9 -13   -3.53    7.13   0
  -4  -9 -13   21.31    6.37   0
   4   9  13    5.54    5.47   0
   4   9  13   -0.53    5.96   0
   4   9  13    1.25    6.74   0
   0 -10 -13   12.86    4.07   0
   0 -10 -13    8.89    6.61   0
   0 -10 -13   18.35    6.79   0
   0 -10 -13   11.71    9.29   0
   0  10  13    2.23    7.00   0
  -1 -10 -13   25.12    5.33   0
  -1 -10 -13   36.79    9.78   0
  -1 -10 -13   22.09    6.71   0
  -1 -10 -13   30.86    4.97   0
   1  10  13    3.65   11.07   0
   1  10  13   19.90    7.62   0
  -2 -10 -13  207.16   20.49   0
  -2 -10 -13  264.95   18.54   0
  -2 -10 -13  293.56   21.78   0
   2  10  13  287.32   18.60   0
  -3 -10 -13  298.08   20.08   0
  -3 -10 -13  283.46   22.11   0
  -3 -10 -13  297.24   17.31   0
   3  10  13  319.39   19.86   0
  -2  -1 -14  304.32   16.98   0
   2   1  14  316.29   17.67   0
   2   1  14  247.98   17.81   0
   2   1  14  287.15   18.10   0
   0   2  14   99.76   11.32   0
   0   2  14  137.40   11.97   0
   0   2  14  122.77   11.23   0
  -1  -2 -14   32.18    7.65   0
   1   2  14   30.04    6.23   0
   1   2  14   37.50    6.90   0
   1   2  14   36.82    6.23   0
  -2  -2 -14  861.69   41.29   0
  -2  -2 -14  896.92   38.16   0
   2   2  14  899.48   39.74   0
   2   2  14  931.50   39.36   0
   2   2  14  844.02   39.65   0
  -3  -2 -14   25.03    6.33   0
   3   2  14   26.73    6.11   0
   3   2  14   20.15    5.39   0
   3   2  14   21.10    7.28   0
   1  -3 -14   21.30    6.69   0
  -1   3  14   13.41    6.12   0
  -1   3  14    7.41    5.49   0
  -1   3  14   24.70    6.09   0
   0  -3 -14  352.79   20.68   0
   0   3  14  338.29   19.15   0
   0   3  14  364.36   18.90   0
   0   3  14  339.03   19.34   0
  -1  -3 -14  221.13   15.78   0
   1   3  14  184.66   13.73   0
   1   3  14  190.22   14.39   0
   1   3  14  224.78   13.92   0
  -2  -3 -14  125.13    9.80   0
  -2  -3 -14   98.90   12.47   0
   2   3  14  129.91   11.48   0
   2   3  14  128.88   12.35   0
  -3  -3 -14  584.73   26.04   0
  -3  -3 -14  599.23   27.62   0
  -3  -3 -14  582.88   30.16   0
   3   3  14  565.78   29.62   0
   3   3  14  611.57   28.77   0
   3   3  14  636.35   28.97   0
  -4  -3 -14  325.24   18.23   0
  -4  -3 -14  286.03   17.09   0
  -4  -3 -14  312.24   16.76   0
   4   3  14  282.91   18.36   0
   4   3  14  299.81   20.19   0
   4   3  14  336.52   18.57   0
   1  -4 -14 1196.09   51.80   0
  -1   4  14 1194.75   50.57   0
  -1   4  14 1099.15   50.12   0
  -1   4  14 1255.07   50.54   0
   0  -4 -14  409.70   22.45   0
   0   4  14  394.16   20.97   0
   0   4  14  365.47   20.95   0
   0   4  14  409.06   20.83   0
  -1  -4 -14  517.33   26.79   0
   1   4  14  496.17   25.60   0
   1   4  14  520.18   25.08   0
   1   4  14  508.95   25.34   0
  -2  -4 -14   23.45    4.04   0
  -2  -4 -14   30.06    4.73   0
  -2  -4 -14   33.47    5.10   0
  -2  -4 -14   14.33    6.10   0
   2   4  14   14.66    4.80   0
   2   4  14   21.43    6.21   0
  -3  -4 -14  670.63   33.02   0
  -3  -4 -14  641.72   30.06   0
  -3  -4 -14  678.34   29.58   0
  -3  -4 -14  689.26   30.10   0
   3   4  14  694.00   31.70   0
   3   4  14  620.86   32.08   0
   3   4  14  697.83   31.47   0
  -4  -4 -14  106.86   11.53   0
  -4  -4 -14  104.85   10.79   0
  -4  -4 -14   87.60   10.23   0
   4   4  14   77.90   10.73   0
   4   4  14   82.92   11.56   0
   1  -5 -14  491.11   25.67   0
  -1   5  14  487.76   25.11   0
  -1   5  14  494.60   24.65   0
   0  -5 -14  587.64   28.86   0
   0   5  14  547.02   27.93   0
   0   5  14  590.36   27.76   0
  -1  -5 -14 1166.70   47.03   0
  -1  -5 -14 1119.30   50.98   0
  -1  -5 -14 1162.19   47.56   0
   1   5  14 1302.79   50.59   0
   1   5  14 1102.35   50.24   0
   1   5  14 1178.40   50.09   0
  -2  -5 -14  327.56   16.53   0
  -2  -5 -14  299.96   19.57   0
  -2  -5 -14  346.15   17.98   0
  -2  -5 -14  318.32   15.70   0
   2   5  14  336.15   18.63   0
   2   5  14  284.36   19.10   0
   2   5  14  343.92   18.80   0
  -3  -5 -14   88.63    8.76   0
  -3  -5 -14   79.97   11.00   0
  -3  -5 -14   84.07    9.38   0
  -3  -5 -14   70.11   11.54   0
   3   5  14   78.82   10.01   0
   3   5  14   65.56   10.49   0
   3   5  14   74.50   11.49   0
  -4  -5 -14 1474.23   60.59   0
  -4  -5 -14 1546.86   61.51   0
  -4  -5 -14 1507.89   61.68   0
  -4  -5 -14 1305.76   62.94   0
   4   5  14 1357.45   62.90   0
   4   5  14 1559.54   61.95   0
   4   5  14 1501.40   62.09   0
  -5  -5 -14   18.71    6.48   0
  -5  -5 -14   27.30    7.08   0
   5   5  14   33.11    7.58   0
   5   5  14   15.94    5.86   0
   1  -6 -14   -5.06    5.71   0
  -1   6  14   -2.48    6.20   0
  -1   6  14    1.11    4.59   0
  -1   6  14    4.87    5.66   0
   0  -6 -14  802.54   33.36   0
   0  -6 -14  781.50   37.08   0
   0  -6 -14  837.31   34.19   0
   0   6  14  808.44   36.19   0
   0   6  14  723.36   36.29   0
   0   6  14  848.33   36.77   0
  -1  -6 -14   48.79    7.58   0
  -1  -6 -14   37.01    6.93   0
  -1  -6 -14   55.74    9.87   0
   1   6  14   54.08    7.57   0
   1   6  14   48.40    7.43   0
   1   6  14   29.93    7.02   0
  -2  -6 -14 1198.60   51.12   0
  -2  -6 -14 1275.79   52.63   0
  -2  -6 -14 1223.15   53.57   0
  -2  -6 -14 1256.69   49.53   0
   2   6  14 1216.59   52.45   0
   2   6  14 1210.10   52.26   0
   2   6  14 1202.49   53.13   0
  -3  -6 -14    5.47    4.33   0
  -3  -6 -14  -10.94    5.12   0
  -3  -6 -14   -4.97    5.86   0
  -3  -6 -14    0.21    5.08   0
   3   6  14   -4.97    5.70   0
   3   6  14    3.20    4.69   0
   3   6  14   10.58    5.52   0
  -4  -6 -14  176.32   15.15   0
  -4  -6 -14  115.20   14.20   0
  -4  -6 -14  166.52   12.14   0
  -4  -6 -14  125.26   13.16   0
   4   6  14  141.43   15.22   0
   4   6  14  160.06   12.67   0
   4   6  14  154.33   13.83   0
  -5  -6 -14 1096.63   47.16   0
  -5  -6 -14 1028.95   45.42   0
  -5  -6 -14  975.41   46.18   0
   5   6  14 1015.17   45.56   0
   5   6  14 1077.53   46.86   0
   1  -7 -14   28.69    7.29   0
   1  -7 -14   26.55    6.17   0
  -1   7  14   14.07    6.76   0
  -1   7  14   19.88    6.37   0
  -1   7  14   28.98    6.63   0
   0  -7 -14    4.38    5.83   0
   0  -7 -14    7.92    4.51   0
   0  -7 -14    6.95    6.04   0
   0   7  14    8.55    6.65   0
   0   7  14    3.70    5.65   0
   0   7  14   13.05    5.05   0
  -1  -7 -14  336.70   20.22   0
  -1  -7 -14  311.70   20.05   0
  -1  -7 -14  353.38   18.11   0
   1   7  14  316.62   20.35   0
   1   7  14  331.94   19.64   0
   1   7  14  343.71   19.26   0
  -2  -7 -14   86.39   13.85   0
  -2  -7 -14   84.20    7.59   0
  -2  -7 -14   72.35   11.61   0
  -2  -7 -14   75.24   10.03   0
   2   7  14   79.88   10.08   0
   2   7  14   73.36   12.46   0
   2   7  14   74.37   11.09   0
  -3  -7 -14  522.67   27.73   0
  -3  -7 -14  560.53   26.93   0
  -3  -7 -14  498.74   27.42   0
  -3  -7 -14  540.44   24.49   0
   3   7  14  555.82   27.27   0
   3   7  14  544.74   26.65   0
   3   7  14  502.29   28.28   0
  -4  -7 -14   79.73   12.23   0
  -4  -7 -14  100.55   10.56   0
  -4  -7 -14  118.72   14.01   0
   4   7  14  120.42   13.18   0
   4   7  14   66.92   14.14   0
   4   7  14   93.17   11.73   0
   0  -8 -14  543.81   25.99   0
   0  -8 -14  527.60   27.32   0
   0  -8 -14  562.02   28.53   0
   0   8  14  552.09   27.74   0
   0   8  14  480.78   27.68   0
   0   8  14  531.37   26.89   0
  -1  -8 -14   12.40    3.25   0
  -1  -8 -14   20.76    6.42   0
  -1  -8 -14   15.56    5.78   0
  -1  -8 -14   13.52    7.83   0
   1   8  14    7.09    6.89   0
   1   8  14    7.67    5.33   0
   1   8  14    8.57    6.24   0
  -2  -8 -14   -2.41    5.23   0
  -2  -8 -14   -7.99    7.64   0
  -2  -8 -14    1.50    3.55   0
  -2  -8 -14   10.63    6.29   0
   2   8  14   -2.73    5.94   0
   2   8  14   -5.93    5.99   0
   2   8  14   10.24    5.08   0
  -3  -8 -14  183.12   14.76   0
  -3  -8 -14  150.62   16.72   0
  -3  -8 -14  195.18   12.03   0
   3   8  14  186.22   15.27   0
   3   8  14  150.32   16.82   0
   3   8  14  184.76   14.15   0
  -4  -8 -14   77.09   10.29   0
  -4  -8 -14   54.80    9.45   0
  -4  -8 -14   75.63   12.65   0
   4   8  14   72.45   11.27   0
   4   8  14   76.08   12.66   0
  -1  -9 -14  580.77   26.72   0
  -1  -9 -14  722.59   34.36   0
  -1  -9 -14  613.65   30.87   0
   1   9  14  660.29   32.11   0
  -2  -9 -14   49.62    7.45   0
  -2  -9 -14   36.40    7.65   0
  -2  -9 -14   25.14    9.30   0
   2   9  14   53.02    8.67   0
   2   9  14   35.15    7.08   0
  -3  -9 -14   19.83    5.22   0
  -3  -9 -14    8.17    6.48   0
  -3  -9 -14    6.23    7.98   0
   3   9  14    6.62    6.27   0
   3   9  14   11.50    6.42   0
  -2  -6 -15  473.16   22.97   0
  -2  -6 -15  490.31   24.71   0
   2   6  15  437.31   26.36   0
   2   6  15  521.11   25.89   0
   2   6  15  475.17   25.16   0
;
_shelx_hkl_checksum              40205
loop_
_space_group_symop_operation_xyz
'x, y, z'
'-x, -y, -z'
loop_
_atom_site_label
_atom_site_type_symbol
_atom_site_fract_x
_atom_site_fract_y
_atom_site_fract_z
_atom_site_U_iso_or_equiv
_atom_site_adp_type
_atom_site_occupancy
_atom_site_site_symmetry_order
_atom_site_calc_flag
_atom_site_refinement_flags_posn
_atom_site_refinement_flags_adp
C1 C -0.1691(3) 0.3498(3) 0.9581(2) 0.0286(5) Uani 1 1 d . .
H1 H -0.184572 0.302216 1.050153 0.034 Uiso 1 1 calc R U
C2 C -0.1982(3) 0.2858(3) 0.8755(3) 0.0274(5) Uani 1 1 d . .
H2 H -0.236000 0.187895 0.902344 0.033 Uiso 1 1 calc R U
C3 C -0.1609(3) 0.3943(2) 0.7454(2) 0.0209(4) Uani 1 1 d . .
H3 H -0.170007 0.381742 0.669902 0.025 Uiso 1 1 calc R U
C4 C -0.1077(3) 0.5243(2) 0.7480(2) 0.0196(4) Uani 1 1 d . .
H4 H -0.074163 0.614124 0.674557 0.024 Uiso 1 1 calc R U
C5 C -0.1132(3) 0.4968(3) 0.8799(2) 0.0251(5) Uani 1 1 d . .
H5 H -0.084329 0.565015 0.910145 0.030 Uiso 1 1 calc R U
C6 C 0.2485(3) 0.1808(2) 0.84163(18) 0.0136(3) Uani 1 1 d . .
C7 C 0.2855(3) 0.2365(2) 0.92807(18) 0.0143(4) Uani 1 1 d . .
C8 C 0.3409(3) 0.3855(2) 0.85314(19) 0.0163(4) Uani 1 1 d . .
H8 H 0.373917 0.449903 0.886092 0.020 Uiso 1 1 calc R U
C9 C 0.3380(3) 0.4211(2) 0.72020(19) 0.0167(4) Uani 1 1 d . .
H9 H 0.369055 0.513274 0.649201 0.020 Uiso 1 1 calc R U
C10 C 0.2799(3) 0.2932(2) 0.71215(18) 0.0147(4) Uani 1 1 d . .
F11 F 0.20199(18) 0.04239(13) 0.87419(12) 0.0214(3) Uani 1 1 d . .
C12 C 0.4636(3) 0.2205(2) 0.51300(18) 0.0139(4) Uani 1 1 d . .
C13 C 0.6226(3) 0.1995(2) 0.5706(2) 0.0172(4) Uani 1 1 d . .
H13 H 0.614543 0.215798 0.646532 0.021 Uiso 1 1 calc R U
C14 C 0.7938(3) 0.1543(2) 0.5155(2) 0.0241(4) Uani 1 1 d . .
H14 H 0.902646 0.139210 0.554509 0.029 Uiso 1 1 calc R U
C15 C 0.8062(3) 0.1311(3) 0.4042(2) 0.0268(5) Uani 1 1 d . .
H15 H 0.923680 0.101574 0.366550 0.032 Uiso 1 1 calc R U
C16 C 0.6473(3) 0.1511(2) 0.3478(2) 0.0236(4) Uani 1 1 d . .
H16 H 0.655562 0.133593 0.272367 0.028 Uiso 1 1 calc R U
C17 C 0.4760(3) 0.1966(2) 0.4012(2) 0.0192(4) Uani 1 1 d . .
H17 H 0.367529 0.211358 0.361887 0.023 Uiso 1 1 calc R U
Fe1 Fe 0.07581(4) 0.35517(3) 0.82909(2) 0.01088(7) Uani 1 1 d . .
I1 I 0.28848(2) 0.11259(2) 1.12500(2) 0.02273(5) Uani 1 1 d . .
S1 S 0.23955(7) 0.28011(6) 0.57327(5) 0.01989(11) Uani 1 1 d . .
loop_
_atom_site_aniso_label
_atom_site_aniso_U_11
_atom_site_aniso_U_22
_atom_site_aniso_U_33
_atom_site_aniso_U_23
_atom_site_aniso_U_13
_atom_site_aniso_U_12
C1 0.0172(10) 0.0388(13) 0.0199(10) -0.0070(10) 0.0011(8) 0.0096(9)
C2 0.0117(9) 0.0213(11) 0.0422(14) -0.0073(10) -0.0032(9) -0.0001(8)
C3 0.0129(9) 0.0269(11) 0.0289(11) -0.0156(9) -0.0108(8) 0.0055(8)
C4 0.0172(9) 0.0166(10) 0.0230(10) -0.0050(8) -0.0100(8) 0.0070(7)
C5 0.0239(11) 0.0300(12) 0.0305(12) -0.0213(10) -0.0126(9) 0.0155(9)
C6 0.0141(8) 0.0116(9) 0.0150(9) -0.0055(7) -0.0040(7) 0.0023(7)
C7 0.0145(9) 0.0161(9) 0.0118(8) -0.0052(7) -0.0045(7) 0.0035(7)
C8 0.0140(9) 0.0197(10) 0.0190(9) -0.0104(8) -0.0054(7) -0.0006(7)
C9 0.0151(9) 0.0173(9) 0.0146(9) -0.0039(7) -0.0014(7) -0.0025(7)
C10 0.0133(9) 0.0194(9) 0.0117(8) -0.0070(7) -0.0026(7) 0.0012(7)
F11 0.0275(6) 0.0114(6) 0.0251(6) -0.0072(5) -0.0059(5) 0.0010(5)
C12 0.0160(9) 0.0122(9) 0.0115(8) -0.0035(7) -0.0020(7) 0.0003(7)
C13 0.0175(9) 0.0161(9) 0.0174(9) -0.0055(8) -0.0043(7) -0.0022(7)
C14 0.0160(10) 0.0225(11) 0.0313(12) -0.0090(9) -0.0039(8) -0.0002(8)
C15 0.0210(10) 0.0228(11) 0.0299(12) -0.0102(9) 0.0078(9) 0.0001(8)
C16 0.0313(12) 0.0209(11) 0.0165(10) -0.0094(8) 0.0042(8) -0.0013(9)
C17 0.0237(10) 0.0175(10) 0.0153(9) -0.0058(8) -0.0039(8) -0.0004(8)
Fe1 0.01142(13) 0.01026(13) 0.01068(13) -0.00386(10) -0.00334(10) 0.00152(9)
I1 0.02878(9) 0.02567(9) 0.01213(7) -0.00615(6) -0.00825(5) 0.00788(6)
S1 0.0163(2) 0.0328(3) 0.0151(2) -0.0139(2) -0.00679(18) 0.0060(2)
loop_
_atom_type_symbol
_atom_type_description
_atom_type_scat_dispersion_real
_atom_type_scat_dispersion_imag
_atom_type_scat_source
C C 0.0033 0.0016 'International Tables Vol C Tables 4.2.6.8 and 6.1.1.4'
H H 0.0000 0.0000 'International Tables Vol C Tables 4.2.6.8 and 6.1.1.4'
Fe Fe 0.3463 0.8444 'International Tables Vol C Tables 4.2.6.8 and 6.1.1.4'
F F 0.0171 0.0103 'International Tables Vol C Tables 4.2.6.8 and 6.1.1.4'
I I -0.4742 1.8119 'International Tables Vol C Tables 4.2.6.8 and 6.1.1.4'
S S 0.1246 0.1234 'International Tables Vol C Tables 4.2.6.8 and 6.1.1.4'
loop_
_geom_angle_atom_site_label_1
_geom_angle_atom_site_label_2
_geom_angle_atom_site_label_3
_geom_angle
C5 C1 C2 108.3(2)
C5 C1 Fe1 70.00(13)
C2 C1 Fe1 69.65(12)
C5 C1 H1 125.9
C2 C1 H1 125.9
Fe1 C1 H1 126.1
C1 C2 C3 107.8(2)
C1 C2 Fe1 69.96(13)
C3 C2 Fe1 69.83(12)
C1 C2 H2 126.1
C3 C2 H2 126.1
Fe1 C2 H2 125.7
C4 C3 C2 108.07(19)
C4 C3 Fe1 69.89(11)
C2 C3 Fe1 69.60(12)
C4 C3 H3 126.0
C2 C3 H3 126.0
Fe1 C3 H3 126.1
C3 C4 C5 107.9(2)
C3 C4 Fe1 69.76(11)
C5 C4 Fe1 69.89(11)
C3 C4 H4 126.0
C5 C4 H4 126.0
Fe1 C4 H4 125.9
C1 C5 C4 107.9(2)
C1 C5 Fe1 69.72(12)
C4 C5 Fe1 69.65(11)
C1 C5 H5 126.0
C4 C5 H5 126.0
Fe1 C5 H5 126.2
F11 C6 C7 125.66(17)
F11 C6 C10 124.92(17)
C7 C6 C10 109.32(17)
F11 C6 Fe1 128.72(13)
C7 C6 Fe1 70.79(11)
C10 C6 Fe1 69.63(11)
C6 C7 C8 107.69(16)
C6 C7 Fe1 68.47(10)
C8 C7 Fe1 69.92(11)
C6 C7 I1 125.03(14)
C8 C7 I1 126.91(14)
Fe1 C7 I1 132.40(10)
C9 C8 C7 108.16(17)
C9 C8 Fe1 69.05(11)
C7 C8 Fe1 69.40(11)
C9 C8 H8 125.9
C7 C8 H8 125.9
Fe1 C8 H8 127.2
C8 C9 C10 108.19(17)
C8 C9 Fe1 70.19(11)
C10 C9 Fe1 68.75(11)
C8 C9 H9 125.9
C10 C9 H9 125.9
Fe1 C9 H9 126.7
C6 C10 C9 106.64(16)
C6 C10 S1 126.21(15)
C9 C10 S1 127.02(15)
C6 C10 Fe1 68.99(10)
C9 C10 Fe1 69.77(11)
S1 C10 Fe1 122.96(10)
C13 C12 C17 120.21(18)
C13 C12 S1 123.22(15)
C17 C12 S1 116.56(15)
C12 C13 C14 119.32(19)
C12 C13 H13 120.3
C14 C13 H13 120.3
C15 C14 C13 120.4(2)
C15 C14 H14 119.8
C13 C14 H14 119.8
C16 C15 C14 120.0(2)
C16 C15 H15 120.0
C14 C15 H15 120.0
C15 C16 C17 120.2(2)
C15 C16 H16 119.9
C17 C16 H16 119.9
C16 C17 C12 119.80(19)
C16 C17 H17 120.1
C12 C17 H17 120.1
C6 Fe1 C10 41.38(8)
C6 Fe1 C9 69.09(8)
C10 Fe1 C9 41.48(8)
C6 Fe1 C7 40.74(7)
C10 Fe1 C7 69.42(7)
C9 Fe1 C7 68.81(8)
C6 Fe1 C2 107.67(9)
C10 Fe1 C2 122.06(9)
C9 Fe1 C2 158.58(9)
C7 Fe1 C2 123.40(9)
C6 Fe1 C3 121.24(8)
C10 Fe1 C3 104.87(8)
C9 Fe1 C3 121.70(9)
C7 Fe1 C3 158.06(9)
C2 Fe1 C3 40.57(9)
C6 Fe1 C1 124.94(9)
C10 Fe1 C1 159.85(10)
C9 Fe1 C1 158.37(10)
C7 Fe1 C1 109.86(8)
C2 Fe1 C1 40.39(10)
C3 Fe1 C1 67.90(9)
C6 Fe1 C4 156.32(8)
C10 Fe1 C4 119.58(8)
C9 Fe1 C4 105.93(8)
C7 Fe1 C4 160.92(8)
C2 Fe1 C4 68.08(9)
C3 Fe1 C4 40.34(9)
C1 Fe1 C4 67.90(9)
C6 Fe1 C8 68.57(8)
C10 Fe1 C8 69.33(8)
C9 Fe1 C8 40.76(8)
C7 Fe1 C8 40.68(8)
C2 Fe1 C8 159.50(9)
C3 Fe1 C8 158.88(9)
C1 Fe1 C8 124.09(9)
C4 Fe1 C8 123.60(9)
C6 Fe1 C5 161.62(9)
C10 Fe1 C5 156.36(9)
C9 Fe1 C5 121.70(9)
C7 Fe1 C5 125.53(8)
C2 Fe1 C5 67.96(10)
C3 Fe1 C5 67.89(9)
C1 Fe1 C5 40.28(10)
C4 Fe1 C5 40.46(9)
C8 Fe1 C5 108.88(9)
C10 S1 C12 102.81(9)
loop_
_geom_bond_atom_site_label_1
_geom_bond_atom_site_label_2
_geom_bond_distance
C1 C5 1.414(4)
C1 C2 1.416(4)
C1 Fe1 2.052(2)
C1 H1 0.9500
C2 C3 1.421(3)
C2 Fe1 2.048(2)
C2 H2 0.9500
C3 C4 1.415(3)
C3 Fe1 2.0511(19)
C3 H3 0.9500
C4 C5 1.421(3)
C4 Fe1 2.0528(19)
C4 H4 0.9500
C5 Fe1 2.056(2)
C5 H5 0.9500
C6 F11 1.339(2)
C6 C7 1.415(3)
C6 C10 1.428(3)
C6 Fe1 2.0167(18)
C7 C8 1.426(3)
C7 Fe1 2.0472(18)
C7 I1 2.0809(19)
C8 C9 1.425(3)
C8 Fe1 2.0542(19)
C8 H8 0.9500
C9 C10 1.439(3)
C9 Fe1 2.039(2)
C9 H9 0.9500
C10 S1 1.7491(19)
C10 Fe1 2.0253(19)
C12 C13 1.393(3)
C12 C17 1.396(3)
C12 S1 1.775(2)
C13 C14 1.395(3)
C13 H13 0.9500
C14 C15 1.387(3)
C14 H14 0.9500
C15 C16 1.386(3)
C15 H15 0.9500
C16 C17 1.389(3)
C16 H16 0.9500
C17 H17 0.9500
loop_
_geom_torsion_atom_site_label_1
_geom_torsion_atom_site_label_2
_geom_torsion_atom_site_label_3
_geom_torsion_atom_site_label_4
_geom_torsion
C5 C1 C2 C3 -0.3(2)
Fe1 C1 C2 C3 -59.84(14)
C5 C1 C2 Fe1 59.55(15)
C1 C2 C3 C4 0.4(2)
Fe1 C2 C3 C4 -59.52(14)
C1 C2 C3 Fe1 59.92(14)
C2 C3 C4 C5 -0.4(2)
Fe1 C3 C4 C5 -59.70(14)
C2 C3 C4 Fe1 59.34(14)
C2 C1 C5 C4 0.1(2)
Fe1 C1 C5 C4 59.40(15)
C2 C1 C5 Fe1 -59.33(15)
C3 C4 C5 C1 0.2(2)
Fe1 C4 C5 C1 -59.44(15)
C3 C4 C5 Fe1 59.62(14)
F11 C6 C7 C8 176.45(17)
C10 C6 C7 C8 0.0(2)
Fe1 C6 C7 C8 -59.12(13)
F11 C6 C7 Fe1 -124.42(19)
C10 C6 C7 Fe1 59.15(13)
F11 C6 C7 I1 3.1(3)
C10 C6 C7 I1 -173.35(13)
Fe1 C6 C7 I1 127.50(14)
C6 C7 C8 C9 -0.1(2)
Fe1 C7 C8 C9 -58.31(13)
I1 C7 C8 C9 173.13(13)
C6 C7 C8 Fe1 58.22(13)
I1 C7 C8 Fe1 -128.56(15)
C7 C8 C9 C10 0.1(2)
Fe1 C8 C9 C10 -58.41(13)
C7 C8 C9 Fe1 58.53(13)
F11 C6 C10 C9 -176.41(17)
C7 C6 C10 C9 0.0(2)
Fe1 C6 C10 C9 59.90(13)
F11 C6 C10 S1 7.5(3)
C7 C6 C10 S1 -176.03(14)
Fe1 C6 C10 S1 -116.17(15)
F11 C6 C10 Fe1 123.68(18)
C7 C6 C10 Fe1 -59.86(13)
C8 C9 C10 C6 -0.1(2)
Fe1 C9 C10 C6 -59.40(13)
C8 C9 C10 S1 175.93(14)
Fe1 C9 C10 S1 116.63(16)
C8 C9 C10 Fe1 59.30(13)
C17 C12 C13 C14 -0.1(3)
S1 C12 C13 C14 -179.14(16)
C12 C13 C14 C15 0.3(3)
C13 C14 C15 C16 -0.8(3)
C14 C15 C16 C17 1.0(3)
C15 C16 C17 C12 -0.8(3)
C13 C12 C17 C16 0.3(3)
S1 C12 C17 C16 179.41(16)
C6 C10 S1 C12 -92.55(18)
C9 C10 S1 C12 92.17(18)
Fe1 C10 S1 C12 -179.39(12)
C13 C12 S1 C10 -2.18(19)
C17 C12 S1 C10 178.72(16)
