#------------------------------------------------------------------------------
#$Date: 2021-04-05 18:14:30 +0300 (Mon, 05 Apr 2021) $
#$Revision: 263820 $
#$URL: file:///home/coder/svn-repositories/cod/cif/7/15/78/7157890.cif $
#------------------------------------------------------------------------------
#
# This file is available in the Crystallography Open Database (COD),
# http://www.crystallography.net/
#
# All data on this site have been placed in the public domain by the
# contributors.
#
data_7157890
loop_
_publ_author_name
'Zhou, Wei'
'Tian, You-Ping'
'Zhou, Hao-Jie'
'Wang, Hui-Juan'
'Ren, Yan'
'Liu, Xiong-Li'
_publ_section_title
;
 Synthesis of methanesulfone-containing tetrasubstituted carbon
 stereocenters.
;
_journal_issue                   10
_journal_name_full               'Organic &amp; biomolecular chemistry'
_journal_page_first              2269
_journal_page_last               2276
_journal_paper_doi               10.1039/d1ob00071c
_journal_volume                  19
_journal_year                    2021
_chemical_formula_moiety         'C19 H12 O6 S'
_chemical_formula_sum            'C19 H12 O6 S'
_chemical_formula_weight         368.35
_space_group_crystal_system      triclinic
_space_group_IT_number           2
_space_group_name_Hall           '-P 1'
_space_group_name_H-M_alt        'P -1'
_atom_sites_solution_hydrogens   geom
_atom_sites_solution_primary     dual
_audit_creation_date             2019-10-29
_audit_creation_method
;
Olex2 1.3
(compiled 2019.09.11 svn.r3662 for OlexSys, GUI svn.r5938)
;
_audit_update_record
;
2020-10-27 deposited with the CCDC.	2021-02-16 downloaded from the CCDC.
;
_cell_angle_alpha                85.841(5)
_cell_angle_beta                 88.200(5)
_cell_angle_gamma                81.018(5)
_cell_formula_units_Z            2
_cell_length_a                   7.6249(5)
_cell_length_b                   9.1227(5)
_cell_length_c                   12.8047(9)
_cell_measurement_reflns_used    3165
_cell_measurement_temperature    100.00(10)
_cell_measurement_theta_max      29.2300
_cell_measurement_theta_min      2.8470
_cell_volume                     877.27(10)
_computing_cell_refinement       'CrysAlisPro 1.171.38.43f (Rigaku OD, 2015)'
_computing_data_collection       'CrysAlisPro 1.171.38.43f (Rigaku OD, 2015)'
_computing_data_reduction        'CrysAlisPro 1.171.38.43f (Rigaku OD, 2015)'
_computing_molecular_graphics    'Olex2 1.3 (Dolomanov et al., 2009)'
_computing_publication_material  'Olex2 1.3 (Dolomanov et al., 2009)'
_computing_structure_refinement  'ShelXL 2018/3 (Sheldrick, 2015)'
_computing_structure_solution    'SHELXT 2018/2 (Sheldrick, 2018)'
_diffrn_ambient_environment      N~2~
_diffrn_ambient_temperature      100.00(10)
_diffrn_detector                 'CCD plate'
_diffrn_detector_area_resol_mean 5.2684
_diffrn_detector_type            AtlasS2
_diffrn_measured_fraction_theta_full 1.000
_diffrn_measured_fraction_theta_max 1.000
_diffrn_measurement_details
;
List of Runs (angles in degrees, time in seconds):

  # Type    Start    End  Width  t~exp~   \w     \q     \k     \f   Frames
#--------------------------------------------------------------------------
  1  \w    -36.00  61.00   1.00    1.09    --  -11.59  57.00 -90.00   97
  2  \w    -77.00  14.00   1.00    1.09    --  -11.59 -57.00 120.00   91
  3  \w    -16.00  76.00   1.00    1.09    --   11.74  77.00  30.00   92
;
_diffrn_measurement_device       'four-circle diffractometer'
_diffrn_measurement_device_type  'SuperNova, Dual, Cu at zero, AtlasS2'
_diffrn_measurement_method       '\w scans'
_diffrn_orient_matrix_type
'CrysAlisPro convention (1999,Acta A55,543-557)'
_diffrn_orient_matrix_UB_11      -0.0207218000
_diffrn_orient_matrix_UB_12      0.0781770000
_diffrn_orient_matrix_UB_13      0.0028292000
_diffrn_orient_matrix_UB_21      0.0291279000
_diffrn_orient_matrix_UB_22      0.0104995000
_diffrn_orient_matrix_UB_23      -0.0527821000
_diffrn_orient_matrix_UB_31      -0.0871527000
_diffrn_orient_matrix_UB_32      -0.0019165000
_diffrn_orient_matrix_UB_33      -0.0170894000
_diffrn_radiation_monochromator  mirror
_diffrn_radiation_probe          x-ray
_diffrn_radiation_type           'Mo K\a'
_diffrn_radiation_wavelength     0.71073
_diffrn_reflns_av_R_equivalents  0.0247
_diffrn_reflns_av_unetI/netI     0.0446
_diffrn_reflns_Laue_measured_fraction_full 1.000
_diffrn_reflns_Laue_measured_fraction_max 1.000
_diffrn_reflns_limit_h_max       9
_diffrn_reflns_limit_h_min       -9
_diffrn_reflns_limit_k_max       10
_diffrn_reflns_limit_k_min       -10
_diffrn_reflns_limit_l_max       15
_diffrn_reflns_limit_l_min       -12
_diffrn_reflns_number            5655
_diffrn_reflns_point_group_measured_fraction_full 1.000
_diffrn_reflns_point_group_measured_fraction_max 1.000
_diffrn_reflns_theta_full        24.997
_diffrn_reflns_theta_max         24.997
_diffrn_reflns_theta_min         2.266
_diffrn_source                   'micro-focus sealed X-ray tube'
_diffrn_source_type              'SuperNova (Mo) X-ray Source'
_exptl_absorpt_coefficient_mu    0.217
_exptl_absorpt_correction_T_max  1.00000
_exptl_absorpt_correction_T_min  0.88490
_exptl_absorpt_correction_type   multi-scan
_exptl_absorpt_process_details
;
CrysAlisPro 1.171.38.43f (Rigaku Oxford Diffraction, 2015)
Empirical absorption correction using spherical harmonics,
 implemented in SCALE3 ABSPACK scaling algorithm.
;
_exptl_crystal_colour            colourless
_exptl_crystal_colour_primary    colourless
_exptl_crystal_density_diffrn    1.394
_exptl_crystal_description       block
_exptl_crystal_F_000             380
_exptl_crystal_size_max          0.14
_exptl_crystal_size_mid          0.13
_exptl_crystal_size_min          0.12
_refine_diff_density_max         0.410
_refine_diff_density_min         -0.488
_refine_diff_density_rms         0.077
_refine_ls_extinction_method     none
_refine_ls_goodness_of_fit_ref   1.097
_refine_ls_hydrogen_treatment    constr
_refine_ls_matrix_type           full
_refine_ls_number_parameters     236
_refine_ls_number_reflns         3074
_refine_ls_number_restraints     0
_refine_ls_restrained_S_all      1.097
_refine_ls_R_factor_all          0.0532
_refine_ls_R_factor_gt           0.0470
_refine_ls_shift/su_max          0.000
_refine_ls_shift/su_mean         0.000
_refine_ls_structure_factor_coef Fsqd
_refine_ls_weighting_details
'w=1/[\s^2^(Fo^2^)+(0.0472P)^2^+1.0725P] where P=(Fo^2^+2Fc^2^)/3'
_refine_ls_weighting_scheme      calc
_refine_ls_wR_factor_gt          0.1165
_refine_ls_wR_factor_ref         0.1205
_reflns_Friedel_coverage         0.000
_reflns_number_gt                2679
_reflns_number_total             3074
_reflns_threshold_expression     'I > 2\s(I)'
_cod_data_source_file            d1ob00071c2.cif
_cod_data_source_block           xsw-yst
_cod_depositor_comments          'Adding full bibliography for 7157890.cif.'
_cod_database_code               7157890
_shelx_shelxl_version_number     2018/3
_shelx_space_group_comment
;
The symmetry employed for this shelxl refinement is uniquely defined
by the following loop, which should always be used as a source of
symmetry information in preference to the above space-group names.
They are only intended as comments.
;
_reflns_odcompleteness_completeness 99.97
_reflns_odcompleteness_iscentric 1
_reflns_odcompleteness_theta     26.32
_olex2_refinement_description
;
1. Fixed Uiso
 At 1.2 times of:
  All C(H) groups
 At 1.5 times of:
  All C(H,H,H) groups
2.a Aromatic/amide H refined with riding coordinates:
 C2(H2), C5(H5), C15(H15), C3(H3), C4(H4), C16(H16), C13(H13), C18(H18),
 C17(H17)
2.b Idealised Me refined as rotating group:
 C19(H19A,H19B,H19C)
;
_shelx_res_file
;
TITL xsw-yst_a.res in P-1
    xsw-yst.res
    created by SHELXL-2018/3 at 22:36:38 on 29-Oct-2019
REM Old TITL xsw-yst in P-1
REM SHELXT solution in P-1: R1 0.115, Rweak 0.007, Alpha 0.031
REM <I/s> 0.000 for 0 systematic absences, Orientation as input
REM Formula found by SHELXT: C20 O6 Cl2
CELL 0.71073 7.6249 9.1227 12.8047 85.841 88.2 81.018
ZERR 2 0.0005 0.0005 0.0009 0.005 0.005 0.005
LATT 1
SFAC C H O S
UNIT 38 24 12 2

L.S. 20
PLAN  5
CONF
BOND
HTAB
list 4
ABIN
MORE -1
BOND $H
fmap 2
acta
OMIT -3 50
REM <olex2.extras>
REM <HklSrc "%.\\xsw-yst.hkl">
REM </olex2.extras>

WGHT    0.047200    1.072500
FVAR       0.87319
S1    4    0.440498   -0.020010    0.824961    11.00000    0.01484    0.01275 =
         0.01343    0.00082    0.00115   -0.00119
O2    3    0.531343    0.320029    0.870996    11.00000    0.01751    0.02221 =
         0.01632   -0.00111    0.00017   -0.00689
O5    3    0.381617   -0.064380    0.928415    11.00000    0.02045    0.01907 =
         0.01734    0.00432    0.00307   -0.00252
O6    3    0.407795   -0.107318    0.740480    11.00000    0.02560    0.01480 =
         0.02116   -0.00370   -0.00002   -0.00234
O1    3    0.023798    0.123606    0.780321    11.00000    0.01705    0.02761 =
         0.01736   -0.00583   -0.00077   -0.00613
O4    3    0.449926    0.216817    0.506878    11.00000    0.03584    0.01877 =
         0.01088    0.00088    0.00576    0.00667
O3    3    0.179086    0.453361    0.734034    11.00000    0.03471    0.02076 =
         0.01604   -0.00166    0.00704    0.00767
C1    1    0.105059    0.233019    0.934822    11.00000    0.01712    0.01352 =
         0.01106    0.00096   -0.00144    0.00033
C11   1    0.258647    0.382975    0.663338    11.00000    0.01478    0.01704 =
         0.01416   -0.00281    0.00030   -0.00305
C6    1    0.252258    0.296100    0.959516    11.00000    0.01812    0.01115 =
         0.01083    0.00337    0.00076   -0.00154
C12   1    0.266721    0.441877    0.554629    11.00000    0.01642    0.01682 =
         0.01541    0.00063   -0.00092   -0.00250
C7    1    0.392321    0.272151    0.877704    11.00000    0.01744    0.01322 =
         0.01015    0.00158   -0.00150   -0.00114
C14   1    0.361484    0.357343    0.480634    11.00000    0.01510    0.01360 =
         0.01600    0.00094   -0.00216   -0.00303
C10   1    0.349087    0.231234    0.684346    11.00000    0.01259    0.01549 =
         0.01206    0.00009   -0.00070   -0.00454
C2    1   -0.044728    0.241606    1.000212    11.00000    0.01671    0.02164 =
         0.01543    0.00025    0.00063   -0.00114
AFIX  43
H2    2   -0.142847    0.199221    0.983873    11.00000   -1.20000
AFIX   0
C8    1    0.329884    0.170799    0.796424    11.00000    0.01318    0.01258 =
         0.01256   -0.00050    0.00013   -0.00173
C9    1    0.132010    0.168455    0.832058    11.00000    0.01433    0.01204 =
         0.01459    0.00129    0.00096   -0.00040
C5    1    0.253554    0.373035    1.049188    11.00000    0.02221    0.01575 =
         0.01400    0.00019   -0.00109   -0.00288
AFIX  43
H5    2    0.351037    0.416685    1.064890    11.00000   -1.20000
AFIX   0
C15   1    0.372876    0.409160    0.375618    11.00000    0.02024    0.02340 =
         0.01279   -0.00398    0.00373   -0.00341
AFIX  43
H15   2    0.438022    0.350670    0.327007    11.00000   -1.20000
AFIX   0
C3    1   -0.042051    0.316057    1.090995    11.00000    0.02030    0.02168 =
         0.01548    0.00043    0.00578    0.00306
AFIX  43
H3    2   -0.139386    0.321817    1.136963    11.00000   -1.20000
AFIX   0
C4    1    0.103680    0.382349    1.114593    11.00000    0.02841    0.01739 =
         0.01162   -0.00418    0.00004    0.00252
AFIX  43
H4    2    0.100490    0.433550    1.175008    11.00000   -1.20000
AFIX   0
C16   1    0.285779    0.548185    0.345989    11.00000    0.02185    0.02336 =
         0.01358    0.00402   -0.00270   -0.01061
AFIX  43
H16   2    0.291588    0.584672    0.276444    11.00000   -1.20000
AFIX   0
C13   1    0.436665    0.159299    0.606468    11.00000    0.02556    0.01777 =
         0.01246    0.00258    0.00143    0.00250
AFIX  43
H13   2    0.492623    0.062425    0.622047    11.00000   -1.20000
AFIX   0
C19   1    0.668364   -0.006597    0.825339    11.00000    0.01490    0.02449 =
         0.01882    0.00246    0.00159   -0.00051
AFIX 137
H19A  2    0.695587    0.033180    0.889243    11.00000   -1.50000
H19B  2    0.696940    0.057925    0.766800    11.00000   -1.50000
H19C  2    0.736792   -0.103584    0.820179    11.00000   -1.50000
AFIX   0
C18   1    0.179656    0.583684    0.522094    11.00000    0.04283    0.02416 =
         0.01988    0.00091    0.00683    0.01050
AFIX  43
H18   2    0.115452    0.643138    0.570505    11.00000   -1.20000
AFIX   0
C17   1    0.188690    0.635249    0.419106    11.00000    0.03875    0.02006 =
         0.02414    0.00561    0.00215    0.00656
AFIX  43
H17   2    0.129449    0.729179    0.397940    11.00000   -1.20000
AFIX   0
HKLF 4




REM  xsw-yst_a.res in P-1
REM wR2 = 0.1205, GooF = S = 1.097, Restrained GooF = 1.097 for all data
REM R1 = 0.0470 for 2679 Fo > 4sig(Fo) and 0.0532 for all 3074 data
REM 236 parameters refined using 0 restraints

END

WGHT      0.0470      1.0886

REM Instructions for potential hydrogen bonds
EQIV $1 -x+1, -y, -z+1
HTAB C15 O6_$1
HTAB C13 S1
HTAB C13 O6
EQIV $2 -x+1, -y, -z+2
HTAB C19 O5_$2

REM Highest difference peak  0.410,  deepest hole -0.488,  1-sigma level  0.077
Q1    1  -0.0967  0.9028  0.5631  11.00000  0.05    0.41
Q2    1   0.0026  1.0088  0.4294  11.00000  0.05    0.31
Q3    1  -0.0644  0.8980  0.4583  11.00000  0.05    0.30
Q4    1   0.3728  0.0874  0.8055  11.00000  0.05    0.29
Q5    1  -0.0120  0.8327  0.4978  11.00000  0.05    0.28
;
_shelx_res_checksum              71483
_shelx_fab_file
;
-10 -4 1 4.3233 0.0122
-10 -4 2 -3.4785 0.0027
-10 -3 1 5.3849 0.0221
-10 -3 2 -5.5114 -0.0038
-10 -3 3 4.0830 0.0014
-10 -2 1 3.8606 0.0235
-10 -2 2 -5.5830 -0.0061
-10 -2 3 5.3952 -0.0011
-10 -2 4 -3.6446 -0.0104
-10 -1 4 -3.9734 -0.0059
-9 -6 1 4.4126 -0.0316
-9 -6 2 -3.1515 0.0154
-9 -5 1 6.0078 -0.0232
-9 -5 2 -5.3136 0.0192
-9 -5 3 3.7712 -0.0006
-9 -5 4 -1.8215 -0.0078
-9 -4 1 6.8083 -0.0109
-9 -4 2 -7.0117 0.0166
-9 -4 3 6.1317 -0.0022
-9 -4 4 -4.2831 -0.0141
-9 -4 5 2.0612 0.0128
-9 -3 1 5.8038 -0.0005
-9 -3 2 -7.6203 0.0109
-9 -3 3 7.7951 -0.0065
-9 -3 4 -6.6069 -0.0112
-9 -3 5 4.5417 0.0183
-9 -3 6 -2.3129 -0.0039
-9 -2 1 2.4653 0.0057
-9 -2 2 -6.0259 0.0032
-9 -2 3 7.9313 -0.0062
-9 -2 4 -7.9873 -0.0056
-9 -2 5 6.7127 0.0159
-9 -2 6 -4.7218 -0.0068
-9 -2 7 2.6226 -0.0168
-9 -1 1 -1.6734 0.0052
-9 -1 2 -2.1163 0.0029
-9 -1 3 5.4710 -0.0071
-9 -1 4 -7.3444 -0.0027
-9 -1 5 7.6251 0.0135
-9 -1 6 -6.6524 -0.0077
-9 -1 7 4.7693 -0.0142
-9 0 1 -4.5590 0.0062
-9 0 2 2.0075 0.0047
-9 0 3 1.2392 -0.0153
-9 0 4 -4.1939 0.0060
-9 0 5 6.1160 0.0113
-9 0 6 -6.7512 -0.0112
-9 0 7 5.9940 -0.0089
-9 0 8 -3.9747 0.0294
-9 1 1 -5.5356 0.0060
-9 1 2 4.2668 -0.0035
-9 1 3 -2.1374 -0.0146
-9 1 4 -0.4703 0.0176
-9 1 5 2.8679 0.0029
-9 1 6 -4.4901 -0.0161
-9 1 7 4.9790 0.0020
-9 1 8 -4.1129 0.0215
-8 -7 1 6.3747 0.0065
-8 -7 2 -4.5754 -0.0089
-8 -7 3 2.5333 -0.0019
-8 -6 1 8.1324 -0.0026
-8 -6 2 -7.3924 -0.0057
-8 -6 3 5.3098 0.0060
-8 -6 4 -2.8495 -0.0007
-8 -6 5 0.8067 0.0019
-8 -5 1 7.8429 -0.0063
-8 -5 2 -8.8189 0.0008
-8 -5 3 8.0719 0.0047
-8 -5 4 -5.8110 -0.0034
-8 -5 5 3.1506 0.0028
-8 -5 6 -0.9607 -0.0065
-8 -4 1 5.1583 -0.0066
-8 -4 2 -7.7116 0.0063
-8 -4 3 9.0204 0.0001
-8 -4 4 -8.3490 -0.0040
-8 -4 5 6.0941 0.0034
-8 -4 6 -3.4736 -0.0027
-8 -4 7 1.2137 0.0005
-8 -3 1 0.7721 0.0002
-8 -3 2 -4.3642 0.0054
-8 -3 3 7.3360 -0.0046
-8 -3 4 -8.7825 -0.0019
-8 -3 5 8.1333 0.0059
-8 -3 6 -6.0869 -0.0036
-8 -3 7 3.7544 -0.0028
-8 -3 8 -1.5502 0.0093
-8 -2 1 -3.6626 0.0060
-8 -2 2 -0.2054 -0.0020
-8 -2 3 4.0088 -0.0033
-8 -2 4 -7.0637 0.0012
-8 -2 5 8.3936 0.0054
-8 -2 6 -7.7578 -0.0065
-8 -2 7 6.0127 -0.0023
-8 -2 8 -3.9720 0.0114
-8 -2 9 1.8312 -0.0090
-8 -1 1 -6.9530 0.0022
-8 -1 2 3.7918 -0.0028
-8 -1 3 0.0206 -0.0012
-8 -1 4 -3.9097 0.0025
-8 -1 5 6.9791 0.0019
-8 -1 6 -8.2555 -0.0056
-8 -1 7 7.6368 -0.0008
-8 -1 8 -5.8978 0.0137
-8 -1 9 3.7367 -0.0149
-8 0 1 -8.5563 -0.0030
-8 0 2 6.9581 0.0019
-8 0 3 -4.0525 -0.0039
-8 0 4 0.2949 0.0034
-8 0 5 3.7030 0.0004
-8 0 6 -6.8798 -0.0029
-8 0 7 8.1569 -0.0019
-8 0 8 -7.3155 0.0144
-8 0 9 5.1056 -0.0225
-8 1 1 -8.0978 -0.0059
-8 1 2 8.3160 0.0013
-8 1 3 -6.9906 -0.0036
-8 1 4 4.3033 0.0038
-8 1 5 -0.6699 0.0031
-8 1 6 -3.1928 -0.0084
-8 1 7 6.1590 0.0024
-8 1 8 -7.1157 0.0130
-8 1 9 5.8193 -0.0261
-8 2 1 -5.6018 -0.0119
-8 2 2 7.3148 -0.0011
-8 2 3 -7.7415 0.0057
-8 2 4 6.5747 -0.0005
-8 2 5 -4.0606 0.0017
-8 2 6 0.8729 -0.0133
-8 2 7 2.2121 0.0183
-8 2 8 -4.3340 -0.0039
-8 2 9 4.6826 -0.0190
-8 3 1 -1.9527 -0.0133
-8 3 2 4.3455 0.0035
-8 3 3 -6.1676 0.0118
-8 3 4 6.6626 -0.0120
-8 3 5 -5.4881 -0.0000
-8 3 6 3.2562 0.0005
-8 3 7 -0.9508 0.0160
-8 3 8 -0.8828 -0.0254
-8 3 9 1.9619 0.0099
-8 4 1 1.0863 0.0036
-8 4 2 0.8456 0.0034
-8 4 3 -2.9629 0.0029
-8 4 4 4.6414 -0.0141
-8 4 5 -4.9883 0.0082
-7 -8 1 6.4531 0.0017
-7 -8 2 -5.1473 0.0065
-7 -8 3 3.3106 -0.0110
-7 -8 4 -1.1808 0.0058
-7 -7 1 7.5795 0.0040
-7 -7 2 -7.6048 -0.0032
-7 -7 3 6.2918 -0.0025
-7 -7 4 -3.8467 0.0052
-7 -7 5 1.0700 -0.0033
-7 -7 6 0.9137 0.0000
-7 -6 1 6.3734 0.0031
-7 -6 2 -8.0507 -0.0065
-7 -6 3 8.1807 0.0024
-7 -6 4 -6.6548 0.0018
-7 -6 5 3.9586 -0.0018
-7 -6 6 -1.1268 0.0007
-7 -6 7 -0.8408 0.0008
-7 -5 1 3.6318 0.0019
-7 -5 2 -6.7315 -0.0073
-7 -5 3 8.4643 0.0034
-7 -5 4 -8.3914 0.0047
-7 -5 5 6.7614 -0.0057
-7 -5 6 -4.2291 0.0008
-7 -5 7 1.5276 0.0020
-7 -5 8 0.5657 -0.0020
-7 -4 1 -1.0593 0.0028
-7 -4 2 -3.1755 -0.0062
-7 -4 3 6.6968 0.0041
-7 -4 4 -8.4626 0.0055
-7 -4 5 8.3422 -0.0108
-7 -4 6 -6.9420 0.0051
-7 -4 7 4.6690 0.0026
-7 -4 8 -1.8457 -0.0028
-7 -4 9 -0.5581 -0.0027
-7 -3 1 -6.0306 0.0099
-7 -3 2 2.1483 -0.0084
-7 -3 3 2.3259 0.0046
-7 -3 4 -5.9988 0.0033
-7 -3 5 7.7711 -0.0095
-7 -3 6 -7.8890 0.0069
-7 -3 7 6.9663 0.0017
-7 -3 8 -4.9233 -0.0056
-7 -3 9 1.9562 0.0000
-7 -3 10 0.5168 0.0082
-7 -2 1 -8.4862 0.0134
-7 -2 2 6.3732 -0.0126
-7 -2 3 -2.8523 0.0064
-7 -2 4 -1.4009 0.0019
-7 -2 5 4.7975 -0.0057
-7 -2 6 -6.5206 0.0028
-7 -2 7 7.0786 0.0028
-7 -2 8 -6.7379 -0.0063
-7 -2 9 4.9858 0.0052
-7 -2 10 -2.1518 -0.0001
-7 -1 1 -8.5847 0.0088
-7 -1 2 8.2509 -0.0102
-7 -1 3 -6.5525 0.0058
-7 -1 4 3.3396 0.0035
-7 -1 5 0.5190 -0.0072
-7 -1 6 -3.5999 0.0005
-7 -1 7 5.4639 0.0073
-7 -1 8 -6.4960 -0.0077
-7 -1 9 6.4759 0.0046
-7 -1 10 -4.8346 -0.0045
-7 0 1 -7.1610 0.0043
-7 0 2 8.5162 -0.0040
-7 0 3 -8.5190 0.0027
-7 0 4 6.9671 0.0043
-7 0 5 -3.8816 -0.0109
-7 0 6 0.1450 0.0062
-7 0 7 3.0720 0.0059
-7 0 8 -5.2519 -0.0099
-7 0 9 6.2835 0.0030
-7 0 10 -5.8499 0.0020
-7 0 11 3.9563 0.0009
-7 1 1 -3.7800 0.0023
-7 1 2 6.8393 -0.0006
-7 1 3 -8.6120 0.0003
-7 1 4 8.8349 0.0020
-7 1 5 -7.3476 -0.0069
-7 1 6 4.2665 0.0072
-7 1 7 -0.3557 0.0005
-7 1 8 -3.1406 -0.0064
-7 1 9 5.1831 0.0014
-7 1 10 -5.4125 0.0085
-7 1 11 4.1494 -0.0126
-7 2 1 0.9085 -0.0003
-7 2 2 3.0343 0.0001
-7 2 3 -6.4210 0.0002
-7 2 4 8.3759 0.0008
-7 2 5 -8.6256 -0.0031
-7 2 6 7.2215 0.0020
-7 2 7 -4.2802 0.0042
-7 2 8 0.4738 -0.0078
-7 2 9 2.6960 0.0014
-7 2 10 -3.9056 0.0107
-7 2 11 3.2060 -0.0187
-7 3 1 5.0753 -0.0008
-7 3 2 -1.5873 0.0010
-7 3 3 -2.5305 0.0009
-7 3 4 5.9292 -0.0013
-7 3 5 -7.6643 -0.0033
-7 3 6 7.8019 0.0060
-7 3 7 -6.6515 0.0020
-7 3 8 4.2121 -0.0134
-7 3 9 -1.0512 0.0123
-7 3 10 -1.2675 0.0021
-7 4 1 7.1482 0.0038
-7 4 2 -5.2559 0.0003
-7 4 3 1.8873 -0.0033
-7 4 4 2.0412 0.0001
-7 4 5 -5.0592 0.0005
-7 4 6 6.4476 0.0070
-7 4 7 -6.6137 -0.0103
-7 4 8 5.8603 -0.0011
-7 4 9 -3.9874 0.0147
-7 4 10 1.5292 -0.0127
-7 5 1 6.4253 0.0048
-7 5 2 -6.3908 -0.0030
-7 5 3 4.9541 -0.0068
-7 5 4 -2.1444 0.0107
-7 5 5 -1.1652 -0.0039
-7 5 6 3.6214 -0.0007
-7 5 7 -4.7415 -0.0051
-7 5 8 4.9556 0.0095
-7 5 9 -4.3750 -0.0017
-7 5 10 2.8155 -0.0087
-7 6 1 3.7447 0.0011
-7 6 2 -4.7615 -0.0010
-7 6 3 5.0003 -0.0050
-7 6 4 -4.1610 0.0141
-7 6 5 2.1283 -0.0155
-7 6 6 0.2972 0.0056
-7 6 7 -1.9645 0.0040
-6 -9 1 4.7988 0.0026
-6 -9 2 -4.1479 -0.0035
-6 -9 3 3.0469 0.0055
-6 -9 4 -1.7574 -0.0085
-6 -8 1 6.0366 -0.0013
-6 -8 2 -6.5828 0.0003
-6 -8 3 5.8468 0.0008
-6 -8 4 -4.0038 -0.0029
-6 -8 5 1.9875 0.0058
-6 -8 6 -0.3571 -0.0055
-6 -8 7 -0.8631 0.0004
-6 -7 1 3.7929 -0.0073
-6 -7 2 -6.1791 0.0033
-6 -7 3 7.4930 0.0021
-6 -7 4 -6.6817 -0.0052
-6 -7 5 4.3946 0.0040
-6 -7 6 -2.0816 -0.0005
-6 -7 7 0.2911 -0.0030
-6 -7 8 0.9989 0.0049
-6 -6 1 0.3558 -0.0092
-6 -6 2 -2.9529 0.0054
-6 -6 3 5.8729 -0.0004
-6 -6 4 -7.4212 -0.0048
-6 -6 5 6.6666 0.0052
-6 -6 6 -4.5921 0.0002
-6 -6 7 2.5169 -0.0048
-6 -6 8 -0.7919 0.0043
-6 -6 9 -0.4635 -0.0010
-6 -5 1 -2.9457 -0.0088
-6 -5 2 0.4860 0.0030
-6 -5 3 2.4898 -0.0003
-6 -5 4 -5.4078 -0.0009
-6 -5 5 6.9360 0.0019
-6 -5 6 -6.5971 -0.0001
-6 -5 7 5.0895 -0.0030
-6 -5 8 -3.1879 0.0016
-6 -5 9 1.3499 0.0040
-6 -5 10 -0.1105 -0.0052
-6 -4 1 -7.5156 -0.0070
-6 -4 2 4.4836 0.0016
-6 -4 3 -1.1660 0.0021
-6 -4 4 -2.2013 -0.0005
-6 -4 5 5.0791 -0.0017
-6 -4 6 -6.7828 0.0015
-6 -4 7 6.9443 -0.0007
-6 -4 8 -5.6551 -0.0004
-6 -4 9 3.4976 0.0035
-6 -4 10 -1.4797 -0.0063
-6 -4 11 0.4121 0.0013
-6 -3 1 -10.7015 -0.0024
-6 -3 2 8.9500 -0.0003
-6 -3 3 -5.7367 0.0032
-6 -3 4 1.8917 -0.0017
-6 -3 5 1.7708 -0.0023
-6 -3 6 -4.7850 0.0036
-6 -3 7 6.7758 -0.0006
-6 -3 8 -7.1731 -0.0023
-6 -3 9 5.7718 0.0018
-6 -3 10 -3.4360 -0.0000
-6 -3 11 1.5584 -0.0008
-6 -2 1 -9.1476 -0.0024
-6 -2 2 10.4036 -0.0013
-6 -2 3 -9.5469 0.0038
-6 -2 4 6.6687 -0.0027
-6 -2 5 -2.8547 -0.0003
-6 -2 6 -0.8389 0.0027
-6 -2 7 4.0269 -0.0022
-6 -2 8 -6.3071 -0.0013
-6 -2 9 6.8964 0.0029
-6 -2 10 -5.6141 0.0013
-6 -2 11 3.5237 -0.0058
-6 -2 12 -1.8859 0.0037
-6 -1 1 -5.0854 -0.0049
-6 -1 2 8.3194 0.0016
-6 -1 3 -10.2298 0.0025
-6 -1 4 9.9462 -0.0017
-6 -1 5 -7.5567 -0.0004
-6 -1 6 4.1007 0.0002
-6 -1 7 -0.4325 0.0003
-6 -1 8 -3.0618 -0.0005
-6 -1 9 5.6946 0.0019
-6 -1 10 -6.5183 -0.0009
-6 -1 11 5.4471 -0.0047
-6 -1 12 -3.5384 0.0074
-6 0 1 -0.6874 -0.0031
-6 0 2 4.9183 0.0034
-6 0 3 -8.4206 0.0018
-6 0 4 10.4670 -0.0022
-6 0 5 -10.4338 -0.0026
-6 0 6 8.3923 0.0032
-6 0 7 -5.0133 0.0013
-6 0 8 1.0335 -0.0038
-6 0 9 2.7775 0.0028
-6 0 10 -5.3846 -0.0006
-6 0 11 5.9453 -0.0047
-6 0 12 -4.6519 0.0119
-6 1 1 4.4989 -0.0000
-6 1 2 0.2197 0.0028
-6 1 3 -4.7608 0.0013
-6 1 4 8.3786 -0.0051
-6 1 5 -10.5289 0.0006
-6 1 6 10.6790 0.0055
-6 1 7 -8.6018 -0.0038
-6 1 8 4.8484 -0.0026
-6 1 9 -0.6314 0.0055
-6 1 10 -2.7903 -0.0029
-6 1 11 4.5402 -0.0049
-6 1 12 -4.3447 0.0167
-6 2 1 9.1499 0.0012
-6 2 2 -5.3461 0.0008
-6 2 3 0.5440 0.0001
-6 2 4 4.0343 -0.0039
-6 2 5 -7.7278 0.0031
-6 2 6 10.1019 0.0028
-6 2 7 -10.3485 -0.0055
-6 2 8 8.0248 0.0016
-6 2 9 -4.1326 0.0037
-6 2 10 0.5005 -0.0057
-6 2 11 1.7491 0.0013
-6 2 12 -2.4960 0.0112
-6 3 1 11.2437 0.0031
-6 3 2 -9.5296 -0.0028
-6 3 3 5.7567 0.0016
-6 3 4 -1.1180 -0.0018
-6 3 5 -3.2499 0.0006
-6 3 6 6.9789 0.0036
-6 3 7 -9.5370 -0.0059
-6 3 8 9.7393 0.0035
-6 3 9 -7.2993 0.0005
-6 3 10 3.8458 -0.0036
-6 3 11 -1.2767 0.0060
-6 3 12 -0.0153 -0.0030
-6 4 1 10.3979 0.0058
-6 4 2 -11.0052 -0.0056
-6 4 3 9.3223 0.0030
-6 4 4 -5.7160 -0.0012
-6 4 5 1.4000 0.0004
-6 4 6 2.7842 0.0024
-6 4 7 -6.5738 -0.0056
-6 4 8 9.0525 0.0054
-6 4 9 -8.8721 -0.0035
-6 4 10 6.2848 0.0025
-6 4 11 -3.3510 0.0010
-6 5 1 7.1393 0.0042
-6 5 2 -9.5020 -0.0045
-6 5 3 10.2790 0.0018
-6 5 4 -8.8935 0.0021
-6 5 5 5.6615 -0.0028
-6 5 6 -1.6400 -0.0001
-6 5 7 -2.4336 0.0023
-6 5 8 5.9697 -0.0013
-6 5 9 -7.7030 -0.0023
-6 5 10 6.6880 0.0075
-6 5 11 -3.9542 -0.0097
-6 6 1 2.7610 0.0034
-6 6 2 -5.7351 0.0003
-6 6 3 8.1186 -0.0012
-6 6 4 -9.1226 0.0029
-6 6 5 8.0418 -0.0071
-6 6 6 -5.2050 0.0070
-6 6 7 1.6663 0.0009
-6 6 8 1.7074 -0.0095
-6 6 9 -4.1078 0.0096
-6 6 10 4.5737 -0.0004
-6 7 1 -1.0520 0.0117
-6 7 2 -1.5514 -0.0038
-6 7 3 4.2034 -0.0028
-6 7 4 -6.3283 0.0016
-6 7 5 7.0365 -0.0022
-6 7 6 -5.9126 0.0093
-6 7 7 3.6243 -0.0118
-6 7 8 -1.2581 0.0019
-6 8 1 -2.8071 0.0126
-6 8 2 1.1856 -0.0162
-6 8 3 0.8213 0.0062
-6 8 4 -2.7423 0.0005
-6 8 5 3.9378 0.0015
-6 8 6 -3.8670 0.0007
-5 -10 1 3.2279 0.0032
-5 -10 2 -3.8021 -0.0017
-5 -10 3 3.6504 -0.0010
-5 -10 4 -2.5953 0.0044
-5 -9 1 3.3256 0.0029
-5 -9 2 -4.4982 0.0022
-5 -9 3 4.9332 -0.0088
-5 -9 4 -4.5127 0.0086
-5 -9 5 3.2105 -0.0041
-5 -9 6 -1.3879 0.0032
-5 -9 7 -0.0498 -0.0021
-5 -8 1 1.2805 0.0000
-5 -8 2 -3.8403 -0.0007
-5 -8 3 5.3697 -0.0036
-5 -8 4 -5.6304 0.0074
-5 -8 5 5.0551 -0.0037
-5 -8 6 -3.7046 -0.0012
-5 -8 7 1.6750 -0.0003
-5 -8 8 0.0976 0.0020
-5 -8 9 -0.7631 0.0040
-5 -7 1 -2.5776 -0.0068
-5 -7 2 -0.4139 0.0043
-5 -7 3 3.7983 0.0002
-5 -7 4 -5.6530 -0.0005
-5 -7 5 5.9248 -0.0002
-5 -7 6 -5.4854 -0.0010
-5 -7 7 4.2855 -0.0004
-5 -7 8 -2.2088 0.0059
-5 -7 9 0.2937 -0.0069
-5 -7 10 0.4759 -0.0027
-5 -6 1 -4.9478 -0.0057
-5 -6 2 4.1194 0.0081
-5 -6 3 -0.7102 -0.0034
-5 -6 4 -3.1549 -0.0021
-5 -6 5 5.3208 0.0030
-5 -6 6 -5.9876 -0.0011
-5 -6 7 5.9559 -0.0009
-5 -6 8 -4.9478 0.0034
-5 -6 9 2.9649 -0.0059
-5 -6 10 -1.1997 0.0038
-5 -6 11 0.4458 0.0058
-5 -5 1 -6.3536 -0.0016
-5 -5 2 7.0347 0.0048
-5 -5 3 -5.6336 -0.0034
-5 -5 4 1.8056 -0.0014
-5 -5 5 2.2915 0.0039
-5 -5 6 -4.9413 -0.0016
-5 -5 7 6.2566 -0.0018
-5 -5 8 -6.5014 0.0021
-5 -5 9 5.4396 0.0004
-5 -5 10 -3.6228 -0.0017
-5 -5 11 2.2622 0.0008
-5 -4 1 -9.2803 0.0009
-5 -4 2 9.7522 0.0029
-5 -4 3 -9.2914 -0.0026
-5 -4 4 6.7656 -0.0017
-5 -4 5 -2.4680 0.0055
-5 -4 6 -1.8829 -0.0048
-5 -4 7 5.0518 0.0004
-5 -4 8 -6.7530 0.0030
-5 -4 9 6.8460 -0.0012
-5 -4 10 -5.5759 -0.0041
-5 -4 11 4.0427 0.0047
-5 -4 12 -3.1034 0.0027
-5 -3 1 -9.6760 0.0027
-5 -3 2 11.9919 0.0019
-5 -3 3 -12.4497 -0.0040
-5 -3 4 10.8809 0.0006
-5 -3 5 -7.2995 0.0044
-5 -3 6 2.6147 -0.0062
-5 -3 7 1.8447 0.0040
-5 -3 8 -5.1695 0.0003
-5 -3 9 6.8715 -0.0037
-5 -3 10 -6.8125 0.0017
-5 -3 11 5.6215 0.0037
-5 -3 12 -4.3755 -0.0023
-5 -2 1 -4.0981 -0.0008
-5 -2 2 9.6475 0.0025
-5 -2 3 -13.1140 -0.0044
-5 -2 4 13.7187 0.0025
-5 -2 5 -11.5379 0.0025
-5 -2 6 7.4905 -0.0046
-5 -2 7 -2.8569 0.0027
-5 -2 8 -1.3808 -0.0004
-5 -2 9 4.6574 -0.0016
-5 -2 10 -6.5183 0.0028
-5 -2 11 6.7650 0.0002
-5 -2 12 -5.8409 -0.0048
-5 -2 13 4.4523 0.0002
-5 -1 1 3.3259 -0.0058
-5 -1 2 3.3334 0.0060
-5 -1 3 -9.3825 -0.0050
-5 -1 4 13.1715 0.0025
-5 -1 5 -13.8043 0.0024
-5 -1 6 11.6054 -0.0049
-5 -1 7 -7.7720 0.0013
-5 -1 8 3.4978 0.0034
-5 -1 9 0.5826 -0.0030
-5 -1 10 -4.0626 0.0001
-5 -1 11 6.2949 0.0017
-5 -1 12 -6.7553 -0.0040
-5 -1 13 5.6396 0.0035
-5 0 1 9.2572 -0.0076
-5 0 2 -3.2079 0.0087
-5 0 3 -3.3775 -0.0048
-5 0 4 9.0486 0.0003
-5 0 5 -12.5500 0.0033
-5 0 6 13.2324 -0.0054
-5 0 7 -11.3526 0.0022
-5 0 8 7.8941 0.0045
-5 0 9 -3.8104 -0.0064
-5 0 10 -0.3526 0.0014
-5 0 11 3.9361 0.0031
-5 0 12 -5.9361 -0.0028
-5 0 13 5.8241 -0.0001
-5 1 1 13.4401 -0.0105
-5 1 2 -9.0288 0.0108
-5 1 3 3.0847 -0.0052
-5 1 4 2.9788 -0.0026
-5 1 5 -8.1025 0.0068
-5 1 6 11.4324 -0.0063
-5 1 7 -12.2637 0.0023
-5 1 8 10.6323 0.0036
-5 1 9 -7.4146 -0.0062
-5 1 10 3.5113 0.0021
-5 1 11 0.4169 0.0030
-5 1 12 -3.3900 -0.0023
-5 1 13 4.3898 -0.0029
-5 2 1 14.4427 -0.0148
-5 2 2 -12.8959 0.0122
-5 2 3 8.8446 -0.0060
-5 2 4 -3.5744 -0.0020
-5 2 5 -1.8424 0.0074
-5 2 6 6.7521 -0.0075
-5 2 7 -10.1786 0.0032
-5 2 8 11.1141 0.0026
-5 2 9 -9.6620 -0.0048
-5 2 10 6.8529 0.0001
-5 2 11 -3.4975 0.0063
-5 2 12 0.2427 -0.0060
-5 2 13 1.8256 0.0002
-5 3 1 12.0496 -0.0141
-5 3 2 -13.2730 0.0106
-5 3 3 11.8763 -0.0037
-5 3 4 -8.4706 -0.0022
-5 3 5 4.0517 0.0049
-5 3 6 0.9243 -0.0048
-5 3 7 -5.8651 0.0026
-5 3 8 9.3128 0.0014
-5 3 9 -10.1604 -0.0044
-5 3 10 8.8836 0.0012
-5 3 11 -6.5732 0.0074
-5 3 12 3.7552 -0.0119
-5 3 13 -1.0318 0.0079
-5 4 1 7.8160 -0.0065
-5 4 2 -10.8902 0.0058
-5 4 3 11.9502 -0.0003
-5 4 4 -10.7566 -0.0048
-5 4 5 7.9493 0.0057
-5 4 6 -4.0241 -0.0035
-5 4 7 -0.8733 0.0017
-5 4 8 5.7254 -0.0001
-5 4 9 -8.6805 -0.0033
-5 4 10 8.9746 0.0057
-5 4 11 -7.5393 -0.0011
-5 4 12 5.3872 -0.0078
-5 5 1 2.7960 -0.0007
-5 5 2 -6.6790 0.0009
-5 5 3 9.6951 0.0022
-5 5 4 -10.9079 -0.0057
-5 5 5 10.0805 0.0060
-5 5 6 -7.5920 -0.0040
-5 5 7 3.6730 0.0033
-5 5 8 1.1718 -0.0041
-5 5 9 -5.3142 0.0027
-5 5 10 7.0352 0.0037
-5 5 11 -6.3312 -0.0094
-5 5 12 4.5506 0.0066
-5 6 1 -1.8518 0.0003
-5 6 2 -1.6546 0.0004
-5 6 3 5.4295 0.0026
-5 6 4 -8.5701 -0.0070
-5 6 5 10.0278 0.0066
-5 6 6 -9.4337 -0.0020
-5 6 7 7.0020 -0.0002
-5 6 8 -3.1923 -0.0029
-5 6 9 -0.8927 0.0072
-5 6 10 3.5474 -0.0058
-5 6 11 -3.8458 -0.0025
-5 7 1 -4.9720 0.0024
-5 7 2 2.4155 -0.0011
-5 7 3 0.9166 0.0009
-5 7 4 -4.4957 -0.0062
-5 7 5 7.2645 0.0099
-5 7 6 -8.3254 -0.0048
-5 7 7 7.5253 -0.0036
-5 7 8 -5.2959 0.0060
-5 7 9 2.4059 -0.0012
-5 7 10 0.0599 -0.0052
-5 8 1 -5.6659 0.0009
-5 8 2 4.2750 -0.0056
-5 8 3 -1.8963 0.0040
-5 8 4 -1.0272 -0.0040
-5 8 5 3.6485 0.0081
-5 8 6 -5.1080 -0.0086
-5 8 7 5.1177 0.0015
-5 8 9 2.5671 -0.0088
-5 9 1 -3.7605 -0.0010
-5 9 2 3.4663 -0.0045
-5 9 3 -2.3129 0.0077
-5 9 4 0.5718 -0.0060
-5 9 5 1.1525 0.0046
-4 -11 1 2.8254 0.0103
-4 -11 2 -3.8055 -0.0165
-4 -11 3 3.3605 0.0178
-4 -11 4 -1.9236 -0.0087
-4 -10 1 1.7463 0.0024
-4 -10 2 -3.8918 -0.0017
-4 -10 3 4.9990 0.0037
-4 -10 4 -4.4401 -0.0052
-4 -10 5 2.8271 0.0004
-4 -10 6 -1.5230 0.0042
-4 -10 7 1.0375 0.0011
-4 -9 1 -0.9966 0.0043
-4 -9 2 -1.7947 -0.0006
-4 -9 3 4.1566 -0.0054
-4 -9 4 -5.4498 0.0047
-4 -9 5 5.1609 -0.0003
-4 -9 6 -3.7125 -0.0004
-4 -9 7 2.2932 0.0011
-4 -9 8 -1.4768 -0.0057
-4 -9 9 0.8068 0.0069
-4 -8 1 -5.1015 0.0012
-4 -8 2 1.7356 -0.0052
-4 -8 3 1.4502 0.0003
-4 -8 4 -3.9639 0.0055
-4 -8 5 5.5972 -0.0032
-4 -8 6 -5.8574 -0.0018
-4 -8 7 4.6939 0.0023
-4 -8 8 -3.0505 -0.0011
-4 -8 9 1.7754 0.0018
-4 -8 10 -0.8028 -0.0017
-4 -7 1 -8.8753 -0.0038
-4 -7 2 6.4952 -0.0018
-4 -7 3 -2.6253 0.0039
-4 -7 4 -0.9217 0.0004
-4 -7 5 3.6433 -0.0027
-4 -7 6 -5.7144 -0.0011
-4 -7 7 6.5334 0.0038
-4 -7 8 -5.6165 -0.0013
-4 -7 9 3.7940 -0.0022
-4 -7 10 -2.1833 0.0020
-4 -7 11 0.9826 0.0019
-4 -6 1 -9.4814 0.0006
-4 -6 2 10.4179 -0.0006
-4 -6 3 -7.9706 0.0022
-4 -6 4 3.6293 -0.0001
-4 -6 5 0.2959 -0.0033
-4 -6 6 -3.3552 0.0018
-4 -6 7 5.7988 0.0029
-4 -6 8 -6.9069 -0.0045
-4 -6 9 6.1754 0.0015
-4 -6 10 -4.5118 0.0018
-4 -6 11 2.9715 -0.0008
-4 -6 12 -1.6386 -0.0046
-4 -5 1 -8.3257 0.0072
-4 -5 2 11.5534 -0.0049
-4 -5 3 -12.2999 0.0033
-4 -5 4 9.3490 -0.0002
-4 -5 5 -4.5620 -0.0042
-4 -5 6 0.1915 0.0051
-4 -5 7 3.2884 -0.0011
-4 -5 8 -5.8523 -0.0032
-4 -5 9 6.8618 0.0041
-4 -5 10 -6.3071 -0.0017
-4 -5 11 5.1966 -0.0011
-4 -5 12 -4.0503 -0.0005
-4 -5 13 2.5602 0.0064
-4 -4 1 -7.3558 0.0115
-4 -4 2 11.4067 -0.0076
-4 -4 3 -14.1617 0.0037
-4 -4 4 13.8539 -0.0003
-4 -4 5 -10.2011 -0.0034
-4 -4 6 5.1037 0.0048
-4 -4 7 -0.3754 -0.0024
-4 -4 8 -3.3895 -0.0001
-4 -4 9 5.8011 0.0005
-4 -4 10 -6.5405 -0.0000
-4 -4 11 6.2192 -0.0012
-4 -4 12 -5.6957 0.0017
-4 -4 13 4.7683 0.0037
-4 -3 1 -2.8340 0.0157
-4 -3 2 9.3121 -0.0101
-4 -3 3 -13.8774 0.0028
-4 -3 4 15.7683 0.0017
-4 -3 5 -14.3526 -0.0042
-4 -3 6 10.3239 0.0044
-4 -3 7 -5.3554 -0.0010
-4 -3 8 0.6459 -0.0014
-4 -3 9 3.1939 -0.0012
-4 -3 10 -5.5366 0.0042
-4 -3 11 6.2718 -0.0027
-4 -3 12 -6.1829 0.0001
-4 -3 13 5.7381 0.0022
-4 -3 14 -4.4511 -0.0102
-4 -2 1 6.2467 0.0167
-4 -2 2 2.4420 -0.0125
-4 -2 3 -9.8167 0.0033
-4 -2 4 14.4275 0.0029
-4 -2 5 -15.6482 -0.0046
-4 -2 6 13.7930 0.0043
-4 -2 7 -10.1115 -0.0014
-4 -2 8 5.7999 -0.0028
-4 -2 9 -1.3520 0.0019
-4 -2 10 -2.6942 0.0035
-4 -2 11 5.3979 -0.0033
-4 -2 12 -6.3987 -0.0036
-4 -2 13 6.1905 0.0062
-4 -2 14 -5.0796 -0.0033
-4 -1 1 14.5112 0.0150
-4 -1 2 -6.7089 -0.0123
-4 -1 3 -1.8891 0.0036
-4 -1 4 9.0040 0.0038
-4 -1 5 -13.2505 -0.0045
-4 -1 6 14.2699 0.0023
-4 -1 7 -12.7752 -0.0009
-4 -1 8 9.9496 -0.0013
-4 -1 9 -6.3049 0.0028
-4 -1 10 1.8399 0.0002
-4 -1 11 2.6547 -0.0021
-4 -1 12 -5.6814 -0.0041
-4 -1 13 6.5267 0.0100
-4 -1 14 -5.6037 -0.0027
-4 0 1 18.9415 0.0123
-4 0 2 -13.9515 -0.0103
-4 0 3 6.4675 0.0034
-4 0 4 1.2398 0.0043
-4 0 5 -7.4505 -0.0055
-4 0 6 11.2485 0.0015
-4 0 7 -12.4523 0.0007
-4 0 8 11.6810 -0.0000
-4 0 9 -9.5989 0.0001
-4 0 10 6.1413 0.0000
-4 0 11 -1.4340 -0.0010
-4 0 12 -3.0496 -0.0022
-4 0 13 5.4932 0.0082
-4 0 14 -5.4666 -0.0043
-4 1 1 18.8883 0.0074
-4 1 2 -17.8088 -0.0071
-4 1 3 12.9986 0.0026
-4 1 4 -6.3412 0.0040
-4 1 5 -0.2255 -0.0059
-4 1 6 5.6007 0.0016
-4 1 7 -9.1648 0.0018
-4 1 8 10.7366 -0.0001
-4 1 9 -10.6319 -0.0023
-4 1 10 8.9374 0.0022
-4 1 11 -5.4379 -0.0013
-4 1 12 0.9252 -0.0012
-4 1 13 2.5882 0.0069
-4 1 14 -3.7528 -0.0083
-4 2 1 13.8677 0.0011
-4 2 2 -16.6517 -0.0034
-4 2 3 15.8487 0.0022
-4 2 4 -11.9694 0.0037
-4 2 5 6.5929 -0.0068
-4 2 6 -1.0010 0.0026
-4 2 7 -3.9694 0.0027
-4 2 8 7.6043 -0.0021
-4 2 9 -9.6105 -0.0018
-4 2 10 9.9864 0.0027
-4 2 11 -8.4333 -0.0013
-4 2 12 5.0063 -0.0001
-4 2 13 -1.2048 0.0053
-4 2 14 -1.0285 -0.0133
-4 3 1 6.7809 -0.0019
-4 3 2 -11.2718 0.0009
-4 3 3 13.6942 0.0017
-4 3 4 -13.4073 0.0011
-4 3 5 10.8291 -0.0061
-4 3 6 -6.7098 0.0052
-4 3 7 1.7324 0.0008
-4 3 8 3.1420 -0.0034
-4 3 9 -6.9298 0.0004
-4 3 10 9.1818 0.0015
-4 3 11 -9.6004 -0.0001
-4 3 12 7.8126 -0.0001
-4 3 13 -4.4349 0.0003
-4 4 1 0.6952 0.0025
-4 4 2 -5.2754 0.0027
-4 4 3 9.0015 -0.0023
-4 4 4 -11.0433 0.0010
-4 4 5 11.2103 -0.0028
-4 4 6 -9.6163 0.0043
-4 4 7 6.2966 -0.0015
-4 4 8 -1.7186 -0.0022
-4 4 9 -2.9199 0.0018
-4 4 10 6.4707 0.0007
-4 4 11 -8.3434 -0.0007
-4 4 12 8.1259 0.0001
-4 4 13 -5.8169 -0.0027
-4 5 1 -3.9509 0.0071
-4 5 2 0.0942 -0.0002
-4 5 3 4.0100 -0.0048
-4 5 4 -7.3150 0.0053
-4 5 5 9.2600 -0.0034
-4 5 6 -9.7608 0.0019
-4 5 7 8.6355 -0.0008
-4 5 8 -5.7316 -0.0006
-4 5 9 1.6638 0.0020
-4 5 10 2.2635 -0.0019
-4 5 11 -4.9433 0.0003
-4 5 12 5.8327 0.0015
-4 6 1 -6.5894 0.0057
-4 6 2 4.5003 -0.0008
-4 6 3 -1.1433 -0.0044
-4 6 4 -2.6650 0.0068
-4 6 5 5.9425 -0.0054
-4 6 6 -8.0961 0.0018
-4 6 7 8.8049 -0.0001
-4 6 8 -7.8089 0.0019
-4 6 9 5.2384 -0.0030
-4 6 10 -1.9399 -0.0007
-4 6 11 -0.8929 0.0048
-4 6 12 2.4001 -0.0033
-4 7 1 -6.8838 0.0030
-4 7 2 6.5871 0.0018
-4 7 3 -4.9147 -0.0065
-4 7 4 1.9823 0.0075
-4 7 5 1.4994 -0.0047
-4 7 6 -4.6367 -0.0000
-4 7 7 6.6823 0.0028
-4 7 8 -7.1908 0.0011
-4 7 9 6.1667 -0.0095
-4 7 10 -4.0974 0.0112
-4 7 11 1.7926 -0.0016
-4 8 1 -5.2027 -0.0014
-4 8 2 6.0771 0.0033
-4 8 3 -5.8194 -0.0075
-4 8 4 4.2908 0.0091
-4 8 5 -1.8494 -0.0055
-4 8 6 -0.8491 -0.0010
-4 8 7 3.0689 0.0069
-4 8 8 -4.2100 -0.0066
-4 8 9 4.1527 -0.0036
-4 8 10 -3.2724 0.0161
-4 9 1 -2.1149 -0.0033
-4 9 2 3.6280 0.0059
-4 9 3 -4.2929 -0.0067
-4 9 4 3.8461 0.0064
-4 9 5 -2.5576 -0.0037
-4 9 8 -1.2251 -0.0102
-4 9 9 1.2934 0.0083
-4 10 1 0.4187 0.0060
-4 10 2 0.8315 0.0038
-4 10 3 -1.7264 -0.0076
-3 -12 1 1.5220 0.0027
-3 -12 2 -2.1451 -0.0047
-3 -11 1 0.5922 0.0000
-3 -11 2 -2.5894 -0.0035
-3 -11 3 3.2831 0.0055
-3 -11 4 -2.7151 -0.0029
-3 -11 5 1.8862 -0.0018
-3 -11 6 -1.4359 0.0018
-3 -11 7 1.0548 0.0030
-3 -10 1 -2.1674 -0.0014
-3 -10 2 -0.6109 0.0009
-3 -10 3 2.9559 0.0014
-3 -10 4 -3.9109 -0.0035
-3 -10 5 3.6235 0.0014
-3 -10 6 -3.1127 0.0008
-3 -10 7 2.7832 0.0023
-3 -10 8 -2.0986 -0.0062
-3 -10 9 0.9047 0.0037
-3 -9 1 -5.5747 -0.0017
-3 -9 2 3.0030 0.0006
-3 -9 3 0.0782 -0.0007
-3 -9 4 -2.8383 -0.0017
-3 -9 5 4.3008 0.0031
-3 -9 6 -4.4482 -0.0010
-3 -9 7 4.1427 0.0003
-3 -9 8 -3.7751 -0.0030
-3 -9 9 2.9188 0.0034
-3 -9 10 -1.5268 0.0004
-3 -8 1 -8.9384 -0.0073
-3 -8 2 6.8440 0.0004
-3 -8 3 -3.9236 0.0015
-3 -8 4 0.5679 -0.0022
-3 -8 5 2.6021 0.0036
-3 -8 6 -4.6374 -0.0025
-3 -8 7 5.1924 -0.0006
-3 -8 8 -4.9006 0.0012
-3 -8 9 4.3430 -0.0001
-3 -8 10 -3.4018 0.0009
-3 -8 11 2.0212 -0.0011
-3 -8 12 -0.7498 -0.0024
-3 -7 1 -11.1030 -0.0125
-3 -7 2 10.5237 0.0034
-3 -7 3 -8.0035 0.0026
-3 -7 4 4.6949 -0.0034
-3 -7 5 -1.1594 0.0031
-3 -7 6 -2.2891 -0.0023
-3 -7 7 4.8090 -0.0001
-3 -7 8 -5.7383 0.0015
-3 -7 9 5.4603 -0.0005
-3 -7 10 -4.7091 0.0005
-3 -7 11 3.6260 -0.0019
-3 -7 12 -2.1620 0.0013
-3 -6 1 -10.0504 -0.0121
-3 -6 2 12.5991 0.0039
-3 -6 3 -12.0551 0.0035
-3 -6 4 9.0711 -0.0046
-3 -6 5 -5.3592 0.0021
-3 -6 6 1.6702 -0.0002
-3 -6 7 1.9012 -0.0007
-3 -6 8 -4.6794 0.0004
-3 -6 9 5.9183 0.0018
-3 -6 10 -5.8418 -0.0030
-3 -6 11 5.0983 0.0001
-3 -6 12 -3.8301 0.0049
-3 -6 13 2.1028 -0.0090
-3 -5 1 -6.2480 -0.0118
-3 -5 2 11.3236 0.0041
-3 -5 3 -14.2027 0.0045
-3 -5 4 13.4106 -0.0064
-3 -5 5 -9.9379 0.0022
-3 -5 6 5.8344 0.0012
-3 -5 7 -1.9828 -0.0013
-3 -5 8 -1.5514 -0.0000
-3 -5 9 4.2748 0.0022
-3 -5 10 -5.6812 -0.0034
-3 -5 11 5.9716 0.0009
-3 -5 12 -5.4258 0.0042
-3 -5 13 3.9496 -0.0093
-3 -5 14 -1.8831 0.0154
-3 -4 1 -0.5789 -0.0119
-3 -4 2 7.2354 0.0065
-3 -4 3 -12.6986 0.0023
-3 -4 4 15.2181 -0.0061
-3 -4 5 -13.9736 0.0019
-3 -4 6 10.3001 0.0025
-3 -4 7 -6.1103 -0.0015
-3 -4 8 2.2106 -0.0016
-3 -4 9 1.1828 0.0025
-3 -4 10 -3.6708 -0.0013
-3 -4 11 5.1182 -0.0022
-3 -4 12 -5.7144 0.0059
-3 -4 13 5.2596 -0.0054
-3 -4 14 -3.5182 0.0023
-3 -3 1 8.0375 -0.0089
-3 -3 2 0.2599 0.0071
-3 -3 3 -7.6016 -0.0003
-3 -3 4 12.7799 -0.0051
-3 -3 5 -14.7180 0.0018
-3 -3 6 13.4370 0.0048
-3 -3 7 -10.2761 -0.0041
-3 -3 8 6.5080 -0.0021
-3 -3 9 -2.6899 0.0045
-3 -3 10 -0.6616 -0.0016
-3 -3 11 3.0524 -0.0025
-3 -3 12 -4.5315 0.0059
-3 -3 13 5.1478 -0.0051
-3 -3 14 -4.4289 -0.0040
-3 -2 1 16.8422 -0.0056
-3 -2 2 -9.1580 0.0046
-3 -2 3 0.8588 -0.0012
-3 -2 4 6.2647 -0.0044
-3 -2 5 -11.0839 0.0042
-3 -2 6 12.9776 0.0029
-3 -2 7 -12.3668 -0.0061
-3 -2 8 10.2224 0.0000
-3 -2 9 -7.0457 0.0052
-3 -2 10 3.2228 -0.0024
-3 -2 11 0.3228 -0.0019
-3 -2 12 -2.8407 0.0020
-3 -2 13 4.2820 -0.0010
-3 -2 14 -4.5083 -0.0017
-3 -2 15 3.2305 0.0104
-3 -1 1 20.8396 -0.0060
-3 -1 2 -16.7280 0.0017
-3 -1 3 10.0068 -0.0002
-3 -1 4 -2.6856 -0.0020
-3 -1 5 -3.9330 0.0039
-3 -1 6 8.7074 -0.0010
-3 -1 7 -11.0120 -0.0032
-3 -1 8 11.2513 0.0005
-3 -1 9 -9.9283 0.0052
-3 -1 10 7.0406 -0.0031
-3 -1 11 -3.0914 -0.0040
-3 -1 12 -0.5772 0.0040
-3 -1 13 3.0147 0.0017
-3 -1 14 -4.0560 -0.0021
-3 -1 15 3.5888 -0.0018
-3 0 1 19.3671 -0.0096
-3 0 2 -19.6671 0.0006
-3 0 3 16.0231 0.0028
-3 0 4 -10.4034 -0.0012
-3 0 5 4.1322 0.0001
-3 0 6 1.9094 0.0001
-3 0 7 -6.5521 -0.0010
-3 0 8 9.1615 -0.0007
-3 0 9 -9.9755 0.0054
-3 0 10 9.0375 -0.0050
-3 0 11 -6.2152 -0.0035
-3 0 12 2.4019 0.0084
-3 0 13 0.8206 -0.0029
-3 0 14 -2.6294 -0.0018
-3 0 15 2.9956 -0.0049
-3 1 1 12.8502 -0.0105
-3 1 2 -17.7354 -0.0007
-3 1 3 18.0273 0.0060
-3 1 4 -14.8448 -0.0026
-3 1 5 10.1419 -0.0022
-3 1 6 -4.8386 0.0028
-3 1 7 -0.4202 -0.0013
-3 1 8 4.6959 -0.0005
-3 1 9 -7.5164 0.0039
-3 1 10 8.7742 -0.0051
-3 1 11 -8.0615 -0.0006
-3 1 12 5.4361 0.0073
-3 1 13 -2.2231 -0.0049
-3 1 14 -0.1211 -0.0024
-3 1 15 1.2129 0.0004
-3 2 1 2.7805 -0.0075
-3 2 2 -10.2776 -0.0051
-3 2 3 15.0785 0.0109
-3 2 4 -15.7276 -0.0049
-3 2 5 13.3872 -0.0036
-3 2 6 -9.6242 0.0049
-3 2 7 5.1426 -0.0012
-3 2 8 -0.5073 -0.0012
-3 2 9 -3.6059 0.0021
-3 2 10 6.7256 -0.0030
-3 2 11 -8.2458 0.0005
-3 2 12 7.5603 0.0052
-3 2 13 -5.1729 -0.0050
-3 2 14 2.6265 -0.0038
-3 3 1 -5.5897 -0.0032
-3 3 2 -0.6825 -0.0079
-3 3 3 7.3636 0.0149
-3 3 4 -11.9151 -0.0090
-3 3 5 13.2302 -0.0029
-3 3 6 -11.9525 0.0071
-3 3 7 8.9776 -0.0022
-3 3 8 -4.9101 -0.0021
-3 3 9 0.4342 0.0017
-3 3 10 3.7169 -0.0009
-3 3 11 -6.7791 0.0007
-3 3 12 7.8653 0.0028
-3 3 13 -6.7066 -0.0070
-3 3 14 4.3599 0.0033
-3 4 1 -9.6721 0.0039
-3 4 2 5.7801 -0.0092
-3 4 3 -0.3723 0.0126
-3 4 4 -5.1883 -0.0086
-3 4 5 9.2367 -0.0007
-3 4 6 -11.0057 0.0057
-3 4 7 10.5529 -0.0025
-3 4 8 -8.1441 -0.0021
-3 4 9 4.2839 0.0018
-3 4 10 0.1244 0.0006
-3 4 11 -3.9886 -0.0002
-3 4 12 6.2425 -0.0005
-3 4 13 -6.2453 -0.0035
-3 4 14 4.4596 0.0088
-3 5 1 -10.8045 0.0090
-3 5 2 8.9035 -0.0124
-3 5 3 -5.2514 0.0104
-3 5 4 0.6705 -0.0035
-3 5 5 3.7869 -0.0034
-3 5 6 -7.2579 0.0044
-3 5 7 9.2782 -0.0002
-3 5 8 -9.5005 -0.0030
-3 5 9 7.6661 0.0021
-3 5 10 -4.1186 0.0000
-3 5 11 0.0364 -0.0001
-3 5 12 3.0824 -0.0016
-3 5 13 -4.2208 0.0017
-3 6 1 -9.2769 0.0080
-3 6 2 9.8342 -0.0113
-3 6 3 -8.2590 0.0097
-3 6 4 5.1402 -0.0017
-3 6 5 -1.3093 -0.0066
-3 6 6 -2.5024 0.0066
-3 6 7 5.7958 0.0002
-3 6 8 -8.1373 -0.0034
-3 6 9 8.8660 -0.0001
-3 6 10 -7.4115 0.0020
-3 6 11 4.1789 0.0012
-3 6 12 -0.7123 -0.0040
-3 6 13 -1.4158 0.0033
-3 7 1 -5.6453 0.0067
-3 7 2 8.1383 -0.0072
-3 7 3 -9.0454 0.0047
-3 7 4 8.1498 0.0003
-3 7 5 -5.7460 -0.0063
-3 7 6 2.3833 0.0069
-3 7 7 1.2407 0.0001
-3 7 8 -4.4863 -0.0046
-3 7 9 6.7749 -0.0019
-3 7 10 -7.3842 0.0097
-3 7 11 5.9031 -0.0059
-3 7 12 -3.1201 -0.0038
-3 8 1 -1.5229 0.0033
-3 8 2 4.6107 -0.0068
-3 8 3 -7.0562 0.0030
-3 8 4 8.2048 0.0027
-3 8 5 -7.7971 -0.0058
-3 8 6 5.8661 0.0048
-3 8 7 -2.9000 0.0017
-3 8 8 -0.2073 -0.0085
-3 8 9 2.7172 0.0043
-3 8 10 -4.2040 0.0095
-3 8 11 4.2651 -0.0155
-3 9 1 1.9710 -0.0014
-3 9 2 0.8394 -0.0046
-3 9 3 -3.6122 0.0062
-3 9 4 5.6068 -0.0027
-3 9 5 -6.4485 -0.0002
-3 9 6 6.0253 -0.0005
-3 9 7 -4.4431 0.0047
-3 9 8 2.3148 -0.0105
-3 9 9 -0.4718 0.0114
-3 9 10 -0.7302 -0.0021
-3 10 1 3.4747 0.0054
-3 10 2 -1.6118 -0.0027
-3 10 3 -0.5298 0.0045
-3 11 1 2.4756 0.0163
-2 -12 1 -0.2146 -0.0012
-2 -12 2 -1.0488 0.0059
-2 -12 3 1.5909 -0.0057
-2 -11 1 -2.3766 0.0046
-2 -11 2 0.2889 0.0034
-2 -11 3 1.4167 -0.0081
-2 -11 4 -2.2310 0.0069
-2 -11 5 2.1820 -0.0040
-2 -11 6 -1.6746 0.0019
-2 -11 7 1.0322 -0.0001
-2 -10 1 -5.1973 0.0079
-2 -10 2 3.2175 -0.0007
-2 -10 3 -0.7558 -0.0065
-2 -10 4 -1.3539 0.0081
-2 -10 5 2.5662 -0.0054
-2 -10 6 -3.0265 0.0021
-2 -10 7 3.0257 0.0007
-2 -10 8 -2.4883 -0.0022
-2 -9 1 -7.2288 0.0056
-2 -9 2 6.3138 -0.0008
-2 -9 3 -4.1597 -0.0040
-2 -9 4 1.2686 0.0047
-2 -9 5 1.2703 -0.0024
-2 -9 6 -2.7978 0.0009
-2 -9 7 3.5650 -0.0004
-2 -9 8 -3.9140 -0.0002
-2 -9 9 3.6127 -0.0000
-2 -9 10 -2.4762 0.0011
-2 -8 1 -7.9087 0.0015
-2 -8 2 8.2458 0.0031
-2 -8 3 -7.2240 -0.0058
-2 -8 4 4.8300 0.0034
-2 -8 5 -1.6394 0.0013
-2 -8 6 -1.1669 -0.0025
-2 -8 7 2.8426 -0.0004
-2 -8 8 -3.6661 0.0029
-2 -8 9 4.1379 -0.0033
-2 -8 10 -4.1059 0.0025
-2 -8 11 3.1995 -0.0003
-2 -8 12 -1.7277 -0.0036
-2 -7 1 -6.7749 0.0009
-2 -7 2 8.7536 0.0046
-2 -7 3 -8.9841 -0.0078
-2 -7 4 7.7697 0.0054
-2 -7 5 -5.3434 0.0005
-2 -7 6 2.1935 -0.0030
-2 -7 7 0.7109 -0.0002
-2 -7 8 -2.5869 0.0040
-2 -7 9 3.5386 -0.0040
-2 -7 10 -4.0830 0.0017
-2 -7 11 4.1816 0.0006
-2 -7 12 -3.3861 -0.0032
-2 -7 13 1.8536 0.0059
-2 -6 1 -2.7400 0.0024
-2 -6 2 7.0573 0.0029
-2 -6 3 -9.4134 -0.0058
-2 -6 4 9.5976 0.0046
-2 -6 5 -8.2339 -0.0003
-2 -6 6 5.9191 -0.0017
-2 -6 7 -2.9894 -0.0015
-2 -6 8 0.0424 0.0053
-2 -6 9 2.1627 -0.0041
-2 -6 10 -3.4517 -0.0008
-2 -6 11 4.1355 0.0042
-2 -6 12 -4.1566 -0.0038
-2 -6 13 3.1758 0.0012
-2 -6 14 -1.5420 0.0014
-2 -5 1 3.6045 0.0028
-2 -5 2 2.2233 0.0030
-2 -5 3 -7.2720 -0.0045
-2 -5 4 9.9943 0.0022
-2 -5 5 -10.0847 0.0018
-2 -5 6 8.5682 -0.0035
-2 -5 7 -6.3549 -0.0001
-2 -5 8 3.6459 0.0053
-2 -5 9 -0.7408 -0.0054
-2 -5 10 -1.7064 0.0002
-2 -5 11 3.3472 0.0045
-2 -5 12 -4.1558 -0.0049
-2 -5 13 3.9164 0.0011
-2 -5 14 -2.5846 0.0057
-2 -5 15 0.9399 -0.0112
-2 -4 1 10.7427 0.0039
-2 -4 2 -4.6970 0.0047
-2 -4 3 -1.7860 -0.0062
-2 -4 4 7.1077 0.0024
-2 -4 5 -9.8109 0.0022
-2 -4 6 9.9117 -0.0046
-2 -4 7 -8.5822 0.0030
-2 -4 8 6.6019 0.0014
-2 -4 9 -4.0809 -0.0037
-2 -4 10 1.3062 0.0014
-2 -4 11 1.1750 0.0013
-2 -4 12 -2.9815 -0.0013
-2 -4 13 3.7464 0.0004
-2 -4 14 -3.1426 0.0012
-2 -4 15 1.5917 -0.0061
-2 -3 1 17.2610 0.0069
-2 -3 2 -12.3857 0.0055
-2 -3 3 5.9057 -0.0085
-2 -3 4 0.6540 0.0026
-2 -3 5 -5.7374 0.0028
-2 -3 6 8.4533 -0.0031
-2 -3 7 -9.1572 0.0015
-2 -3 8 8.5729 -0.0002
-2 -3 9 -6.9411 -0.0004
-2 -3 10 4.4841 -0.0007
-2 -3 11 -1.7830 0.0018
-2 -3 12 -0.6700 0.0000
-2 -3 13 2.4765 -0.0026
-2 -3 14 -3.0053 0.0009
-2 -3 15 2.0636 0.0026
-2 -2 1 19.2806 0.0067
-2 -2 2 -18.3683 0.0054
-2 -2 3 14.0945 -0.0104
-2 -2 4 -7.8155 0.0034
-2 -2 5 1.2882 0.0055
-2 -2 6 3.7956 -0.0053
-2 -2 7 -6.9106 -0.0006
-2 -2 8 8.4717 0.0029
-2 -2 9 -8.5843 -0.0008
-2 -2 10 7.1296 -0.0015
-2 -2 11 -4.6521 0.0026
-2 -2 12 1.9767 -0.0024
-2 -2 13 0.4817 -0.0002
-2 -2 14 -2.1902 0.0022
-2 -2 15 2.3642 0.0005
-2 -1 1 14.5358 -0.0027
-2 -1 2 -18.5833 0.0074
-2 -1 3 18.9591 -0.0098
-2 -1 4 -15.6478 0.0049
-2 -1 5 9.4404 0.0048
-2 -1 6 -2.6136 -0.0080
-2 -1 7 -2.6162 0.0015
-2 -1 8 5.8724 0.0041
-2 -1 9 -7.6845 -0.0023
-2 -1 10 7.9680 -0.0010
-2 -1 11 -6.6380 0.0007
-2 -1 12 4.3936 -0.0001
-2 -1 13 -1.9110 0.0012
-2 -1 14 -0.4688 -0.0006
-2 -1 15 1.9413 -0.0020
-2 0 1 5.6767 -0.0165
-2 0 2 -13.0950 0.0148
-2 0 3 17.5363 -0.0081
-2 0 4 -18.6412 0.0016
-2 0 5 15.7609 0.0039
-2 0 6 -9.5849 -0.0062
-2 0 7 2.9470 0.0022
-2 0 8 1.8011 0.0033
-2 0 9 -4.6675 -0.0026
-2 0 10 6.3698 -0.0018
-2 0 11 -6.8103 0.0014
-2 0 12 5.9260 0.0024
-2 0 13 -4.2120 -0.0025
-2 0 14 2.0356 -0.0007
-2 0 15 0.1380 -0.0001
-2 1 1 -5.0453 -0.0235
-2 1 2 -4.4431 0.0214
-2 1 3 11.6302 -0.0096
-2 1 4 -15.8083 -0.0020
-2 1 5 16.9162 0.0067
-2 1 6 -14.3697 -0.0056
-2 1 7 9.0351 0.0013
-2 1 8 -3.5590 0.0032
-2 1 9 -0.4055 -0.0031
-2 1 10 3.2242 -0.0012
-2 1 11 -5.3085 0.0030
-2 1 12 6.2354 0.0005
-2 1 13 -5.8152 -0.0028
-2 1 14 4.3644 -0.0001
-2 1 15 -2.2734 0.0025
-2 2 1 -14.7174 -0.0244
-2 2 2 6.1778 0.0208
-2 2 3 2.9742 -0.0096
-2 2 4 -9.6235 -0.0016
-2 2 5 13.4276 0.0066
-2 2 6 -14.5476 -0.0057
-2 2 7 12.6946 0.0021
-2 2 8 -8.7224 0.0017
-2 2 9 4.4652 -0.0028
-2 2 10 -0.7520 0.0003
-2 2 11 -2.5790 0.0020
-2 2 12 5.1609 -0.0006
-2 2 13 -6.2226 -0.0017
-2 2 14 5.6557 -0.0003
-2 2 15 -3.9497 0.0044
-2 3 1 -18.4333 -0.0240
-2 3 2 14.6003 0.0189
-2 3 3 -6.8242 -0.0070
-2 3 4 -1.3580 -0.0021
-2 3 5 7.4335 0.0041
-2 3 6 -11.0799 -0.0026
-2 3 7 12.3187 0.0014
-2 3 8 -11.0400 -0.0003
-2 3 9 8.0079 -0.0013
-2 3 10 -4.4068 0.0012
-2 3 11 0.7595 0.0008
-2 3 12 2.5877 -0.0015
-2 3 13 -4.7829 -0.0007
-2 3 14 5.2036 0.0023
-2 3 15 -4.1300 -0.0000
-2 4 1 -16.2999 -0.0175
-2 4 2 16.7017 0.0152
-2 4 3 -13.1406 -0.0055
-2 4 4 6.6197 -0.0028
-2 4 5 0.2154 0.0035
-2 4 6 -5.5912 -0.0009
-2 4 7 9.0568 0.0006
-2 4 8 -10.3283 -0.0015
-2 4 9 9.3291 0.0005
-2 4 10 -6.7836 0.0018
-2 4 11 3.6517 -0.0017
-2 4 12 -0.5252 -0.0016
-2 4 13 -1.9720 0.0036
-2 4 14 3.1113 -0.0007
-2 5 1 -11.9131 -0.0097
-2 5 2 14.3454 0.0073
-2 5 3 -14.1366 -0.0008
-2 5 4 10.9559 -0.0039
-2 5 5 -5.8482 0.0028
-2 5 6 0.4841 -0.0004
-2 5 7 4.1573 0.0014
-2 5 8 -7.5598 -0.0038
-2 5 9 9.0358 0.0032
-2 5 10 -8.3031 0.0004
-2 5 11 6.0442 -0.0037
-2 5 12 -3.2842 0.0030
-2 5 13 0.7873 0.0027
-2 5 14 0.8191 -0.0071
-2 6 1 -6.4038 -0.0087
-2 6 2 10.2804 0.0055
-2 6 3 -12.1724 0.0023
-2 6 4 11.7716 -0.0075
-2 6 5 -9.2643 0.0041
-2 6 6 5.4672 0.0015
-2 6 7 -1.1739 -0.0008
-2 6 8 -3.1716 -0.0037
-2 6 9 6.7770 0.0047
-2 6 10 -8.4202 -0.0021
-2 6 11 7.6514 -0.0014
-2 6 12 -5.3519 0.0051
-2 6 13 2.7871 -0.0057
-2 7 1 -0.6432 -0.0091
-2 7 2 5.1027 0.0086
-2 7 3 -8.5601 -0.0032
-2 7 4 10.4278 -0.0049
-2 7 5 -10.4669 0.0058
-2 7 6 8.7751 0.0009
-2 7 7 -5.7678 -0.0040
-2 7 8 1.8371 0.0001
-2 7 9 2.4566 0.0028
-2 7 10 -5.8241 -0.0017
-2 7 11 6.8834 0.0010
-2 7 12 -5.6143 0.0006
-2 7 13 3.3715 -0.0068
-2 8 1 3.7360 -0.0110
-2 8 2 -0.0528 0.0067
-2 8 3 -3.8813 -0.0046
-2 8 4 7.1992 0.0005
-2 8 5 -9.3374 0.0033
-2 8 6 9.8386 -0.0012
-2 8 7 -8.5444 -0.0027
-2 8 8 5.7618 0.0012
-2 8 9 -2.0822 0.0024
-2 8 10 -1.5271 -0.0020
-2 8 11 3.7106 0.0013
-2 8 12 -3.7115 -0.0033
-2 9 1 5.8861 -0.0159
-2 9 2 -3.7114 0.0071
-2 9 3 0.4423 0.0007
-2 9 4 3.0613 -0.0039
-2 9 5 -6.0388 0.0050
-2 9 6 7.9153 -0.0047
-2 9 7 -8.2013 0.0027
-2 9 8 6.8440 -0.0026
-2 9 9 -4.3813 0.0053
-2 9 10 1.6265 -0.0061
-2 9 11 0.5212 0.0042
-2 10 1 5.4041 -0.0108
-2 10 2 -4.7298 0.0099
-2 10 3 2.9021 -0.0020
-2 10 4 -0.2916 -0.0068
-2 10 5 -2.2727 0.0111
-2 10 6 4.1723 -0.0114
-2 10 7 -5.0530 0.0102
-2 10 8 4.7552 -0.0088
-2 10 9 -3.5371 0.0085
-2 10 10 2.0000 -0.0083
-2 11 1 3.1000 0.0017
-1 -12 1 -1.6041 0.0051
-1 -11 1 -3.6019 0.0098
-1 -11 2 2.5260 -0.0044
-1 -11 3 -0.9752 0.0028
-1 -11 4 -0.4701 -0.0065
-1 -11 5 1.0478 0.0068
-1 -10 1 -4.9982 0.0113
-1 -10 2 4.5978 -0.0081
-1 -10 3 -3.3446 -0.0000
-1 -10 4 1.5745 0.0023
-1 -10 5 -0.0236 0.0013
-1 -10 6 -0.8566 -0.0029
-1 -9 1 -4.8044 0.0074
-1 -9 2 5.6947 -0.0090
-1 -9 3 -5.3998 0.0033
-1 -9 4 3.9512 0.0026
-1 -9 5 -2.0366 -0.0020
-1 -9 6 0.4603 -0.0018
-1 -9 7 0.6612 0.0030
-1 -9 8 -1.6403 -0.0018
-1 -9 9 2.2742 0.0011
-1 -8 1 -2.7989 0.0047
-1 -8 2 4.9810 -0.0059
-1 -8 3 -6.1519 0.0035
-1 -8 4 5.9018 0.0002
-1 -8 5 -4.3624 -0.0005
-1 -8 6 2.3849 -0.0024
-1 -8 7 -0.7871 0.0036
-1 -8 8 -0.3990 -0.0014
-1 -8 9 1.5093 -0.0011
-1 -8 10 -2.2905 0.0015
-1 -8 11 2.0975 -0.0015
-1 -7 1 1.0445 0.0066
-1 -7 2 2.2430 -0.0057
-1 -7 3 -4.8278 0.0016
-1 -7 4 6.2784 0.0014
-1 -7 5 -6.2853 -0.0008
-1 -7 6 4.9949 -0.0022
-1 -7 7 -3.0916 0.0040
-1 -7 8 1.3732 -0.0019
-1 -7 9 -0.0922 -0.0018
-1 -7 10 -0.9867 0.0029
-1 -7 11 1.7800 -0.0011
-1 -7 12 -1.7772 -0.0007
-1 -7 13 0.9810 0.0014
-1 -6 1 6.8070 0.0104
-1 -6 2 -2.7347 -0.0094
-1 -6 3 -1.3481 0.0024
-1 -6 4 4.5683 0.0029
-1 -6 5 -6.3883 -0.0028
-1 -6 6 6.7964 -0.0000
-1 -6 7 -5.9396 0.0022
-1 -6 8 4.1806 -0.0022
-1 -6 9 -2.2526 0.0001
-1 -6 10 0.6876 0.0015
-1 -6 11 0.5525 -0.0004
-1 -6 12 -1.4425 -0.0022
-1 -6 13 1.5814 0.0035
-1 -6 14 -0.9671 -0.0039
-1 -5 1 12.6731 0.0140
-1 -5 2 -9.3610 -0.0138
-1 -5 3 4.5686 0.0047
-1 -5 4 0.4946 0.0036
-1 -5 5 -4.3231 -0.0038
-1 -5 6 6.4275 0.0002
-1 -5 7 -7.1564 0.0011
-1 -5 8 6.6865 -0.0006
-1 -5 9 -5.1450 0.0006
-1 -5 10 3.1196 -0.0007
-1 -5 11 -1.2113 0.0010
-1 -5 12 -0.3755 -0.0024
-1 -5 13 1.3960 0.0039
-1 -5 14 -1.5006 -0.0039
-1 -5 15 0.8942 0.0040
-1 -4 1 16.1200 0.0192
-1 -4 2 -15.1126 -0.0179
-1 -4 3 11.5999 0.0070
-1 -4 4 -6.2646 0.0042
-1 -4 5 0.7043 -0.0057
-1 -4 6 3.5302 0.0002
-1 -4 7 -6.0645 0.0026
-1 -4 8 7.1931 -0.0002
-1 -4 9 -7.0360 -0.0013
-1 -4 10 5.7414 -0.0004
-1 -4 11 -3.7629 0.0020
-1 -4 12 1.5884 -0.0019
-1 -4 13 0.2892 0.0023
-1 -4 14 -1.2816 -0.0035
-1 -4 15 1.1999 0.0040
-1 -4 16 -0.5950 -0.0042
-1 -3 1 15.4072 0.0255
-1 -3 2 -18.1438 -0.0216
-1 -3 3 17.1948 0.0084
-1 -3 4 -13.4345 0.0040
-1 -3 5 8.0717 -0.0067
-1 -3 6 -2.4722 0.0015
-1 -3 7 -2.3073 0.0027
-1 -3 8 5.6512 -0.0008
-1 -3 9 -7.2377 -0.0027
-1 -3 10 7.1794 0.0021
-1 -3 11 -5.9703 0.0013
-1 -3 12 4.0101 -0.0023
-1 -3 13 -1.6645 0.0009
-1 -3 14 -0.2660 -0.0008
-1 -3 15 1.0070 0.0031
-1 -3 16 -0.7354 -0.0049
-1 -2 1 8.2663 0.0272
-1 -2 2 -16.4424 -0.0234
-1 -2 3 19.9258 0.0084
-1 -2 4 -18.7038 0.0051
-1 -2 5 14.4706 -0.0067
-1 -2 6 -9.0968 0.0009
-1 -2 7 3.5355 0.0023
-1 -2 8 1.6522 -0.0002
-1 -2 9 -5.4523 -0.0030
-1 -2 10 7.0764 0.0033
-1 -2 11 -6.9142 -0.0006
-1 -2 12 5.7684 -0.0021
-1 -2 13 -3.8412 0.0018
-1 -2 14 1.4436 0.0003
-1 -2 15 0.3248 -0.0004
-1 -2 16 -0.7380 -0.0021
-1 -1 1 -4.1499 0.0237
-1 -1 2 -7.7212 -0.0202
-1 -1 3 16.9943 0.0090
-1 -1 4 -20.7172 0.0052
-1 -1 5 18.6721 -0.0083
-1 -1 6 -13.5736 0.0010
-1 -1 7 8.1714 0.0032
-1 -1 8 -3.1674 0.0001
-1 -1 9 -1.4207 -0.0033
-1 -1 10 4.7278 0.0021
-1 -1 11 -6.1352 0.0002
-1 -1 12 6.2176 -0.0010
-1 -1 13 -5.4626 0.0013
-1 -1 14 3.6513 -0.0011
-1 -1 15 -1.2609 -0.0003
-1 -1 16 -0.2992 0.0011
-1 0 1 -16.3553 0.0272
-1 0 2 4.9010 -0.0131
-1 0 3 7.1060 0.0071
-1 0 4 -16.3976 0.0006
-1 0 5 19.6079 -0.0062
-1 0 6 -16.6737 0.0030
-1 0 7 11.2451 0.0020
-1 0 8 -6.5533 0.0001
-1 0 9 2.8299 -0.0040
-1 0 10 0.6154 0.0017
-1 0 11 -3.4106 0.0030
-1 0 12 5.1165 -0.0031
-1 0 13 -5.8781 0.0006
-1 0 14 5.4496 -0.0009
-1 0 15 -3.5282 0.0024
-1 0 16 1.1336 -0.0014
-1 1 1 -25.0018 0.0415
-1 1 2 15.8836 -0.0110
-1 1 3 -4.8760 0.0002
-1 1 4 -6.1474 -0.0011
-1 1 5 14.4493 0.0003
-1 1 6 -17.0338 0.0013
-1 1 7 14.2480 -0.0004
-1 1 8 -9.8190 0.0011
-1 1 9 6.3858 -0.0043
-1 1 10 -3.5025 0.0036
-1 1 11 0.2641 0.0021
-1 1 12 2.8643 -0.0049
-1 1 13 -5.0933 0.0021
-1 1 14 5.9601 -0.0002
-1 1 15 -5.0520 0.0029
-1 1 16 2.7500 -0.0053
-1 2 1 -27.9502 0.0486
-1 2 2 23.0582 -0.0132
-1 2 3 -14.3063 -0.0052
-1 2 4 4.5810 0.0033
-1 2 5 4.8028 0.0020
-1 2 6 -11.8699 -0.0013
-1 2 7 14.3598 -0.0013
-1 2 8 -12.7698 0.0022
-1 2 9 9.9112 -0.0030
-1 2 10 -7.2272 0.0033
-1 2 11 4.0590 -0.0007
-1 2 12 -0.1969 -0.0024
-1 2 13 -3.2357 0.0016
-1 2 14 5.1408 0.0008
-1 2 15 -5.0991 0.0005
-1 2 16 3.3536 -0.0047
-1 3 1 -23.1977 0.0416
-1 3 2 24.4459 -0.0087
-1 3 3 -19.8998 -0.0093
-1 3 4 12.4759 0.0072
-1 3 5 -4.4343 0.0003
-1 3 6 -3.3595 -0.0011
-1 3 7 9.3929 -0.0027
-1 3 8 -12.0096 0.0037
-1 3 9 11.6253 -0.0015
-1 3 10 -9.9277 -0.0000
-1 3 11 7.4488 0.0005
-1 3 12 -3.9065 -0.0013
-1 3 13 0.0215 0.0011
-1 3 14 2.7615 0.0015
-1 3 15 -3.6698 -0.0033
-1 4 1 -13.9004 0.0376
-1 4 2 19.3134 -0.0034
-1 4 3 -20.2186 -0.0141
-1 4 4 16.7010 0.0097
-1 4 5 -10.9030 0.0005
-1 4 6 4.3575 -0.0025
-1 4 7 2.1629 -0.0024
-1 4 8 -7.2981 0.0050
-1 4 9 9.8876 -0.0019
-1 4 10 -10.2870 -0.0021
-1 4 11 9.3333 0.0026
-1 4 12 -7.1011 -0.0021
-1 4 13 3.8247 0.0034
-1 4 14 -0.7333 -0.0036
-1 4 15 -1.0280 -0.0000
-1 5 1 -5.0623 0.0390
-1 5 2 11.3275 -0.0064
-1 5 3 -15.6916 -0.0128
-1 5 4 16.4773 0.0098
-1 5 5 -13.9173 0.0010
-1 5 6 9.4642 -0.0047
-1 5 7 -4.0888 0.0006
-1 5 8 -1.4504 0.0035
-1 5 9 5.9131 -0.0024
-1 5 10 -8.4752 -0.0014
-1 5 11 9.3108 0.0018
-1 5 12 -8.6373 0.0010
-1 5 13 6.4519 0.0000
-1 5 14 -3.5285 -0.0063
-1 6 1 1.7325 0.0340
-1 6 2 3.9698 -0.0070
-1 6 3 -9.2683 -0.0096
-1 6 4 12.7276 0.0067
-1 6 5 -13.3888 0.0024
-1 6 6 11.6328 -0.0044
-1 6 7 -8.2713 0.0004
-1 6 8 3.7593 0.0027
-1 6 9 1.1377 -0.0023
-1 6 10 -5.1447 -0.0004
-1 6 11 7.4807 0.0008
-1 6 12 -8.1009 0.0045
-1 6 13 7.0279 -0.0093
-1 6 14 -4.6006 0.0044
-1 7 1 6.1990 0.0261
-1 7 2 -1.8030 -0.0021
-1 7 3 -3.0341 -0.0130
-1 7 4 7.3906 0.0087
-1 7 5 -10.2752 0.0025
-1 7 6 11.1978 -0.0040
-1 7 7 -10.2697 -0.0024
-1 7 8 7.6199 0.0059
-1 7 9 -3.5515 -0.0036
-1 7 10 -0.7974 -0.0004
-1 7 11 3.9836 0.0026
-1 7 12 -5.4104 0.0012
-1 7 13 5.2583 -0.0108
-1 8 1 8.1993 0.0191
-1 8 2 -5.7337 -0.0011
-1 8 3 2.0938 -0.0131
-1 8 4 1.9476 0.0122
-1 8 5 -5.7296 -0.0018
-1 8 6 8.5938 -0.0026
-1 8 7 -9.9471 -0.0031
-1 8 8 9.3537 0.0077
-1 8 9 -6.7593 -0.0048
-1 8 10 3.0090 -0.0015
-1 8 11 0.2839 0.0063
-1 8 12 -1.9821 -0.0068
-1 9 1 7.7915 0.0119
-1 9 2 -7.5258 0.0007
-1 9 3 5.4817 -0.0083
-1 9 4 -2.3510 0.0077
-1 9 5 -1.1367 -0.0020
-1 9 6 4.5098 -0.0008
-1 9 7 -7.1527 -0.0027
-1 9 8 8.2179 0.0062
-1 9 9 -7.1888 -0.0029
-1 9 10 4.5354 -0.0042
-1 9 11 -1.6914 0.0095
-1 10 1 5.1568 0.0107
-1 10 2 -6.5322 0.0040
-1 10 3 6.3289 -0.0113
-1 10 4 -4.4721 0.0074
-1 10 5 1.8566 0.0001
-1 10 6 0.7786 -0.0025
-1 10 7 -3.1249 -0.0011
-1 10 8 4.7018 0.0041
-1 10 9 -4.8513 -0.0011
-1 10 10 3.5148 -0.0058
-1 11 1 1.9981 0.0129
-1 11 3 4.3583 -0.0144
-1 11 4 -3.9404 0.0174
-1 11 5 2.4033 -0.0090
-1 11 6 -0.7730 0.0007
-1 11 7 -0.4333 0.0008
-1 11 8 1.2677 0.0012
0 -12 2 1.5641 -0.0038
0 -12 3 -0.7943 0.0154
0 -11 1 -2.6340 -0.0129
0 -11 2 2.9741 0.0046
0 -11 3 -2.5882 0.0057
0 -11 4 1.5961 -0.0141
0 -11 5 -0.8239 0.0099
0 -10 1 -2.2021 -0.0198
0 -10 2 3.2885 0.0081
0 -10 3 -3.7504 -0.0022
0 -10 4 3.4603 -0.0031
0 -10 5 -2.7538 0.0066
0 -10 6 2.0511 -0.0020
0 -10 7 -1.2184 -0.0067
0 -9 1 0.0495 -0.0268
0 -9 2 2.1113 0.0085
0 -9 3 -3.5682 0.0002
0 -9 4 4.1885 0.0003
0 -9 5 -4.1053 -0.0006
0 -9 6 3.6797 -0.0008
0 -9 7 -2.9111 -0.0001
0 -9 8 1.4882 0.0015
0 -8 1 3.7427 -0.0325
0 -8 2 -0.8220 0.0102
0 -8 3 -1.8057 0.0047
0 -8 4 3.6585 -0.0052
0 -8 5 -4.5095 -0.0008
0 -8 6 4.5182 0.0031
0 -8 7 -4.0475 -0.0012
0 -8 8 3.1417 -0.0008
0 -8 9 -1.6592 0.0027
0 -8 10 0.0971 -0.0050
0 -7 1 8.0308 -0.0364
0 -7 2 -5.1990 0.0120
0 -7 3 1.8203 0.0055
0 -7 4 1.3185 -0.0089
0 -7 5 -3.6938 0.0024
0 -7 6 4.9571 0.0033
0 -7 7 -5.0318 -0.0030
0 -7 8 4.3225 0.0006
0 -7 9 -3.3058 0.0007
0 -7 10 2.1230 -0.0023
0 -7 11 -0.9812 0.0038
0 -6 1 11.9713 -0.0395
0 -6 2 -10.3181 0.0113
0 -6 3 6.8700 0.0055
0 -6 4 -2.7808 -0.0084
0 -6 5 -0.9065 0.0029
0 -6 6 3.8026 0.0028
0 -6 7 -5.5357 -0.0028
0 -6 8 5.7676 -0.0005
0 -6 9 -4.9115 0.0013
0 -6 10 3.7993 0.0005
0 -6 11 -2.7497 -0.0011
0 -6 12 1.7164 0.0008
0 -6 13 -0.8975 -0.0020
0 -5 1 13.4716 -0.0438
0 -5 2 -14.5646 0.0095
0 -5 3 12.7171 0.0077
0 -5 4 -8.4133 -0.0074
0 -5 5 3.5273 0.0014
0 -5 6 0.6041 0.0027
0 -5 7 -3.7949 -0.0024
0 -5 8 5.8512 -0.0015
0 -5 9 -6.3887 0.0045
0 -5 10 5.6908 -0.0023
0 -5 11 -4.5138 -0.0022
0 -5 12 3.2265 0.0046
0 -5 13 -1.9066 -0.0053
0 -5 14 0.8270 0.0061
0 -4 1 10.9817 -0.0470
0 -4 2 -15.4612 0.0094
0 -4 3 17.0448 0.0099
0 -4 4 -14.9499 -0.0072
0 -4 5 10.0057 -0.0006
0 -4 6 -4.4558 0.0027
0 -4 7 -0.1491 -0.0009
0 -4 8 3.5807 -0.0014
0 -4 9 -5.8476 0.0037
0 -4 10 6.7660 -0.0040
0 -4 11 -6.4002 0.0009
0 -4 12 5.1201 0.0033
0 -4 13 -3.3828 -0.0054
0 -4 14 1.7128 0.0055
0 -4 15 -0.5534 -0.0047
0 -4 16 0.0073 0.0027
0 -3 1 4.0912 -0.0468
0 -3 2 -12.4254 0.0094
0 -3 3 17.4676 0.0099
0 -3 4 -19.0035 -0.0064
0 -3 5 16.8093 -0.0026
0 -3 6 -11.6565 0.0038
0 -3 7 5.5001 0.0005
0 -3 8 -0.1836 -0.0026
0 -3 9 -3.5476 0.0015
0 -3 10 5.8320 -0.0005
0 -3 11 -6.9145 0.0002
0 -3 12 6.7241 0.0009
0 -3 13 -5.2669 -0.0028
0 -3 14 3.1885 0.0034
0 -3 15 -1.4312 -0.0021
0 -3 16 0.4036 0.0002
0 -2 1 -8.0246 -0.0472
0 -2 2 -4.7332 0.0088
0 -2 3 13.9010 0.0097
0 -2 4 -18.5851 -0.0044
0 -2 5 19.5535 -0.0049
0 -2 6 -17.3091 0.0046
0 -2 7 12.2367 0.0010
0 -2 8 -5.7641 -0.0037
0 -2 9 0.1042 0.0018
0 -2 10 3.4936 0.0015
0 -2 11 -5.4817 -0.0029
0 -2 12 6.5788 0.0021
0 -2 13 -6.5297 -0.0014
0 -2 14 5.0348 0.0022
0 -2 15 -2.9060 -0.0025
0 -2 16 1.2722 0.0007
0 -2 17 -0.3833 0.0011
0 -1 1 -22.2706 -0.0428
0 -1 2 8.5759 0.0103
0 -1 3 4.9626 0.0101
0 -1 4 -14.0467 -0.0043
0 -1 5 17.8116 -0.0070
0 -1 6 -17.9164 0.0054
0 -1 7 15.6131 0.0025
0 -1 8 -11.0887 -0.0049
0 -1 9 5.3122 0.0023
0 -1 10 -0.4068 -0.0000
0 -1 11 -2.5616 -0.0014
0 -1 12 4.4574 0.0024
0 -1 13 -5.9482 -0.0023
0 -1 14 6.2436 0.0020
0 -1 15 -4.8159 -0.0033
0 -1 16 2.6856 0.0040
0 -1 17 -1.0937 -0.0023
0 0 2 22.4796 0.0080
0 0 3 -9.0591 0.0072
0 0 4 -4.0850 -0.0059
0 0 5 12.5677 -0.0060
0 0 6 -15.4389 0.0068
0 0 7 14.9285 0.0030
0 0 8 -12.9234 -0.0070
0 0 9 9.5761 0.0026
0 0 10 -5.3026 -0.0001
0 0 11 1.5305 0.0016
0 0 12 1.2042 -0.0012
0 0 13 -3.6278 -0.0014
0 0 14 5.6273 0.0023
0 0 15 -5.9169 -0.0021
0 0 16 4.2456 0.0033
0 1 0 31.3095 -0.0517
0 1 1 -33.6617 0.0302
0 1 2 29.9338 -0.0078
0 1 3 -21.2374 0.0032
0 1 4 9.1667 -0.0035
0 1 5 2.7379 -0.0029
0 1 6 -10.4105 0.0065
0 1 7 12.8948 0.0005
0 1 8 -12.5250 -0.0069
0 1 9 11.2413 0.0037
0 1 10 -8.9727 0.0012
0 1 11 5.6575 0.0002
0 1 12 -2.1979 -0.0027
0 1 13 -0.9015 0.0003
0 1 14 3.6195 0.0027
0 1 15 -5.1590 -0.0018
0 1 16 4.6001 -0.0000
0 2 0 20.5125 -0.0724
0 2 1 -28.1988 0.0605
0 2 2 29.5155 -0.0271
0 2 3 -25.8421 0.0037
0 2 4 18.5587 0.0014
0 2 5 -8.5929 -0.0021
0 2 6 -1.5069 0.0044
0 2 7 8.3193 -0.0023
0 2 8 -10.9613 -0.0033
0 2 9 11.2892 0.0039
0 2 10 -10.6087 0.0006
0 2 11 8.5923 -0.0021
0 2 12 -5.2605 -0.0000
0 2 13 1.6429 -0.0007
0 2 14 1.4071 0.0042
0 2 15 -3.3494 -0.0047
0 2 16 3.5487 0.0010
0 3 0 6.6287 -0.0729
0 3 1 -16.7363 0.0647
0 3 2 22.6870 -0.0318
0 3 3 -23.5733 0.0038
0 3 4 20.8742 0.0040
0 3 5 -15.5271 -0.0013
0 3 6 7.8133 0.0012
0 3 7 0.4030 -0.0029
0 3 8 -6.3645 0.0007
0 3 9 9.3036 0.0028
0 3 10 -10.3079 -0.0023
0 3 11 9.8555 -0.0003
0 3 12 -7.6693 0.0012
0 3 13 4.3232 -0.0017
0 3 14 -1.0999 0.0042
0 3 15 -1.1587 -0.0068
0 3 16 2.0323 0.0061
0 4 0 -4.2736 -0.0730
0 4 1 -4.0697 0.0632
0 4 2 12.0012 -0.0279
0 4 3 -16.9398 -0.0010
0 4 4 18.2424 0.0065
0 4 5 -16.8228 0.0010
0 4 6 13.0059 -0.0040
0 4 7 -6.9598 -0.0002
0 4 8 0.3433 0.0029
0 4 9 4.7651 0.0006
0 4 10 -7.8428 -0.0048
0 4 11 9.2418 0.0043
0 4 12 -8.7950 -0.0009
0 4 13 6.5608 -0.0009
0 4 14 -3.6689 0.0010
0 4 15 1.2874 -0.0022
0 5 0 -10.1827 -0.0705
0 5 1 5.0135 0.0634
0 5 2 1.7669 -0.0281
0 5 3 -8.4740 -0.0030
0 5 4 12.9643 0.0091
0 5 5 -14.6016 0.0012
0 5 6 13.8035 -0.0079
0 5 7 -10.7115 0.0040
0 5 8 5.7878 0.0025
0 5 9 -0.5071 -0.0026
0 5 10 -3.8320 -0.0029
0 5 11 6.8731 0.0062
0 5 12 -8.2479 -0.0033
0 5 13 7.4576 -0.0007
0 5 14 -5.1197 -0.0002
0 6 0 -11.5805 -0.0618
0 6 1 9.3158 0.0573
0 6 2 -5.0212 -0.0271
0 6 3 -0.8632 -0.0022
0 6 4 6.5619 0.0089
0 6 5 -10.3484 0.0007
0 6 6 11.8369 -0.0078
0 6 7 -11.2527 0.0051
0 6 8 8.7038 0.0016
0 6 9 -4.7734 -0.0045
0 6 10 0.5710 0.0017
0 6 11 3.1377 0.0025
0 6 12 -5.8160 -0.0022
0 6 13 6.5836 -0.0020
0 6 14 -5.1462 0.0027
0 7 0 -9.6229 -0.0530
0 7 1 9.6664 0.0479
0 7 2 -7.9207 -0.0223
0 7 3 4.2806 -0.0033
0 7 4 0.4961 0.0093
0 7 5 -4.9438 0.0004
0 7 6 8.0650 -0.0074
0 7 7 -9.6236 0.0042
0 7 8 9.4374 0.0020
0 7 9 -7.4376 -0.0045
0 7 10 4.2686 0.0033
0 7 11 -0.9020 -0.0008
0 7 12 -2.0088 0.0002
0 7 13 3.7968 -0.0030
0 8 0 -6.3109 -0.0461
0 8 1 7.8956 0.0407
0 8 2 -8.0837 -0.0197
0 8 3 6.7238 -0.0013
0 8 4 -3.9945 0.0078
0 8 5 0.4616 -0.0004
0 8 6 3.1712 -0.0065
0 8 7 -6.2675 0.0043
0 8 8 8.0858 0.0013
0 8 9 -7.9486 -0.0030
0 8 10 6.0094 0.0013
0 8 11 -3.3476 0.0003
0 8 12 0.9802 -0.0009
0 9 0 -2.6653 -0.0399
0 9 1 5.1743 0.0352
0 9 2 -6.7880 -0.0176
0 9 3 7.0794 0.0022
0 9 4 -6.1869 0.0017
0 9 5 4.3377 0.0025
0 9 6 -1.5650 -0.0053
0 9 7 -1.8452 0.0026
0 9 8 4.8675 0.0010
0 9 9 -6.1765 -0.0004
0 9 10 5.3334 -0.0022
0 9 11 -3.3034 0.0030
0 10 0 0.5320 -0.0323
0 10 1 1.7741 0.0315
0 10 2 -4.1482 -0.0155
0 10 3 5.6169 0.0001
0 10 4 -5.8732 0.0016
0 10 5 5.3227 0.0049
0 10 6 -4.0777 -0.0066
0 10 7 1.8453 0.0007
0 10 8 0.9893 0.0039
0 10 9 -3.0378 -0.0012
0 10 10 3.2021 -0.0042
0 11 0 1.9594 -0.0219
0 11 1 -0.8386 0.0260
0 11 2 -0.9537 -0.0165
0 11 3 2.7526 -0.0004
0 11 4 -3.6066 0.0080
0 11 5 3.5488 -0.0020
0 11 6 -3.2115 -0.0047
0 11 7 2.5911 0.0019
0 11 8 -1.2959 0.0047
0 12 3 0.2987 0.0047
0 12 4 -1.1369 0.0068
0 12 5 1.1678 -0.0085
0 12 6 -0.8233 0.0021
1 -11 0 -0.8920 0.0127
1 -11 1 -0.1855 -0.0049
1 -11 2 1.4196 -0.0005
1 -11 3 -2.1705 0.0029
1 -11 4 2.0230 -0.0042
1 -10 0 -3.2688 0.0194
1 -10 1 1.5712 -0.0154
1 -10 2 0.0765 0.0063
1 -10 3 -1.6784 -0.0008
1 -10 4 2.7606 -0.0016
1 -10 5 -3.1508 0.0019
1 -10 6 3.0409 0.0043
1 -9 0 -6.4469 0.0214
1 -9 1 4.4125 -0.0204
1 -9 2 -2.3178 0.0105
1 -9 3 0.2252 -0.0017
1 -9 4 1.7181 -0.0008
1 -9 5 -3.1989 0.0004
1 -9 6 4.1217 -0.0001
1 -9 7 -4.3028 -0.0023
1 -9 8 3.2999 0.0064
1 -8 0 -8.8369 0.0283
1 -8 1 7.7366 -0.0246
1 -8 2 -5.6570 0.0122
1 -8 3 3.1906 -0.0002
1 -8 4 -0.5747 -0.0036
1 -8 5 -1.8106 0.0005
1 -8 6 3.5418 0.0019
1 -8 7 -4.5456 -0.0007
1 -8 8 4.7238 -0.0019
1 -8 9 -3.7370 0.0031
1 -8 10 1.8740 -0.0020
1 -7 0 -9.2876 0.0381
1 -7 1 10.3197 -0.0315
1 -7 2 -9.3276 0.0148
1 -7 3 7.0948 -0.0001
1 -7 4 -4.2189 -0.0054
1 -7 5 0.9830 0.0020
1 -7 6 1.9564 0.0030
1 -7 7 -3.8355 -0.0039
1 -7 8 4.6297 0.0011
1 -7 9 -4.7102 0.0024
1 -7 10 4.0495 -0.0045
1 -7 11 -2.6538 0.0032
1 -6 0 -6.9125 0.0474
1 -6 1 10.6723 -0.0375
1 -6 2 -12.0081 0.0163
1 -6 3 10.8994 -0.0001
1 -6 4 -8.3681 -0.0050
1 -6 5 5.1298 0.0017
1 -6 6 -1.4146 0.0034
1 -6 7 -1.9879 -0.0046
1 -6 8 4.0300 0.0028
1 -6 9 -4.7000 -0.0015
1 -6 10 4.7398 0.0009
1 -6 11 -4.3405 0.0004
1 -6 12 3.2482 -0.0001
1 -5 0 -1.4012 0.0565
1 -5 1 7.3654 -0.0441
1 -5 2 -11.8613 0.0167
1 -5 3 13.4630 0.0024
1 -5 4 -12.0752 -0.0058
1 -5 5 9.1272 0.0010
1 -5 6 -5.6630 0.0036
1 -5 7 1.8628 -0.0040
1 -5 8 1.6688 0.0012
1 -5 9 -3.9251 -0.0001
1 -5 10 4.7859 0.0021
1 -5 11 -4.9077 -0.0032
1 -5 12 4.5169 0.0015
1 -5 13 -3.4097 -0.0008
1 -4 0 6.4245 0.0605
1 -4 1 1.0095 -0.0510
1 -4 2 -7.7913 0.0202
1 -4 3 12.9179 0.0036
1 -4 4 -14.6980 -0.0077
1 -4 5 12.9828 0.0014
1 -4 6 -9.5524 0.0031
1 -4 7 5.8908 -0.0025
1 -4 8 -2.2420 -0.0003
1 -4 9 -1.1858 0.0018
1 -4 10 3.7128 -0.0003
1 -4 11 -4.9829 -0.0022
1 -4 12 5.1924 0.0017
1 -4 13 -4.5594 0.0014
1 -4 14 3.2449 -0.0030
1 -3 0 16.2934 0.0634
1 -3 1 -7.1869 -0.0545
1 -3 2 -1.2810 0.0239
1 -3 3 8.4969 0.0015
1 -3 4 -13.7998 -0.0072
1 -3 5 15.6436 0.0010
1 -3 6 -13.7268 0.0032
1 -3 7 9.8109 -0.0016
1 -3 8 -5.7792 -0.0015
1 -3 9 2.1853 0.0020
1 -3 10 1.0740 -0.0001
1 -3 11 -3.7478 -0.0014
1 -3 12 5.2787 0.0006
1 -3 13 -5.4009 0.0022
1 -3 14 4.4136 -0.0056
1 -3 15 -2.9143 0.0080
1 -2 0 25.8485 0.0715
1 -2 1 -17.4785 -0.0595
1 -2 2 7.1889 0.0250
1 -2 3 1.6802 0.0015
1 -2 4 -8.6865 -0.0064
1 -2 5 13.7583 0.0001
1 -2 6 -15.6703 0.0037
1 -2 7 13.8037 -0.0019
1 -2 8 -9.5973 -0.0009
1 -2 9 5.2641 0.0013
1 -2 10 -1.8020 0.0008
1 -2 11 -1.1152 -0.0024
1 -2 12 3.7008 0.0009
1 -2 13 -5.3192 0.0021
1 -2 14 5.3650 -0.0040
1 -2 15 -4.1815 0.0057
1 -2 16 2.6227 -0.0086
1 -2 17 -1.2343 0.0091
1 -1 0 29.3921 0.0700
1 -1 1 -26.6096 -0.0647
1 -1 2 17.9323 0.0286
1 -1 3 -7.6777 0.0030
1 -1 4 -0.9694 -0.0085
1 -1 5 7.6109 0.0005
1 -1 6 -12.4180 0.0026
1 -1 7 14.4372 -0.0001
1 -1 8 -12.8919 -0.0008
1 -1 9 8.9448 -0.0006
1 -1 10 -4.9248 0.0016
1 -1 11 1.9683 -0.0020
1 -1 12 0.5565 0.0010
1 -1 13 -3.1664 0.0016
1 -1 14 5.0286 -0.0030
1 -1 15 -5.1831 0.0017
1 -1 16 3.9231 -0.0014
1 -1 17 -2.2605 0.0040
1 0 0 25.0441 0.0490
1 0 1 -28.7805 -0.0552
1 0 2 26.1764 0.0317
1 0 3 -18.4707 -0.0005
1 0 4 8.9937 -0.0094
1 0 5 -0.5467 0.0015
1 0 6 -5.9880 0.0021
1 0 7 10.5673 0.0029
1 0 8 -12.6133 -0.0044
1 0 9 11.5868 -0.0005
1 0 10 -8.4650 0.0034
1 0 11 5.2616 -0.0017
1 0 12 -2.8090 -0.0003
1 0 13 0.3125 0.0016
1 0 14 2.5423 -0.0027
1 0 15 -4.5361 0.0018
1 0 16 4.5745 0.0012
1 0 17 -3.1108 -0.0023
1 1 0 15.2519 0.0282
1 1 1 -23.1799 -0.0332
1 1 2 26.4921 0.0256
1 1 3 -24.6466 -0.0062
1 1 4 18.3737 -0.0054
1 1 5 -9.8170 0.0014
1 1 6 1.5854 0.0031
1 1 7 4.7673 0.0020
1 1 8 -8.9883 -0.0066
1 1 9 10.9667 0.0021
1 1 10 -10.4703 0.0038
1 1 11 8.1968 -0.0029
1 1 12 -5.5936 -0.0006
1 1 13 3.1982 0.0015
1 1 14 -0.5397 -0.0016
1 1 15 -2.1131 0.0025
1 1 16 3.4718 -0.0019
1 1 17 -2.9701 -0.0007
1 2 0 2.4373 0.0221
1 2 1 -12.4547 -0.0182
1 2 2 19.3941 0.0155
1 2 3 -22.4640 -0.0083
1 2 4 21.5735 0.0006
1 2 5 -16.8402 0.0000
1 2 6 9.5256 0.0024
1 2 7 -2.0818 0.0004
1 2 8 -3.6823 -0.0049
1 2 9 7.5023 0.0025
1 2 10 -9.4443 0.0036
1 2 11 9.2972 -0.0042
1 2 12 -7.4899 0.0002
1 2 13 5.0848 0.0014
1 2 14 -2.6228 -0.0004
1 2 15 0.2163 0.0012
1 2 16 1.4785 -0.0035
1 3 0 -8.8544 0.0203
1 3 1 -0.0064 -0.0141
1 3 2 8.4101 0.0111
1 3 3 -14.3792 -0.0083
1 3 4 17.5380 0.0039
1 3 5 -17.7261 -0.0011
1 3 6 14.5437 0.0004
1 3 7 -8.8057 0.0018
1 3 8 2.6661 -0.0045
1 3 9 2.3135 0.0025
1 3 10 -5.8508 0.0034
1 3 11 7.7601 -0.0056
1 3 12 -7.7232 0.0022
1 3 13 6.1646 0.0009
1 3 14 -4.0055 -0.0007
1 3 15 1.8099 0.0005
1 3 16 -0.0367 -0.0021
1 4 0 -14.2691 0.0137
1 4 1 9.3485 -0.0100
1 4 2 -2.3626 0.0101
1 4 3 -4.5778 -0.0093
1 4 4 9.9838 0.0052
1 4 5 -13.4122 -0.0011
1 4 6 14.3162 -0.0008
1 4 7 -12.2062 0.0025
1 4 8 7.9115 -0.0047
1 4 9 -3.1304 0.0040
1 4 10 -1.0922 0.0005
1 4 11 4.3232 -0.0044
1 4 12 -5.9724 0.0040
1 4 13 5.8049 -0.0014
1 4 14 -4.4953 -0.0002
1 4 15 2.8337 0.0014
1 5 0 -14.0841 0.0076
1 5 1 13.1173 -0.0049
1 5 2 -9.3668 0.0081
1 5 3 3.6301 -0.0098
1 5 4 2.3654 0.0057
1 5 5 -7.3285 -0.0005
1 5 6 10.5621 -0.0011
1 5 7 -11.4352 0.0008
1 5 8 9.8787 -0.0018
1 5 9 -6.8059 0.0028
1 5 10 3.2264 -0.0015
1 5 11 0.3047 -0.0010
1 5 12 -3.0386 0.0025
1 5 13 4.1024 -0.0027
1 5 14 -3.6053 0.0022
1 6 0 -10.1870 0.0056
1 6 1 12.1507 -0.0036
1 6 2 -11.7016 0.0078
1 6 3 8.4941 -0.0106
1 6 4 -3.5720 0.0060
1 6 5 -1.4900 0.0004
1 6 6 5.6491 -0.0015
1 6 7 -8.2894 -0.0011
1 6 8 9.0340 0.0017
1 6 9 -8.1019 0.0000
1 6 10 6.0829 -0.0007
1 6 11 -3.3245 -0.0001
1 6 12 0.3153 0.0006
1 6 13 1.7906 -0.0009
1 6 14 -2.1611 0.0016
1 7 0 -4.6843 0.0042
1 7 1 8.1009 -0.0037
1 7 2 -10.1570 0.0080
1 7 3 9.7908 -0.0112
1 7 4 -7.1094 0.0066
1 7 5 3.2806 0.0015
1 7 6 0.6175 -0.0035
1 7 7 -4.0195 -0.0008
1 7 8 6.4357 0.0034
1 7 9 -7.4597 -0.0011
1 7 10 7.1023 -0.0014
1 7 11 -5.5757 0.0008
1 7 12 3.1516 0.0003
1 7 13 -0.6476 0.0002
1 8 0 -0.0388 0.0022
1 8 1 3.2775 -0.0025
1 8 2 -6.2948 0.0060
1 8 3 8.0894 -0.0085
1 8 4 -8.0383 0.0051
1 8 5 6.3803 0.0021
1 8 6 -3.7374 -0.0053
1 8 7 0.5717 0.0019
1 8 8 2.6024 0.0022
1 8 9 -4.9887 -0.0013
1 8 10 5.9618 -0.0020
1 8 11 -5.4904 0.0025
1 8 12 3.9574 -0.0008
1 9 0 3.0410 0.0021
1 9 1 -0.6696 -0.0011
1 9 2 -2.0291 0.0046
1 9 3 4.5981 -0.0060
1 9 4 -6.4865 0.0020
1 9 5 7.2181 0.0034
1 9 6 -6.4798 -0.0051
1 9 7 4.2819 0.0028
1 9 8 -1.2111 -0.0004
1 9 9 -1.6312 0.0005
1 9 10 3.2490 -0.0015
1 9 11 -3.3917 0.0008
1 10 0 4.5640 0.0056
1 10 1 -3.3468 -0.0007
1 10 2 1.4880 0.0034
1 10 3 0.7420 -0.0069
1 10 4 -3.1170 0.0032
1 10 5 5.2979 0.0035
1 10 6 -6.4951 -0.0045
1 10 7 5.8766 0.0009
1 10 8 -3.5665 0.0003
1 10 9 0.8518 0.0023
1 11 0 4.1415 0.0090
1 11 1 -4.0816 -0.0028
1 11 2 3.2803 0.0014
1 11 3 -1.9022 -0.0058
1 11 4 0.2335 0.0059
1 11 5 1.6718 0.0007
1 11 6 -3.5354 -0.0046
1 11 7 4.4272 0.0010
1 11 8 -3.6175 0.0024
1 12 0 2.3177 0.0074
1 12 1 -2.7536 -0.0055
1 12 2 2.7540 0.0019
1 12 3 -2.2159 -0.0026
1 12 4 1.4489 0.0041
1 12 5 -0.6887 -0.0003
2 -11 0 -2.7794 -0.0042
2 -11 1 1.8219 0.0146
2 -11 2 -0.2706 -0.0139
2 -11 3 -0.9479 0.0008
2 -10 0 -5.2337 -0.0079
2 -10 1 4.4184 0.0087
2 -10 2 -2.7969 -0.0108
2 -10 3 0.7156 0.0062
2 -10 4 0.8686 0.0033
2 -10 5 -1.5373 -0.0087
2 -9 0 -6.6841 -0.0178
2 -9 1 6.4640 0.0126
2 -9 2 -5.4146 -0.0074
2 -9 3 3.4981 0.0046
2 -9 4 -1.2209 -0.0014
2 -9 5 -0.6015 -0.0016
2 -9 6 1.8086 0.0020
2 -9 7 -2.5890 -0.0014
2 -8 0 -6.2412 -0.0165
2 -8 1 7.3323 0.0162
2 -8 2 -7.3272 -0.0097
2 -8 3 6.2621 0.0034
2 -8 4 -4.1140 -0.0009
2 -8 5 1.5923 0.0011
2 -8 6 0.4308 -0.0026
2 -8 7 -1.9345 0.0047
2 -8 8 3.1095 -0.0059
2 -8 9 -3.3735 0.0044
2 -7 0 -3.6825 -0.0101
2 -7 1 6.7277 0.0117
2 -7 2 -8.2283 -0.0096
2 -7 3 8.4540 0.0042
2 -7 4 -7.2897 -0.0000
2 -7 5 4.7288 -0.0004
2 -7 6 -1.7768 -0.0018
2 -7 7 -0.4426 0.0043
2 -7 8 1.9857 -0.0055
2 -7 9 -3.2928 0.0053
2 -7 10 3.8459 -0.0031
2 -7 11 -2.9684 -0.0024
2 -6 0 1.2465 -0.0090
2 -6 1 3.8288 0.0095
2 -6 2 -7.4228 -0.0085
2 -6 3 9.1828 0.0045
2 -6 4 -9.4316 0.0001
2 -6 5 8.1018 -0.0022
2 -6 6 -5.2365 0.0009
2 -6 7 1.9808 0.0018
2 -6 8 0.3800 -0.0028
2 -6 9 -1.8982 0.0011
2 -6 10 3.1952 0.0007
2 -6 11 -3.8970 -0.0012
2 -6 12 3.2153 0.0033
2 -5 0 7.5730 -0.0097
2 -5 1 -1.9546 0.0111
2 -5 2 -3.6757 -0.0116
2 -5 3 7.6876 0.0076
2 -5 4 -9.5195 -0.0013
2 -5 5 9.6641 -0.0026
2 -5 6 -8.3639 0.0025
2 -5 7 5.6851 0.0001
2 -5 8 -2.5355 -0.0022
2 -5 9 0.0917 0.0008
2 -5 10 1.5339 0.0027
2 -5 11 -2.8228 -0.0029
2 -5 12 3.5136 -0.0006
2 -5 13 -2.9607 0.0025
2 -4 0 13.1872 -0.0137
2 -4 1 -8.6051 0.0119
2 -4 2 2.8418 -0.0129
2 -4 3 3.1565 0.0107
2 -4 4 -7.4977 -0.0040
2 -4 5 9.3205 -0.0016
2 -4 6 -9.3544 0.0025
2 -4 7 8.2822 -0.0003
2 -4 8 -6.1339 -0.0022
2 -4 9 3.3138 0.0023
2 -4 10 -0.7278 0.0004
2 -4 11 -1.1823 -0.0024
2 -4 12 2.4868 -0.0001
2 -4 13 -3.0221 0.0052
2 -4 14 2.5020 -0.0078
2 -3 0 17.4821 -0.0202
2 -3 1 -13.8993 0.0148
2 -3 2 9.2912 -0.0125
2 -3 3 -3.5622 0.0099
2 -3 4 -2.6208 -0.0042
2 -3 5 7.1595 -0.0014
2 -3 6 -8.9678 0.0026
2 -3 7 8.9295 -0.0004
2 -3 8 -8.0346 -0.0017
2 -3 9 6.2870 0.0020
2 -3 10 -3.6870 -0.0007
2 -3 11 0.9202 -0.0006
2 -3 12 1.2324 -0.0001
2 -3 13 -2.4242 0.0024
2 -3 14 2.6281 -0.0045
2 -2 0 18.6884 -0.0207
2 -2 1 -17.6097 0.0166
2 -2 2 14.1241 -0.0144
2 -2 3 -9.8022 0.0107
2 -2 4 4.2843 -0.0038
2 -2 5 1.8486 -0.0020
2 -2 6 -6.4627 0.0033
2 -2 7 8.3868 -0.0014
2 -2 8 -8.3976 -0.0003
2 -2 9 7.5267 0.0005
2 -2 10 -5.9102 0.0003
2 -2 11 3.4725 -0.0005
2 -2 12 -0.7266 -0.0008
2 -2 13 -1.4311 0.0020
2 -2 14 2.4101 -0.0008
2 -2 15 -2.2826 -0.0008
2 -1 0 13.5406 -0.0168
2 -1 1 -17.5661 0.0124
2 -1 2 17.1126 -0.0140
2 -1 3 -14.4797 0.0137
2 -1 4 10.6679 -0.0065
2 -1 5 -5.3516 -0.0011
2 -1 6 -0.6551 0.0027
2 -1 7 5.3253 -0.0011
2 -1 8 -7.5113 0.0010
2 -1 9 7.6800 -0.0017
2 -1 10 -6.7917 0.0014
2 -1 11 5.3026 -0.0003
2 -1 12 -3.2265 -0.0011
2 -1 13 0.7831 0.0025
2 -1 14 1.2692 -0.0017
2 -1 15 -2.1774 -0.0019
2 -1 16 1.9350 0.0037
2 0 0 3.5107 -0.0106
2 0 1 -11.4875 0.0055
2 0 2 15.8179 -0.0089
2 0 3 -16.6130 0.0137
2 0 4 15.0474 -0.0094
2 0 5 -11.4778 0.0002
2 0 6 6.1372 0.0029
2 0 7 -0.3141 -0.0002
2 0 8 -4.2419 -0.0002
2 0 9 6.5582 -0.0025
2 0 10 -6.8380 0.0030
2 0 11 6.0134 -0.0001
2 0 12 -4.8285 -0.0022
2 0 13 3.2735 0.0024
2 0 14 -1.2133 -0.0014
2 0 15 -0.7400 -0.0003
2 0 16 1.6714 0.0021
2 0 17 -1.4367 -0.0013
2 1 0 -7.2621 0.0015
2 1 1 -1.4792 -0.0029
2 1 2 9.0773 -0.0022
2 1 3 -13.9381 0.0100
2 1 4 15.8445 -0.0100
2 1 5 -14.8592 0.0014
2 1 6 11.2217 0.0044
2 1 7 -5.9887 -0.0024
2 1 8 0.7009 -0.0003
2 1 9 3.3965 -0.0016
2 1 10 -5.5965 0.0031
2 1 11 5.9452 -0.0003
2 1 12 -5.3028 -0.0030
2 1 13 4.4385 0.0026
2 1 14 -3.2469 -0.0001
2 1 15 1.5038 -0.0013
2 1 16 0.1762 0.0006
2 1 17 -0.9283 0.0010
2 2 0 -15.9668 0.0142
2 2 1 9.0016 -0.0125
2 2 2 -0.6774 0.0041
2 2 3 -6.6383 0.0054
2 2 4 11.7827 -0.0083
2 2 5 -14.1887 0.0029
2 2 6 13.4505 0.0031
2 2 7 -10.0791 -0.0033
2 2 8 5.5213 0.0014
2 2 9 -1.0658 -0.0026
2 2 10 -2.5138 0.0037
2 2 11 4.6166 -0.0003
2 2 12 -5.1313 -0.0040
2 2 13 4.6984 0.0037
2 2 14 -3.9024 -0.0002
2 2 15 2.7345 -0.0018
2 2 16 -1.2847 0.0004
2 3 0 -18.9058 0.0177
2 3 1 16.2031 -0.0175
2 3 2 -9.9172 0.0079
2 3 3 2.3893 0.0024
2 3 4 4.3660 -0.0060
2 3 5 -9.3531 0.0025
2 3 6 11.8689 0.0014
2 3 7 -11.5519 -0.0007
2 3 8 9.0228 -0.0009
2 3 9 -5.4442 -0.0020
2 3 10 1.6812 0.0055
2 3 11 1.5896 -0.0026
2 3 12 -3.6765 -0.0040
2 3 13 4.3603 0.0060
2 3 14 -4.0152 -0.0025
2 3 15 3.0433 -0.0001
2 3 16 -1.7588 -0.0010
2 4 0 -15.1977 0.0138
2 4 1 16.8488 -0.0159
2 4 2 -14.8310 0.0083
2 4 3 9.7390 0.0018
2 4 4 -3.3748 -0.0056
2 4 5 -2.5797 0.0019
2 4 6 7.0853 0.0026
2 4 7 -9.5255 -0.0013
2 4 8 9.7752 -0.0028
2 4 9 -8.2418 0.0016
2 4 10 5.5126 0.0043
2 4 11 -2.2493 -0.0055
2 4 12 -0.6828 -0.0009
2 4 13 2.5586 0.0064
2 4 14 -3.2194 -0.0056
2 4 15 2.8740 0.0029
2 5 0 -8.8215 0.0101
2 5 1 12.6331 -0.0131
2 5 2 -14.2347 0.0081
2 5 3 12.9190 0.0010
2 5 4 -8.9341 -0.0061
2 5 5 3.6221 0.0035
2 5 6 1.4310 0.0025
2 5 7 -5.2239 -0.0041
2 5 8 7.4916 0.0003
2 5 9 -8.2878 0.0018
2 5 10 7.5853 0.0021
2 5 11 -5.4914 -0.0059
2 5 12 2.7131 0.0027
2 5 13 -0.3013 0.0040
2 5 14 -1.1406 -0.0067
2 6 0 -2.4247 0.0084
2 6 1 7.2132 -0.0121
2 6 2 -10.7260 0.0096
2 6 3 12.2162 -0.0015
2 6 4 -11.1810 -0.0052
2 6 5 7.8991 0.0049
2 6 6 -3.5486 0.0006
2 6 7 -0.5500 -0.0042
2 6 8 3.7744 0.0022
2 6 9 -6.1070 0.0012
2 6 10 7.3704 0.0002
2 6 11 -7.0851 -0.0047
2 6 12 5.2628 0.0049
2 6 13 -2.8389 0.0007
2 6 14 0.9293 -0.0059
2 7 0 3.0369 0.0062
2 7 1 1.7097 -0.0102
2 7 2 -6.1972 0.0100
2 7 3 9.3177 -0.0041
2 7 4 -10.4842 -0.0033
2 7 5 9.6288 0.0052
2 7 6 -7.1722 -0.0005
2 7 7 3.8701 -0.0045
2 7 8 -0.4081 0.0033
2 7 9 -2.8106 0.0023
2 7 10 5.3582 -0.0047
2 7 11 -6.5601 0.0009
2 7 12 5.9860 0.0034
2 7 13 -4.0897 -0.0022
2 8 0 6.1714 0.0049
2 8 1 -2.9878 -0.0073
2 8 2 -1.1043 0.0076
2 8 3 4.9951 -0.0040
2 8 4 -7.7062 -0.0018
2 8 5 8.8723 0.0044
2 8 6 -8.5936 -0.0009
2 8 7 7.0685 -0.0049
2 8 8 -4.4644 0.0063
2 8 9 1.1312 -0.0010
2 8 10 2.1279 -0.0058
2 8 11 -4.2473 0.0071
2 8 12 4.6038 -0.0029
2 9 0 7.0309 0.0070
2 9 1 -5.7953 -0.0068
2 9 2 3.4030 0.0061
2 9 3 -0.0470 -0.0034
2 9 4 -3.5088 -0.0007
2 9 5 6.3113 0.0023
2 9 6 -7.7734 0.0001
2 9 7 7.8075 -0.0042
2 9 8 -6.5237 0.0062
2 9 9 4.0976 -0.0047
2 9 10 -1.1186 0.0001
2 10 0 6.2985 0.0094
2 10 1 -6.5746 -0.0073
2 10 2 5.9854 0.0060
2 10 3 -4.2062 -0.0043
2 10 4 1.1439 0.0010
2 10 5 2.4675 0.0002
2 10 6 -5.2935 0.0026
2 10 7 6.3955 -0.0051
2 10 8 -5.8347 0.0039
2 10 9 4.2493 -0.0018
2 11 0 4.1855 0.0082
2 11 1 -5.3569 -0.0062
2 11 2 5.8471 0.0045
2 11 3 -5.5372 -0.0043
2 11 4 4.0577 0.0021
2 11 5 -1.3403 0.0002
2 11 6 -1.7071 0.0024
2 11 7 3.6158 -0.0067
2 12 0 1.6949 0.0036
2 12 1 -2.8775 -0.0038
2 12 2 3.5327 0.0024
2 12 3 -3.7223 -0.0031
2 12 4 3.4578 0.0026
3 -11 0 -2.6583 0.0118
3 -11 1 1.8521 0.0007
3 -10 0 -4.5529 0.0084
3 -10 1 4.3997 -0.0051
3 -10 2 -2.8452 -0.0008
3 -10 3 0.6976 -0.0008
3 -10 4 0.6295 0.0100
3 -9 0 -4.1481 -0.0041
3 -9 1 5.3030 0.0011
3 -9 2 -5.0512 0.0021
3 -9 3 3.3777 -0.0028
3 -9 4 -1.3204 0.0037
3 -9 5 0.1724 -0.0056
3 -9 6 0.0600 0.0064
3 -8 0 -1.4068 -0.0046
3 -8 1 3.7682 0.0072
3 -8 2 -5.3069 -0.0022
3 -8 3 5.4674 -0.0035
3 -8 4 -4.1249 0.0044
3 -8 5 2.3598 -0.0016
3 -8 6 -1.3115 -0.0015
3 -8 7 0.7051 0.0021
3 -8 8 0.2633 0.0002
3 -7 0 2.4060 0.0026
3 -7 1 0.7551 0.0014
3 -7 2 -3.5513 -0.0012
3 -7 3 5.6325 -0.0018
3 -7 4 -6.1718 0.0033
3 -7 5 4.9731 -0.0018
3 -7 6 -3.2306 -0.0011
3 -7 7 2.0769 0.0029
3 -7 8 -1.1421 -0.0016
3 -7 9 -0.2903 -0.0015
3 -7 10 1.5949 0.0025
3 -6 0 6.7477 0.0037
3 -6 1 -3.2095 -0.0018
3 -6 2 -0.3615 0.0029
3 -6 3 3.5194 -0.0039
3 -6 4 -5.7947 0.0026
3 -6 5 6.3974 -0.0004
3 -6 6 -5.2571 -0.0004
3 -6 7 3.5794 0.0001
3 -6 8 -2.4077 0.0009
3 -6 9 1.3724 -0.0027
3 -6 10 0.1608 0.0032
3 -6 11 -1.5599 -0.0008
3 -5 0 10.4950 0.0028
3 -5 1 -8.0566 0.0014
3 -5 2 4.3260 -0.0005
3 -5 3 -0.4572 -0.0030
3 -5 4 -2.8032 0.0033
3 -5 5 5.0454 -0.0004
3 -5 6 -5.8270 -0.0011
3 -5 7 5.1451 -0.0000
3 -5 8 -3.8611 0.0011
3 -5 9 2.7839 -0.0016
3 -5 10 -1.7270 0.0018
3 -5 11 0.2816 0.0002
3 -5 12 1.0334 -0.0041
3 -5 13 -1.3364 0.0050
3 -4 0 11.7083 0.0002
3 -4 1 -11.7995 0.0028
3 -4 2 9.7001 -0.0037
3 -4 3 -5.8858 0.0010
3 -4 4 1.7451 0.0017
3 -4 5 1.6294 -0.0009
3 -4 6 -4.0001 -0.0010
3 -4 7 5.2731 0.0006
3 -4 8 -5.2957 0.0004
3 -4 9 4.4172 0.0005
3 -4 10 -3.2870 -0.0016
3 -4 11 2.0992 0.0018
3 -4 12 -0.7697 -0.0025
3 -4 13 -0.3651 0.0024
3 -4 14 0.7627 0.0005
3 -3 0 9.8943 -0.0076
3 -3 1 -12.3799 0.0055
3 -3 2 13.0585 -0.0025
3 -3 3 -11.2317 0.0000
3 -3 4 7.2211 0.0021
3 -3 5 -2.7725 -0.0020
3 -3 6 -0.8068 -0.0004
3 -3 7 3.4608 0.0015
3 -3 8 -5.2208 -0.0003
3 -3 9 5.7041 -0.0000
3 -3 10 -4.9388 -0.0014
3 -3 11 3.5763 0.0024
3 -3 12 -2.1754 -0.0014
3 -3 13 0.9453 -0.0020
3 -3 14 -0.0659 0.0088
3 -3 15 -0.2838 -0.0155
3 -2 0 4.3064 -0.0142
3 -2 1 -9.4005 0.0106
3 -2 2 12.7162 -0.0029
3 -2 3 -13.9432 -0.0024
3 -2 4 12.1940 0.0046
3 -2 5 -8.0700 -0.0043
3 -2 6 3.5305 0.0016
3 -2 7 0.2391 0.0014
3 -2 8 -3.2208 -0.0020
3 -2 9 5.2611 0.0008
3 -2 10 -5.8677 0.0001
3 -2 11 5.0754 -0.0003
3 -2 12 -3.5490 0.0003
3 -2 13 1.9891 -0.0016
3 -2 14 -0.8342 0.0073
3 -2 15 0.2296 -0.0176
3 -1 0 -5.1536 -0.0168
3 -1 1 -2.3661 0.0132
3 -1 2 8.3630 -0.0045
3 -1 3 -12.6254 -0.0025
3 -1 4 14.2855 0.0054
3 -1 5 -12.6646 -0.0049
3 -1 6 8.7957 0.0024
3 -1 7 -4.4384 0.0005
3 -1 8 0.4727 -0.0022
3 -1 9 2.7927 0.0025
3 -1 10 -4.8646 -0.0019
3 -1 11 5.4429 0.0004
3 -1 12 -4.7914 0.0016
3 -1 13 3.4094 -0.0025
3 -1 14 -1.8615 0.0027
3 -1 15 0.7499 -0.0064
3 0 0 -14.5853 -0.0157
3 0 1 7.2453 0.0131
3 0 2 0.3545 -0.0056
3 0 3 -7.1157 -0.0012
3 0 4 12.0842 0.0047
3 0 5 -13.9683 -0.0050
3 0 6 12.5926 0.0026
3 0 7 -9.2472 0.0005
3 0 8 5.2105 -0.0020
3 0 9 -1.1964 0.0023
3 0 10 -2.0213 -0.0027
3 0 11 3.8419 0.0030
3 0 12 -4.4379 -0.0013
3 0 13 4.2259 -0.0022
3 0 14 -3.2965 0.0040
3 0 15 1.9264 -0.0025
3 0 16 -0.8205 0.0016
3 1 0 -20.4565 -0.0110
3 1 1 15.7616 0.0113
3 1 2 -8.7397 -0.0070
3 1 3 1.1119 0.0021
3 1 4 5.9833 0.0017
3 1 5 -11.0207 -0.0042
3 1 6 12.7972 0.0040
3 1 7 -11.7115 -0.0014
3 1 8 8.9982 -0.0012
3 1 9 -5.4451 0.0022
3 1 10 1.7634 -0.0022
3 1 11 1.0321 0.0023
3 1 12 -2.5592 -0.0020
3 1 13 3.3272 -0.0003
3 1 14 -3.5923 0.0043
3 1 15 3.0578 -0.0060
3 1 16 -1.8717 0.0030
3 1 17 0.7952 0.0011
3 2 0 -21.2955 -0.0075
3 2 1 20.7731 0.0094
3 2 2 -16.0277 -0.0086
3 2 3 9.1665 0.0058
3 2 4 -1.7670 -0.0023
3 2 5 -4.9285 -0.0013
3 2 6 9.4359 0.0033
3 2 7 -11.0328 -0.0027
3 2 8 10.3603 0.0008
3 2 9 -8.2989 0.0009
3 2 10 5.3130 -0.0023
3 2 11 -2.1274 0.0024
3 2 12 -0.3096 -0.0005
3 2 13 1.7739 -0.0022
3 2 14 -2.6305 0.0049
3 2 15 2.8880 -0.0073
3 2 16 -2.3358 0.0073
3 2 17 1.3068 -0.0037
3 3 0 -15.5699 -0.0087
3 3 1 19.8447 0.0096
3 3 2 -19.3334 -0.0101
3 3 3 14.9065 0.0082
3 3 4 -8.6373 -0.0042
3 3 5 2.0766 -0.0001
3 3 6 3.6998 0.0024
3 3 7 -7.6654 -0.0016
3 3 8 9.3792 0.0001
3 3 9 -9.1975 0.0003
3 3 10 7.6082 -0.0014
3 3 11 -5.0234 0.0035
3 3 12 2.1557 -0.0027
3 3 13 0.1807 -0.0021
3 3 14 -1.6104 0.0070
3 3 15 2.1340 -0.0090
3 3 16 -1.8622 0.0085
3 4 0 -6.3355 -0.0125
3 4 1 12.6790 0.0122
3 4 2 -16.6100 -0.0118
3 4 3 16.5717 0.0091
3 4 4 -13.0522 -0.0046
3 4 5 7.8989 -0.0002
3 4 6 -2.5280 0.0032
3 4 7 -2.3702 -0.0025
3 4 8 6.1454 -0.0003
3 4 9 -8.1843 0.0015
3 4 10 8.3506 -0.0013
3 4 11 -6.9774 0.0031
3 4 12 4.6126 -0.0055
3 4 13 -1.9488 0.0032
3 4 14 -0.2386 0.0033
3 4 15 1.3557 -0.0084
3 5 0 0.8866 -0.0142
3 5 1 4.4636 0.0143
3 5 2 -9.7996 -0.0135
3 5 3 13.5735 0.0097
3 5 4 -14.0029 -0.0041
3 5 5 11.3324 0.0001
3 5 6 -7.2871 0.0013
3 5 7 2.9864 -0.0014
3 5 8 1.3209 0.0006
3 5 9 -5.0792 -0.0001
3 5 10 7.3101 0.0002
3 5 11 -7.5672 0.0011
3 5 12 6.2338 -0.0049
3 5 13 -4.0059 0.0076
3 5 14 1.6206 -0.0054
3 6 0 5.8207 -0.0143
3 6 1 -1.3587 0.0131
3 6 2 -3.3737 -0.0126
3 6 3 8.2816 0.0105
3 6 4 -11.6904 -0.0044
3 6 5 12.0619 -0.0006
3 6 6 -9.9314 -0.0001
3 6 7 6.8022 0.0033
3 6 8 -3.2254 -0.0038
3 6 9 -0.7809 0.0009
3 6 10 4.3999 0.0025
3 6 11 -6.4007 -0.0034
3 6 12 6.3859 -0.0001
3 6 13 -4.9012 0.0061
3 7 0 9.2785 -0.0161
3 7 1 -5.8856 0.0126
3 7 2 1.7712 -0.0093
3 7 3 2.8696 0.0087
3 7 4 -7.3424 -0.0056
3 7 5 10.1310 -0.0004
3 7 6 -10.4786 0.0023
3 7 7 9.0621 0.0021
3 7 8 -6.6213 -0.0067
3 7 9 3.2315 0.0057
3 7 10 0.6396 -0.0002
3 7 11 -3.6663 -0.0051
3 7 12 4.8270 0.0059
3 7 13 -4.2309 -0.0011
3 8 0 9.6444 -0.0141
3 8 1 -8.6022 0.0133
3 8 2 5.9811 -0.0080
3 8 3 -2.1810 0.0054
3 8 4 -2.1922 -0.0046
3 8 5 6.0819 0.0011
3 8 6 -8.5119 0.0028
3 8 7 9.2884 -0.0022
3 8 8 -8.5681 -0.0018
3 8 9 6.2697 0.0038
3 8 10 -2.7481 -0.0019
3 8 11 -0.5963 -0.0026
3 9 0 7.3991 -0.0064
3 9 1 -8.3220 0.0095
3 9 2 7.9279 -0.0074
3 9 3 -5.8449 0.0045
3 9 4 2.3121 -0.0035
3 9 5 1.6475 0.0018
3 9 6 -4.8867 0.0007
3 9 7 6.9366 -0.0009
3 9 8 -7.7614 -0.0004
3 9 9 7.0367 -0.0002
3 9 10 -4.6160 0.0021
3 10 0 4.5034 -0.0027
3 10 1 -6.2433 0.0047
3 10 2 7.3084 -0.0051
3 10 3 -7.0908 0.0049
3 10 4 5.0306 -0.0057
3 10 5 -1.6427 0.0047
3 10 6 -1.6244 -0.0020
3 10 7 3.7318 0.0023
3 10 8 -4.7034 -0.0054
3 11 0 1.7627 -0.0030
3 11 1 -3.7051 0.0048
3 11 2 5.1387 -0.0044
3 11 3 -5.9212 0.0045
3 11 4 5.4140 -0.0080
3 11 5 -3.3204 0.0105
3 11 6 0.5689 -0.0074
3 12 0 -0.0490 -0.0017
3 12 1 -1.4484 0.0058
4 -10 0 -1.5054 0.0132
4 -10 1 1.8031 -0.0106
4 -9 0 0.3056 0.0024
4 -9 1 1.1602 -0.0075
4 -9 2 -1.5784 0.0068
4 -9 3 0.7541 -0.0021
4 -9 4 0.3826 -0.0011
4 -8 0 3.5956 -0.0012
4 -8 1 -1.5857 -0.0011
4 -8 2 -0.3314 0.0039
4 -8 3 1.3636 -0.0034
4 -8 4 -1.2472 0.0005
4 -8 5 0.8337 0.0025
4 -8 6 -1.0186 -0.0054
4 -7 0 6.1714 0.0049
4 -7 1 -4.6872 -0.0054
4 -7 2 2.4611 0.0055
4 -7 3 0.0173 -0.0031
4 -7 4 -1.7548 -0.0010
4 -7 5 2.3318 0.0024
4 -7 6 -2.4026 -0.0014
4 -7 7 2.5808 0.0013
4 -7 8 -2.4802 -0.0008
4 -6 0 7.2889 0.0081
4 -6 1 -6.8683 -0.0090
4 -6 2 5.4174 0.0097
4 -6 3 -3.0134 -0.0071
4 -6 4 0.2928 0.0001
4 -6 5 1.7617 0.0047
4 -6 6 -2.7624 -0.0021
4 -6 7 3.1597 -0.0033
4 -6 8 -3.3294 0.0051
4 -6 9 2.9725 -0.0043
4 -6 10 -1.8390 0.0030
4 -5 0 6.7052 0.0103
4 -5 1 -8.0322 -0.0087
4 -5 2 7.9102 0.0069
4 -5 3 -6.4637 -0.0060
4 -5 4 4.0679 0.0024
4 -5 5 -1.3858 0.0028
4 -5 6 -0.8791 -0.0033
4 -5 7 2.3760 -0.0014
4 -5 8 -3.2099 0.0044
4 -5 9 3.5326 -0.0032
4 -5 10 -3.2107 0.0008
4 -5 11 2.1859 0.0020
4 -5 12 -0.9382 -0.0058
4 -4 0 3.7477 0.0097
4 -4 1 -7.2829 -0.0109
4 -4 2 9.2621 0.0062
4 -4 3 -9.3392 -0.0018
4 -4 4 7.8107 -0.0000
4 -4 5 -5.3528 0.0015
4 -4 6 2.5503 -0.0016
4 -4 7 0.0834 -0.0008
4 -4 8 -2.0476 0.0023
4 -4 9 3.1445 0.0001
4 -4 10 -3.5149 -0.0028
4 -4 11 3.2753 0.0027
4 -4 12 -2.4735 -0.0018
4 -4 13 1.3927 0.0008
4 -3 0 -1.4494 0.0038
4 -3 1 -3.7863 -0.0103
4 -3 2 8.0933 0.0096
4 -3 3 -10.4664 -0.0037
4 -3 4 10.4673 -0.0004
4 -3 5 -8.6786 0.0011
4 -3 6 5.9600 -0.0005
4 -3 7 -2.8723 -0.0007
4 -3 8 -0.0145 0.0017
4 -3 9 2.0727 -0.0005
4 -3 10 -3.1198 -0.0016
4 -3 11 3.4282 0.0016
4 -3 12 -3.2182 0.0002
4 -3 13 2.5509 -0.0022
4 -3 14 -1.5995 0.0074
4 -2 0 -8.5967 0.0023
4 -2 1 2.3337 -0.0079
4 -2 2 3.8213 0.0108
4 -2 3 -8.6825 -0.0070
4 -2 4 11.1006 0.0016
4 -2 5 -10.9270 -0.0002
4 -2 6 8.9634 0.0015
4 -2 7 -6.0160 -0.0014
4 -2 8 2.7110 -0.0001
4 -2 9 0.1982 0.0008
4 -2 10 -2.1612 0.0007
4 -2 11 3.1867 -0.0036
4 -2 12 -3.4759 0.0046
4 -2 13 3.1178 -0.0007
4 -2 14 -2.3042 -0.0025
4 -2 15 1.3716 -0.0038
4 -1 0 -15.9625 0.0078
4 -1 1 10.2597 -0.0106
4 -1 2 -3.2554 0.0125
4 -1 3 -3.5934 -0.0091
4 -1 4 8.6921 0.0024
4 -1 5 -11.0981 0.0012
4 -1 6 11.0519 0.0004
4 -1 7 -9.2199 -0.0023
4 -1 8 6.1658 0.0005
4 -1 9 -2.7267 0.0026
4 -1 10 -0.1458 -0.0021
4 -1 11 2.1170 -0.0033
4 -1 12 -3.2872 0.0083
4 -1 13 3.5420 -0.0049
4 -1 14 -2.8497 -0.0073
4 -1 15 1.7557 0.0159
4 0 0 -19.9427 0.0126
4 0 1 17.0687 -0.0141
4 0 2 -11.3289 0.0148
4 0 3 4.0315 -0.0114
4 0 4 3.0134 0.0044
4 0 5 -8.0713 0.0018
4 0 6 10.6050 -0.0031
4 0 7 -10.9730 0.0011
4 0 8 9.4165 -0.0002
4 0 9 -6.3564 0.0018
4 0 10 2.9518 -0.0025
4 0 11 -0.2103 -0.0003
4 0 12 -1.7912 0.0047
4 0 13 3.0884 -0.0055
4 0 14 -3.2625 -0.0026
4 1 0 -19.2522 0.0132
4 1 1 19.9950 -0.0123
4 1 2 -17.1317 0.0125
4 1 3 11.4921 -0.0104
4 1 4 -4.3685 0.0054
4 1 5 -2.2991 -0.0001
4 1 6 7.0354 -0.0028
4 1 7 -9.6637 0.0031
4 1 8 10.3855 -0.0030
4 1 9 -9.1001 0.0032
4 1 10 6.2798 -0.0014
4 1 11 -3.2114 -0.0024
4 1 12 0.7154 0.0044
4 1 13 1.2485 -0.0018
4 1 14 -2.5151 -0.0041
4 1 15 2.5834 0.0118
4 2 0 -13.9486 0.0133
4 2 1 18.4715 -0.0084
4 2 2 -19.0254 0.0068
4 2 3 16.1158 -0.0064
4 2 4 -10.7194 0.0042
4 2 5 4.2346 -0.0008
4 2 6 1.6405 -0.0015
4 2 7 -5.8828 0.0020
4 2 8 8.4391 -0.0022
4 2 9 -9.3132 0.0035
4 2 10 8.3436 -0.0029
4 2 11 -6.0051 -0.0026
4 2 12 3.3349 0.0081
4 2 13 -0.9741 -0.0055
4 2 14 -0.8672 -0.0045
4 2 15 1.8169 0.0132
4 2 16 -1.6540 -0.0156
4 3 0 -4.8392 0.0141
4 3 1 12.0271 -0.0080
4 3 2 -16.4735 0.0043
4 3 3 17.0754 -0.0043
4 3 4 -14.3844 0.0045
4 3 5 9.6346 -0.0027
4 3 6 -4.1018 0.0000
4 3 7 -1.0016 0.0016
4 3 8 4.8768 -0.0015
4 3 9 -7.3011 0.0017
4 3 10 8.2182 -0.0023
4 3 11 -7.5703 -0.0003
4 3 12 5.6345 0.0072
4 3 13 -3.1016 -0.0107
4 3 14 0.7655 0.0042
4 3 15 0.7134 0.0070
4 4 0 2.5714 0.0116
4 4 1 3.4674 -0.0076
4 4 2 -9.8382 0.0049
4 4 3 14.0765 -0.0058
4 4 4 -14.7856 0.0069
4 4 5 12.6451 -0.0055
4 4 6 -8.8759 0.0027
4 4 7 4.2460 -0.0003
4 4 8 0.4298 -0.0011
4 4 9 -4.1727 0.0018
4 4 10 6.4764 -0.0025
4 4 11 -7.3575 0.0018
4 4 12 6.8346 0.0033
4 4 13 -4.9791 -0.0104
4 4 14 2.4405 0.0120
4 4 15 -0.3599 -0.0060
4 5 0 5.0180 0.0077
4 5 1 -1.6615 -0.0044
4 5 2 -3.1121 0.0023
4 5 3 8.5506 -0.0056
4 5 4 -12.0850 0.0093
4 5 5 12.6175 -0.0073
4 5 6 -11.0878 0.0022
4 5 7 8.2820 0.0003
4 5 8 -4.2949 0.0003
4 5 9 -0.1521 -0.0001
4 5 10 3.7286 -0.0028
4 5 11 -5.7725 0.0054
4 5 12 6.3863 -0.0029
4 5 13 -5.6274 -0.0050
4 5 14 3.6628 0.0119
4 6 0 6.7176 0.0037
4 6 1 -4.1332 -0.0035
4 6 2 1.2117 0.0001
4 6 3 3.1597 -0.0014
4 6 4 -7.7098 0.0078
4 6 5 10.2425 -0.0094
4 6 6 -10.5346 0.0024
4 6 7 9.5837 0.0042
4 6 8 -7.4429 -0.0032
4 6 9 3.8429 -0.0013
4 6 10 0.2178 0.0014
4 6 11 -3.2143 0.0038
4 6 12 4.6088 -0.0074
4 6 13 -4.6177 0.0037
4 7 0 8.8322 -0.0029
4 7 1 -7.4047 -0.0026
4 7 2 5.3899 0.0036
4 7 3 -2.1268 -0.0017
4 7 4 -2.3678 0.0047
4 7 5 6.2909 -0.0092
4 7 6 -8.2883 0.0060
4 7 7 8.7932 0.0026
4 7 8 -8.2781 -0.0058
4 7 9 6.2615 0.0004
4 7 10 -2.8847 0.0054
4 7 11 -0.3598 -0.0044
4 7 12 2.2096 -0.0017
4 8 0 7.6687 -0.0036
4 8 1 -8.9165 0.0001
4 8 2 8.8571 0.0060
4 8 3 -7.1260 -0.0070
4 8 4 3.4630 0.0065
4 8 5 1.0090 -0.0083
4 8 6 -4.5484 0.0071
4 8 7 6.6002 -0.0002
4 8 8 -7.4538 -0.0044
4 8 9 6.8385 0.0001
4 8 10 -4.5167 0.0083
4 8 11 1.5976 -0.0125
4 9 0 3.8247 0.0019
4 9 1 -6.4103 -0.0014
4 9 2 8.3259 0.0057
4 9 3 -8.7568 -0.0082
4 9 4 6.9760 0.0074
4 9 5 -3.4337 -0.0075
4 9 6 -0.3171 0.0060
4 9 7 3.1521 0.0014
4 9 8 -4.9476 -0.0081
4 9 9 5.5142 0.0043
4 10 0 0.5747 0.0027
4 10 1 -2.8071 -0.0031
4 10 2 4.9553 0.0058
4 10 3 -6.4951 -0.0063
4 10 4 6.4590 0.0024
4 10 5 -4.5835 -0.0002
4 10 6 1.8971 0.0011
4 10 7 0.3485 0.0031
4 11 0 -1.1155 0.0045
4 11 1 -0.5599 -0.0022
4 11 2 2.0687 0.0043
4 11 3 -3.3878 -0.0054
4 11 4 3.9799 -0.0010
5 -9 0 3.2111 -0.0014
5 -9 1 -2.1507 -0.0018
5 -8 0 5.9246 -0.0063
5 -8 1 -5.1119 0.0072
5 -8 2 3.6508 -0.0038
5 -8 3 -2.2208 0.0029
5 -8 4 1.2155 -0.0032
5 -7 0 6.6103 -0.0012
5 -7 1 -7.1170 0.0054
5 -7 2 6.3565 -0.0051
5 -7 3 -4.6579 0.0041
5 -7 4 2.6553 -0.0047
5 -7 5 -0.8275 0.0022
5 -7 6 -0.6069 0.0029
5 -7 7 1.4901 -0.0021
5 -6 0 4.7892 -0.0003
5 -6 1 -6.9171 0.0032
5 -6 2 7.7601 -0.0040
5 -6 3 -7.1066 0.0025
5 -6 4 5.2948 -0.0031
5 -6 5 -2.8981 0.0039
5 -6 6 0.4992 0.0000
5 -6 7 1.3199 -0.0048
5 -6 8 -2.1753 0.0030
5 -6 9 2.0953 0.0034
5 -5 0 1.1711 -0.0004
5 -5 1 -4.7540 0.0036
5 -5 2 7.3307 -0.0070
5 -5 3 -8.3266 0.0059
5 -5 4 7.7312 -0.0026
5 -5 5 -5.9278 0.0011
5 -5 6 3.3547 -0.0002
5 -5 7 -0.6491 -0.0011
5 -5 8 -1.3861 0.0002
5 -5 9 2.3185 0.0028
5 -5 10 -2.3011 -0.0039
5 -4 0 -3.6281 -0.0032
5 -4 1 -0.8870 0.0023
5 -4 2 4.9725 -0.0060
5 -4 3 -7.7481 0.0090
5 -4 4 8.7504 -0.0069
5 -4 5 -8.1634 0.0020
5 -4 6 6.3465 0.0017
5 -4 7 -3.7002 -0.0020
5 -4 8 0.9524 -0.0015
5 -4 9 1.0870 0.0058
5 -4 10 -2.1107 -0.0054
5 -4 11 2.2945 -0.0008
5 -4 12 -1.8823 0.0062
5 -3 0 -8.6981 -0.0116
5 -3 1 4.1591 0.0061
5 -3 2 0.7417 -0.0038
5 -3 3 -5.0759 0.0058
5 -3 4 7.9159 -0.0069
5 -3 5 -8.8851 0.0038
5 -3 6 8.1943 0.0006
5 -3 7 -6.2820 -0.0022
5 -3 8 3.7426 -0.0001
5 -3 9 -1.2860 0.0036
5 -3 10 -0.5886 -0.0038
5 -3 11 1.7363 -0.0012
5 -3 12 -2.1547 0.0058
5 -3 13 1.8983 -0.0052
5 -2 0 -13.0817 -0.0143
5 -2 1 9.4721 0.0111
5 -2 2 -4.5960 -0.0069
5 -2 3 -0.5882 0.0053
5 -2 4 5.0657 -0.0054
5 -2 5 -7.9545 0.0033
5 -2 6 8.8519 0.0010
5 -2 7 -7.9723 -0.0028
5 -2 8 6.0308 0.0001
5 -2 9 -3.8102 0.0029
5 -2 10 1.6952 -0.0011
5 -2 11 0.2048 -0.0044
5 -2 12 -1.5919 0.0058
5 -2 13 2.0836 0.0026
5 -2 14 -1.7250 -0.0144
5 -2 15 0.9805 0.0166
5 -1 0 -15.1334 -0.0078
5 -1 1 13.8094 0.0072
5 -1 2 -10.0458 -0.0076
5 -1 3 4.9084 0.0072
5 -1 4 0.4345 -0.0068
5 -1 5 -4.9738 0.0053
5 -1 6 7.8975 -0.0010
5 -1 7 -8.7218 -0.0033
5 -1 8 7.7323 0.0026
5 -1 9 -5.9160 0.0014
5 -1 10 3.9811 -0.0018
5 -1 11 -1.8850 -0.0038
5 -1 12 -0.2869 0.0076
5 -1 13 1.7475 0.0010
5 -1 14 -1.9153 -0.0205
5 0 0 -13.5284 -0.0025
5 0 1 15.1908 0.0005
5 0 2 -13.9215 -0.0037
5 0 3 10.1567 0.0067
5 0 4 -5.0611 -0.0066
5 0 5 -0.1399 0.0054
5 0 6 4.5903 -0.0037
5 0 7 -7.5167 0.0006
5 0 8 8.3390 0.0016
5 0 9 -7.4119 -0.0013
5 0 10 5.7760 0.0008
5 0 11 -3.8932 -0.0031
5 0 12 1.5969 0.0052
5 0 13 0.6460 -0.0004
5 0 14 -1.7260 -0.0141
5 1 0 -9.0892 -0.0030
5 1 1 13.0316 0.0005
5 1 2 -14.5399 -0.0025
5 1 3 13.2794 0.0063
5 1 4 -9.7123 -0.0065
5 1 5 5.0264 0.0036
5 1 6 -0.2632 -0.0014
5 1 7 -3.9195 0.0010
5 1 8 6.7447 -0.0013
5 1 9 -7.6047 0.0009
5 1 10 6.8500 0.0014
5 1 11 -5.3289 -0.0048
5 1 12 3.3405 0.0043
5 1 13 -1.0098 0.0035
5 1 14 -0.8121 -0.0159
5 1 15 1.2484 0.0260
5 2 0 -2.2197 -0.0012
5 2 1 7.9383 0.0026
5 2 2 -11.9368 -0.0047
5 2 3 13.4157 0.0067
5 2 4 -12.1767 -0.0065
5 2 5 8.9111 0.0039
5 2 6 -4.7544 -0.0011
5 2 7 0.5323 -0.0008
5 2 8 3.1997 0.0014
5 2 9 -5.7525 -0.0004
5 2 10 6.6485 0.0001
5 2 11 -6.0993 -0.0024
5 2 12 4.6030 0.0025
5 2 13 -2.5218 0.0065
5 2 14 0.4731 -0.0221
5 2 15 0.6377 0.0329
5 3 0 5.3900 0.0044
5 3 1 0.4921 -0.0015
5 3 2 -6.4940 -0.0034
5 3 3 10.7629 0.0061
5 3 4 -12.2488 -0.0048
5 3 5 11.0828 0.0022
5 3 6 -8.1457 -0.0016
5 3 7 4.4398 0.0016
5 3 8 -0.7191 0.0009
5 3 9 -2.4911 -0.0043
5 3 10 4.7539 0.0049
5 3 11 -5.7495 -0.0036
5 3 12 5.3720 0.0009
5 3 13 -3.8155 0.0072
5 3 14 1.7433 -0.0221
5 3 15 -0.1681 0.0349
5 4 0 8.1318 0.0047
5 4 1 -5.1058 -0.0053
5 4 2 -0.1486 0.0018
5 4 3 5.8310 0.0027
5 4 4 -9.7130 -0.0039
5 4 5 11.0074 0.0012
5 4 6 -10.1108 0.0005
5 4 7 7.6537 0.0013
5 4 8 -4.3541 -0.0021
5 4 9 1.0127 -0.0015
5 4 10 1.8486 0.0060
5 4 11 -3.9930 -0.0075
5 4 12 5.0536 0.0060
5 4 13 -4.6204 -0.0002
5 4 14 2.9275 -0.0115
5 5 0 5.6133 0.0018
5 5 1 -5.0229 -0.0028
5 5 2 2.8709 0.0019
5 5 3 1.2211 0.0004
5 5 4 -5.4257 -0.0031
5 5 5 8.1555 0.0036
5 5 6 -9.2949 -0.0015
5 5 7 9.0050 0.0002
5 5 8 -7.1817 -0.0009
5 5 9 4.2519 0.0010
5 5 10 -1.1577 0.0004
5 5 11 -1.5005 -0.0023
5 5 12 3.4408 0.0057
5 5 13 -4.1599 -0.0090
5 5 14 3.3495 0.0066
5 6 0 4.0559 0.0000
5 6 1 -3.4822 -0.0018
5 6 2 3.0657 -0.0004
5 6 3 -1.3445 0.0023
5 6 4 -1.5094 -0.0033
5 6 5 4.0843 0.0045
5 6 6 -5.9321 -0.0042
5 6 7 7.2811 0.0019
5 6 8 -7.5824 0.0002
5 6 9 6.1558 -0.0001
5 6 10 -3.5142 -0.0021
5 6 11 0.8038 0.0051
5 6 12 1.3242 -0.0045
5 6 13 -2.5419 -0.0033
5 7 0 3.8398 -0.0023
5 7 1 -4.2231 -0.0030
5 7 2 4.5917 0.0022
5 7 3 -4.1425 0.0015
5 7 4 2.2307 -0.0032
5 7 5 0.1991 0.0037
5 7 6 -2.2203 -0.0040
5 7 7 4.0361 0.0016
5 7 8 -5.5628 0.0025
5 7 9 5.7690 -0.0039
5 7 10 -4.2586 0.0006
5 7 11 2.0355 0.0054
5 8 0 1.3372 -0.0001
5 8 1 -3.6425 -0.0035
5 8 2 5.7698 0.0050
5 8 3 -6.9727 -0.0020
5 8 4 6.1554 -0.0001
5 8 5 -3.7050 0.0008
5 8 6 1.0759 -0.0031
5 8 7 1.1220 0.0040
5 8 8 -3.0033 0.0014
5 8 9 4.0265 -0.0084
5 8 10 -3.4820 0.0088
5 9 0 -1.6269 0.0037
5 9 1 -0.5715 -0.0052
5 9 2 3.3687 0.0061
5 9 3 -6.0671 -0.0022
5 9 4 7.1380 -0.0012
5 9 5 -5.9221 -0.0006
5 9 6 3.4817 0.0004
5 9 7 -1.1264 0.0061
5 9 8 -0.7811 -0.0088
5 10 0 -2.3678 0.0017
5 10 1 1.3409 -0.0019
5 10 2 0.2114 0.0049
5 10 3 -2.3587 -0.0023
5 10 4 4.1681 -0.0057
5 10 5 -4.5039 0.0071
6 -8 0 3.6643 -0.0024
6 -7 0 3.2207 0.0088
6 -7 1 -4.5449 0.0006
6 -7 2 4.9073 -0.0041
6 -7 3 -4.5160 0.0017
6 -7 4 3.5122 0.0003
6 -6 0 0.4021 0.0062
6 -6 1 -3.2465 -0.0042
6 -6 2 5.1598 0.0015
6 -6 3 -5.9585 -0.0019
6 -6 4 5.7406 0.0025
6 -6 5 -4.5068 -0.0017
6 -6 6 2.5704 0.0030
6 -5 0 -3.7985 0.0028
6 -5 1 0.0276 -0.0012
6 -5 2 3.3079 0.0005
6 -5 3 -5.4939 -0.0019
6 -5 4 6.4623 0.0040
6 -5 5 -6.3034 -0.0043
6 -5 6 4.9743 0.0027
6 -5 7 -2.9091 -0.0004
6 -5 8 1.0893 -0.0024
6 -4 0 -7.9813 0.0033
6 -4 1 4.3750 -0.0012
6 -4 2 -0.3679 0.0010
6 -4 3 -3.0408 -0.0017
6 -4 4 5.2797 0.0022
6 -4 5 -6.3737 -0.0026
6 -4 6 6.3323 0.0027
6 -4 7 -5.1041 -0.0015
6 -4 8 3.1589 -0.0017
6 -4 9 -1.3426 0.0043
6 -4 10 0.1260 -0.0016
6 -3 0 -10.6817 0.0008
6 -3 1 8.3372 0.0004
6 -3 2 -4.8196 0.0019
6 -3 3 0.9021 -0.0048
6 -3 4 2.5323 0.0045
6 -3 5 -4.9399 -0.0017
6 -3 6 6.1745 -0.0004
6 -3 7 -6.1895 0.0006
6 -3 8 5.0918 -0.0003
6 -3 9 -3.3389 0.0001
6 -3 10 1.5345 0.0016
6 -3 11 -0.1354 -0.0055
6 -3 12 -0.5784 0.0075
6 -2 0 -10.9592 0.0002
6 -2 1 10.6256 0.0026
6 -2 2 -8.5312 -0.0011
6 -2 3 5.1794 -0.0040
6 -2 4 -1.2557 0.0062
6 -2 5 -2.3406 -0.0035
6 -2 6 4.8394 0.0000
6 -2 7 -5.9640 0.0016
6 -2 8 5.9124 -0.0017
6 -2 9 -5.0076 0.0008
6 -2 10 3.4772 0.0016
6 -2 11 -1.6481 -0.0035
6 -2 12 0.1265 -0.0001
6 -2 13 0.5605 0.0102
6 -1 0 -8.3653 0.0032
6 -1 1 10.4688 -0.0004
6 -1 2 -10.4688 -0.0025
6 -1 3 8.5774 -0.0007
6 -1 4 -5.2805 0.0050
6 -1 5 1.3200 -0.0039
6 -1 6 2.2441 0.0001
6 -1 7 -4.5114 0.0010
6 -1 8 5.4121 0.0001
6 -1 9 -5.4730 -0.0004
6 -1 10 4.8959 0.0001
6 -1 11 -3.4821 0.0001
6 -1 12 1.5292 -0.0042
6 -1 13 -0.0011 0.0157
6 -1 14 -0.4908 -0.0285
6 0 0 -3.7174 0.0028
6 0 1 7.5490 -0.0038
6 0 2 -9.8489 -0.0011
6 0 3 10.0766 0.0019
6 0 4 -8.3888 0.0036
6 0 5 5.2976 -0.0064
6 0 6 -1.5759 0.0023
6 0 7 -1.6783 0.0021
6 0 8 3.6863 -0.0011
6 0 9 -4.6377 -0.0027
6 0 10 5.0129 0.0045
6 0 11 -4.5933 -0.0025
6 0 12 3.0366 -0.0035
6 0 13 -1.0376 0.0137
6 1 0 1.2449 -0.0020
6 1 1 2.8916 -0.0016
6 1 2 -6.6486 -0.0007
6 1 3 8.9757 0.0037
6 1 4 -9.3425 -0.0001
6 1 5 7.9609 -0.0063
6 1 6 -5.2878 0.0068
6 1 7 1.9994 -0.0016
6 1 8 0.9196 -0.0022
6 1 9 -2.8561 0.0003
6 1 10 3.9738 0.0045
6 1 11 -4.3954 -0.0062
6 1 12 3.7177 0.0009
6 2 0 6.3787 -0.0032
6 2 1 -2.5348 0.0021
6 2 2 -1.8911 -0.0025
6 2 3 5.7962 0.0034
6 2 4 -8.0479 -0.0013
6 2 5 8.3870 -0.0028
6 2 6 -7.2122 0.0043
6 2 7 4.9481 -0.0025
6 2 8 -2.1398 0.0008
6 2 9 -0.4282 -0.0009
6 2 10 2.2502 0.0020
6 2 11 -3.2665 -0.0016
6 2 12 3.3422 -0.0035
6 2 13 -2.3470 0.0138
6 3 0 10.4618 -0.0017
6 3 1 -8.0089 0.0006
6 3 2 3.6673 -0.0027
6 3 3 1.3228 0.0041
6 3 4 -5.2683 -0.0002
6 3 5 7.2057 -0.0045
6 3 6 -7.3397 0.0029
6 3 7 6.2939 0.0022
6 3 8 -4.4596 -0.0026
6 3 9 2.1804 -0.0025
6 3 10 0.0194 0.0059
6 3 11 -1.6503 -0.0020
6 3 12 2.4023 -0.0093
6 3 13 -2.1446 0.0236
6 3 14 1.1754 -0.0337
6 4 0 9.7654 -0.0064
6 4 1 -10.1618 0.0008
6 4 2 7.9003 0.0003
6 4 3 -3.5399 0.0039
6 4 4 -1.1578 -0.0035
6 4 5 4.5577 -0.0035
6 4 6 -6.1597 0.0063
6 4 7 6.3875 0.0000
6 4 8 -5.7379 -0.0056
6 4 9 4.3708 0.0017
6 4 10 -2.4079 0.0062
6 4 11 0.3138 -0.0077
6 4 12 1.2093 -0.0018
6 4 13 -1.6933 0.0189
6 4 14 1.2601 -0.0343
6 5 0 5.2804 -0.0121
6 5 1 -7.3323 0.0072
6 5 2 7.9272 -0.0006
6 5 3 -6.3072 0.0014
6 5 4 3.1238 -0.0054
6 5 5 0.3017 0.0026
6 5 6 -3.0610 0.0035
6 5 7 4.8618 -0.0028
6 5 8 -5.6964 -0.0029
6 5 9 5.5446 0.0034
6 5 10 -4.3305 0.0025
6 5 11 2.2632 -0.0072
6 5 12 -0.1437 0.0058
6 5 13 -1.0679 0.0019
6 6 0 1.6081 -0.0122
6 6 1 -3.6185 0.0107
6 6 2 5.5044 -0.0043
6 6 3 -6.2817 0.0005
6 6 4 5.5584 -0.0030
6 6 5 -3.7384 0.0042
6 6 6 1.2696 0.0002
6 6 7 1.4302 -0.0027
6 6 8 -3.7019 -0.0018
6 6 9 4.9143 0.0056
6 6 10 -4.7823 -0.0023
6 6 11 3.3850 -0.0030
6 6 12 -1.3263 0.0051
6 7 0 -1.4271 -0.0092
6 7 1 -1.0328 0.0091
6 7 2 3.7242 -0.0053
6 7 3 -5.8207 0.0003
6 7 4 6.5507 -0.0001
6 7 5 -6.0123 0.0030
6 7 6 4.4862 -0.0007
6 7 7 -2.0785 -0.0055
6 7 8 -0.6468 0.0048
6 7 9 2.6810 0.0040
6 7 10 -3.4203 -0.0095
6 8 0 -4.6321 -0.0021
6 8 1 2.2920 0.0037
6 8 2 1.1279 -0.0046
6 8 3 -4.6061 0.0021
6 8 4 6.6149 0.0011
6 8 5 -6.7729 0.0010
6 8 6 5.7101 -0.0044
6 8 7 -3.8660 -0.0001
6 8 8 1.5463 0.0088
6 8 9 0.4698 -0.0080
6 9 0 -5.0369 0.0028
6 9 1 4.4824 -0.0028
6 9 2 -2.3367 -0.0006
6 9 3 -1.1560 0.0053
6 9 4 4.2603 -0.0048
6 9 5 -5.5303 0.0014
6 9 6 5.1130 -0.0037
7 -6 0 -2.1228 -0.0001
7 -6 1 0.3541 -0.0003
7 -6 2 1.0243 0.0015
7 -6 3 -1.9441 -0.0020
7 -5 0 -5.2239 -0.0024
7 -5 1 3.1229 0.0063
7 -5 2 -0.8691 -0.0016
7 -5 3 -0.9355 -0.0047
7 -5 4 2.2463 0.0052
7 -5 5 -3.0303 -0.0020
7 -5 6 3.0032 -0.0001
7 -4 0 -7.4143 0.0004
7 -4 1 6.2159 0.0057
7 -4 2 -4.0594 -0.0042
7 -4 3 1.7179 -0.0034
7 -4 4 0.3587 0.0060
7 -4 5 -2.1040 -0.0009
7 -4 6 3.2730 -0.0030
7 -4 7 -3.4917 0.0009
7 -4 8 2.8565 0.0020
7 -3 0 -7.1599 -0.0011
7 -3 1 7.6874 0.0034
7 -3 2 -6.8028 -0.0027
7 -3 3 4.9231 -0.0027
7 -3 4 -2.5864 0.0062
7 -3 5 0.1609 -0.0016
7 -3 6 2.0330 -0.0054
7 -3 7 -3.4849 0.0052
7 -3 8 3.7898 0.0021
7 -3 9 -3.0656 -0.0082
7 -3 10 1.8339 0.0096
7 -2 0 -4.3577 -0.0008
7 -2 1 6.6414 0.0016
7 -2 2 -7.5152 -0.0009
7 -2 3 6.9954 -0.0018
7 -2 4 -5.3264 0.0037
7 -2 5 2.9491 -0.0017
7 -2 6 -0.3815 -0.0028
7 -2 7 -1.8495 0.0043
7 -2 8 3.2461 -0.0008
7 -2 9 -3.4983 -0.0033
7 -2 10 2.7062 0.0038
7 -2 11 -1.4239 -0.0002
7 -1 0 0.0205 0.0035
7 -1 1 3.5303 -0.0026
7 -1 2 -6.0681 0.0017
7 -1 3 7.1989 -0.0024
7 -1 4 -6.8806 0.0025
7 -1 5 5.3639 -0.0001
7 -1 6 -3.1866 -0.0022
7 -1 7 0.9279 0.0013
7 -1 8 1.0510 0.0017
7 -1 9 -2.4549 -0.0019
7 -1 10 2.8879 -0.0035
7 -1 11 -2.2432 0.0116
7 -1 12 1.1025 -0.0185
7 0 0 4.4595 0.0061
7 0 1 -0.7797 -0.0059
7 0 2 -2.8838 0.0034
7 0 3 5.5709 -0.0022
7 0 4 -6.8665 0.0028
7 0 5 6.7626 -0.0023
7 0 6 -5.5459 -0.0002
7 0 7 3.7584 0.0011
7 0 8 -1.8122 0.0012
7 0 9 -0.1715 -0.0032
7 0 10 1.8426 -0.0002
7 0 11 -2.4808 0.0095
7 0 12 1.8748 -0.0195
7 1 0 7.6233 0.0072
7 1 1 -5.1073 -0.0066
7 1 2 1.4288 0.0046
7 1 3 2.2453 -0.0017
7 1 4 -4.9691 0.0005
7 1 5 6.4329 -0.0012
7 1 6 -6.6081 0.0017
7 1 7 5.6810 -0.0008
7 1 8 -4.0873 -0.0004
7 1 9 2.1490 0.0004
7 1 10 -0.0621 0.0004
7 1 11 -1.5713 0.0016
7 2 0 9.2894 0.0106
7 2 1 -8.4976 -0.0072
7 2 2 5.8185 0.0050
7 2 3 -2.0239 -0.0039
7 2 4 -1.5287 0.0022
7 2 5 4.1110 0.0005
7 2 6 -5.6299 -0.0024
7 2 7 6.0006 0.0021
7 2 8 -5.2338 -0.0016
7 2 9 3.6971 0.0023
7 2 10 -1.8453 -0.0033
7 2 11 0.0988 0.0037
7 3 0 8.7562 0.0111
7 3 1 -9.9886 -0.0095
7 3 2 9.0945 0.0052
7 3 3 -6.1311 -0.0035
7 3 4 2.4193 0.0050
7 3 5 0.6954 -0.0045
7 3 6 -2.9419 -0.0003
7 3 7 4.4907 0.0046
7 3 8 -5.1016 -0.0053
7 3 9 4.5229 0.0045
7 3 10 -3.1201 -0.0049
7 3 11 1.6011 0.0072
7 3 12 -0.4756 -0.0115
7 4 0 5.0179 0.0036
7 4 1 -8.1095 -0.0075
7 4 2 9.5752 0.0062
7 4 3 -8.7221 -0.0017
7 4 4 6.0076 0.0016
7 4 5 -2.9091 -0.0048
7 4 6 0.3735 0.0046
7 4 7 1.7698 -0.0015
7 4 8 -3.6365 -0.0005
7 4 9 4.5508 0.0018
7 4 10 -4.0039 -0.0045
7 4 11 2.5843 0.0081
7 4 12 -1.3474 -0.0128
7 4 13 0.7110 0.0192
7 5 0 0.0530 -0.0025
7 5 1 -3.7124 -0.0012
7 5 2 6.7809 0.0051
7 5 3 -8.4176 -0.0027
7 5 4 8.0206 0.0002
7 5 5 -6.0465 -0.0018
7 5 6 3.6149 0.0022
7 5 7 -1.2520 -0.0003
7 5 8 -1.1947 0.0023
7 5 9 3.3503 -0.0074
7 5 10 -4.1160 0.0065
7 5 11 3.1400 0.0016
7 5 12 -1.5571 -0.0090
7 6 0 -3.5846 -0.0032
7 6 1 0.2287 0.0022
7 6 2 3.1663 0.0036
7 6 3 -6.0340 -0.0044
7 6 4 7.6603 0.0023
7 6 5 -7.5344 -0.0046
7 6 6 5.9345 0.0060
7 6 7 -3.6809 0.0015
7 6 8 1.2490 -0.0083
7 6 9 1.1881 0.0015
7 6 10 -2.9021 0.0113
7 6 11 2.9319 -0.0130
7 7 0 -6.1360 -0.0019
7 7 1 3.3445 0.0042
7 7 2 0.1705 0.0023
7 7 3 -3.4812 -0.0071
7 7 4 5.8945 0.0042
7 7 5 -6.9491 -0.0036
7 7 6 6.4170 0.0101
7 7 7 -4.6880 -0.0099
7 7 8 2.5888 -0.0044
7 7 9 -0.6241 0.0156
7 8 0 -6.9526 0.0025
7 8 1 5.8934 0.0026
7 8 2 -3.0422 -0.0016
7 8 3 -0.5383 -0.0062
7 8 4 3.4323 0.0080
7 8 5 -4.9895 -0.0016
7 8 6 5.1702 0.0008
7 8 7 -4.1783 -0.0091
7 9 0 -4.5452 0.0014
7 9 1 5.4370 -0.0025
7 9 2 -4.7486 -0.0011
8 -4 0 -2.5549 0.0071
8 -4 1 3.3072 0.0012
8 -4 2 -3.2821 -0.0071
8 -4 3 2.7180 0.0024
8 -3 0 -0.4863 -0.0082
8 -3 1 2.5977 0.0014
8 -3 2 -3.9870 -0.0017
8 -3 3 4.4323 0.0024
8 -3 4 -3.9580 -0.0007
8 -3 5 2.6973 0.0036
8 -3 6 -0.9858 -0.0093
8 -2 0 3.1229 -0.0158
8 -2 1 -0.3436 0.0061
8 -2 2 -2.2483 0.0020
8 -2 3 4.1334 0.0002
8 -2 4 -4.9658 -0.0051
8 -2 5 4.6608 0.0062
8 -2 6 -3.3475 -0.0051
8 -2 7 1.4642 0.0021
8 -2 8 0.2043 0.0037
8 -2 9 -0.9550 -0.0067
8 -1 0 6.4964 -0.0118
8 -1 1 -3.9604 0.0073
8 -1 2 1.0248 0.0029
8 -1 3 1.7663 -0.0038
8 -1 4 -3.9022 -0.0052
8 -1 5 5.0536 0.0105
8 -1 6 -5.1095 -0.0053
8 -1 7 4.0892 -0.0040
8 -1 8 -2.2927 0.0090
8 -1 9 0.5098 -0.0050
8 -1 10 0.4024 -0.0081
8 0 0 8.4989 -0.0076
8 0 1 -6.9111 0.0073
8 0 2 4.3618 0.0002
8 0 3 -1.4357 -0.0043
8 0 4 -1.3984 -0.0021
8 0 5 3.6906 0.0092
8 0 6 -5.0938 -0.0056
8 0 7 5.4055 -0.0050
8 0 8 -4.4976 0.0106
8 0 9 2.6061 -0.0052
8 0 10 -0.6563 -0.0088
8 0 11 -0.3328 0.0241
8 1 0 8.7904 -0.0040
8 1 1 -8.7836 0.0078
8 1 2 7.1603 -0.0034
8 1 3 -4.6302 -0.0016
8 1 4 1.7259 -0.0020
8 1 5 1.1712 0.0085
8 1 6 -3.5402 -0.0057
8 1 7 4.8891 -0.0049
8 1 8 -4.9772 0.0097
8 1 9 3.8158 -0.0022
8 1 10 -1.8754 -0.0103
8 2 0 7.0484 0.0013
8 2 1 -9.0459 0.0060
8 2 2 9.0345 -0.0053
8 2 3 -7.3913 -0.0007
8 2 4 4.9128 -0.0001
8 2 5 -2.0373 0.0076
8 2 6 -0.8827 -0.0085
8 2 7 3.1544 -0.0010
8 2 8 -4.1392 0.0075
8 2 9 3.7682 -0.0007
8 3 0 3.0655 0.0024
8 3 1 -6.6278 0.0030
8 3 2 8.7959 -0.0061
8 3 3 -8.8981 0.0012
8 3 4 7.4333 0.0017
8 3 5 -5.1910 0.0037
8 3 6 2.4508 -0.0067
8 3 7 0.4538 -0.0005
8 3 8 -2.6089 0.0071
8 3 9 3.2499 -0.0004
8 4 0 -1.9840 -0.0018
8 4 1 -1.7490 0.0020
8 4 2 5.4804 -0.0062
8 4 3 -7.9041 0.0044
8 4 4 8.3195 -0.0001
8 4 5 -7.2560 0.0040
8 4 6 5.3641 -0.0085
8 4 7 -2.7311 -0.0013
8 4 8 -0.2266 0.0161
8 4 9 2.2776 -0.0126
8 4 10 -2.5850 -0.0083
8 5 0 -5.7787 -0.0031
8 5 1 2.9504 -0.0007
8 5 2 0.6899 -0.0042
8 5 3 -4.4425 0.0075
8 5 4 6.8989 -0.0017
8 5 5 -7.4237 0.0014
8 5 6 6.5773 -0.0130
8 5 7 -4.8763 0.0138
8 5 8 2.3399 0.0092
8 5 9 0.4096 -0.0283
8 5 10 -1.9543 0.0162
8 5 11 1.7063 0.0114
8 6 0 -7.3041 -0.0040
8 6 1 5.3795 -0.0042
8 6 2 -2.6515 0.0039
8 6 3 -0.7370 0.0071
8 6 4 3.9352 -0.0077
8 6 5 -5.6915 -0.0031
8 6 6 5.7202 -0.0007
8 6 7 -4.7663 0.0199
8 6 8 3.2951 -0.0198
8 6 9 -1.3089 -0.0089
8 7 0 -7.0004 -0.0028
8 7 1 6.0782 -0.0005
8 7 2 -4.0627 0.0095
8 7 3 1.5113 -0.0022
8 7 4 1.1305 -0.0124
8 7 5 -3.0788 0.0077
8 7 6 3.6148 0.0075
8 7 7 -3.0219 -0.0009
8 8 1 5.4117 0.0008
8 8 2 -4.4611 0.0033
9 -2 0 4.3988 -0.0208
9 -2 1 -3.1524 0.0063
9 -2 2 1.2438 0.0124
9 -1 0 5.9373 -0.0062
9 -1 1 -5.4450 0.0054
9 -1 2 3.9740 0.0107
9 -1 3 -1.8079 -0.0160
9 -1 4 -0.3991 0.0029
9 -1 5 2.1363 0.0084
9 -1 6 -3.1684 -0.0052
9 0 0 5.9645 0.0017
9 0 1 -6.4020 0.0036
9 0 2 5.9838 0.0051
9 0 3 -4.5754 -0.0138
9 0 4 2.3544 0.0057
9 0 5 0.0598 0.0079
9 0 6 -2.0881 -0.0070
9 0 7 3.3251 -0.0054
9 0 8 -3.3898 0.0123
9 0 9 2.3108 -0.0078
9 1 0 4.5749 0.0022
9 1 1 -6.1353 0.0054
9 1 2 6.7018 -0.0020
9 1 3 -6.4063 -0.0072
9 1 4 5.0014 0.0048
9 1 5 -2.6429 0.0062
9 1 6 0.0990 -0.0068
9 1 7 1.8443 -0.0059
9 1 8 -2.7202 0.0137
9 1 9 2.3830 -0.0060
9 2 0 1.5222 0.0033
9 2 1 -4.5695 0.0066
9 2 2 6.2737 -0.0061
9 2 3 -6.9380 -0.0038
9 2 4 6.5847 0.0049
9 2 5 -4.9799 0.0050
9 2 6 2.4693 -0.0076
9 2 7 -0.0680 -0.0042
9 2 8 -1.3380 0.0140
9 3 0 -2.5728 0.0030
9 3 1 -1.1146 0.0062
9 3 2 4.1422 -0.0081
9 3 3 -6.0110 -0.0040
9 3 4 6.7304 0.0091
9 3 5 -6.2257 0.0019
9 3 6 4.4447 -0.0082
9 3 7 -1.9731 -0.0032
9 4 0 -5.4664 -0.0000
9 4 1 2.9460 0.0043
9 4 2 0.3043 -0.0103
9 4 3 -3.3273 -0.0021
9 4 4 5.3154 0.0152
9 4 5 -5.9934 -0.0040
9 4 6 5.3608 -0.0129
9 4 7 -3.5900 0.0035
9 5 0 -5.9402 -0.0067
9 5 1 5.0504 -0.0020
9 5 2 -3.0182 -0.0070
9 5 3 0.0718 0.0048
9 5 4 2.7244 0.0156
9 5 5 -4.3739 -0.0174
9 5 6 4.6923 -0.0103
9 5 7 -3.9498 0.0225
9 5 8 2.4373 0.0045
9 6 0 -4.9341 -0.0220
9 6 1 4.8062 -0.0031
9 6 2 -3.9587 0.0067
9 6 3 2.1286 0.0060
9 6 4 0.2957 0.0020
9 6 5 -2.2027 -0.0223
9 6 6 2.8974 0.0113
9 6 7 -2.6662 0.0227
10 2 2 1.3566 -0.0037
10 2 3 -2.3271 0.0050
10 2 4 2.9161 -0.0065
10 2 5 -2.6114 0.0129
10 2 6 1.5597 -0.0135
10 3 0 -3.7835 0.0265
10 3 1 1.7784 -0.0089
10 3 2 -0.1218 -0.0043
10 3 3 -1.2074 0.0001
10 3 4 2.2297 0.0019
10 3 5 -2.5550 0.0094
10 4 0 -4.2167 0.0252
10 4 1 3.3029 -0.0111
10 4 2 -1.9667 -0.0074
10 4 3 0.4795 -0.0003
10 4 4 0.8759 0.0151
10 5 0 -2.7095 0.0116
10 5 1 2.8134 -0.0150
10 5 2 -2.4960 -0.0051
10 5 3 1.6161 0.0076
0 0 0 0.0 0.0
;
_shelx_fab_checksum              93863
_olex2_submission_special_instructions 'No special instructions were received'
_oxdiff_exptl_absorpt_empirical_details
;
Empirical correction (ABSPACK) includes:
- Absorption correction using spherical harmonics
- Frame scaling
;
_oxdiff_exptl_absorpt_empirical_full_max 1.304
_oxdiff_exptl_absorpt_empirical_full_min 0.763
loop_
_space_group_symop_operation_xyz
'x, y, z'
'-x, -y, -z'
loop_
_atom_site_label
_atom_site_type_symbol
_atom_site_fract_x
_atom_site_fract_y
_atom_site_fract_z
_atom_site_U_iso_or_equiv
_atom_site_adp_type
_atom_site_occupancy
_atom_site_site_symmetry_order
_atom_site_calc_flag
_atom_site_refinement_flags_posn
_atom_site_refinement_flags_adp
_atom_site_refinement_flags_occupancy
_atom_site_disorder_assembly
_atom_site_disorder_group
S1 S 0.44050(9) -0.02001(7) 0.82496(5) 0.01389(17) Uani 1 1 d . . . . .
O2 O 0.5313(2) 0.3200(2) 0.87100(15) 0.0183(4) Uani 1 1 d . . . . .
O5 O 0.3816(3) -0.0644(2) 0.92841(15) 0.0194(4) Uani 1 1 d . . . . .
O6 O 0.4078(3) -0.1073(2) 0.74048(15) 0.0205(4) Uani 1 1 d . . . . .
O1 O 0.0238(2) 0.1236(2) 0.78032(15) 0.0202(4) Uani 1 1 d . . . . .
O4 O 0.4499(3) 0.2168(2) 0.50688(15) 0.0232(5) Uani 1 1 d . . . . .
O3 O 0.1791(3) 0.4534(2) 0.73403(16) 0.0253(5) Uani 1 1 d . . . . .
C1 C 0.1051(4) 0.2330(3) 0.9348(2) 0.0143(6) Uani 1 1 d . . . . .
C11 C 0.2586(3) 0.3830(3) 0.6633(2) 0.0152(6) Uani 1 1 d . . . . .
C6 C 0.2523(4) 0.2961(3) 0.9595(2) 0.0137(6) Uani 1 1 d . . . . .
C12 C 0.2667(4) 0.4419(3) 0.5546(2) 0.0163(6) Uani 1 1 d . . . . .
C7 C 0.3923(4) 0.2722(3) 0.8777(2) 0.0138(6) Uani 1 1 d . . . . .
C14 C 0.3615(3) 0.3573(3) 0.4806(2) 0.0149(6) Uani 1 1 d . . . . .
C10 C 0.3491(3) 0.2312(3) 0.6843(2) 0.0132(6) Uani 1 1 d . . . . .
C2 C -0.0447(4) 0.2416(3) 1.0002(2) 0.0182(6) Uani 1 1 d . . . . .
H2 H -0.142847 0.199221 0.983873 0.022 Uiso 1 1 calc R U . . .
C8 C 0.3299(3) 0.1708(3) 0.7964(2) 0.0128(6) Uani 1 1 d . . . . .
C9 C 0.1320(3) 0.1685(3) 0.8321(2) 0.0140(6) Uani 1 1 d . . . . .
C5 C 0.2536(4) 0.3730(3) 1.0492(2) 0.0174(6) Uani 1 1 d . . . . .
H5 H 0.351037 0.416685 1.064890 0.021 Uiso 1 1 calc R U . . .
C15 C 0.3729(4) 0.4092(3) 0.3756(2) 0.0188(6) Uani 1 1 d . . . . .
H15 H 0.438022 0.350670 0.327007 0.023 Uiso 1 1 calc R U . . .
C3 C -0.0421(4) 0.3161(3) 1.0910(2) 0.0200(6) Uani 1 1 d . . . . .
H3 H -0.139386 0.321817 1.136963 0.024 Uiso 1 1 calc R U . . .
C4 C 0.1037(4) 0.3823(3) 1.1146(2) 0.0196(6) Uani 1 1 d . . . . .
H4 H 0.100490 0.433550 1.175008 0.024 Uiso 1 1 calc R U . . .
C16 C 0.2858(4) 0.5482(3) 0.3460(2) 0.0190(6) Uani 1 1 d . . . . .
H16 H 0.291588 0.584672 0.276444 0.023 Uiso 1 1 calc R U . . .
C13 C 0.4367(4) 0.1593(3) 0.6065(2) 0.0194(6) Uani 1 1 d . . . . .
H13 H 0.492623 0.062425 0.622047 0.023 Uiso 1 1 calc R U . . .
C19 C 0.6684(4) -0.0066(3) 0.8253(2) 0.0199(6) Uani 1 1 d . . . . .
H19A H 0.695587 0.033180 0.889243 0.030 Uiso 1 1 calc R U . . .
H19B H 0.696940 0.057925 0.766800 0.030 Uiso 1 1 calc R U . . .
H19C H 0.736792 -0.103584 0.820179 0.030 Uiso 1 1 calc R U . . .
C18 C 0.1797(5) 0.5837(3) 0.5221(2) 0.0309(8) Uani 1 1 d . . . . .
H18 H 0.115452 0.643138 0.570505 0.037 Uiso 1 1 calc R U . . .
C17 C 0.1887(4) 0.6352(3) 0.4191(2) 0.0292(7) Uani 1 1 d . . . . .
H17 H 0.129449 0.729179 0.397940 0.035 Uiso 1 1 calc R U . . .
loop_
_atom_site_aniso_label
_atom_site_aniso_U_11
_atom_site_aniso_U_22
_atom_site_aniso_U_33
_atom_site_aniso_U_23
_atom_site_aniso_U_13
_atom_site_aniso_U_12
S1 0.0148(3) 0.0128(3) 0.0134(4) 0.0008(3) 0.0012(3) -0.0012(3)
O2 0.0175(10) 0.0222(10) 0.0163(10) -0.0011(8) 0.0002(8) -0.0069(8)
O5 0.0205(10) 0.0191(10) 0.0173(10) 0.0043(8) 0.0031(8) -0.0025(8)
O6 0.0256(11) 0.0148(9) 0.0212(11) -0.0037(8) 0.0000(9) -0.0023(8)
O1 0.0170(10) 0.0276(11) 0.0174(11) -0.0058(9) -0.0008(8) -0.0061(8)
O4 0.0358(12) 0.0188(10) 0.0109(10) 0.0009(8) 0.0058(9) 0.0067(9)
O3 0.0347(12) 0.0208(10) 0.0160(11) -0.0017(8) 0.0070(9) 0.0077(9)
C1 0.0171(14) 0.0135(13) 0.0111(14) 0.0010(10) -0.0014(11) 0.0003(11)
C11 0.0148(13) 0.0170(13) 0.0142(14) -0.0028(11) 0.0003(11) -0.0031(11)
C6 0.0181(14) 0.0112(12) 0.0108(14) 0.0034(10) 0.0008(11) -0.0015(11)
C12 0.0164(14) 0.0168(13) 0.0154(15) 0.0006(11) -0.0009(11) -0.0025(11)
C7 0.0174(14) 0.0132(13) 0.0101(14) 0.0016(10) -0.0015(11) -0.0011(11)
C14 0.0151(13) 0.0136(13) 0.0160(15) 0.0009(11) -0.0022(11) -0.0030(11)
C10 0.0126(13) 0.0155(13) 0.0121(14) 0.0001(11) -0.0007(10) -0.0045(11)
C2 0.0167(14) 0.0216(14) 0.0154(15) 0.0003(11) 0.0006(11) -0.0011(12)
C8 0.0132(13) 0.0126(12) 0.0126(14) -0.0005(10) 0.0001(10) -0.0017(10)
C9 0.0143(13) 0.0120(13) 0.0146(14) 0.0013(11) 0.0010(11) -0.0004(11)
C5 0.0222(15) 0.0157(13) 0.0140(14) 0.0002(11) -0.0011(11) -0.0029(11)
C15 0.0202(14) 0.0234(15) 0.0128(14) -0.0040(11) 0.0037(11) -0.0034(12)
C3 0.0203(15) 0.0217(14) 0.0155(15) 0.0004(12) 0.0058(12) 0.0031(12)
C4 0.0284(16) 0.0174(14) 0.0116(14) -0.0042(11) 0.0000(12) 0.0025(12)
C16 0.0219(15) 0.0234(15) 0.0136(15) 0.0040(12) -0.0027(12) -0.0106(12)
C13 0.0256(15) 0.0178(14) 0.0125(14) 0.0026(11) 0.0014(12) 0.0025(12)
C19 0.0149(14) 0.0245(15) 0.0188(15) 0.0025(12) 0.0016(11) -0.0005(12)
C18 0.043(2) 0.0242(16) 0.0199(17) 0.0009(13) 0.0068(14) 0.0105(15)
C17 0.0388(19) 0.0201(15) 0.0241(17) 0.0056(13) 0.0021(14) 0.0066(14)
loop_
_atom_type_symbol
_atom_type_description
_atom_type_scat_dispersion_real
_atom_type_scat_dispersion_imag
_atom_type_scat_source
C C 0.0033 0.0016 'International Tables Vol C Tables 4.2.6.8 and 6.1.1.4'
H H 0.0000 0.0000 'International Tables Vol C Tables 4.2.6.8 and 6.1.1.4'
O O 0.0106 0.0060 'International Tables Vol C Tables 4.2.6.8 and 6.1.1.4'
S S 0.1246 0.1234 'International Tables Vol C Tables 4.2.6.8 and 6.1.1.4'
loop_
_geom_angle_atom_site_label_1
_geom_angle_atom_site_label_2
_geom_angle_atom_site_label_3
_geom_angle
_geom_angle_site_symmetry_1
_geom_angle_site_symmetry_3
_geom_angle_publ_flag
O5 S1 O6 117.90(12) . . ?
O5 S1 C8 106.16(12) . . ?
O5 S1 C19 109.83(13) . . ?
O6 S1 C8 108.33(11) . . ?
O6 S1 C19 109.02(13) . . ?
C19 S1 C8 104.77(13) . . ?
C13 O4 C14 118.7(2) . . ?
C6 C1 C9 110.6(2) . . ?
C2 C1 C6 121.3(3) . . ?
C2 C1 C9 128.1(3) . . ?
O3 C11 C12 123.6(2) . . ?
O3 C11 C10 121.0(2) . . ?
C10 C11 C12 115.4(2) . . ?
C1 C6 C7 110.6(2) . . ?
C5 C6 C1 121.3(3) . . ?
C5 C6 C7 128.0(3) . . ?
C14 C12 C11 120.1(2) . . ?
C14 C12 C18 118.2(3) . . ?
C18 C12 C11 121.7(3) . . ?
O2 C7 C6 127.9(2) . . ?
O2 C7 C8 124.2(2) . . ?
C6 C7 C8 107.9(2) . . ?
O4 C14 C12 121.4(2) . . ?
O4 C14 C15 116.5(2) . . ?
C12 C14 C15 122.1(2) . . ?
C11 C10 C8 114.0(2) . . ?
C13 C10 C11 119.4(2) . . ?
C13 C10 C8 126.6(2) . . ?
C1 C2 H2 121.3 . . ?
C3 C2 C1 117.4(3) . . ?
C3 C2 H2 121.3 . . ?
C7 C8 S1 108.43(17) . . ?
C10 C8 S1 115.02(18) . . ?
C10 C8 C7 112.9(2) . . ?
C10 C8 C9 113.1(2) . . ?
C9 C8 S1 104.67(17) . . ?
C9 C8 C7 101.6(2) . . ?
O1 C9 C1 128.1(3) . . ?
O1 C9 C8 123.9(2) . . ?
C1 C9 C8 107.9(2) . . ?
C6 C5 H5 121.2 . . ?
C6 C5 C4 117.5(3) . . ?
C4 C5 H5 121.2 . . ?
C14 C15 H15 120.8 . . ?
C16 C15 C14 118.4(3) . . ?
C16 C15 H15 120.8 . . ?
C2 C3 H3 119.3 . . ?
C2 C3 C4 121.4(3) . . ?
C4 C3 H3 119.3 . . ?
C5 C4 C3 121.1(3) . . ?
C5 C4 H4 119.5 . . ?
C3 C4 H4 119.5 . . ?
C15 C16 H16 119.7 . . ?
C15 C16 C17 120.5(3) . . ?
C17 C16 H16 119.7 . . ?
O4 C13 H13 117.6 . . ?
C10 C13 O4 124.9(2) . . ?
C10 C13 H13 117.6 . . ?
S1 C19 H19A 109.5 . . ?
S1 C19 H19B 109.5 . . ?
S1 C19 H19C 109.5 . . ?
H19A C19 H19B 109.5 . . ?
H19A C19 H19C 109.5 . . ?
H19B C19 H19C 109.5 . . ?
C12 C18 H18 119.9 . . ?
C17 C18 C12 120.2(3) . . ?
C17 C18 H18 119.9 . . ?
C16 C17 H17 119.7 . . ?
C18 C17 C16 120.5(3) . . ?
C18 C17 H17 119.7 . . ?
loop_
_geom_bond_atom_site_label_1
_geom_bond_atom_site_label_2
_geom_bond_distance
_geom_bond_site_symmetry_2
_geom_bond_publ_flag
S1 O5 1.436(2) . ?
S1 O6 1.439(2) . ?
S1 C8 1.829(3) . ?
S1 C19 1.761(3) . ?
O2 C7 1.206(3) . ?
O1 C9 1.211(3) . ?
O4 C14 1.376(3) . ?
O4 C13 1.350(3) . ?
O3 C11 1.236(3) . ?
C1 C6 1.393(4) . ?
C1 C2 1.390(4) . ?
C1 C9 1.476(4) . ?
C11 C12 1.458(4) . ?
C11 C10 1.457(4) . ?
C6 C7 1.475(4) . ?
C6 C5 1.390(4) . ?
C12 C14 1.380(4) . ?
C12 C18 1.400(4) . ?
C7 C8 1.573(4) . ?
C14 C15 1.397(4) . ?
C10 C8 1.511(4) . ?
C10 C13 1.337(4) . ?
C2 H2 0.9300 . ?
C2 C3 1.390(4) . ?
C8 C9 1.565(4) . ?
C5 H5 0.9300 . ?
C5 C4 1.391(4) . ?
C15 H15 0.9300 . ?
C15 C16 1.370(4) . ?
C3 H3 0.9300 . ?
C3 C4 1.396(4) . ?
C4 H4 0.9300 . ?
C16 H16 0.9300 . ?
C16 C17 1.391(4) . ?
C13 H13 0.9300 . ?
C19 H19A 0.9600 . ?
C19 H19B 0.9600 . ?
C19 H19C 0.9600 . ?
C18 H18 0.9300 . ?
C18 C17 1.371(4) . ?
C17 H17 0.9300 . ?
loop_
_geom_torsion_atom_site_label_1
_geom_torsion_atom_site_label_2
_geom_torsion_atom_site_label_3
_geom_torsion_atom_site_label_4
_geom_torsion
_geom_torsion_site_symmetry_1
_geom_torsion_site_symmetry_2
_geom_torsion_site_symmetry_3
_geom_torsion_site_symmetry_4
_geom_torsion_publ_flag
S1 C8 C9 O1 -80.2(3) . . . . ?
S1 C8 C9 C1 101.4(2) . . . . ?
O2 C7 C8 S1 80.2(3) . . . . ?
O2 C7 C8 C10 -48.5(3) . . . . ?
O2 C7 C8 C9 -169.9(2) . . . . ?
O5 S1 C8 C7 62.3(2) . . . . ?
O5 S1 C8 C10 -170.32(18) . . . . ?
O5 S1 C8 C9 -45.61(19) . . . . ?
O6 S1 C8 C7 -170.21(17) . . . . ?
O6 S1 C8 C10 -42.8(2) . . . . ?
O6 S1 C8 C9 81.93(19) . . . . ?
O4 C14 C15 C16 179.6(2) . . . . ?
O3 C11 C12 C14 178.7(3) . . . . ?
O3 C11 C12 C18 -1.5(4) . . . . ?
O3 C11 C10 C8 1.9(4) . . . . ?
O3 C11 C10 C13 -178.8(3) . . . . ?
C1 C6 C7 O2 174.8(3) . . . . ?
C1 C6 C7 C8 -4.9(3) . . . . ?
C1 C6 C5 C4 1.2(4) . . . . ?
C1 C2 C3 C4 1.3(4) . . . . ?
C11 C12 C14 O4 0.0(4) . . . . ?
C11 C12 C14 C15 180.0(2) . . . . ?
C11 C12 C18 C17 -179.4(3) . . . . ?
C11 C10 C8 S1 179.53(18) . . . . ?
C11 C10 C8 C7 -55.3(3) . . . . ?
C11 C10 C8 C9 59.3(3) . . . . ?
C11 C10 C13 O4 0.3(4) . . . . ?
C6 C1 C2 C3 0.2(4) . . . . ?
C6 C1 C9 O1 -169.0(3) . . . . ?
C6 C1 C9 C8 9.3(3) . . . . ?
C6 C7 C8 S1 -100.1(2) . . . . ?
C6 C7 C8 C10 131.2(2) . . . . ?
C6 C7 C8 C9 9.8(2) . . . . ?
C6 C5 C4 C3 0.3(4) . . . . ?
C12 C11 C10 C8 -176.9(2) . . . . ?
C12 C11 C10 C13 2.4(4) . . . . ?
C12 C14 C15 C16 -0.4(4) . . . . ?
C12 C18 C17 C16 -0.7(5) . . . . ?
C7 C6 C5 C4 179.2(2) . . . . ?
C7 C8 C9 O1 167.0(2) . . . . ?
C7 C8 C9 C1 -11.4(2) . . . . ?
C14 O4 C13 C10 -3.0(4) . . . . ?
C14 C12 C18 C17 0.4(5) . . . . ?
C14 C15 C16 C17 0.1(4) . . . . ?
C10 C11 C12 C14 -2.5(4) . . . . ?
C10 C11 C12 C18 177.3(3) . . . . ?
C10 C8 C9 O1 45.8(3) . . . . ?
C10 C8 C9 C1 -132.6(2) . . . . ?
C2 C1 C6 C7 -179.8(2) . . . . ?
C2 C1 C6 C5 -1.5(4) . . . . ?
C2 C1 C9 O1 7.8(4) . . . . ?
C2 C1 C9 C8 -173.9(2) . . . . ?
C2 C3 C4 C5 -1.6(4) . . . . ?
C8 C10 C13 O4 179.5(2) . . . . ?
C9 C1 C6 C7 -2.8(3) . . . . ?
C9 C1 C6 C5 175.5(2) . . . . ?
C9 C1 C2 C3 -176.2(2) . . . . ?
C5 C6 C7 O2 -3.4(4) . . . . ?
C5 C6 C7 C8 177.0(2) . . . . ?
C15 C16 C17 C18 0.4(5) . . . . ?
C13 O4 C14 C12 2.8(4) . . . . ?
C13 O4 C14 C15 -177.2(2) . . . . ?
C13 C10 C8 S1 0.3(4) . . . . ?
C13 C10 C8 C7 125.4(3) . . . . ?
C13 C10 C8 C9 -119.9(3) . . . . ?
C19 S1 C8 C7 -54.0(2) . . . . ?
C19 S1 C8 C10 73.5(2) . . . . ?
C19 S1 C8 C9 -161.82(17) . . . . ?
C18 C12 C14 O4 -179.8(3) . . . . ?
C18 C12 C14 C15 0.2(4) . . . . ?
loop_
_smtbx_masks_void_nr
_smtbx_masks_void_average_x
_smtbx_masks_void_average_y
_smtbx_masks_void_average_z
_smtbx_masks_void_volume
_smtbx_masks_void_count_electrons
_smtbx_masks_void_content
1 0.000 0.000 0.500 114.7 40.2 ?
